# DDEC6 charges by PACMAN v1.1 (https://github.com/mtap-research/PACMAN-charge/)
data_FEWWUB_FSR_pacman
_symmetry_space_group_name_H-M   'P 1'
_cell_length_a   27.79770000
_cell_length_b   27.79770000
_cell_length_c   27.79770000
_cell_angle_alpha   109.47100000
_cell_angle_beta   109.47100000
_cell_angle_gamma   109.47100000
_symmetry_Int_Tables_number   1
_chemical_formula_structural   FeH24C33S3N10O
_chemical_formula_sum   'Fe12 H288 C396 S36 N120 O12'
_cell_volume   16535.15413577
_cell_formula_units_Z   12
loop_
 _symmetry_equiv_pos_site_id
 _symmetry_equiv_pos_as_xyz
  1  'x, y, z'
loop_
 _atom_site_type_symbol
 _atom_site_label
 _atom_site_symmetry_multiplicity
 _atom_site_fract_x
 _atom_site_fract_y
 _atom_site_fract_z
 _atom_site_occupancy
 _atom_site_charge
Fe  Fe1  1  0.49446000  0.21835000  0.28353000  1.0 0.6579737758
Fe  Fe2  1  0.93482000  0.21093000  0.71647000  1.0 0.6579737758
Fe  Fe3  1  0.06518000  0.78165000  0.27611000  1.0 0.6579737758
Fe  Fe4  1  0.50554000  0.78907000  0.72389000  1.0 0.6579737758
Fe  Fe5  1  0.28353000  0.49446000  0.21835000  1.0 0.6579737758
Fe  Fe6  1  0.71647000  0.93482000  0.21093000  1.0 0.6579737758
Fe  Fe7  1  0.27611000  0.06518000  0.78165000  1.0 0.6579737758
Fe  Fe8  1  0.72389000  0.50554000  0.78907000  1.0 0.6579737758
Fe  Fe9  1  0.21835000  0.28353000  0.49446000  1.0 0.6579737758
Fe  Fe10  1  0.21093000  0.71647000  0.93482000  1.0 0.6579737758
Fe  Fe11  1  0.78165000  0.27611000  0.06518000  1.0 0.6579737758
Fe  Fe12  1  0.78907000  0.72389000  0.50554000  1.0 0.6579737758
H  H1  1  0.50560000  0.12050000  0.31250000  1.0 0.1024616622
H  H2  1  0.80800000  0.19310000  0.68750000  1.0 0.1024616622
H  H3  1  0.19200000  0.87950000  0.38510000  1.0 0.1024616622
H  H4  1  0.49440000  0.80690000  0.61490000  1.0 0.1024616622
H  H5  1  0.31250000  0.50560000  0.12050000  1.0 0.1024616622
H  H6  1  0.68750000  0.80800000  0.19310000  1.0 0.1024616622
H  H7  1  0.38510000  0.19200000  0.87950000  1.0 0.1024616622
H  H8  1  0.61490000  0.49440000  0.80690000  1.0 0.1024616622
H  H9  1  0.12050000  0.31250000  0.50560000  1.0 0.1024616622
H  H10  1  0.19310000  0.68750000  0.80800000  1.0 0.1024616622
H  H11  1  0.87950000  0.38510000  0.19200000  1.0 0.1024616622
H  H12  1  0.80690000  0.61490000  0.49440000  1.0 0.1024616622
H  H13  1  0.54320000  0.05970000  0.29870000  1.0 0.1352675167
H  H14  1  0.76100000  0.24450000  0.70130000  1.0 0.1352675167
H  H15  1  0.23900000  0.94030000  0.48350000  1.0 0.1352675167
H  H16  1  0.45680000  0.75550000  0.51650000  1.0 0.1352675167
H  H17  1  0.29870000  0.54320000  0.05970000  1.0 0.1352675167
H  H18  1  0.70130000  0.76100000  0.24450000  1.0 0.1352675167
H  H19  1  0.48350000  0.23900000  0.94030000  1.0 0.1352675167
H  H20  1  0.51650000  0.45680000  0.75550000  1.0 0.1352675167
H  H21  1  0.05970000  0.29870000  0.54320000  1.0 0.1352675167
H  H22  1  0.24450000  0.70130000  0.76100000  1.0 0.1352675167
H  H23  1  0.94030000  0.48350000  0.23900000  1.0 0.1352675167
H  H24  1  0.75550000  0.51650000  0.45680000  1.0 0.1352675167
H  H25  1  0.60510000  0.06840000  0.25810000  1.0 0.1024616622
H  H26  1  0.81030000  0.34700000  0.74190000  1.0 0.108391096
H  H27  1  0.18970000  0.93160000  0.53670000  1.0 0.1024616622
H  H28  1  0.39490000  0.65300000  0.46330000  1.0 0.1024616622
H  H29  1  0.25810000  0.60510000  0.06840000  1.0 0.1024616622
H  H30  1  0.74190000  0.81030000  0.34700000  1.0 0.1024616622
H  H31  1  0.53670000  0.18970000  0.93160000  1.0 0.1024616622
H  H32  1  0.46330000  0.39490000  0.65300000  1.0 0.1024616622
H  H33  1  0.06840000  0.25810000  0.60510000  1.0 0.1024616622
H  H34  1  0.34700000  0.74190000  0.81030000  1.0 0.1024616622
H  H35  1  0.93160000  0.53670000  0.18970000  1.0 0.1024616622
H  H36  1  0.65300000  0.46330000  0.39490000  1.0 0.1024616622
H  H37  1  0.57590000  0.19530000  0.23700000  1.0 0.108391096
H  H38  1  0.95830000  0.33890000  0.76300000  1.0 0.108391096
H  H39  1  0.04170000  0.80470000  0.38060000  1.0 0.108391096
H  H40  1  0.42410000  0.66110000  0.61940000  1.0 0.108391096
H  H41  1  0.23700000  0.57590000  0.19530000  1.0 0.108391096
H  H42  1  0.76300000  0.95830000  0.33890000  1.0 0.108391096
H  H43  1  0.38060000  0.04170000  0.80470000  1.0 0.108391096
H  H44  1  0.61940000  0.42410000  0.66110000  1.0 0.108391096
H  H45  1  0.19530000  0.23700000  0.57590000  1.0 0.108391096
H  H46  1  0.33890000  0.76300000  0.95830000  1.0 0.108391096
H  H47  1  0.80470000  0.38060000  0.04170000  1.0 0.108391096
H  H48  1  0.66110000  0.61940000  0.42410000  1.0 0.108391096
H  H49  1  0.74350000  0.95290000  0.11400000  1.0 0.1024616622
H  H50  1  0.83890000  0.62950000  0.88600000  1.0 0.1024616622
H  H51  1  0.16110000  0.04710000  0.79060000  1.0 0.1024616622
H  H52  1  0.25650000  0.37050000  0.20940000  1.0 0.1024616622
H  H53  1  0.11400000  0.74350000  0.95290000  1.0 0.1024616622
H  H54  1  0.88600000  0.83890000  0.62950000  1.0 0.1024616622
H  H55  1  0.79060000  0.16110000  0.04710000  1.0 0.1024616622
H  H56  1  0.20940000  0.25650000  0.37050000  1.0 0.1024616622
H  H57  1  0.95290000  0.11400000  0.74350000  1.0 0.1024616622
H  H58  1  0.62950000  0.88600000  0.83890000  1.0 0.1024616622
H  H59  1  0.04710000  0.79060000  0.16110000  1.0 0.1024616622
H  H60  1  0.37050000  0.20940000  0.25650000  1.0 0.1024616622
H  H61  1  0.74990000  0.01140000  0.07110000  1.0 0.1180498948
H  H62  1  0.94030000  0.67880000  0.92890000  1.0 0.1180498948
H  H63  1  0.05970000  0.98860000  0.73850000  1.0 0.1180498948
H  H64  1  0.25010000  0.32120000  0.26150000  1.0 0.1180498948
H  H65  1  0.07110000  0.74990000  0.01140000  1.0 0.1180498948
H  H66  1  0.92890000  0.94030000  0.67880000  1.0 0.1180498948
H  H67  1  0.73850000  0.05970000  0.98860000  1.0 0.1180498948
H  H68  1  0.26150000  0.25010000  0.32120000  1.0 0.1180498948
H  H69  1  0.01140000  0.07110000  0.74990000  1.0 0.1180498948
H  H70  1  0.67880000  0.92890000  0.94030000  1.0 0.1180498948
H  H71  1  0.98860000  0.73850000  0.05970000  1.0 0.1180498948
H  H72  1  0.32120000  0.26150000  0.25010000  1.0 0.1180498948
H  H73  1  0.72340000  0.08600000  0.10020000  1.0 0.1180498948
H  H74  1  0.98580000  0.62320000  0.89980000  1.0 0.1180498948
H  H75  1  0.01420000  0.91400000  0.63740000  1.0 0.1180498948
H  H76  1  0.27660000  0.37680000  0.36260000  1.0 0.1180498948
H  H77  1  0.10020000  0.72340000  0.08600000  1.0 0.1180498948
H  H78  1  0.89980000  0.98580000  0.62320000  1.0 0.1180498948
H  H79  1  0.63740000  0.01420000  0.91400000  1.0 0.1180498948
H  H80  1  0.36260000  0.27660000  0.37680000  1.0 0.1180498948
H  H81  1  0.08600000  0.10020000  0.72340000  1.0 0.1180498948
H  H82  1  0.62320000  0.89980000  0.98580000  1.0 0.1180498948
H  H83  1  0.91400000  0.63740000  0.01420000  1.0 0.1180498948
H  H84  1  0.37680000  0.36260000  0.27660000  1.0 0.1180498948
H  H85  1  0.67190000  0.02100000  0.19430000  1.0 0.1024616622
H  H86  1  0.82670000  0.47760000  0.80570000  1.0 0.1024616622
H  H87  1  0.17330000  0.97900000  0.65090000  1.0 0.1024616622
H  H88  1  0.32810000  0.52240000  0.34910000  1.0 0.1024616622
H  H89  1  0.19430000  0.67190000  0.02100000  1.0 0.1024616622
H  H90  1  0.80570000  0.82670000  0.47760000  1.0 0.1024616622
H  H91  1  0.65090000  0.17330000  0.97900000  1.0 0.1024616622
H  H92  1  0.34910000  0.32810000  0.52240000  1.0 0.1024616622
H  H93  1  0.02100000  0.19430000  0.67190000  1.0 0.1024616622
H  H94  1  0.47760000  0.80570000  0.82670000  1.0 0.1024616622
H  H95  1  0.97900000  0.65090000  0.17330000  1.0 0.1024616622
H  H96  1  0.52240000  0.34910000  0.32810000  1.0 0.1024616622
H  H97  1  0.73840000  0.21230000  0.12690000  1.0 0.1024616622
H  H98  1  0.08540000  0.61150000  0.87310000  1.0 0.1024616622
H  H99  1  0.91460000  0.78770000  0.52610000  1.0 0.1024616622
H  H100  1  0.26160000  0.38850000  0.47390000  1.0 0.1024616622
H  H101  1  0.12690000  0.73840000  0.21230000  1.0 0.1024616622
H  H102  1  0.87310000  0.08540000  0.61150000  1.0 0.1024616622
H  H103  1  0.52610000  0.91460000  0.78770000  1.0 0.1024616622
H  H104  1  0.47390000  0.26160000  0.38850000  1.0 0.1024616622
H  H105  1  0.21230000  0.12690000  0.73840000  1.0 0.1024616622
H  H106  1  0.61150000  0.87310000  0.08540000  1.0 0.1024616622
H  H107  1  0.78770000  0.52610000  0.91460000  1.0 0.1024616622
H  H108  1  0.38850000  0.47390000  0.26160000  1.0 0.1024616622
H  H109  1  0.66810000  0.28540000  0.21170000  1.0 0.1024616622
H  H110  1  0.07370000  0.45640000  0.78830000  1.0 0.1024616622
H  H111  1  0.92630000  0.71460000  0.38270000  1.0 0.1024616622
H  H112  1  0.33190000  0.54360000  0.61730000  1.0 0.1024616622
H  H113  1  0.21170000  0.66810000  0.28540000  1.0 0.1024616622
H  H114  1  0.78830000  0.07370000  0.45640000  1.0 0.1024616622
H  H115  1  0.38270000  0.92630000  0.71460000  1.0 0.1024616622
H  H116  1  0.61730000  0.33190000  0.54360000  1.0 0.1024616622
H  H117  1  0.28540000  0.21170000  0.66810000  1.0 0.1024616622
H  H118  1  0.45640000  0.78830000  0.07370000  1.0 0.1024616622
H  H119  1  0.71460000  0.38270000  0.92630000  1.0 0.1024616622
H  H120  1  0.54360000  0.61730000  0.33190000  1.0 0.1024616622
H  H121  1  0.71060000  0.36860000  0.20260000  1.0 0.130009845
H  H122  1  0.16600000  0.50800000  0.79740000  1.0 0.130009845
H  H123  1  0.83400000  0.63140000  0.34200000  1.0 0.130009845
H  H124  1  0.28940000  0.49200000  0.65800000  1.0 0.130009845
H  H125  1  0.20260000  0.71060000  0.36860000  1.0 0.130009845
H  H126  1  0.79740000  0.16600000  0.50800000  1.0 0.130009845
H  H127  1  0.34200000  0.83400000  0.63140000  1.0 0.130009845
H  H128  1  0.65800000  0.28940000  0.49200000  1.0 0.130009845
H  H129  1  0.36860000  0.20260000  0.71060000  1.0 0.130009845
H  H130  1  0.50800000  0.79740000  0.16600000  1.0 0.130009845
H  H131  1  0.63140000  0.34200000  0.83400000  1.0 0.130009845
H  H132  1  0.49200000  0.65800000  0.28940000  1.0 0.130009845
H  H133  1  0.75100000  0.36240000  0.14300000  1.0 0.1024616622
H  H134  1  0.21940000  0.60800000  0.85700000  1.0 0.1024616622
H  H135  1  0.78060000  0.63760000  0.38860000  1.0 0.1024616622
H  H136  1  0.24900000  0.39200000  0.61140000  1.0 0.1024616622
H  H137  1  0.14300000  0.75100000  0.36240000  1.0 0.1024616622
H  H138  1  0.85700000  0.21940000  0.60800000  1.0 0.1024616622
H  H139  1  0.38860000  0.78060000  0.63760000  1.0 0.1024616622
H  H140  1  0.61140000  0.24900000  0.39200000  1.0 0.1024616622
H  H141  1  0.36240000  0.14300000  0.75100000  1.0 0.1024616622
H  H142  1  0.60800000  0.85700000  0.21940000  1.0 0.1024616622
H  H143  1  0.63760000  0.38860000  0.78060000  1.0 0.1024616622
H  H144  1  0.39200000  0.61140000  0.24900000  1.0 0.1024616622
H  H145  1  0.47800000  0.27300000  0.20020000  1.0 0.0901927304
H  H146  1  0.07280000  0.27780000  0.79980000  1.0 0.0901927304
H  H147  1  0.92720000  0.72700000  0.20500000  1.0 0.0901927304
H  H148  1  0.52200000  0.72220000  0.79500000  1.0 0.0901927304
H  H149  1  0.20020000  0.47800000  0.27300000  1.0 0.0901927304
H  H150  1  0.79980000  0.07280000  0.27780000  1.0 0.0901927304
H  H151  1  0.20500000  0.92720000  0.72700000  1.0 0.0901927304
H  H152  1  0.79500000  0.52200000  0.72220000  1.0 0.0901927304
H  H153  1  0.27300000  0.20020000  0.47800000  1.0 0.0901927304
H  H154  1  0.27780000  0.79980000  0.07280000  1.0 0.0901927304
H  H155  1  0.72700000  0.20500000  0.92720000  1.0 0.0901927304
H  H156  1  0.72220000  0.79500000  0.52200000  1.0 0.0901927304
H  H157  1  0.43220000  0.24850000  0.10370000  1.0 0.130009845
H  H158  1  0.14480000  0.32850000  0.89630000  1.0 0.130009845
H  H159  1  0.85520000  0.75150000  0.18370000  1.0 0.130009845
H  H160  1  0.56780000  0.67150000  0.81630000  1.0 0.130009845
H  H161  1  0.10370000  0.43220000  0.24850000  1.0 0.130009845
H  H162  1  0.89630000  0.14480000  0.32850000  1.0 0.130009845
H  H163  1  0.18370000  0.85520000  0.75150000  1.0 0.130009845
H  H164  1  0.81630000  0.56780000  0.67150000  1.0 0.130009845
H  H165  1  0.24850000  0.10370000  0.43220000  1.0 0.130009845
H  H166  1  0.32850000  0.89630000  0.14480000  1.0 0.130009845
H  H167  1  0.75150000  0.18370000  0.85520000  1.0 0.130009845
H  H168  1  0.67150000  0.81630000  0.56780000  1.0 0.130009845
H  H169  1  0.37770000  0.15120000  0.03030000  1.0 0.1180498948
H  H170  1  0.12090000  0.34740000  0.96970000  1.0 0.1180498948
H  H171  1  0.87910000  0.84880000  0.22650000  1.0 0.1180498948
H  H172  1  0.62230000  0.65260000  0.77350000  1.0 0.1180498948
H  H173  1  0.03030000  0.37770000  0.15120000  1.0 0.1180498948
H  H174  1  0.96970000  0.12090000  0.34740000  1.0 0.1180498948
H  H175  1  0.22650000  0.87910000  0.84880000  1.0 0.1180498948
H  H176  1  0.77350000  0.62230000  0.65260000  1.0 0.1180498948
H  H177  1  0.15120000  0.03030000  0.37770000  1.0 0.1180498948
H  H178  1  0.34740000  0.96970000  0.12090000  1.0 0.1180498948
H  H179  1  0.84880000  0.22650000  0.87910000  1.0 0.1180498948
H  H180  1  0.65260000  0.77350000  0.62230000  1.0 0.1180498948
H  H181  1  0.41740000  0.10580000  0.15420000  1.0 0.1024616622
H  H182  1  0.95160000  0.26320000  0.84580000  1.0 0.1024616622
H  H183  1  0.04840000  0.89420000  0.31160000  1.0 0.1024616622
H  H184  1  0.58260000  0.73680000  0.68840000  1.0 0.1024616622
H  H185  1  0.15420000  0.41740000  0.10580000  1.0 0.1024616622
H  H186  1  0.84580000  0.95160000  0.26320000  1.0 0.1024616622
H  H187  1  0.31160000  0.04840000  0.89420000  1.0 0.1024616622
H  H188  1  0.68840000  0.58260000  0.73680000  1.0 0.1024616622
H  H189  1  0.10580000  0.15420000  0.41740000  1.0 0.1024616622
H  H190  1  0.26320000  0.84580000  0.95160000  1.0 0.1024616622
H  H191  1  0.89420000  0.31160000  0.04840000  1.0 0.1024616622
H  H192  1  0.73680000  0.68840000  0.58260000  1.0 0.1024616622
H  H193  1  0.49780000  0.36290000  0.20990000  1.0 0.1024616622
H  H194  1  0.15300000  0.28790000  0.79010000  1.0 0.1024616622
H  H195  1  0.84700000  0.63710000  0.13490000  1.0 0.1024616622
H  H196  1  0.50220000  0.71210000  0.86510000  1.0 0.1024616622
H  H197  1  0.20990000  0.49780000  0.36290000  1.0 0.1024616622
H  H198  1  0.79010000  0.15300000  0.28790000  1.0 0.1024616622
H  H199  1  0.13490000  0.84700000  0.63710000  1.0 0.1024616622
H  H200  1  0.86510000  0.50220000  0.71210000  1.0 0.1024616622
H  H201  1  0.36290000  0.20990000  0.49780000  1.0 0.1024616622
H  H202  1  0.28790000  0.79010000  0.15300000  1.0 0.1024616622
H  H203  1  0.63710000  0.13490000  0.84700000  1.0 0.1024616622
H  H204  1  0.71210000  0.86510000  0.50220000  1.0 0.1024616622
H  H205  1  0.39960000  0.33020000  0.14500000  1.0 0.1024616622
H  H206  1  0.18520000  0.25460000  0.85500000  1.0 0.1024616622
H  H207  1  0.81480000  0.66980000  0.06940000  1.0 0.1024616622
H  H208  1  0.60040000  0.74540000  0.93060000  1.0 0.1024616622
H  H209  1  0.14500000  0.39960000  0.33020000  1.0 0.1024616622
H  H210  1  0.85500000  0.18520000  0.25460000  1.0 0.1024616622
H  H211  1  0.06940000  0.81480000  0.66980000  1.0 0.1024616622
H  H212  1  0.93060000  0.60040000  0.74540000  1.0 0.1024616622
H  H213  1  0.33020000  0.14500000  0.39960000  1.0 0.1024616622
H  H214  1  0.25460000  0.85500000  0.18520000  1.0 0.1024616622
H  H215  1  0.66980000  0.06940000  0.81480000  1.0 0.1024616622
H  H216  1  0.74540000  0.93060000  0.60040000  1.0 0.1024616622
H  H217  1  0.38140000  0.40090000  0.12090000  1.0 0.1180498948
H  H218  1  0.28000000  0.26050000  0.87910000  1.0 0.1180498948
H  H219  1  0.72000000  0.59910000  0.98050000  1.0 0.1180498948
H  H220  1  0.61860000  0.73950000  0.01950000  1.0 0.1180498948
H  H221  1  0.12090000  0.38140000  0.40090000  1.0 0.1180498948
H  H222  1  0.87910000  0.28000000  0.26050000  1.0 0.1180498948
H  H223  1  0.98050000  0.72000000  0.59910000  1.0 0.1180498948
H  H224  1  0.01950000  0.61860000  0.73950000  1.0 0.1180498948
H  H225  1  0.40090000  0.12090000  0.38140000  1.0 0.1180498948
H  H226  1  0.26050000  0.87910000  0.28000000  1.0 0.1180498948
H  H227  1  0.59910000  0.98050000  0.72000000  1.0 0.1180498948
H  H228  1  0.73950000  0.01950000  0.61860000  1.0 0.1180498948
H  H229  1  0.45930000  0.48810000  0.14940000  1.0 0.108391096
H  H230  1  0.33870000  0.30990000  0.85060000  1.0 0.108391096
H  H231  1  0.66130000  0.51190000  0.97120000  1.0 0.108391096
H  H232  1  0.54070000  0.69010000  0.02880000  1.0 0.108391096
H  H233  1  0.14940000  0.45930000  0.48810000  1.0 0.108391096
H  H234  1  0.85060000  0.33870000  0.30990000  1.0 0.108391096
H  H235  1  0.97120000  0.66130000  0.51190000  1.0 0.108391096
H  H236  1  0.02880000  0.54070000  0.69010000  1.0 0.108391096
H  H237  1  0.48810000  0.14940000  0.45930000  1.0 0.108391096
H  H238  1  0.30990000  0.85060000  0.33870000  1.0 0.108391096
H  H239  1  0.51190000  0.97120000  0.66130000  1.0 0.108391096
H  H240  1  0.69010000  0.02880000  0.54070000  1.0 0.108391096
H  H241  1  0.55420000  0.51460000  0.21260000  1.0 0.1180498948
H  H242  1  0.30200000  0.34160000  0.78740000  1.0 0.1180498948
H  H243  1  0.69800000  0.48540000  0.03960000  1.0 0.1180498948
H  H244  1  0.44580000  0.65840000  0.96040000  1.0 0.1180498948
H  H245  1  0.21260000  0.55420000  0.51460000  1.0 0.1180498948
H  H246  1  0.78740000  0.30200000  0.34160000  1.0 0.1180498948
H  H247  1  0.03960000  0.69800000  0.48540000  1.0 0.1180498948
H  H248  1  0.96040000  0.44580000  0.65840000  1.0 0.1180498948
H  H249  1  0.51460000  0.21260000  0.55420000  1.0 0.1180498948
H  H250  1  0.34160000  0.78740000  0.30200000  1.0 0.1180498948
H  H251  1  0.48540000  0.03960000  0.69800000  1.0 0.1180498948
H  H252  1  0.65840000  0.96040000  0.44580000  1.0 0.1180498948
H  H253  1  0.62180000  0.40660000  0.26900000  1.0 0.1644474288
H  H254  1  0.13760000  0.35280000  0.73100000  1.0 0.1644474288
H  H255  1  0.86240000  0.59340000  0.21520000  1.0 0.1644474288
H  H256  1  0.37820000  0.64720000  0.78480000  1.0 0.1644474288
H  H257  1  0.26900000  0.62180000  0.40660000  1.0 0.1644474288
H  H258  1  0.73100000  0.13760000  0.35280000  1.0 0.1644474288
H  H259  1  0.21520000  0.86240000  0.59340000  1.0 0.1644474288
H  H260  1  0.78480000  0.37820000  0.64720000  1.0 0.1644474288
H  H261  1  0.40660000  0.26900000  0.62180000  1.0 0.1644474288
H  H262  1  0.35280000  0.73100000  0.13760000  1.0 0.1644474288
H  H263  1  0.59340000  0.21520000  0.86240000  1.0 0.1644474288
H  H264  1  0.64720000  0.78480000  0.37820000  1.0 0.1644474288
H  H265  1  0.62780000  0.49500000  0.25620000  1.0 0.0901927304
H  H266  1  0.23880000  0.37160000  0.74380000  1.0 0.0901927304
H  H267  1  0.76120000  0.50500000  0.13280000  1.0 0.0901927304
H  H268  1  0.37220000  0.62840000  0.86720000  1.0 0.0901927304
H  H269  1  0.25620000  0.62780000  0.49500000  1.0 0.0901927304
H  H270  1  0.74380000  0.23880000  0.37160000  1.0 0.0901927304
H  H271  1  0.13280000  0.76120000  0.50500000  1.0 0.0901927304
H  H272  1  0.86720000  0.37220000  0.62840000  1.0 0.0901927304
H  H273  1  0.49500000  0.25620000  0.62780000  1.0 0.0901927304
H  H274  1  0.37160000  0.74380000  0.23880000  1.0 0.0901927304
H  H275  1  0.50500000  0.13280000  0.76120000  1.0 0.0901927304
H  H276  1  0.62840000  0.86720000  0.37220000  1.0 0.0901927304
H  H277  1  0.61060000  0.47770000  0.29990000  1.0 0.0822823376
H  H278  1  0.17780000  0.31070000  0.70010000  1.0 0.0822823376
H  H279  1  0.82220000  0.52230000  0.13290000  1.0 0.0822823376
H  H280  1  0.38940000  0.68930000  0.86710000  1.0 0.0822823376
H  H281  1  0.29990000  0.61060000  0.47770000  1.0 0.0822823376
H  H282  1  0.70010000  0.17780000  0.31070000  1.0 0.0822823376
H  H283  1  0.13290000  0.82220000  0.52230000  1.0 0.0822823376
H  H284  1  0.86710000  0.38940000  0.68930000  1.0 0.0822823376
H  H285  1  0.47770000  0.29990000  0.61060000  1.0 0.0822823376
H  H286  1  0.31070000  0.70010000  0.17780000  1.0 0.0822823376
H  H287  1  0.52230000  0.13290000  0.82220000  1.0 0.0822823376
H  H288  1  0.68930000  0.86710000  0.38940000  1.0 0.0822823376
C  C1  1  0.38050000  0.10310000  0.24640000  1.0 0.2396355614
C  C2  1  0.85670000  0.13410000  0.75360000  1.0 0.2396355614
C  C3  1  0.14330000  0.89690000  0.27740000  1.0 0.2396355614
C  C4  1  0.61950000  0.86590000  0.72260000  1.0 0.2396355614
C  C5  1  0.24640000  0.38050000  0.10310000  1.0 0.2396355614
C  C6  1  0.75360000  0.85670000  0.13410000  1.0 0.2396355614
C  C7  1  0.27740000  0.14330000  0.89690000  1.0 0.2396355614
C  C8  1  0.72260000  0.61950000  0.86590000  1.0 0.2396355614
C  C9  1  0.10310000  0.24640000  0.38050000  1.0 0.2396355614
C  C10  1  0.13410000  0.75360000  0.85670000  1.0 0.2396355614
C  C11  1  0.89690000  0.27740000  0.14330000  1.0 0.2396355614
C  C12  1  0.86590000  0.72260000  0.61950000  1.0 0.2396355614
C  C13  1  0.63370000  0.14020000  0.21470000  1.0 0.3527247752
C  C14  1  0.92550000  0.41900000  0.78530000  1.0 0.3527247752
C  C15  1  0.07450000  0.85980000  0.49350000  1.0 0.3527247752
C  C16  1  0.36630000  0.58100000  0.50650000  1.0 0.3527247752
C  C17  1  0.21470000  0.63370000  0.14020000  1.0 0.3527247752
C  C18  1  0.78530000  0.92550000  0.41900000  1.0 0.3527247752
C  C19  1  0.49350000  0.07450000  0.85980000  1.0 0.3527247752
C  C20  1  0.50650000  0.36630000  0.58100000  1.0 0.3527247752
C  C21  1  0.14020000  0.21470000  0.63370000  1.0 0.3527247752
C  C22  1  0.41900000  0.78530000  0.92550000  1.0 0.3527247752
C  C23  1  0.85980000  0.49350000  0.07450000  1.0 0.3527247752
C  C24  1  0.58100000  0.50650000  0.36630000  1.0 0.3527247752
C  C25  1  0.67780000  0.10530000  0.16950000  1.0 0.3594648039
C  C26  1  0.93580000  0.50830000  0.83050000  1.0 0.3594648039
C  C27  1  0.06420000  0.89470000  0.57250000  1.0 0.3594648039
C  C28  1  0.32220000  0.49170000  0.42750000  1.0 0.3594648039
C  C29  1  0.16950000  0.67780000  0.10530000  1.0 0.3594648039
C  C30  1  0.83050000  0.93580000  0.50830000  1.0 0.3594648039
C  C31  1  0.57250000  0.06420000  0.89470000  1.0 0.3594648039
C  C32  1  0.42750000  0.32220000  0.49170000  1.0 0.3594648039
C  C33  1  0.10530000  0.16950000  0.67780000  1.0 0.3594648039
C  C34  1  0.50830000  0.83050000  0.93580000  1.0 0.3594648039
C  C35  1  0.89470000  0.57250000  0.06420000  1.0 0.3594648039
C  C36  1  0.49170000  0.42750000  0.32220000  1.0 0.3594648039
C  C37  1  0.68090000  0.18980000  0.18030000  1.0 0.3718518461
C  C38  1  0.00950000  0.50060000  0.81970000  1.0 0.3718518461
C  C39  1  0.99050000  0.81020000  0.49110000  1.0 0.3718518461
C  C40  1  0.31910000  0.49940000  0.50890000  1.0 0.3718518461
C  C41  1  0.18030000  0.68090000  0.18980000  1.0 0.3718518461
C  C42  1  0.81970000  0.00950000  0.50060000  1.0 0.3718518461
C  C43  1  0.49110000  0.99050000  0.81020000  1.0 0.3718518461
C  C44  1  0.50890000  0.31910000  0.49940000  1.0 0.3718518461
C  C45  1  0.18980000  0.18030000  0.68090000  1.0 0.3718518461
C  C46  1  0.50060000  0.81970000  0.00950000  1.0 0.3718518461
C  C47  1  0.81020000  0.49110000  0.99050000  1.0 0.3718518461
C  C48  1  0.49940000  0.50890000  0.31910000  1.0 0.3718518461
C  C49  1  0.52780000  0.12290000  0.29290000  1.0 0.0418916391
C  C50  1  0.83000000  0.23490000  0.70710000  1.0 0.0418916391
C  C51  1  0.17000000  0.87710000  0.40490000  1.0 0.0418916391
C  C52  1  0.47220000  0.76510000  0.59510000  1.0 0.0418916391
C  C53  1  0.29290000  0.52780000  0.12290000  1.0 0.0418916391
C  C54  1  0.70710000  0.83000000  0.23490000  1.0 0.0418916391
C  C55  1  0.40490000  0.17000000  0.87710000  1.0 0.0418916391
C  C56  1  0.59510000  0.47220000  0.76510000  1.0 0.0418916391
C  C57  1  0.12290000  0.29290000  0.52780000  1.0 0.0418916391
C  C58  1  0.23490000  0.70710000  0.83000000  1.0 0.0418916391
C  C59  1  0.87710000  0.40490000  0.17000000  1.0 0.0418916391
C  C60  1  0.76510000  0.59510000  0.47220000  1.0 0.0418916391
C  C61  1  0.55130000  0.08800000  0.28630000  1.0 -0.1407744641
C  C62  1  0.80170000  0.26500000  0.71370000  1.0 -0.1407744641
C  C63  1  0.19830000  0.91200000  0.46330000  1.0 -0.1407744641
C  C64  1  0.44870000  0.73500000  0.53670000  1.0 -0.1407744641
C  C65  1  0.28630000  0.55130000  0.08800000  1.0 -0.1407744641
C  C66  1  0.71370000  0.80170000  0.26500000  1.0 -0.1407744641
C  C67  1  0.46330000  0.19830000  0.91200000  1.0 -0.1407744641
C  C68  1  0.53670000  0.44870000  0.73500000  1.0 -0.1407744641
C  C69  1  0.08800000  0.28630000  0.55130000  1.0 -0.1407744641
C  C70  1  0.26500000  0.71370000  0.80170000  1.0 -0.1407744641
C  C71  1  0.91200000  0.46330000  0.19830000  1.0 -0.1407744641
C  C72  1  0.73500000  0.53670000  0.44870000  1.0 -0.1407744641
C  C73  1  0.58740000  0.09240000  0.26180000  1.0 -0.0882843215
C  C74  1  0.83060000  0.32560000  0.73820000  1.0 -0.0882843215
C  C75  1  0.16940000  0.90760000  0.49500000  1.0 -0.0882843215
C  C76  1  0.41260000  0.67440000  0.50500000  1.0 -0.0882843215
C  C77  1  0.26180000  0.58740000  0.09240000  1.0 -0.0882843215
C  C78  1  0.73820000  0.83060000  0.32560000  1.0 -0.0882843215
C  C79  1  0.49500000  0.16940000  0.90760000  1.0 -0.0882843215
C  C80  1  0.50500000  0.41260000  0.67440000  1.0 -0.0882843215
C  C81  1  0.09240000  0.26180000  0.58740000  1.0 -0.0882843215
C  C82  1  0.32560000  0.73820000  0.83060000  1.0 -0.0882843215
C  C83  1  0.90760000  0.49500000  0.16940000  1.0 -0.0882843215
C  C84  1  0.67440000  0.50500000  0.41260000  1.0 -0.0882843215
C  C85  1  0.59670000  0.13310000  0.24280000  1.0 -0.0205082807
C  C86  1  0.89030000  0.35390000  0.75720000  1.0 -0.0205082807
C  C87  1  0.10970000  0.86690000  0.46360000  1.0 -0.0205082807
C  C88  1  0.40330000  0.64610000  0.53640000  1.0 -0.0205082807
C  C89  1  0.24280000  0.59670000  0.13310000  1.0 -0.0205082807
C  C90  1  0.75720000  0.89030000  0.35390000  1.0 -0.0205082807
C  C91  1  0.46360000  0.10970000  0.86690000  1.0 -0.0205082807
C  C92  1  0.53640000  0.40330000  0.64610000  1.0 -0.0205082807
C  C93  1  0.13310000  0.24280000  0.59670000  1.0 -0.0205082807
C  C94  1  0.35390000  0.75720000  0.89030000  1.0 -0.0205082807
C  C95  1  0.86690000  0.46360000  0.10970000  1.0 -0.0205082807
C  C96  1  0.64610000  0.53640000  0.40330000  1.0 -0.0205082807
C  C97  1  0.56920000  0.16700000  0.24960000  1.0 0.0606877343
C  C98  1  0.91740000  0.31960000  0.75040000  1.0 0.0606877343
C  C99  1  0.08260000  0.83300000  0.40220000  1.0 0.0606877343
C  C100  1  0.43080000  0.68040000  0.59780000  1.0 0.0606877343
C  C101  1  0.24960000  0.56920000  0.16700000  1.0 0.0606877343
C  C102  1  0.75040000  0.91740000  0.31960000  1.0 0.0606877343
C  C103  1  0.40220000  0.08260000  0.83300000  1.0 0.0606877343
C  C104  1  0.59780000  0.43080000  0.68040000  1.0 0.0606877343
C  C105  1  0.16700000  0.24960000  0.56920000  1.0 0.0606877343
C  C106  1  0.31960000  0.75040000  0.91740000  1.0 0.0606877343
C  C107  1  0.83300000  0.40220000  0.08260000  1.0 0.0606877343
C  C108  1  0.68040000  0.59780000  0.43080000  1.0 0.0606877343
C  C109  1  0.73000000  0.98010000  0.12270000  1.0 0.0822823376
C  C110  1  0.85740000  0.60730000  0.87730000  1.0 0.0822823376
C  C111  1  0.14260000  0.01990000  0.74990000  1.0 0.0822823376
C  C112  1  0.27000000  0.39270000  0.25010000  1.0 0.0822823376
C  C113  1  0.12270000  0.73000000  0.98010000  1.0 0.0822823376
C  C114  1  0.87730000  0.85740000  0.60730000  1.0 0.0822823376
C  C115  1  0.74990000  0.14260000  0.01990000  1.0 0.0822823376
C  C116  1  0.25010000  0.27000000  0.39270000  1.0 0.0822823376
C  C117  1  0.98010000  0.12270000  0.73000000  1.0 0.0822823376
C  C118  1  0.60730000  0.87730000  0.85740000  1.0 0.0822823376
C  C119  1  0.01990000  0.74990000  0.14260000  1.0 0.0822823376
C  C120  1  0.39270000  0.25010000  0.27000000  1.0 0.0822823376
C  C121  1  0.73560000  0.01560000  0.09800000  1.0 -0.165677841
C  C122  1  0.91760000  0.63760000  0.90200000  1.0 -0.165677841
C  C123  1  0.08240000  0.98440000  0.72000000  1.0 -0.165677841
C  C124  1  0.26440000  0.36240000  0.28000000  1.0 -0.165677841
C  C125  1  0.09800000  0.73560000  0.01560000  1.0 -0.165677841
C  C126  1  0.90200000  0.91760000  0.63760000  1.0 -0.165677841
C  C127  1  0.72000000  0.08240000  0.98440000  1.0 -0.165677841
C  C128  1  0.28000000  0.26440000  0.36240000  1.0 -0.165677841
C  C129  1  0.01560000  0.09800000  0.73560000  1.0 -0.165677841
C  C130  1  0.63760000  0.90200000  0.91760000  1.0 -0.165677841
C  C131  1  0.98440000  0.72000000  0.08240000  1.0 -0.165677841
C  C132  1  0.36240000  0.28000000  0.26440000  1.0 -0.165677841
C  C133  1  0.71890000  0.05900000  0.11430000  1.0 -0.0765644068
C  C134  1  0.94470000  0.60460000  0.88570000  1.0 -0.0765644068
C  C135  1  0.05530000  0.94100000  0.65990000  1.0 -0.0765644068
C  C136  1  0.28110000  0.39540000  0.34010000  1.0 -0.0765644068
C  C137  1  0.11430000  0.71890000  0.05900000  1.0 -0.0765644068
C  C138  1  0.88570000  0.94470000  0.60460000  1.0 -0.0765644068
C  C139  1  0.65990000  0.05530000  0.94100000  1.0 -0.0765644068
C  C140  1  0.34010000  0.28110000  0.39540000  1.0 -0.0765644068
C  C141  1  0.05900000  0.11430000  0.71890000  1.0 -0.0765644068
C  C142  1  0.60460000  0.88570000  0.94470000  1.0 -0.0765644068
C  C143  1  0.94100000  0.65990000  0.05530000  1.0 -0.0765644068
C  C144  1  0.39540000  0.34010000  0.28110000  1.0 -0.0765644068
C  C145  1  0.69620000  0.06060000  0.15100000  1.0 -0.0117522322
C  C146  1  0.90960000  0.54520000  0.84900000  1.0 -0.0117522322
C  C147  1  0.09040000  0.93940000  0.63560000  1.0 -0.0117522322
C  C148  1  0.30380000  0.45480000  0.36440000  1.0 -0.0117522322
C  C149  1  0.15100000  0.69620000  0.06060000  1.0 -0.0117522322
C  C150  1  0.84900000  0.90960000  0.54520000  1.0 -0.0117522322
C  C151  1  0.63560000  0.09040000  0.93940000  1.0 -0.0117522322
C  C152  1  0.36440000  0.30380000  0.45480000  1.0 -0.0117522322
C  C153  1  0.06060000  0.15100000  0.69620000  1.0 -0.0117522322
C  C154  1  0.54520000  0.84900000  0.90960000  1.0 -0.0117522322
C  C155  1  0.93940000  0.63560000  0.09040000  1.0 -0.0117522322
C  C156  1  0.45480000  0.36440000  0.30380000  1.0 -0.0117522322
C  C157  1  0.68970000  0.02060000  0.17050000  1.0 0.0418916391
C  C158  1  0.85010000  0.51920000  0.82950000  1.0 0.0418916391
C  C159  1  0.14990000  0.97940000  0.66910000  1.0 0.0418916391
C  C160  1  0.31030000  0.48080000  0.33090000  1.0 0.0418916391
C  C161  1  0.17050000  0.68970000  0.02060000  1.0 0.0418916391
C  C162  1  0.82950000  0.85010000  0.51920000  1.0 0.0418916391
C  C163  1  0.66910000  0.14990000  0.97940000  1.0 0.0418916391
C  C164  1  0.33090000  0.31030000  0.48080000  1.0 0.0418916391
C  C165  1  0.02060000  0.17050000  0.68970000  1.0 0.0418916391
C  C166  1  0.51920000  0.82950000  0.85010000  1.0 0.0418916391
C  C167  1  0.97940000  0.66910000  0.14990000  1.0 0.0418916391
C  C168  1  0.48080000  0.33090000  0.31030000  1.0 0.0418916391
C  C169  1  0.72990000  0.24300000  0.14010000  1.0 0.0497978461
C  C170  1  0.10290000  0.58980000  0.85990000  1.0 0.0497978461
C  C171  1  0.89710000  0.75700000  0.48690000  1.0 0.0497978461
C  C172  1  0.27010000  0.41020000  0.51310000  1.0 0.0497978461
C  C173  1  0.14010000  0.72990000  0.24300000  1.0 0.0497978461
C  C174  1  0.85990000  0.10290000  0.58980000  1.0 0.0497978461
C  C175  1  0.48690000  0.89710000  0.75700000  1.0 0.0497978461
C  C176  1  0.51310000  0.27010000  0.41020000  1.0 0.0497978461
C  C177  1  0.24300000  0.14010000  0.72990000  1.0 0.0497978461
C  C178  1  0.58980000  0.85990000  0.10290000  1.0 0.0497978461
C  C179  1  0.75700000  0.48690000  0.89710000  1.0 0.0497978461
C  C180  1  0.41020000  0.51310000  0.27010000  1.0 0.0497978461
C  C181  1  0.70100000  0.24120000  0.17160000  1.0 -0.0117522322
C  C182  1  0.06960000  0.52940000  0.82840000  1.0 -0.0117522322
C  C183  1  0.93040000  0.75880000  0.45980000  1.0 -0.0117522322
C  C184  1  0.29900000  0.47060000  0.54020000  1.0 -0.0117522322
C  C185  1  0.17160000  0.70100000  0.24120000  1.0 -0.0117522322
C  C186  1  0.82840000  0.06960000  0.52940000  1.0 -0.0117522322
C  C187  1  0.45980000  0.93040000  0.75880000  1.0 -0.0117522322
C  C188  1  0.54020000  0.29900000  0.47060000  1.0 -0.0117522322
C  C189  1  0.24120000  0.17160000  0.70100000  1.0 -0.0117522322
C  C190  1  0.52940000  0.82840000  0.06960000  1.0 -0.0117522322
C  C191  1  0.75880000  0.45980000  0.93040000  1.0 -0.0117522322
C  C192  1  0.47060000  0.54020000  0.29900000  1.0 -0.0117522322
C  C193  1  0.69050000  0.28660000  0.19230000  1.0 -0.0765644068
C  C194  1  0.09430000  0.49820000  0.80770000  1.0 -0.0765644068
C  C195  1  0.90570000  0.71340000  0.40390000  1.0 -0.0765644068
C  C196  1  0.30950000  0.50180000  0.59610000  1.0 -0.0765644068
C  C197  1  0.19230000  0.69050000  0.28660000  1.0 -0.0765644068
C  C198  1  0.80770000  0.09430000  0.49820000  1.0 -0.0765644068
C  C199  1  0.40390000  0.90570000  0.71340000  1.0 -0.0765644068
C  C200  1  0.59610000  0.30950000  0.50180000  1.0 -0.0765644068
C  C201  1  0.28660000  0.19230000  0.69050000  1.0 -0.0765644068
C  C202  1  0.49820000  0.80770000  0.09430000  1.0 -0.0765644068
C  C203  1  0.71340000  0.40390000  0.90570000  1.0 -0.0765644068
C  C204  1  0.50180000  0.59610000  0.30950000  1.0 -0.0765644068
C  C205  1  0.71290000  0.33450000  0.18460000  1.0 -0.1407744641
C  C206  1  0.14990000  0.52830000  0.81540000  1.0 -0.1407744641
C  C207  1  0.85010000  0.66550000  0.37840000  1.0 -0.1407744641
C  C208  1  0.28710000  0.47170000  0.62160000  1.0 -0.1407744641
C  C209  1  0.18460000  0.71290000  0.33450000  1.0 -0.1407744641
C  C210  1  0.81540000  0.14990000  0.52830000  1.0 -0.1407744641
C  C211  1  0.37840000  0.85010000  0.66550000  1.0 -0.1407744641
C  C212  1  0.62160000  0.28710000  0.47170000  1.0 -0.1407744641
C  C213  1  0.33450000  0.18460000  0.71290000  1.0 -0.1407744641
C  C214  1  0.52830000  0.81540000  0.14990000  1.0 -0.1407744641
C  C215  1  0.66550000  0.37840000  0.85010000  1.0 -0.1407744641
C  C216  1  0.47170000  0.62160000  0.28710000  1.0 -0.1407744641
C  C217  1  0.73830000  0.33090000  0.15060000  1.0 0.0606877343
C  C218  1  0.18030000  0.58770000  0.84940000  1.0 0.0606877343
C  C219  1  0.81970000  0.66910000  0.40740000  1.0 0.0606877343
C  C220  1  0.26170000  0.41230000  0.59260000  1.0 0.0606877343
C  C221  1  0.15060000  0.73830000  0.33090000  1.0 0.0606877343
C  C222  1  0.84940000  0.18030000  0.58770000  1.0 0.0606877343
C  C223  1  0.40740000  0.81970000  0.66910000  1.0 0.0606877343
C  C224  1  0.59260000  0.26170000  0.41230000  1.0 0.0606877343
C  C225  1  0.33090000  0.15060000  0.73830000  1.0 0.0606877343
C  C226  1  0.58770000  0.84940000  0.18030000  1.0 0.0606877343
C  C227  1  0.66910000  0.40740000  0.81970000  1.0 0.0606877343
C  C228  1  0.41230000  0.59260000  0.26170000  1.0 0.0606877343
C  C229  1  0.45570000  0.23250000  0.17080000  1.0 0.0606877343
C  C230  1  0.06170000  0.28490000  0.82920000  1.0 0.0606877343
C  C231  1  0.93830000  0.76750000  0.22320000  1.0 0.0606877343
C  C232  1  0.54430000  0.71510000  0.77680000  1.0 0.0606877343
C  C233  1  0.17080000  0.45570000  0.23250000  1.0 0.0606877343
C  C234  1  0.82920000  0.06170000  0.28490000  1.0 0.0606877343
C  C235  1  0.22320000  0.93830000  0.76750000  1.0 0.0606877343
C  C236  1  0.77680000  0.54430000  0.71510000  1.0 0.0606877343
C  C237  1  0.23250000  0.17080000  0.45570000  1.0 0.0606877343
C  C238  1  0.28490000  0.82920000  0.06170000  1.0 0.0606877343
C  C239  1  0.76750000  0.22320000  0.93830000  1.0 0.0606877343
C  C240  1  0.71510000  0.77680000  0.54430000  1.0 0.0606877343
C  C241  1  0.42880000  0.21830000  0.11350000  1.0 -0.1407744641
C  C242  1  0.10480000  0.31530000  0.88650000  1.0 -0.1407744641
C  C243  1  0.89520000  0.78170000  0.21050000  1.0 -0.1407744641
C  C244  1  0.57120000  0.68470000  0.78950000  1.0 -0.1407744641
C  C245  1  0.11350000  0.42880000  0.21830000  1.0 -0.1407744641
C  C246  1  0.88650000  0.10480000  0.31530000  1.0 -0.1407744641
C  C247  1  0.21050000  0.89520000  0.78170000  1.0 -0.1407744641
C  C248  1  0.78950000  0.57120000  0.68470000  1.0 -0.1407744641
C  C249  1  0.21830000  0.11350000  0.42880000  1.0 -0.1407744641
C  C250  1  0.31530000  0.88650000  0.10480000  1.0 -0.1407744641
C  C251  1  0.78170000  0.21050000  0.89520000  1.0 -0.1407744641
C  C252  1  0.68470000  0.78950000  0.57120000  1.0 -0.1407744641
C  C253  1  0.39730000  0.16140000  0.07050000  1.0 -0.054748142
C  C254  1  0.09090000  0.32680000  0.92950000  1.0 -0.054748142
C  C255  1  0.90910000  0.83860000  0.23590000  1.0 -0.054748142
C  C256  1  0.60270000  0.67320000  0.76410000  1.0 -0.054748142
C  C257  1  0.07050000  0.39730000  0.16140000  1.0 -0.054748142
C  C258  1  0.92950000  0.09090000  0.32680000  1.0 -0.054748142
C  C259  1  0.23590000  0.90910000  0.83860000  1.0 -0.054748142
C  C260  1  0.76410000  0.60270000  0.67320000  1.0 -0.054748142
C  C261  1  0.16140000  0.07050000  0.39730000  1.0 -0.054748142
C  C262  1  0.32680000  0.92950000  0.09090000  1.0 -0.054748142
C  C263  1  0.83860000  0.23590000  0.90910000  1.0 -0.054748142
C  C264  1  0.67320000  0.76410000  0.60270000  1.0 -0.054748142
C  C265  1  0.39330000  0.11820000  0.08490000  1.0 -0.0287575166
C  C266  1  0.03330000  0.30840000  0.91510000  1.0 -0.0287575166
C  C267  1  0.96670000  0.88180000  0.27510000  1.0 -0.0287575166
C  C268  1  0.60670000  0.69160000  0.72490000  1.0 -0.0287575166
C  C269  1  0.08490000  0.39330000  0.11820000  1.0 -0.0287575166
C  C270  1  0.91510000  0.03330000  0.30840000  1.0 -0.0287575166
C  C271  1  0.27510000  0.96670000  0.88180000  1.0 -0.0287575166
C  C272  1  0.72490000  0.60670000  0.69160000  1.0 -0.0287575166
C  C273  1  0.11820000  0.08490000  0.39330000  1.0 -0.0287575166
C  C274  1  0.30840000  0.91510000  0.03330000  1.0 -0.0287575166
C  C275  1  0.88180000  0.27510000  0.96670000  1.0 -0.0287575166
C  C276  1  0.69160000  0.72490000  0.60670000  1.0 -0.0287575166
C  C277  1  0.42090000  0.13570000  0.14400000  1.0 0.0418916391
C  C278  1  0.99170000  0.27690000  0.85600000  1.0 0.0418916391
C  C279  1  0.00830000  0.86430000  0.28520000  1.0 0.0418916391
C  C280  1  0.57910000  0.72310000  0.71480000  1.0 0.0418916391
C  C281  1  0.14400000  0.42090000  0.13570000  1.0 0.0418916391
C  C282  1  0.85600000  0.99170000  0.27690000  1.0 0.0418916391
C  C283  1  0.28520000  0.00830000  0.86430000  1.0 0.0418916391
C  C284  1  0.71480000  0.57910000  0.72310000  1.0 0.0418916391
C  C285  1  0.13570000  0.14400000  0.42090000  1.0 0.0418916391
C  C286  1  0.27690000  0.85600000  0.99170000  1.0 0.0418916391
C  C287  1  0.86430000  0.28520000  0.00830000  1.0 0.0418916391
C  C288  1  0.72310000  0.71480000  0.57910000  1.0 0.0418916391
C  C289  1  0.35850000  0.05560000  0.04070000  1.0 0.3758885856
C  C290  1  0.01490000  0.31780000  0.95930000  1.0 0.3758885856
C  C291  1  0.98510000  0.94440000  0.30290000  1.0 0.3758885856
C  C292  1  0.64150000  0.68220000  0.69710000  1.0 0.3758885856
C  C293  1  0.04070000  0.35850000  0.05560000  1.0 0.3758885856
C  C294  1  0.95930000  0.01490000  0.31780000  1.0 0.3758885856
C  C295  1  0.30290000  0.98510000  0.94440000  1.0 0.3758885856
C  C296  1  0.69710000  0.64150000  0.68220000  1.0 0.3758885856
C  C297  1  0.05560000  0.04070000  0.35850000  1.0 0.3758885856
C  C298  1  0.31780000  0.95930000  0.01490000  1.0 0.3758885856
C  C299  1  0.94440000  0.30290000  0.98510000  1.0 0.3758885856
C  C300  1  0.68220000  0.69710000  0.64150000  1.0 0.3758885856
C  C301  1  0.60110000  0.32140000  0.29330000  1.0 0.0606877343
C  C302  1  0.02810000  0.30780000  0.70670000  1.0 0.0606877343
C  C303  1  0.97190000  0.67860000  0.27970000  1.0 0.0606877343
C  C304  1  0.39890000  0.69220000  0.72030000  1.0 0.0606877343
C  C305  1  0.29330000  0.60110000  0.32140000  1.0 0.0497978461
C  C306  1  0.70670000  0.02810000  0.30780000  1.0 0.0606877343
C  C307  1  0.27970000  0.97190000  0.67860000  1.0 0.0497978461
C  C308  1  0.72030000  0.39890000  0.69220000  1.0 0.0606877343
C  C309  1  0.32140000  0.29330000  0.60110000  1.0 0.0606877343
C  C310  1  0.30780000  0.70670000  0.02810000  1.0 0.0497978461
C  C311  1  0.67860000  0.27970000  0.97190000  1.0 0.0606877343
C  C312  1  0.69220000  0.72030000  0.39890000  1.0 0.0497978461
C  C313  1  0.53670000  0.44200000  0.21810000  1.0 0.0822823376
C  C314  1  0.22390000  0.31860000  0.78190000  1.0 0.0822823376
C  C315  1  0.77610000  0.55800000  0.09470000  1.0 0.0822823376
C  C316  1  0.46330000  0.68140000  0.90530000  1.0 0.0822823376
C  C317  1  0.21810000  0.53670000  0.44200000  1.0 0.0822823376
C  C318  1  0.78190000  0.22390000  0.31860000  1.0 0.0822823376
C  C319  1  0.09470000  0.77610000  0.55800000  1.0 0.0822823376
C  C320  1  0.90530000  0.46330000  0.68140000  1.0 0.0822823376
C  C321  1  0.44200000  0.21810000  0.53670000  1.0 0.0822823376
C  C322  1  0.31860000  0.78190000  0.22390000  1.0 0.0822823376
C  C323  1  0.55800000  0.09470000  0.77610000  1.0 0.0822823376
C  C324  1  0.68140000  0.90530000  0.46330000  1.0 0.0822823376
C  C325  1  0.48960000  0.38860000  0.19740000  1.0 -0.1785305383
C  C326  1  0.19120000  0.29220000  0.80260000  1.0 -0.1785305383
C  C327  1  0.80880000  0.61140000  0.10100000  1.0 -0.1785305383
C  C328  1  0.51040000  0.70780000  0.89900000  1.0 -0.1785305383
C  C329  1  0.19740000  0.48960000  0.38860000  1.0 -0.1785305383
C  C330  1  0.80260000  0.19120000  0.29220000  1.0 -0.1785305383
C  C331  1  0.10100000  0.80880000  0.61140000  1.0 -0.1785305383
C  C332  1  0.89900000  0.51040000  0.70780000  1.0 -0.1785305383
C  C333  1  0.38860000  0.19740000  0.48960000  1.0 -0.1785305383
C  C334  1  0.29220000  0.80260000  0.19120000  1.0 -0.1785305383
C  C335  1  0.61140000  0.10100000  0.80880000  1.0 -0.1785305383
C  C336  1  0.70780000  0.89900000  0.51040000  1.0 -0.1785305383
C  C337  1  0.43050000  0.36830000  0.15940000  1.0 -0.0882843215
C  C338  1  0.20890000  0.27110000  0.84060000  1.0 -0.0882843215
C  C339  1  0.79110000  0.63170000  0.06220000  1.0 -0.0882843215
C  C340  1  0.56950000  0.72890000  0.93780000  1.0 -0.0882843215
C  C341  1  0.15940000  0.43050000  0.36830000  1.0 -0.0882843215
C  C342  1  0.84060000  0.20890000  0.27110000  1.0 -0.0882843215
C  C343  1  0.06220000  0.79110000  0.63170000  1.0 -0.0882843215
C  C344  1  0.93780000  0.56950000  0.72890000  1.0 -0.0882843215
C  C345  1  0.36830000  0.15940000  0.43050000  1.0 -0.0882843215
C  C346  1  0.27110000  0.84060000  0.20890000  1.0 -0.0882843215
C  C347  1  0.63170000  0.06220000  0.79110000  1.0 -0.0882843215
C  C348  1  0.72890000  0.93780000  0.56950000  1.0 -0.0882843215
C  C349  1  0.42060000  0.41010000  0.14410000  1.0 -0.1035196798
C  C350  1  0.26600000  0.27650000  0.85590000  1.0 -0.1035196798
C  C351  1  0.73400000  0.58990000  0.01050000  1.0 -0.1035196798
C  C352  1  0.57940000  0.72350000  0.98950000  1.0 -0.1035196798
C  C353  1  0.14410000  0.42060000  0.41010000  1.0 -0.1035196798
C  C354  1  0.85590000  0.26600000  0.27650000  1.0 -0.1035196798
C  C355  1  0.01050000  0.73400000  0.58990000  1.0 -0.1035196798
C  C356  1  0.98950000  0.57940000  0.72350000  1.0 -0.1035196798
C  C357  1  0.41010000  0.14410000  0.42060000  1.0 -0.1035196798
C  C358  1  0.27650000  0.85590000  0.26600000  1.0 -0.1035196798
C  C359  1  0.58990000  0.01050000  0.73400000  1.0 -0.1035196798
C  C360  1  0.72350000  0.98950000  0.57940000  1.0 -0.1035196798
C  C361  1  0.46610000  0.46200000  0.16210000  1.0 -0.0882843215
C  C362  1  0.29990000  0.30400000  0.83790000  1.0 -0.0882843215
C  C363  1  0.70010000  0.53800000  0.00410000  1.0 -0.0882843215
C  C364  1  0.53390000  0.69600000  0.99590000  1.0 -0.0882843215
C  C365  1  0.16210000  0.46610000  0.46200000  1.0 -0.0882843215
C  C366  1  0.83790000  0.29990000  0.30400000  1.0 -0.0882843215
C  C367  1  0.00410000  0.70010000  0.53800000  1.0 -0.0882843215
C  C368  1  0.99590000  0.53390000  0.69600000  1.0 -0.0882843215
C  C369  1  0.46200000  0.16210000  0.46610000  1.0 -0.0882843215
C  C370  1  0.30400000  0.83790000  0.29990000  1.0 -0.0882843215
C  C371  1  0.53800000  0.00410000  0.70010000  1.0 -0.0882843215
C  C372  1  0.69600000  0.99590000  0.53390000  1.0 -0.0882843215
C  C373  1  0.52300000  0.47720000  0.19940000  1.0 -0.1579461587
C  C374  1  0.27780000  0.32360000  0.80060000  1.0 -0.1579461587
C  C375  1  0.72220000  0.52280000  0.04580000  1.0 -0.1579461587
C  C376  1  0.47700000  0.67640000  0.95420000  1.0 -0.1579461587
C  C377  1  0.19940000  0.52300000  0.47720000  1.0 -0.1579461587
C  C378  1  0.80060000  0.27780000  0.32360000  1.0 -0.1579461587
C  C379  1  0.04580000  0.72220000  0.52280000  1.0 -0.1579461587
C  C380  1  0.95420000  0.47700000  0.67640000  1.0 -0.1579461587
C  C381  1  0.47720000  0.19940000  0.52300000  1.0 -0.1579461587
C  C382  1  0.32360000  0.80060000  0.27780000  1.0 -0.1579461587
C  C383  1  0.52280000  0.04580000  0.72220000  1.0 -0.1579461587
C  C384  1  0.67640000  0.95420000  0.47700000  1.0 -0.1579461587
C  C385  1  0.60190000  0.46240000  0.25850000  1.0 -0.0882843215
C  C386  1  0.20390000  0.34340000  0.74150000  1.0 -0.0882843215
C  C387  1  0.79610000  0.53760000  0.13950000  1.0 -0.0882843215
C  C388  1  0.39810000  0.65660000  0.86050000  1.0 -0.0882843215
C  C389  1  0.25850000  0.60190000  0.46240000  1.0 -0.0882843215
C  C390  1  0.74150000  0.20390000  0.34340000  1.0 -0.0882843215
C  C391  1  0.13950000  0.79610000  0.53760000  1.0 -0.0882843215
C  C392  1  0.86050000  0.39810000  0.65660000  1.0 -0.0882843215
C  C393  1  0.46240000  0.25850000  0.60190000  1.0 -0.0882843215
C  C394  1  0.34340000  0.74150000  0.20390000  1.0 -0.0882843215
C  C395  1  0.53760000  0.13950000  0.79610000  1.0 -0.0882843215
C  C396  1  0.65660000  0.86050000  0.39810000  1.0 -0.0882843215
S  S1  1  0.32600000  0.03960000  0.22080000  1.0 -0.3645623123
S  S2  1  0.81880000  0.10520000  0.77920000  1.0 -0.3667790795
S  S3  1  0.18120000  0.96040000  0.28640000  1.0 -0.3645623123
S  S4  1  0.67400000  0.89480000  0.71360000  1.0 -0.3645623123
S  S5  1  0.22080000  0.32600000  0.03960000  1.0 -0.3645623123
S  S6  1  0.77920000  0.81880000  0.10520000  1.0 -0.3645623123
S  S7  1  0.28640000  0.18120000  0.96040000  1.0 -0.3645623123
S  S8  1  0.71360000  0.67400000  0.89480000  1.0 -0.3645623123
S  S9  1  0.03960000  0.22080000  0.32600000  1.0 -0.3645623123
S  S10  1  0.10520000  0.77920000  0.81880000  1.0 -0.3645623123
S  S11  1  0.96040000  0.28640000  0.18120000  1.0 -0.3645623123
S  S12  1  0.89480000  0.71360000  0.67400000  1.0 -0.3645623123
S  S13  1  0.63352000  0.36950000  0.27478000  1.0 -0.0117522322
S  S14  1  0.09472000  0.35874000  0.72522000  1.0 -0.0205082807
S  S15  1  0.90528000  0.63050000  0.26402000  1.0 -0.0117522322
S  S16  1  0.36648000  0.64126000  0.73598000  1.0 -0.0117522322
S  S17  1  0.27478000  0.63352000  0.36950000  1.0 -0.0117522322
S  S18  1  0.72522000  0.09472000  0.35874000  1.0 -0.0205082807
S  S19  1  0.26402000  0.90528000  0.63050000  1.0 -0.0117522322
S  S20  1  0.73598000  0.36648000  0.64126000  1.0 -0.0205082807
S  S21  1  0.36950000  0.27478000  0.63352000  1.0 -0.0205082807
S  S22  1  0.35874000  0.72522000  0.09472000  1.0 -0.0117522322
S  S23  1  0.63050000  0.26402000  0.90528000  1.0 -0.0205082807
S  S24  1  0.64126000  0.73598000  0.36648000  1.0 -0.0117522322
S  S25  1  0.66750000  0.37260000  0.31110000  1.0 0.0046114613
S  S26  1  0.06150000  0.35640000  0.68890000  1.0 0.0046114613
S  S27  1  0.93850000  0.62740000  0.29490000  1.0 0.0055027876
S  S28  1  0.33250000  0.64360000  0.70510000  1.0 0.0046114613
S  S29  1  0.31110000  0.66750000  0.37260000  1.0 0.0046114613
S  S30  1  0.68890000  0.06150000  0.35640000  1.0 0.0046114613
S  S31  1  0.29490000  0.93850000  0.62740000  1.0 0.0046114613
S  S32  1  0.70510000  0.33250000  0.64360000  1.0 0.0046114613
S  S33  1  0.37260000  0.31110000  0.66750000  1.0 0.0046114613
S  S34  1  0.35640000  0.68890000  0.06150000  1.0 0.0046114613
S  S35  1  0.62740000  0.29490000  0.93850000  1.0 0.0046114613
S  S36  1  0.64360000  0.70510000  0.33250000  1.0 0.0046114613
N  N1  1  0.42040000  0.14880000  0.26760000  1.0 -0.4733421112
N  N2  1  0.88120000  0.15280000  0.73240000  1.0 -0.4733421112
N  N3  1  0.11880000  0.85120000  0.27160000  1.0 -0.4733421112
N  N4  1  0.57960000  0.84720000  0.72840000  1.0 -0.4733421112
N  N5  1  0.26760000  0.42040000  0.14880000  1.0 -0.4733421112
N  N6  1  0.73240000  0.88120000  0.15280000  1.0 -0.4733421112
N  N7  1  0.27160000  0.11880000  0.85120000  1.0 -0.4733421112
N  N8  1  0.72840000  0.57960000  0.84720000  1.0 -0.4733421112
N  N9  1  0.14880000  0.26760000  0.42040000  1.0 -0.4733421112
N  N10  1  0.15280000  0.73240000  0.88120000  1.0 -0.4733421112
N  N11  1  0.85120000  0.27160000  0.11880000  1.0 -0.4733421112
N  N12  1  0.84720000  0.72840000  0.57960000  1.0 -0.4733421112
N  N13  1  0.53420000  0.16155000  0.27275000  1.0 -0.2105783175
N  N14  1  0.88880000  0.26145000  0.72725000  1.0 -0.2105783175
N  N15  1  0.11120000  0.83845000  0.37265000  1.0 -0.2105783175
N  N16  1  0.46580000  0.73855000  0.62735000  1.0 -0.2105783175
N  N17  1  0.27275000  0.53420000  0.16155000  1.0 -0.2105783175
N  N18  1  0.72725000  0.88880000  0.26145000  1.0 -0.2105783175
N  N19  1  0.37265000  0.11120000  0.83845000  1.0 -0.2105783175
N  N20  1  0.62735000  0.46580000  0.73855000  1.0 -0.2105783175
N  N21  1  0.16155000  0.27275000  0.53420000  1.0 -0.2105783175
N  N22  1  0.26145000  0.72725000  0.88880000  1.0 -0.2105783175
N  N23  1  0.83845000  0.37265000  0.11120000  1.0 -0.2105783175
N  N24  1  0.73855000  0.62735000  0.46580000  1.0 -0.2105783175
N  N25  1  0.65010000  0.18830000  0.20840000  1.0 -0.4191670633
N  N26  1  0.97990000  0.44170000  0.79160000  1.0 -0.4191670633
N  N27  1  0.02010000  0.81170000  0.46180000  1.0 -0.4191670633
N  N28  1  0.34990000  0.55830000  0.53820000  1.0 -0.4191670633
N  N29  1  0.20840000  0.65010000  0.18830000  1.0 -0.4191670633
N  N30  1  0.79160000  0.97990000  0.44170000  1.0 -0.4191670633
N  N31  1  0.46180000  0.02010000  0.81170000  1.0 -0.4191670633
N  N32  1  0.53820000  0.34990000  0.55830000  1.0 -0.4191670633
N  N33  1  0.18830000  0.20840000  0.65010000  1.0 -0.4191670633
N  N34  1  0.44170000  0.79160000  0.97990000  1.0 -0.4191670633
N  N35  1  0.81170000  0.46180000  0.02010000  1.0 -0.4191670633
N  N36  1  0.55830000  0.53820000  0.34990000  1.0 -0.4191670633
N  N37  1  0.64630000  0.09800000  0.19770000  1.0 -0.4191670633
N  N38  1  0.90030000  0.44860000  0.80230000  1.0 -0.4191670633
N  N39  1  0.09970000  0.90200000  0.54830000  1.0 -0.4191670633
N  N40  1  0.35370000  0.55140000  0.45170000  1.0 -0.4191670633
N  N41  1  0.19770000  0.64630000  0.09800000  1.0 -0.4191670633
N  N42  1  0.80230000  0.90030000  0.44860000  1.0 -0.4191670633
N  N43  1  0.54830000  0.09970000  0.90200000  1.0 -0.4191670633
N  N44  1  0.45170000  0.35370000  0.55140000  1.0 -0.4191670633
N  N45  1  0.09800000  0.19770000  0.64630000  1.0 -0.4191670633
N  N46  1  0.44860000  0.80230000  0.90030000  1.0 -0.4191670633
N  N47  1  0.90200000  0.54830000  0.09970000  1.0 -0.4191670633
N  N48  1  0.55140000  0.45170000  0.35370000  1.0 -0.4191670633
N  N49  1  0.69350000  0.14850000  0.15880000  1.0 -0.4036008919
N  N50  1  0.98970000  0.53470000  0.84120000  1.0 -0.4036008919
N  N51  1  0.01030000  0.85150000  0.54500000  1.0 -0.4036008919
N  N52  1  0.30650000  0.46530000  0.45500000  1.0 -0.4036008919
N  N53  1  0.15880000  0.69350000  0.14850000  1.0 -0.4036008919
N  N54  1  0.84120000  0.98970000  0.53470000  1.0 -0.4036008919
N  N55  1  0.54500000  0.01030000  0.85150000  1.0 -0.4036008919
N  N56  1  0.45500000  0.30650000  0.46530000  1.0 -0.4036008919
N  N57  1  0.14850000  0.15880000  0.69350000  1.0 -0.4036008919
N  N58  1  0.53470000  0.84120000  0.98970000  1.0 -0.4036008919
N  N59  1  0.85150000  0.54500000  0.01030000  1.0 -0.4036008919
N  N60  1  0.46530000  0.45500000  0.30650000  1.0 -0.4036008919
N  N61  1  0.70740000  0.98110000  0.15730000  1.0 -0.2105783175
N  N62  1  0.82380000  0.55010000  0.84270000  1.0 -0.2105783175
N  N63  1  0.17620000  0.01890000  0.72630000  1.0 -0.2105783175
N  N64  1  0.29260000  0.44990000  0.27370000  1.0 -0.2105783175
N  N65  1  0.15730000  0.70740000  0.98110000  1.0 -0.2105783175
N  N66  1  0.84270000  0.82380000  0.55010000  1.0 -0.2105783175
N  N67  1  0.72630000  0.17620000  0.01890000  1.0 -0.2105783175
N  N68  1  0.27370000  0.29260000  0.44990000  1.0 -0.2105783175
N  N69  1  0.98110000  0.15730000  0.70740000  1.0 -0.2105783175
N  N70  1  0.55010000  0.84270000  0.82380000  1.0 -0.2105783175
N  N71  1  0.01890000  0.72630000  0.17620000  1.0 -0.2105783175
N  N72  1  0.44990000  0.27370000  0.29260000  1.0 -0.2105783175
N  N73  1  0.74680000  0.28580000  0.12700000  1.0 -0.2155732667
N  N74  1  0.15880000  0.61980000  0.87300000  1.0 -0.2155732667
N  N75  1  0.84120000  0.71420000  0.46100000  1.0 -0.2155732667
N  N76  1  0.25320000  0.38020000  0.53900000  1.0 -0.2155732667
N  N77  1  0.12700000  0.74680000  0.28580000  1.0 -0.2155732667
N  N78  1  0.87300000  0.15880000  0.61980000  1.0 -0.2155732667
N  N79  1  0.46100000  0.84120000  0.71420000  1.0 -0.2155732667
N  N80  1  0.53900000  0.25320000  0.38020000  1.0 -0.2155732667
N  N81  1  0.28580000  0.12700000  0.74680000  1.0 -0.2155732667
N  N82  1  0.61980000  0.87300000  0.15880000  1.0 -0.2155732667
N  N83  1  0.71420000  0.46100000  0.84120000  1.0 -0.2155732667
N  N84  1  0.38020000  0.53900000  0.25320000  1.0 -0.2155732667
N  N85  1  0.45270000  0.19240000  0.18890000  1.0 -0.2317402939
N  N86  1  0.00350000  0.26380000  0.81110000  1.0 -0.2317402939
N  N87  1  0.99650000  0.80760000  0.26030000  1.0 -0.2317402939
N  N88  1  0.54730000  0.73620000  0.73970000  1.0 -0.2317402939
N  N89  1  0.18890000  0.45270000  0.19240000  1.0 -0.2317402939
N  N90  1  0.81110000  0.00350000  0.26380000  1.0 -0.2317402939
N  N91  1  0.26030000  0.99650000  0.80760000  1.0 -0.2317402939
N  N92  1  0.73970000  0.54730000  0.73620000  1.0 -0.2317402939
N  N93  1  0.19240000  0.18890000  0.45270000  1.0 -0.2317402939
N  N94  1  0.26380000  0.81110000  0.00350000  1.0 -0.2317402939
N  N95  1  0.80760000  0.26030000  0.99650000  1.0 -0.2317402939
N  N96  1  0.73620000  0.73970000  0.54730000  1.0 -0.2317402939
N  N97  1  0.35240000  0.01650000  0.05870000  1.0 -0.4134375954
N  N98  1  0.95780000  0.29370000  0.94130000  1.0 -0.4191670633
N  N99  1  0.04220000  0.98350000  0.33590000  1.0 -0.4134375954
N  N100  1  0.64760000  0.70630000  0.66410000  1.0 -0.4134375954
N  N101  1  0.05870000  0.35240000  0.01650000  1.0 -0.4134375954
N  N102  1  0.94130000  0.95780000  0.29370000  1.0 -0.4134375954
N  N103  1  0.33590000  0.04220000  0.98350000  1.0 -0.4134375954
N  N104  1  0.66410000  0.64760000  0.70630000  1.0 -0.4134375954
N  N105  1  0.01650000  0.05870000  0.35240000  1.0 -0.4134375954
N  N106  1  0.29370000  0.94130000  0.95780000  1.0 -0.4134375954
N  N107  1  0.98350000  0.33590000  0.04220000  1.0 -0.4191670633
N  N108  1  0.70630000  0.66410000  0.64760000  1.0 -0.4134375954
N  N109  1  0.56810000  0.28660000  0.29730000  1.0 -0.3452804491
N  N110  1  0.98930000  0.27080000  0.70270000  1.0 -0.3452804491
N  N111  1  0.01070000  0.71340000  0.28150000  1.0 -0.3452804491
N  N112  1  0.43190000  0.72920000  0.71850000  1.0 -0.3452804491
N  N113  1  0.29730000  0.56810000  0.28660000  1.0 -0.3452804491
N  N114  1  0.70270000  0.98930000  0.27080000  1.0 -0.3452804491
N  N115  1  0.28150000  0.01070000  0.71340000  1.0 -0.3452804491
N  N116  1  0.71850000  0.43190000  0.72920000  1.0 -0.3452804491
N  N117  1  0.28660000  0.29730000  0.56810000  1.0 -0.3452804491
N  N118  1  0.27080000  0.70270000  0.98930000  1.0 -0.3452804491
N  N119  1  0.71340000  0.28150000  0.01070000  1.0 -0.3452804491
N  N120  1  0.72920000  0.71850000  0.43190000  1.0 -0.3452804491
O  O1  1  0.61500000  0.41570000  0.24250000  1.0 -0.2105783175
O  O2  1  0.17320000  0.37250000  0.75750000  1.0 -0.2105783175
O  O3  1  0.82680000  0.58430000  0.19930000  1.0 -0.2105783175
O  O4  1  0.38500000  0.62750000  0.80070000  1.0 -0.2105783175
O  O5  1  0.24250000  0.61500000  0.41570000  1.0 -0.2105783175
O  O6  1  0.75750000  0.17320000  0.37250000  1.0 -0.2105783175
O  O7  1  0.19930000  0.82680000  0.58430000  1.0 -0.2105783175
O  O8  1  0.80070000  0.38500000  0.62750000  1.0 -0.2105783175
O  O9  1  0.41570000  0.24250000  0.61500000  1.0 -0.2105783175
O  O10  1  0.37250000  0.75750000  0.17320000  1.0 -0.2105783175
O  O11  1  0.58430000  0.19930000  0.82680000  1.0 -0.2105783175
O  O12  1  0.62750000  0.80070000  0.38500000  1.0 -0.2105783175
