# DDEC6 charges by PACMAN v1.1 (https://github.com/mtap-research/PACMAN-charge/)
data_FEWWIP_FSR_pacman
_symmetry_space_group_name_H-M   'P 1'
_cell_length_a   12.61100000
_cell_length_b   46.10400000
_cell_length_c   25.62980000
_cell_angle_alpha   90.00000000
_cell_angle_beta   119.14100000
_cell_angle_gamma   90.00000000
_symmetry_Int_Tables_number   1
_chemical_formula_structural   Fe2H51C80S7(N6Cl)5
_chemical_formula_sum   'Fe8 H204 C320 S28 N120 Cl20'
_cell_volume   13015.42827950
_cell_formula_units_Z   4
loop_
 _symmetry_equiv_pos_site_id
 _symmetry_equiv_pos_as_xyz
  1  'x, y, z'
loop_
 _atom_site_type_symbol
 _atom_site_label
 _atom_site_symmetry_multiplicity
 _atom_site_fract_x
 _atom_site_fract_y
 _atom_site_fract_z
 _atom_site_occupancy
 _atom_site_charge
Fe  Fe1  1  0.25829000  0.99942000  0.75052000  1.0 0.4207306974
Fe  Fe2  1  0.74171000  0.49942000  0.74948000  1.0 0.4207306974
Fe  Fe3  1  0.74171000  0.00058000  0.24948000  1.0 0.4207306974
Fe  Fe4  1  0.25829000  0.50058000  0.25052000  1.0 0.4207306974
Fe  Fe5  1  0.34083000  0.24497000  0.48959000  1.0 0.6395896844
Fe  Fe6  1  0.65917000  0.74497000  0.01041000  1.0 0.6395896844
Fe  Fe7  1  0.65917000  0.75503000  0.51041000  1.0 0.6395896844
Fe  Fe8  1  0.34083000  0.25503000  0.98959000  1.0 0.6395896844
H  H1  1  0.28100000  0.25060000  0.58790000  1.0 0.1094836076
H  H2  1  0.71900000  0.75060000  0.91210000  1.0 0.1094836076
H  H3  1  0.71900000  0.74940000  0.41210000  1.0 0.1094836076
H  H4  1  0.28100000  0.24940000  0.08790000  1.0 0.1094836076
H  H5  1  0.29430000  0.22860000  0.66420000  1.0 0.1379955161
H  H6  1  0.70570000  0.72860000  0.83580000  1.0 0.1379955161
H  H7  1  0.70570000  0.77140000  0.33580000  1.0 0.1379955161
H  H8  1  0.29430000  0.27140000  0.16420000  1.0 0.1379955161
H  H9  1  0.36930000  0.15570000  0.61210000  1.0 0.1379955161
H  H10  1  0.63070000  0.65570000  0.88790000  1.0 0.1379955161
H  H11  1  0.63070000  0.84430000  0.38790000  1.0 0.1379955161
H  H12  1  0.36930000  0.34430000  0.11210000  1.0 0.1379955161
H  H13  1  0.39020000  0.18160000  0.54400000  1.0 0.0988451463
H  H14  1  0.60980000  0.68160000  0.95600000  1.0 0.0988451463
H  H15  1  0.60980000  0.81840000  0.45600000  1.0 0.0988451463
H  H16  1  0.39020000  0.31840000  0.04400000  1.0 0.0988451463
H  H17  1  0.43820000  0.25760000  0.89580000  1.0 0.118137253
H  H18  1  0.56180000  0.75760000  0.60420000  1.0 0.118137253
H  H19  1  0.56180000  0.74240000  0.10420000  1.0 0.118137253
H  H20  1  0.43820000  0.24240000  0.39580000  1.0 0.118137253
H  H21  1  0.41290000  0.23290000  0.81640000  1.0 0.129434639
H  H22  1  0.58710000  0.73290000  0.68360000  1.0 0.129434639
H  H23  1  0.58710000  0.76710000  0.18360000  1.0 0.129434639
H  H24  1  0.41290000  0.26710000  0.31640000  1.0 0.129434639
H  H25  1  0.31560000  0.16350000  0.87670000  1.0 0.1379955161
H  H26  1  0.68440000  0.66350000  0.62330000  1.0 0.129434639
H  H27  1  0.68440000  0.83650000  0.12330000  1.0 0.1379955161
H  H28  1  0.31560000  0.33650000  0.37670000  1.0 0.1379955161
H  H29  1  0.28800000  0.19090000  0.94070000  1.0 0.0988451463
H  H30  1  0.71200000  0.69090000  0.55930000  1.0 0.0988451463
H  H31  1  0.71200000  0.80910000  0.05930000  1.0 0.0988451463
H  H32  1  0.28800000  0.30910000  0.44070000  1.0 0.0988451463
H  H33  1  0.33900000  0.05020000  0.83100000  1.0 0.0988451463
H  H34  1  0.66100000  0.55020000  0.66900000  1.0 0.0988451463
H  H35  1  0.66100000  0.94980000  0.16900000  1.0 0.0988451463
H  H36  1  0.33900000  0.44980000  0.33100000  1.0 0.0988451463
H  H37  1  0.37490000  0.09860000  0.83300000  1.0 0.129434639
H  H38  1  0.62510000  0.59860000  0.66700000  1.0 0.129434639
H  H39  1  0.62510000  0.90140000  0.16700000  1.0 0.129434639
H  H40  1  0.37490000  0.40140000  0.33300000  1.0 0.129434639
H  H41  1  0.27440000  0.09550000  0.66140000  1.0 0.1379955161
H  H42  1  0.72560000  0.59550000  0.83860000  1.0 0.1379955161
H  H43  1  0.72560000  0.90450000  0.33860000  1.0 0.1379955161
H  H44  1  0.27440000  0.40450000  0.16140000  1.0 0.1379955161
H  H45  1  0.25960000  0.04670000  0.66570000  1.0 0.0894783748
H  H46  1  0.74040000  0.54670000  0.83430000  1.0 0.0894783748
H  H47  1  0.74040000  0.95330000  0.33430000  1.0 0.0894783748
H  H48  1  0.25960000  0.45330000  0.16570000  1.0 0.0894783748
H  H49  1  0.13850000  0.25340000  0.37470000  1.0 0.1094836076
H  H50  1  0.86150000  0.75340000  0.12530000  1.0 0.1094836076
H  H51  1  0.86150000  0.74660000  0.62530000  1.0 0.1094836076
H  H52  1  0.13850000  0.24660000  0.87470000  1.0 0.1094836076
H  H53  1  0.95100000  0.23090000  0.29460000  1.0 0.1379955161
H  H54  1  0.04900000  0.73090000  0.20540000  1.0 0.1379955161
H  H55  1  0.04900000  0.76910000  0.70540000  1.0 0.1379955161
H  H56  1  0.95100000  0.26910000  0.79460000  1.0 0.1379955161
H  H57  1  0.11900000  0.15620000  0.36580000  1.0 0.129434639
H  H58  1  0.88100000  0.65620000  0.13420000  1.0 0.129434639
H  H59  1  0.88100000  0.84380000  0.63420000  1.0 0.129434639
H  H60  1  0.11900000  0.34380000  0.86580000  1.0 0.129434639
H  H61  1  0.27710000  0.18190000  0.43960000  1.0 0.0988451463
H  H62  1  0.72290000  0.68190000  0.06040000  1.0 0.0988451463
H  H63  1  0.72290000  0.81810000  0.56040000  1.0 0.0988451463
H  H64  1  0.27710000  0.31810000  0.93960000  1.0 0.0988451463
H  H65  1  0.60620000  0.25680000  0.09500000  1.0 0.118137253
H  H66  1  0.39380000  0.75680000  0.40500000  1.0 0.118137253
H  H67  1  0.39380000  0.74320000  0.90500000  1.0 0.118137253
H  H68  1  0.60620000  0.24320000  0.59500000  1.0 0.118137253
H  H69  1  0.72820000  0.23350000  0.17170000  1.0 0.129434639
H  H70  1  0.27180000  0.73350000  0.32830000  1.0 0.129434639
H  H71  1  0.27180000  0.76650000  0.82830000  1.0 0.129434639
H  H72  1  0.72820000  0.26650000  0.67170000  1.0 0.129434639
H  H73  1  0.51030000  0.16430000  0.11430000  1.0 0.1379955161
H  H74  1  0.48970000  0.66430000  0.38570000  1.0 0.1379955161
H  H75  1  0.48970000  0.83570000  0.88570000  1.0 0.1379955161
H  H76  1  0.51030000  0.33570000  0.61430000  1.0 0.1379955161
H  H77  1  0.37330000  0.19320000  0.04260000  1.0 0.0988451463
H  H78  1  0.62670000  0.69320000  0.45740000  1.0 0.0988451463
H  H79  1  0.62670000  0.80680000  0.95740000  1.0 0.0988451463
H  H80  1  0.37330000  0.30680000  0.54260000  1.0 0.0988451463
H  H81  1  0.91040000  0.05090000  0.32710000  1.0 0.0894783748
H  H82  1  0.08960000  0.55090000  0.17290000  1.0 0.0894783748
H  H83  1  0.08960000  0.94910000  0.67290000  1.0 0.0894783748
H  H84  1  0.91040000  0.44910000  0.82710000  1.0 0.0894783748
H  H85  1  0.93360000  0.09820000  0.32350000  1.0 0.129434639
H  H86  1  0.06640000  0.59820000  0.17650000  1.0 0.129434639
H  H87  1  0.06640000  0.90180000  0.67650000  1.0 0.129434639
H  H88  1  0.93360000  0.40180000  0.82350000  1.0 0.129434639
H  H89  1  0.63770000  0.10390000  0.16180000  1.0 0.1094836076
H  H90  1  0.36230000  0.60390000  0.33820000  1.0 0.1094836076
H  H91  1  0.36230000  0.89610000  0.83820000  1.0 0.1094836076
H  H92  1  0.63770000  0.39610000  0.66180000  1.0 0.1094836076
H  H93  1  0.62110000  0.05350000  0.16600000  1.0 0.0894783748
H  H94  1  0.37890000  0.55350000  0.33400000  1.0 0.0894783748
H  H95  1  0.37890000  0.94650000  0.83400000  1.0 0.0894783748
H  H96  1  0.62110000  0.44650000  0.66600000  1.0 0.0894783748
H  H97  1  0.48070000  0.00610000  0.74170000  1.0 0.118137253
H  H98  1  0.51930000  0.50610000  0.75830000  1.0 0.118137253
H  H99  1  0.51930000  0.99390000  0.25830000  1.0 0.118137253
H  H100  1  0.48070000  0.49390000  0.24170000  1.0 0.118137253
H  H101  1  0.69190000  0.00830000  0.80060000  1.0 0.1094836076
H  H102  1  0.30810000  0.50830000  0.69940000  1.0 0.1094836076
H  H103  1  0.30810000  0.99170000  0.19940000  1.0 0.1094836076
H  H104  1  0.69190000  0.49170000  0.30060000  1.0 0.1094836076
H  H105  1  0.66430000  0.98350000  0.94520000  1.0 0.0894783748
H  H106  1  0.33570000  0.48350000  0.55480000  1.0 0.0894783748
H  H107  1  0.33570000  0.01650000  0.05480000  1.0 0.0894783748
H  H108  1  0.66430000  0.51650000  0.44520000  1.0 0.0894783748
H  H109  1  0.45300000  0.98130000  0.88630000  1.0 0.0581509566
H  H110  1  0.54700000  0.48130000  0.61370000  1.0 0.0581509566
H  H111  1  0.54700000  0.01870000  0.11370000  1.0 0.0581509566
H  H112  1  0.45300000  0.51870000  0.38630000  1.0 0.0581509566
H  H113  1  0.00380000  0.01520000  0.73980000  1.0 0.0988451463
H  H114  1  0.99620000  0.51520000  0.76020000  1.0 0.0988451463
H  H115  1  0.99620000  0.98480000  0.26020000  1.0 0.0988451463
H  H116  1  0.00380000  0.48480000  0.23980000  1.0 0.0988451463
H  H117  1  0.91750000  0.02140000  0.80180000  1.0 0.0988451463
H  H118  1  0.08250000  0.52140000  0.69820000  1.0 0.0988451463
H  H119  1  0.08250000  0.97860000  0.19820000  1.0 0.0988451463
H  H120  1  0.91750000  0.47860000  0.30180000  1.0 0.0988451463
H  H121  1  0.23720000  0.99910000  0.94550000  1.0 0.0988451463
H  H122  1  0.76280000  0.49910000  0.55450000  1.0 0.0988451463
H  H123  1  0.76280000  0.00090000  0.05450000  1.0 0.0988451463
H  H124  1  0.23720000  0.50090000  0.44550000  1.0 0.0988451463
H  H125  1  0.32350000  0.99290000  0.88350000  1.0 0.0988451463
H  H126  1  0.67650000  0.49290000  0.61650000  1.0 0.0988451463
H  H127  1  0.67650000  0.00710000  0.11650000  1.0 0.0988451463
H  H128  1  0.32350000  0.50710000  0.38350000  1.0 0.0988451463
H  H129  1  0.34320000  0.00810000  0.17050000  1.0 0.1094836076
H  H130  1  0.65680000  0.50810000  0.32950000  1.0 0.1094836076
H  H131  1  0.65680000  0.99190000  0.82950000  1.0 0.1094836076
H  H132  1  0.34320000  0.49190000  0.67050000  1.0 0.1094836076
H  H133  1  0.22970000  0.01940000  0.06880000  1.0 0.0988451463
H  H134  1  0.77030000  0.51940000  0.43120000  1.0 0.0988451463
H  H135  1  0.77030000  0.98060000  0.93120000  1.0 0.0988451463
H  H136  1  0.22970000  0.48060000  0.56880000  1.0 0.0988451463
H  H137  1  0.92200000  0.99480000  0.06960000  1.0 0.1094836076
H  H138  1  0.07800000  0.49480000  0.43040000  1.0 0.1094836076
H  H139  1  0.07800000  0.00520000  0.93040000  1.0 0.1094836076
H  H140  1  0.92200000  0.50520000  0.56960000  1.0 0.1094836076
H  H141  1  0.03550000  0.98350000  0.17130000  1.0 0.1094836076
H  H142  1  0.96450000  0.48350000  0.32870000  1.0 0.1094836076
H  H143  1  0.96450000  0.01650000  0.82870000  1.0 0.1094836076
H  H144  1  0.03550000  0.51650000  0.67130000  1.0 0.1094836076
H  H145  1  0.06070000  0.01790000  0.61310000  1.0 0.0988451463
H  H146  1  0.93930000  0.51790000  0.88690000  1.0 0.0988451463
H  H147  1  0.93930000  0.98210000  0.38690000  1.0 0.0988451463
H  H148  1  0.06070000  0.48210000  0.11310000  1.0 0.0988451463
H  H149  1  0.85000000  0.01420000  0.55310000  1.0 0.1094836076
H  H150  1  0.15000000  0.51420000  0.94690000  1.0 0.1094836076
H  H151  1  0.15000000  0.98580000  0.44690000  1.0 0.1094836076
H  H152  1  0.85000000  0.48580000  0.05310000  1.0 0.1094836076
H  H153  1  0.82110000  0.98830000  0.69680000  1.0 0.1094836076
H  H154  1  0.17890000  0.48830000  0.80320000  1.0 0.1094836076
H  H155  1  0.17890000  0.01170000  0.30320000  1.0 0.1094836076
H  H156  1  0.82110000  0.51170000  0.19680000  1.0 0.1094836076
H  H157  1  0.03180000  0.99210000  0.75680000  1.0 0.0988451463
H  H158  1  0.96820000  0.49210000  0.74320000  1.0 0.0988451463
H  H159  1  0.96820000  0.00790000  0.24320000  1.0 0.0988451463
H  H160  1  0.03180000  0.50790000  0.25680000  1.0 0.0988451463
H  H161  1  0.48700000  0.01370000  0.33020000  1.0 0.1094836076
H  H162  1  0.51300000  0.51370000  0.16980000  1.0 0.1094836076
H  H163  1  0.51300000  0.98630000  0.66980000  1.0 0.1094836076
H  H164  1  0.48700000  0.48630000  0.83020000  1.0 0.1094836076
H  H165  1  0.58490000  0.01290000  0.43470000  1.0 0.1094836076
H  H166  1  0.41510000  0.51290000  0.06530000  1.0 0.1094836076
H  H167  1  0.41510000  0.98710000  0.56530000  1.0 0.1094836076
H  H168  1  0.58490000  0.48710000  0.93470000  1.0 0.1094836076
H  H169  1  0.26040000  0.00230000  0.42900000  1.0 0.1094836076
H  H170  1  0.73960000  0.50230000  0.07100000  1.0 0.1094836076
H  H171  1  0.73960000  0.99770000  0.57100000  1.0 0.1094836076
H  H172  1  0.26040000  0.49770000  0.92900000  1.0 0.1094836076
H  H173  1  0.16260000  0.00310000  0.32460000  1.0 0.0988451463
H  H174  1  0.83740000  0.50310000  0.17540000  1.0 0.0894783748
H  H175  1  0.83740000  0.99690000  0.67540000  1.0 0.0988451463
H  H176  1  0.16260000  0.49690000  0.82460000  1.0 0.0988451463
H  H177  1  0.17280000  0.98220000  0.61920000  1.0 0.0894783748
H  H178  1  0.82720000  0.48220000  0.88080000  1.0 0.0894783748
H  H179  1  0.82720000  0.01780000  0.38080000  1.0 0.0894783748
H  H180  1  0.17280000  0.51780000  0.11920000  1.0 0.0894783748
H  H181  1  0.29750000  0.98220000  0.55900000  1.0 0.0581509566
H  H182  1  0.70250000  0.48220000  0.94100000  1.0 0.0581509566
H  H183  1  0.70250000  0.01780000  0.44100000  1.0 0.0581509566
H  H184  1  0.29750000  0.51780000  0.05900000  1.0 0.0581509566
H  H185  1  0.58790000  0.01500000  0.69890000  1.0 0.118137253
H  H186  1  0.41210000  0.51500000  0.80110000  1.0 0.118137253
H  H187  1  0.41210000  0.98500000  0.30110000  1.0 0.118137253
H  H188  1  0.58790000  0.48500000  0.19890000  1.0 0.118137253
H  H189  1  0.50440000  0.01450000  0.75530000  1.0 0.1094836076
H  H190  1  0.49560000  0.51450000  0.74470000  1.0 0.1094836076
H  H191  1  0.49560000  0.98550000  0.24470000  1.0 0.1094836076
H  H192  1  0.50440000  0.48550000  0.25530000  1.0 0.1094836076
H  H193  1  0.33420000  0.07290000  0.96220000  1.0 0.1583950169
H  H194  1  0.66580000  0.57290000  0.53780000  1.0 0.1583950169
H  H195  1  0.66580000  0.92710000  0.03780000  1.0 0.1583950169
H  H196  1  0.33420000  0.42710000  0.46220000  1.0 0.1583950169
H  H197  1  0.41930000  0.07070000  0.03560000  1.0 0.167558717
H  H198  1  0.58070000  0.57070000  0.46440000  1.0 0.167558717
H  H199  1  0.58070000  0.92930000  0.96440000  1.0 0.167558717
H  H200  1  0.41930000  0.42930000  0.53560000  1.0 0.167558717
H  H201  1  0.49690000  0.03890000  0.00040000  1.0 0.0894783748
H  H202  1  0.50310000  0.53890000  0.49960000  1.0 0.0894783748
H  H203  1  0.50310000  0.96110000  0.99960000  1.0 0.0894783748
H  H204  1  0.49690000  0.46110000  0.50040000  1.0 0.0894783748
C  C1  1  0.53420000  0.20000000  0.48670000  1.0 0.1499861855
C  C2  1  0.46580000  0.70000000  0.01330000  1.0 0.1499861855
C  C3  1  0.46580000  0.80000000  0.51330000  1.0 0.1499861855
C  C4  1  0.53420000  0.30000000  0.98670000  1.0 0.1499861855
C  C5  1  0.12930000  0.28610000  0.48200000  1.0 0.2281619035
C  C6  1  0.87070000  0.78610000  0.01800000  1.0 0.2281619035
C  C7  1  0.87070000  0.71390000  0.51800000  1.0 0.2281619035
C  C8  1  0.12930000  0.21390000  0.98200000  1.0 0.2281619035
C  C9  1  0.35610000  0.17320000  0.70170000  1.0 0.3375427447
C  C10  1  0.64390000  0.67320000  0.79830000  1.0 0.3375427447
C  C11  1  0.64390000  0.82680000  0.29830000  1.0 0.3375427447
C  C12  1  0.35610000  0.32680000  0.20170000  1.0 0.3375427447
C  C13  1  0.35880000  0.17850000  0.79200000  1.0 0.3188057192
C  C14  1  0.64120000  0.67850000  0.70800000  1.0 0.3188057192
C  C15  1  0.64120000  0.82150000  0.20800000  1.0 0.3188057192
C  C16  1  0.35880000  0.32150000  0.29200000  1.0 0.3188057192
C  C17  1  0.33370000  0.13420000  0.74960000  1.0 0.3339066975
C  C18  1  0.66630000  0.63420000  0.75040000  1.0 0.3339066975
C  C19  1  0.66630000  0.86580000  0.25040000  1.0 0.3339066975
C  C20  1  0.33370000  0.36580000  0.24960000  1.0 0.3339066975
C  C21  1  0.30670000  0.23100000  0.59510000  1.0 0.0545698613
C  C22  1  0.69330000  0.73100000  0.90490000  1.0 0.0581509566
C  C23  1  0.69330000  0.76900000  0.40490000  1.0 0.0581509566
C  C24  1  0.30670000  0.26900000  0.09510000  1.0 0.0545698613
C  C25  1  0.31110000  0.21760000  0.63780000  1.0 -0.178383214
C  C26  1  0.68890000  0.71760000  0.86220000  1.0 -0.178383214
C  C27  1  0.68890000  0.78240000  0.36220000  1.0 -0.178383214
C  C28  1  0.31110000  0.28240000  0.13780000  1.0 -0.1708030839
C  C29  1  0.33690000  0.18897000  0.65180000  1.0 -0.0023652734
C  C30  1  0.66310000  0.68897000  0.84820000  1.0 -0.0023652734
C  C31  1  0.66310000  0.81103000  0.34820000  1.0 -0.0023652734
C  C32  1  0.33690000  0.31103000  0.15180000  1.0 -0.0023652734
C  C33  1  0.35830000  0.17617000  0.61070000  1.0 -0.1891164292
C  C34  1  0.64170000  0.67617000  0.88930000  1.0 -0.1891164292
C  C35  1  0.64170000  0.82383000  0.38930000  1.0 -0.1891164292
C  C36  1  0.35830000  0.32383000  0.11070000  1.0 -0.1891164292
C  C37  1  0.36460000  0.19122000  0.56870000  1.0 0.0693386338
C  C38  1  0.63540000  0.69122000  0.93130000  1.0 0.0693386338
C  C39  1  0.63540000  0.80878000  0.43130000  1.0 0.0693386338
C  C40  1  0.36460000  0.30878000  0.06870000  1.0 0.0693386338
C  C41  1  0.40020000  0.23910000  0.88750000  1.0 0.0319394048
C  C42  1  0.59980000  0.73910000  0.61250000  1.0 0.0396033735
C  C43  1  0.59980000  0.76090000  0.11250000  1.0 0.0319394048
C  C44  1  0.40020000  0.26090000  0.38750000  1.0 0.0319394048
C  C45  1  0.39170000  0.22430000  0.84370000  1.0 -0.1389149974
C  C46  1  0.60830000  0.72430000  0.65630000  1.0 -0.1389149974
C  C47  1  0.60830000  0.77570000  0.15630000  1.0 -0.1389149974
C  C48  1  0.39170000  0.27570000  0.34370000  1.0 -0.1389149974
C  C49  1  0.35010000  0.19448000  0.83500000  1.0 0.0225168756
C  C50  1  0.64990000  0.69448000  0.66500000  1.0 0.0225168756
C  C51  1  0.64990000  0.80552000  0.16500000  1.0 0.0225168756
C  C52  1  0.35010000  0.30552000  0.33500000  1.0 0.0225168756
C  C53  1  0.32680000  0.18381000  0.87630000  1.0 -0.1389149974
C  C54  1  0.67320000  0.68381000  0.62370000  1.0 -0.1389149974
C  C55  1  0.67320000  0.81619000  0.12370000  1.0 -0.1315875939
C  C56  1  0.32680000  0.31619000  0.37630000  1.0 -0.1389149974
C  C57  1  0.31830000  0.19963000  0.91700000  1.0 0.0693386338
C  C58  1  0.68170000  0.69963000  0.58300000  1.0 0.0693386338
C  C59  1  0.68170000  0.80037000  0.08300000  1.0 0.0693386338
C  C60  1  0.31830000  0.30037000  0.41700000  1.0 0.0693386338
C  C61  1  0.32630000  0.05970000  0.79550000  1.0 0.0319394048
C  C62  1  0.67370000  0.55970000  0.70450000  1.0 0.0319394048
C  C63  1  0.67370000  0.94030000  0.20450000  1.0 0.0319394048
C  C64  1  0.32630000  0.44030000  0.29550000  1.0 0.0319394048
C  C65  1  0.34710000  0.08885000  0.79600000  1.0 -0.1495372432
C  C66  1  0.65290000  0.58885000  0.70400000  1.0 -0.1495372432
C  C67  1  0.65290000  0.91115000  0.20400000  1.0 -0.1495372432
C  C68  1  0.34710000  0.41115000  0.29600000  1.0 -0.1495372432
C  C69  1  0.33290000  0.10427000  0.75150000  1.0 0.0396033735
C  C70  1  0.66710000  0.60427000  0.74850000  1.0 0.0396033735
C  C71  1  0.66710000  0.89573000  0.24850000  1.0 0.0396033735
C  C72  1  0.33290000  0.39573000  0.25150000  1.0 0.0396033735
C  C73  1  0.29180000  0.08653000  0.69810000  1.0 -0.1708030839
C  C74  1  0.70820000  0.58653000  0.80190000  1.0 -0.1708030839
C  C75  1  0.70820000  0.91347000  0.30190000  1.0 -0.1708030839
C  C76  1  0.29180000  0.41347000  0.19810000  1.0 -0.1708030839
C  C77  1  0.27840000  0.05830000  0.69970000  1.0 -0.0380212978
C  C78  1  0.72160000  0.55830000  0.80030000  1.0 -0.0380212978
C  C79  1  0.72160000  0.94170000  0.30030000  1.0 -0.0380212978
C  C80  1  0.27840000  0.44170000  0.19970000  1.0 -0.0380212978
C  C81  1  0.91450000  0.17709000  0.28310000  1.0 0.2809141003
C  C82  1  0.08550000  0.67709000  0.21690000  1.0 0.2809141003
C  C83  1  0.08550000  0.82291000  0.71690000  1.0 0.2809141003
C  C84  1  0.91450000  0.32291000  0.78310000  1.0 0.2809141003
C  C85  1  0.74210000  0.17814000  0.19590000  1.0 0.3469989322
C  C86  1  0.25790000  0.67814000  0.30410000  1.0 0.3469989322
C  C87  1  0.25790000  0.82186000  0.80410000  1.0 0.3469989322
C  C88  1  0.74210000  0.32186000  0.69590000  1.0 0.3469989322
C  C89  1  0.81180000  0.13486000  0.24150000  1.0 0.3339066975
C  C90  1  0.18820000  0.63486000  0.25850000  1.0 0.3339066975
C  C91  1  0.18820000  0.86514000  0.75850000  1.0 0.3339066975
C  C92  1  0.81180000  0.36514000  0.74150000  1.0 0.3339066975
C  C93  1  0.13130000  0.23290000  0.37480000  1.0 0.0988451463
C  C94  1  0.86870000  0.73290000  0.12520000  1.0 0.0988451463
C  C95  1  0.86870000  0.76710000  0.62520000  1.0 0.0988451463
C  C96  1  0.13130000  0.26710000  0.87480000  1.0 0.0988451463
C  C97  1  0.01710000  0.21980000  0.32320000  1.0 -0.1495372432
C  C98  1  0.98290000  0.71980000  0.17680000  1.0 -0.1495372432
C  C99  1  0.98290000  0.78020000  0.67680000  1.0 -0.1495372432
C  C100  1  0.01710000  0.28020000  0.82320000  1.0 -0.1495372432
C  C101  1  0.02080000  0.18992000  0.32290000  1.0 0.0396033735
C  C102  1  0.97920000  0.68992000  0.17710000  1.0 0.0396033735
C  C103  1  0.97920000  0.81008000  0.67710000  1.0 0.0396033735
C  C104  1  0.02080000  0.31008000  0.82290000  1.0 0.0396033735
C  C105  1  0.11500000  0.17682000  0.36550000  1.0 -0.1315875939
C  C106  1  0.88500000  0.67682000  0.13450000  1.0 -0.1315875939
C  C107  1  0.88500000  0.82318000  0.63450000  1.0 -0.1315875939
C  C108  1  0.11500000  0.32318000  0.86550000  1.0 -0.1315875939
C  C109  1  0.20980000  0.19260000  0.41050000  1.0 0.0894783748
C  C110  1  0.79020000  0.69260000  0.08950000  1.0 0.0894783748
C  C111  1  0.79020000  0.80740000  0.58950000  1.0 0.0894783748
C  C112  1  0.20980000  0.30740000  0.91050000  1.0 0.0894783748
C  C113  1  0.58400000  0.23791000  0.10080000  1.0 0.013427995
C  C114  1  0.41600000  0.73791000  0.39920000  1.0 0.013427995
C  C115  1  0.41600000  0.76209000  0.89920000  1.0 0.013427995
C  C116  1  0.58400000  0.26209000  0.60080000  1.0 0.013427995
C  C117  1  0.65850000  0.22357000  0.14240000  1.0 -0.1315875939
C  C118  1  0.34150000  0.72357000  0.35760000  1.0 -0.1315875939
C  C119  1  0.34150000  0.77643000  0.85760000  1.0 -0.1315875939
C  C120  1  0.65850000  0.27643000  0.64240000  1.0 -0.1315875939
C  C121  1  0.65110000  0.19490000  0.15070000  1.0 -0.0102584677
C  C122  1  0.34890000  0.69490000  0.34930000  1.0 -0.0102584677
C  C123  1  0.34890000  0.80510000  0.84930000  1.0 -0.0102584677
C  C124  1  0.65110000  0.30510000  0.65070000  1.0 -0.0102584677
C  C125  1  0.53120000  0.18370000  0.11080000  1.0 -0.1708030839
C  C126  1  0.46880000  0.68370000  0.38920000  1.0 -0.1708030839
C  C127  1  0.46880000  0.81630000  0.88920000  1.0 -0.1708030839
C  C128  1  0.53120000  0.31630000  0.61080000  1.0 -0.1708030839
C  C129  1  0.45020000  0.20133000  0.06880000  1.0 0.0894783748
C  C130  1  0.54980000  0.70133000  0.43120000  1.0 0.0894783748
C  C131  1  0.54980000  0.79867000  0.93120000  1.0 0.0894783748
C  C132  1  0.45020000  0.29867000  0.56880000  1.0 0.0894783748
C  C133  1  0.85320000  0.06099000  0.29240000  1.0 -0.0183007912
C  C134  1  0.14680000  0.56099000  0.20760000  1.0 -0.0183007912
C  C135  1  0.14680000  0.93901000  0.70760000  1.0 -0.0183007912
C  C136  1  0.85320000  0.43901000  0.79240000  1.0 -0.0183007912
C  C137  1  0.86790000  0.08916000  0.29010000  1.0 -0.1183959272
C  C138  1  0.13210000  0.58916000  0.20990000  1.0 -0.1183959272
C  C139  1  0.13210000  0.91084000  0.70990000  1.0 -0.1183959272
C  C140  1  0.86790000  0.41084000  0.79010000  1.0 -0.1183959272
C  C141  1  0.79770000  0.10515000  0.24490000  1.0 0.0396033735
C  C142  1  0.20230000  0.60515000  0.25510000  1.0 0.0396033735
C  C143  1  0.20230000  0.89485000  0.75510000  1.0 0.0396033735
C  C144  1  0.79770000  0.39485000  0.74490000  1.0 0.0396033735
C  C145  1  0.69450000  0.09280000  0.19490000  1.0 -0.1315875939
C  C146  1  0.30550000  0.59280000  0.30510000  1.0 -0.1389149974
C  C147  1  0.30550000  0.90720000  0.80510000  1.0 -0.1315875939
C  C148  1  0.69450000  0.40720000  0.69490000  1.0 -0.1315875939
C  C149  1  0.68530000  0.06290000  0.19940000  1.0 -0.0886239381
C  C150  1  0.31470000  0.56290000  0.30060000  1.0 -0.0886239381
C  C151  1  0.31470000  0.93710000  0.80060000  1.0 -0.0886239381
C  C152  1  0.68530000  0.43710000  0.69940000  1.0 -0.0886239381
C  C153  1  0.00630000  0.00970000  0.63160000  1.0 0.0693386338
C  C154  1  0.99370000  0.50970000  0.86840000  1.0 0.0693386338
C  C155  1  0.99370000  0.99030000  0.36840000  1.0 0.0693386338
C  C156  1  0.00630000  0.49030000  0.13160000  1.0 0.0693386338
C  C157  1  0.27150000  0.98010000  0.63950000  1.0 0.1499861855
C  C158  1  0.72850000  0.48010000  0.86050000  1.0 0.1499861855
C  C159  1  0.72850000  0.01990000  0.36050000  1.0 0.1499861855
C  C160  1  0.27150000  0.51990000  0.13950000  1.0 0.1499861855
C  C161  1  0.83220000  0.00160000  0.90330000  1.0 0.0581509566
C  C162  1  0.16780000  0.50160000  0.59670000  1.0 0.0581509566
C  C163  1  0.16780000  0.99840000  0.09670000  1.0 0.0581509566
C  C164  1  0.83220000  0.49840000  0.40330000  1.0 0.0581509566
C  C165  1  0.97570000  0.02300000  0.89300000  1.0 -0.0729763784
C  C166  1  0.02430000  0.52300000  0.60700000  1.0 -0.0729763784
C  C167  1  0.02430000  0.97700000  0.10700000  1.0 -0.0729763784
C  C168  1  0.97570000  0.47700000  0.39300000  1.0 -0.0729763784
C  C169  1  0.01510000  0.00840000  0.00500000  1.0 0.1094836076
C  C170  1  0.98490000  0.50840000  0.49500000  1.0 0.1094836076
C  C171  1  0.98490000  0.99160000  0.99500000  1.0 0.1094836076
C  C172  1  0.01510000  0.49160000  0.50500000  1.0 0.1094836076
C  C173  1  0.51790000  0.00150000  0.78300000  1.0 -0.109006155
C  C174  1  0.48210000  0.50150000  0.71700000  1.0 -0.109006155
C  C175  1  0.48210000  0.99850000  0.21700000  1.0 -0.109006155
C  C176  1  0.51790000  0.49850000  0.28300000  1.0 -0.1024641854
C  C177  1  0.64340000  0.00280000  0.81800000  1.0 -0.1315875939
C  C178  1  0.35660000  0.50280000  0.68200000  1.0 -0.1315875939
C  C179  1  0.35660000  0.99720000  0.18200000  1.0 -0.1315875939
C  C180  1  0.64340000  0.49720000  0.31800000  1.0 -0.1315875939
C  C181  1  0.69810000  0.99610000  0.87850000  1.0 -0.0380212978
C  C182  1  0.30190000  0.49610000  0.62150000  1.0 -0.0380212978
C  C183  1  0.30190000  0.00390000  0.12150000  1.0 -0.0380212978
C  C184  1  0.69810000  0.50390000  0.37850000  1.0 -0.0380212978
C  C185  1  0.62700000  0.98810000  0.90390000  1.0 -0.1643573731
C  C186  1  0.37300000  0.48810000  0.59610000  1.0 -0.1643573731
C  C187  1  0.37300000  0.01190000  0.09610000  1.0 -0.1643573731
C  C188  1  0.62700000  0.51190000  0.40390000  1.0 -0.1643573731
C  C189  1  0.50150000  0.98670000  0.86890000  1.0 0.0581509566
C  C190  1  0.49850000  0.48670000  0.63110000  1.0 0.0581509566
C  C191  1  0.49850000  0.01330000  0.13110000  1.0 0.0581509566
C  C192  1  0.50150000  0.51330000  0.36890000  1.0 0.0581509566
C  C193  1  0.05120000  0.01190000  0.78160000  1.0 -0.1024641854
C  C194  1  0.94880000  0.51190000  0.71840000  1.0 -0.1024641854
C  C195  1  0.94880000  0.98810000  0.21840000  1.0 -0.1024641854
C  C196  1  0.05120000  0.48810000  0.28160000  1.0 -0.1024641854
C  C197  1  0.99990000  0.01560000  0.81840000  1.0 -0.1708030839
C  C198  1  0.00010000  0.51560000  0.68160000  1.0 -0.1708030839
C  C199  1  0.00010000  0.98440000  0.18160000  1.0 -0.1708030839
C  C200  1  0.99990000  0.48440000  0.31840000  1.0 -0.1708030839
C  C201  1  0.06920000  0.01090000  0.87950000  1.0 -0.0183007912
C  C202  1  0.93080000  0.51090000  0.62050000  1.0 -0.0183007912
C  C203  1  0.93080000  0.98910000  0.12050000  1.0 -0.0183007912
C  C204  1  0.06920000  0.48910000  0.37950000  1.0 -0.0183007912
C  C205  1  0.18990000  0.00240000  0.90380000  1.0 -0.1495372432
C  C206  1  0.81010000  0.50240000  0.59620000  1.0 -0.1495372432
C  C207  1  0.81010000  0.99760000  0.09620000  1.0 -0.1495372432
C  C208  1  0.18990000  0.49760000  0.40380000  1.0 -0.1495372432
C  C209  1  0.24110000  0.99870000  0.86690000  1.0 0.0894783748
C  C210  1  0.75890000  0.49870000  0.63310000  1.0 0.0894783748
C  C211  1  0.75890000  0.00130000  0.13310000  1.0 0.0894783748
C  C212  1  0.24110000  0.50130000  0.36690000  1.0 0.0894783748
C  C213  1  0.25770000  0.00543000  0.15000000  1.0 -0.0023652734
C  C214  1  0.74230000  0.50543000  0.35000000  1.0 -0.0023652734
C  C215  1  0.74230000  0.99457000  0.85000000  1.0 -0.0023652734
C  C216  1  0.25770000  0.49457000  0.65000000  1.0 -0.0023652734
C  C217  1  0.19030000  0.01212000  0.08960000  1.0 -0.0102584677
C  C218  1  0.80970000  0.51212000  0.41040000  1.0 -0.0102584677
C  C219  1  0.80970000  0.98788000  0.91040000  1.0 -0.0102584677
C  C220  1  0.19030000  0.48788000  0.58960000  1.0 -0.0102584677
C  C221  1  0.06530000  0.00816000  0.05970000  1.0 0.0225168756
C  C222  1  0.93470000  0.50816000  0.44030000  1.0 0.0225168756
C  C223  1  0.93470000  0.99184000  0.94030000  1.0 0.0225168756
C  C224  1  0.06530000  0.49184000  0.55970000  1.0 0.0225168756
C  C225  1  0.00750000  0.99750000  0.09010000  1.0 0.0225168756
C  C226  1  0.99250000  0.49750000  0.40990000  1.0 0.0225168756
C  C227  1  0.99250000  0.00250000  0.90990000  1.0 0.0225168756
C  C228  1  0.00750000  0.50250000  0.59010000  1.0 0.0225168756
C  C229  1  0.07490000  0.99081000  0.15050000  1.0 0.0581509566
C  C230  1  0.92510000  0.49081000  0.34950000  1.0 0.0693386338
C  C231  1  0.92510000  0.00919000  0.84950000  1.0 0.0693386338
C  C232  1  0.07490000  0.50919000  0.65050000  1.0 0.0581509566
C  C233  1  0.24620000  0.00815000  0.87130000  1.0 0.0693386338
C  C234  1  0.75380000  0.50815000  0.62870000  1.0 0.0693386338
C  C235  1  0.75380000  0.99185000  0.12870000  1.0 0.0693386338
C  C236  1  0.24620000  0.49185000  0.37130000  1.0 0.0693386338
C  C237  1  0.50430000  0.00282000  0.87220000  1.0 0.1094836076
C  C238  1  0.49570000  0.50282000  0.62780000  1.0 0.1094836076
C  C239  1  0.49570000  0.99718000  0.12780000  1.0 0.1094836076
C  C240  1  0.50430000  0.49718000  0.37220000  1.0 0.1094836076
C  C241  1  0.69130000  0.00070000  0.59000000  1.0 -0.1024641854
C  C242  1  0.30870000  0.50070000  0.91000000  1.0 -0.1024641854
C  C243  1  0.30870000  0.99930000  0.41000000  1.0 -0.1024641854
C  C244  1  0.69130000  0.49930000  0.09000000  1.0 -0.1024641854
C  C245  1  0.50230000  0.99660000  0.49820000  1.0 -0.0886239381
C  C246  1  0.49770000  0.49660000  0.00180000  1.0 -0.0886239381
C  C247  1  0.49770000  0.00340000  0.50180000  1.0 -0.0886239381
C  C248  1  0.50230000  0.50340000  0.99820000  1.0 -0.0886239381
C  C249  1  0.50300000  0.99790000  0.59230000  1.0 0.0225168756
C  C250  1  0.49700000  0.49790000  0.90770000  1.0 0.0225168756
C  C251  1  0.49700000  0.00210000  0.40770000  1.0 0.0225168756
C  C252  1  0.50300000  0.50210000  0.09230000  1.0 0.0225168756
C  C253  1  0.01210000  0.01190000  0.63010000  1.0 0.078783777
C  C254  1  0.98790000  0.51190000  0.86990000  1.0 0.078783777
C  C255  1  0.98790000  0.98810000  0.36990000  1.0 0.078783777
C  C256  1  0.01210000  0.48810000  0.13010000  1.0 0.078783777
C  C257  1  0.88690000  0.00970000  0.59440000  1.0 -0.109006155
C  C258  1  0.11310000  0.50970000  0.90560000  1.0 -0.109006155
C  C259  1  0.11310000  0.99030000  0.40560000  1.0 -0.1183959272
C  C260  1  0.88690000  0.49030000  0.09440000  1.0 -0.109006155
C  C261  1  0.81580000  0.00090000  0.61930000  1.0 -0.047931895
C  C262  1  0.18420000  0.50090000  0.88070000  1.0 -0.047931895
C  C263  1  0.18420000  0.99910000  0.38070000  1.0 -0.0601874731
C  C264  1  0.81580000  0.49910000  0.11930000  1.0 -0.047931895
C  C265  1  0.86980000  0.99430000  0.67980000  1.0 -0.178383214
C  C266  1  0.13020000  0.49430000  0.82020000  1.0 -0.178383214
C  C267  1  0.13020000  0.00570000  0.32020000  1.0 -0.178383214
C  C268  1  0.86980000  0.50570000  0.17980000  1.0 -0.178383214
C  C269  1  0.99490000  0.99660000  0.71550000  1.0 -0.109006155
C  C270  1  0.00510000  0.49660000  0.78450000  1.0 -0.109006155
C  C271  1  0.00510000  0.00340000  0.28450000  1.0 -0.109006155
C  C272  1  0.99490000  0.50340000  0.21550000  1.0 -0.109006155
C  C273  1  0.44100000  0.01140000  0.35030000  1.0 0.0545698613
C  C274  1  0.55900000  0.51140000  0.14970000  1.0 0.0545698613
C  C275  1  0.55900000  0.98860000  0.64970000  1.0 0.0545698613
C  C276  1  0.44100000  0.48860000  0.85030000  1.0 0.0545698613
C  C277  1  0.49910000  0.01090000  0.41230000  1.0 0.0319394048
C  C278  1  0.50090000  0.51090000  0.08770000  1.0 0.0319394048
C  C279  1  0.50090000  0.98910000  0.58770000  1.0 0.0319394048
C  C280  1  0.49910000  0.48910000  0.91230000  1.0 0.0319394048
C  C281  1  0.43190000  0.00750000  0.44170000  1.0 0.0894783748
C  C282  1  0.56810000  0.50750000  0.05830000  1.0 0.0894783748
C  C283  1  0.56810000  0.99250000  0.55830000  1.0 0.0894783748
C  C284  1  0.43190000  0.49250000  0.94170000  1.0 0.0894783748
C  C285  1  0.30650000  0.00460000  0.40900000  1.0 -0.109006155
C  C286  1  0.69350000  0.50460000  0.09100000  1.0 -0.1183959272
C  C287  1  0.69350000  0.99540000  0.59100000  1.0 -0.1183959272
C  C288  1  0.30650000  0.49540000  0.90900000  1.0 -0.1183959272
C  C289  1  0.24820000  0.00510000  0.34690000  1.0 0.0396033735
C  C290  1  0.75180000  0.50510000  0.15310000  1.0 0.0396033735
C  C291  1  0.75180000  0.99490000  0.65310000  1.0 0.0396033735
C  C292  1  0.24820000  0.49490000  0.84690000  1.0 0.0396033735
C  C293  1  0.25490000  0.98750000  0.63390000  1.0 0.129434639
C  C294  1  0.74510000  0.48750000  0.86610000  1.0 0.129434639
C  C295  1  0.74510000  0.01250000  0.36610000  1.0 0.129434639
C  C296  1  0.25490000  0.51250000  0.13390000  1.0 0.129434639
C  C297  1  0.33350000  0.98850000  0.59940000  1.0 -0.1315875939
C  C298  1  0.66650000  0.48850000  0.90060000  1.0 -0.1315875939
C  C299  1  0.66650000  0.01150000  0.40060000  1.0 -0.1315875939
C  C300  1  0.33350000  0.51150000  0.09940000  1.0 -0.1315875939
C  C301  1  0.45570000  0.99860000  0.62860000  1.0 -0.0821463667
C  C302  1  0.54430000  0.49860000  0.87140000  1.0 -0.0821463667
C  C303  1  0.54430000  0.00140000  0.37140000  1.0 -0.0821463667
C  C304  1  0.45570000  0.50140000  0.12860000  1.0 -0.0821463667
C  C305  1  0.50770000  0.00760000  0.68260000  1.0 -0.2011121575
C  C306  1  0.49230000  0.50760000  0.81740000  1.0 -0.2011121575
C  C307  1  0.49230000  0.99240000  0.31740000  1.0 -0.2011121575
C  C308  1  0.50770000  0.49240000  0.18260000  1.0 -0.2011121575
C  C309  1  0.45930000  0.00740000  0.71560000  1.0 -0.047931895
C  C310  1  0.54070000  0.50740000  0.78440000  1.0 -0.047931895
C  C311  1  0.54070000  0.99260000  0.28440000  1.0 -0.047931895
C  C312  1  0.45930000  0.49260000  0.21560000  1.0 -0.0380212978
C  C313  1  0.41620000  0.07651000  0.99730000  1.0 -0.047931895
C  C314  1  0.58380000  0.57651000  0.50270000  1.0 -0.047931895
C  C315  1  0.58380000  0.92349000  0.00270000  1.0 -0.047931895
C  C316  1  0.41620000  0.42349000  0.49730000  1.0 -0.047931895
C  C317  1  0.51140000  0.05995000  0.99700000  1.0 -0.1024641854
C  C318  1  0.48860000  0.55995000  0.50300000  1.0 -0.109006155
C  C319  1  0.48860000  0.94005000  0.00300000  1.0 -0.1024641854
C  C320  1  0.51140000  0.44005000  0.49700000  1.0 -0.109006155
S  S1  1  0.62210000  0.17615000  0.47920000  1.0 -0.1183959272
S  S2  1  0.37790000  0.67615000  0.02080000  1.0 -0.1183959272
S  S3  1  0.37790000  0.82385000  0.52080000  1.0 -0.1183959272
S  S4  1  0.62210000  0.32385000  0.97920000  1.0 -0.1183959272
S  S5  1  0.03020000  0.31209000  0.47010000  1.0 -0.0886239381
S  S6  1  0.96980000  0.81209000  0.02990000  1.0 -0.0886239381
S  S7  1  0.96980000  0.68791000  0.52990000  1.0 -0.0886239381
S  S8  1  0.03020000  0.18791000  0.97010000  1.0 -0.0886239381
S  S9  1  0.65780000  0.18164000  0.52500000  1.0 -0.1315875939
S  S10  1  0.34220000  0.68164000  0.97500000  1.0 -0.1315875939
S  S11  1  0.34220000  0.81836000  0.47500000  1.0 -0.1315875939
S  S12  1  0.65780000  0.31836000  0.02500000  1.0 -0.1315875939
S  S13  1  0.94090000  0.02074000  0.56050000  1.0 -0.0102584677
S  S14  1  0.05910000  0.52074000  0.93950000  1.0 -0.0102584677
S  S15  1  0.05910000  0.97926000  0.43950000  1.0 -0.0102584677
S  S16  1  0.94090000  0.47926000  0.06050000  1.0 -0.0102584677
S  S17  1  0.22660000  0.96445000  0.57170000  1.0 0.0004430213
S  S18  1  0.77340000  0.46445000  0.92830000  1.0 0.0004430213
S  S19  1  0.77340000  0.03555000  0.42830000  1.0 0.0004430213
S  S20  1  0.22660000  0.53555000  0.07170000  1.0 0.0004430213
S  S21  1  0.28480000  0.02063000  0.93960000  1.0 0.0396033735
S  S22  1  0.71520000  0.52063000  0.56040000  1.0 0.0396033735
S  S23  1  0.71520000  0.97937000  0.06040000  1.0 0.0396033735
S  S24  1  0.28480000  0.47937000  0.43960000  1.0 0.0396033735
S  S25  1  0.57553000  0.01512000  0.94303000  1.0 -0.2011121575
S  S26  1  0.42447000  0.51512000  0.55697000  1.0 -0.2011121575
S  S27  1  0.42447000  0.98488000  0.05697000  1.0 -0.1891164292
S  S28  1  0.57553000  0.48488000  0.44303000  1.0 -0.2011121575
N  N1  1  0.46820000  0.21816000  0.49120000  1.0 -0.3686534088
N  N2  1  0.53180000  0.71816000  0.00880000  1.0 -0.3686534088
N  N3  1  0.53180000  0.78184000  0.50880000  1.0 -0.3686534088
N  N4  1  0.46820000  0.28184000  0.99120000  1.0 -0.3686534088
N  N5  1  0.20330000  0.27085000  0.48410000  1.0 -0.4281685256
N  N6  1  0.79670000  0.77085000  0.01590000  1.0 -0.4281685256
N  N7  1  0.79670000  0.72915000  0.51590000  1.0 -0.4281685256
N  N8  1  0.20330000  0.22915000  0.98410000  1.0 -0.4281685256
N  N9  1  0.34930000  0.19197000  0.74450000  1.0 -0.4073834235
N  N10  1  0.65070000  0.69197000  0.75550000  1.0 -0.4073834235
N  N11  1  0.65070000  0.80803000  0.25550000  1.0 -0.4073834235
N  N12  1  0.34930000  0.30803000  0.24450000  1.0 -0.4073834235
N  N13  1  0.34070000  0.14802000  0.79210000  1.0 -0.3686534088
N  N14  1  0.65930000  0.64802000  0.70790000  1.0 -0.3686534088
N  N15  1  0.65930000  0.85198000  0.20790000  1.0 -0.3686534088
N  N16  1  0.34070000  0.35198000  0.29210000  1.0 -0.3686534088
N  N17  1  0.32850000  0.14741000  0.69900000  1.0 -0.3686534088
N  N18  1  0.67150000  0.64741000  0.80100000  1.0 -0.3686534088
N  N19  1  0.67150000  0.85259000  0.30100000  1.0 -0.3686534088
N  N20  1  0.32850000  0.35259000  0.19900000  1.0 -0.3686534088
N  N21  1  0.33870000  0.21727000  0.55970000  1.0 -0.2084442467
N  N22  1  0.66130000  0.71727000  0.94030000  1.0 -0.2084442467
N  N23  1  0.66130000  0.78273000  0.44030000  1.0 -0.2084442467
N  N24  1  0.33870000  0.28273000  0.05970000  1.0 -0.2084442467
N  N25  1  0.35120000  0.22763000  0.92610000  1.0 -0.2345040716
N  N26  1  0.64880000  0.72763000  0.57390000  1.0 -0.2361579217
N  N27  1  0.64880000  0.77237000  0.07390000  1.0 -0.2345040716
N  N28  1  0.35120000  0.27237000  0.42610000  1.0 -0.2361579217
N  N29  1  0.29180000  0.04623000  0.75020000  1.0 -0.2469465785
N  N30  1  0.70820000  0.54623000  0.74980000  1.0 -0.2469465785
N  N31  1  0.70820000  0.95377000  0.24980000  1.0 -0.2469465785
N  N32  1  0.29180000  0.45377000  0.25020000  1.0 -0.2469465785
N  N33  1  0.91440000  0.14620000  0.28720000  1.0 -0.4073834235
N  N34  1  0.08560000  0.64620000  0.21280000  1.0 -0.4073834235
N  N35  1  0.08560000  0.85380000  0.71280000  1.0 -0.4073834235
N  N36  1  0.91440000  0.35380000  0.78720000  1.0 -0.4155243315
N  N37  1  0.83220000  0.19165000  0.23360000  1.0 -0.3686534088
N  N38  1  0.16780000  0.69165000  0.26640000  1.0 -0.3686534088
N  N39  1  0.16780000  0.80835000  0.76640000  1.0 -0.3686534088
N  N40  1  0.83220000  0.30835000  0.73360000  1.0 -0.3686534088
N  N41  1  0.71730000  0.15104000  0.19680000  1.0 -0.4073834235
N  N42  1  0.28270000  0.65104000  0.30320000  1.0 -0.4073834235
N  N43  1  0.28270000  0.84896000  0.80320000  1.0 -0.4073834235
N  N44  1  0.71730000  0.34896000  0.69680000  1.0 -0.4073834235
N  N45  1  0.21390000  0.22004000  0.41590000  1.0 -0.2084442467
N  N46  1  0.78610000  0.72004000  0.08410000  1.0 -0.2084442467
N  N47  1  0.78610000  0.77996000  0.58410000  1.0 -0.2084442467
N  N48  1  0.21390000  0.27996000  0.91590000  1.0 -0.2084442467
N  N49  1  0.46510000  0.22778000  0.06030000  1.0 -0.2178272955
N  N50  1  0.53490000  0.72778000  0.43970000  1.0 -0.2178272955
N  N51  1  0.53490000  0.77222000  0.93970000  1.0 -0.2178272955
N  N52  1  0.46510000  0.27222000  0.56030000  1.0 -0.2178272955
N  N53  1  0.76070000  0.04510000  0.24800000  1.0 -0.3866914637
N  N54  1  0.23930000  0.54510000  0.25200000  1.0 -0.3866914637
N  N55  1  0.23930000  0.95490000  0.75200000  1.0 -0.3866914637
N  N56  1  0.76070000  0.45490000  0.74800000  1.0 -0.3866914637
N  N57  1  0.08700000  0.00390000  0.66930000  1.0 -0.0102584677
N  N58  1  0.91300000  0.50390000  0.83070000  1.0 -0.0102584677
N  N59  1  0.91300000  0.99610000  0.33070000  1.0 -0.0102584677
N  N60  1  0.08700000  0.49610000  0.16930000  1.0 -0.0102584677
N  N61  1  0.30690000  0.99190000  0.68020000  1.0 -0.0102584677
N  N62  1  0.69310000  0.49190000  0.81980000  1.0 -0.0102584677
N  N63  1  0.69310000  0.00810000  0.31980000  1.0 -0.0102584677
N  N64  1  0.30690000  0.50810000  0.18020000  1.0 -0.0102584677
N  N65  1  0.88030000  0.00530000  0.87640000  1.0 0.0693386338
N  N66  1  0.11970000  0.50530000  0.62360000  1.0 0.0693386338
N  N67  1  0.11970000  0.99470000  0.12360000  1.0 0.0693386338
N  N68  1  0.88030000  0.49470000  0.37640000  1.0 0.0693386338
N  N69  1  0.07010000  0.00710000  0.97160000  1.0 -0.178383214
N  N70  1  0.92990000  0.50710000  0.52840000  1.0 -0.1891164292
N  N71  1  0.92990000  0.99290000  0.02840000  1.0 -0.1891164292
N  N72  1  0.07010000  0.49290000  0.47160000  1.0 -0.1891164292
N  N73  1  0.89170000  0.00020000  0.97320000  1.0 -0.1389149974
N  N74  1  0.10830000  0.50020000  0.52680000  1.0 -0.1315875939
N  N75  1  0.10830000  0.99980000  0.02680000  1.0 -0.1315875939
N  N76  1  0.89170000  0.49980000  0.47320000  1.0 -0.1315875939
N  N77  1  0.44690000  0.99350000  0.80840000  1.0 -0.0301541772
N  N78  1  0.55310000  0.49350000  0.69160000  1.0 -0.0301541772
N  N79  1  0.55310000  0.00650000  0.19160000  1.0 -0.0301541772
N  N80  1  0.44690000  0.50650000  0.30840000  1.0 -0.0301541772
N  N81  1  0.17170000  0.00350000  0.80580000  1.0 -0.0301541772
N  N82  1  0.82830000  0.50350000  0.69420000  1.0 -0.0301541772
N  N83  1  0.82830000  0.99650000  0.19420000  1.0 -0.0301541772
N  N84  1  0.17170000  0.49650000  0.30580000  1.0 -0.0301541772
N  N85  1  0.20010000  0.99478000  0.18050000  1.0 -0.2084442467
N  N86  1  0.79990000  0.49478000  0.31950000  1.0 -0.2084442467
N  N87  1  0.79990000  0.00522000  0.81950000  1.0 -0.2084442467
N  N88  1  0.20010000  0.50522000  0.68050000  1.0 -0.2084442467
N  N89  1  0.22890000  0.00509000  0.82250000  1.0 -0.0380212978
N  N90  1  0.77110000  0.50509000  0.67750000  1.0 -0.0380212978
N  N91  1  0.77110000  0.99491000  0.17750000  1.0 -0.0380212978
N  N92  1  0.22890000  0.49491000  0.32250000  1.0 -0.0380212978
N  N93  1  0.42631000  0.00098000  0.82471000  1.0 -0.0601874731
N  N94  1  0.57369000  0.50098000  0.67529000  1.0 -0.0601874731
N  N95  1  0.57369000  0.99902000  0.17529000  1.0 -0.0601874731
N  N96  1  0.42631000  0.49902000  0.32471000  1.0 -0.0601874731
N  N97  1  0.62810000  0.99890000  0.52810000  1.0 -0.0301541772
N  N98  1  0.37190000  0.49890000  0.97190000  1.0 -0.0301541772
N  N99  1  0.37190000  0.00110000  0.47190000  1.0 -0.0380212978
N  N100  1  0.62810000  0.50110000  0.02810000  1.0 -0.0301541772
N  N101  1  0.43970000  0.99610000  0.53030000  1.0 -0.0301541772
N  N102  1  0.56030000  0.49610000  0.96970000  1.0 -0.0301541772
N  N103  1  0.56030000  0.00390000  0.46970000  1.0 -0.0301541772
N  N104  1  0.43970000  0.50390000  0.03030000  1.0 -0.0301541772
N  N105  1  0.62870000  0.00010000  0.62210000  1.0 0.118137253
N  N106  1  0.37130000  0.50010000  0.87790000  1.0 0.118137253
N  N107  1  0.37130000  0.99990000  0.37790000  1.0 0.118137253
N  N108  1  0.62870000  0.49990000  0.12210000  1.0 0.118137253
N  N109  1  0.06610000  0.00540000  0.69060000  1.0 -0.0183007912
N  N110  1  0.93390000  0.50540000  0.80940000  1.0 -0.0183007912
N  N111  1  0.93390000  0.99460000  0.30940000  1.0 -0.0183007912
N  N112  1  0.06610000  0.49460000  0.19060000  1.0 -0.0183007912
N  N113  1  0.31560000  0.00850000  0.31760000  1.0 -0.3006583877
N  N114  1  0.68440000  0.50850000  0.18240000  1.0 -0.3006583877
N  N115  1  0.68440000  0.99150000  0.68240000  1.0 -0.3006583877
N  N116  1  0.31560000  0.49150000  0.81760000  1.0 -0.3006583877
N  N117  1  0.34960000  0.99770000  0.69720000  1.0 -0.0380212978
N  N118  1  0.65040000  0.49770000  0.80280000  1.0 -0.0380212978
N  N119  1  0.65040000  0.00230000  0.30280000  1.0 -0.0380212978
N  N120  1  0.34960000  0.50230000  0.19720000  1.0 -0.0380212978
Cl  Cl1  1  0.46280000  0.11604000  0.00950000  1.0 -0.1315875939
Cl  Cl2  1  0.53720000  0.61604000  0.49050000  1.0 -0.1315875939
Cl  Cl3  1  0.53720000  0.88396000  0.99050000  1.0 -0.1389149974
Cl  Cl4  1  0.46280000  0.38396000  0.50950000  1.0 -0.1389149974
Cl  Cl5  1  0.41970000  0.07530000  0.06560000  1.0 -0.1183959272
Cl  Cl6  1  0.58030000  0.57530000  0.43440000  1.0 -0.1183959272
Cl  Cl7  1  0.58030000  0.92470000  0.93440000  1.0 -0.1183959272
Cl  Cl8  1  0.41970000  0.42470000  0.56560000  1.0 -0.1183959272
Cl  Cl9  1  0.27780000  0.07060000  0.94830000  1.0 -0.1315875939
Cl  Cl10  1  0.72220000  0.57060000  0.55170000  1.0 -0.1315875939
Cl  Cl11  1  0.72220000  0.92940000  0.05170000  1.0 -0.1315875939
Cl  Cl12  1  0.27780000  0.42940000  0.44830000  1.0 -0.1315875939
Cl  Cl13  1  0.49708000  0.06707000  0.92198000  1.0 -0.1183959272
Cl  Cl14  1  0.50292000  0.56707000  0.57802000  1.0 -0.1183959272
Cl  Cl15  1  0.50292000  0.93293000  0.07802000  1.0 -0.1183959272
Cl  Cl16  1  0.49708000  0.43293000  0.42198000  1.0 -0.1183959272
Cl  Cl17  1  0.65860000  0.06863000  0.04930000  1.0 -0.109006155
Cl  Cl18  1  0.34140000  0.56863000  0.45070000  1.0 -0.109006155
Cl  Cl19  1  0.34140000  0.93137000  0.95070000  1.0 -0.109006155
Cl  Cl20  1  0.65860000  0.43137000  0.54930000  1.0 -0.109006155
