# DDEC6 charges by PACMAN v1.1 (https://github.com/mtap-research/PACMAN-charge/)
data_FEWXEM_FSR_pacman
_symmetry_space_group_name_H-M   'P 1'
_cell_length_a   27.01150000
_cell_length_b   27.01150000
_cell_length_c   27.01150000
_cell_angle_alpha   120.00000000
_cell_angle_beta   120.00000000
_cell_angle_gamma   90.00000000
_symmetry_Int_Tables_number   1
_chemical_formula_structural   FeH16C28(S2N5)2
_chemical_formula_sum   'Fe6 H96 C168 S24 N60'
_cell_volume   13935.77443898
_cell_formula_units_Z   6
loop_
 _symmetry_equiv_pos_site_id
 _symmetry_equiv_pos_as_xyz
  1  'x, y, z'
loop_
 _atom_site_type_symbol
 _atom_site_label
 _atom_site_symmetry_multiplicity
 _atom_site_fract_x
 _atom_site_fract_y
 _atom_site_fract_z
 _atom_site_occupancy
 _atom_site_charge
Fe  Fe1  1  0.50000000  0.00000000  0.50000000  1.0 0.6134585107
Fe  Fe2  1  0.00000000  0.50000000  0.50000000  1.0 0.6134585107
Fe  Fe3  1  0.50000000  0.00000000  0.00000000  1.0 0.6134585107
Fe  Fe4  1  0.00000000  0.00000000  0.50000000  1.0 0.6134585107
Fe  Fe5  1  0.00000000  0.50000000  0.00000000  1.0 0.6134585107
Fe  Fe6  1  0.50000000  0.50000000  0.50000000  1.0 0.6134585107
H  H1  1  0.47060000  0.97180000  0.35700000  1.0 0.0942328503
H  H2  1  0.97180000  0.61480000  0.50120000  1.0 0.0942328503
H  H3  1  0.61480000  0.11360000  0.64300000  1.0 0.0942328503
H  H4  1  0.11360000  0.47060000  0.49880000  1.0 0.0942328503
H  H5  1  0.88640000  0.38520000  0.35700000  1.0 0.0942328503
H  H6  1  0.38520000  0.02820000  0.49880000  1.0 0.0942328503
H  H7  1  0.02820000  0.52940000  0.64300000  1.0 0.0942328503
H  H8  1  0.52940000  0.88640000  0.50120000  1.0 0.0942328503
H  H9  1  0.47060000  0.11360000  0.08540000  1.0 0.0942328503
H  H10  1  0.11360000  0.02820000  0.64300000  1.0 0.0942328503
H  H11  1  0.02820000  0.38520000  0.91460000  1.0 0.0942328503
H  H12  1  0.38520000  0.47060000  0.35700000  1.0 0.0942328503
H  H13  1  0.61480000  0.97180000  0.08540000  1.0 0.0942328503
H  H14  1  0.97180000  0.88640000  0.35700000  1.0 0.0942328503
H  H15  1  0.88640000  0.52940000  0.91460000  1.0 0.0942328503
H  H16  1  0.52940000  0.61480000  0.64300000  1.0 0.0942328503
H  H17  1  0.47060000  0.38520000  0.49880000  1.0 0.0942328503
H  H18  1  0.52940000  0.02820000  0.91460000  1.0 0.0942328503
H  H19  1  0.38520000  0.88640000  0.91460000  1.0 0.0942328503
H  H20  1  0.11360000  0.61480000  0.08540000  1.0 0.0942328503
H  H21  1  0.97180000  0.47060000  0.08540000  1.0 0.0942328503
H  H22  1  0.02820000  0.11360000  0.49880000  1.0 0.0942328503
H  H23  1  0.88640000  0.97180000  0.50120000  1.0 0.0942328503
H  H24  1  0.61480000  0.52940000  0.50120000  1.0 0.0942328503
H  H25  1  0.52940000  0.02820000  0.64300000  1.0 0.0942328503
H  H26  1  0.02820000  0.38520000  0.49880000  1.0 0.0942328503
H  H27  1  0.38520000  0.88640000  0.35700000  1.0 0.0942328503
H  H28  1  0.88640000  0.52940000  0.50120000  1.0 0.0942328503
H  H29  1  0.11360000  0.61480000  0.64300000  1.0 0.0942328503
H  H30  1  0.61480000  0.97180000  0.50120000  1.0 0.0942328503
H  H31  1  0.97180000  0.47060000  0.35700000  1.0 0.0942328503
H  H32  1  0.47060000  0.11360000  0.49880000  1.0 0.0942328503
H  H33  1  0.52940000  0.88640000  0.91460000  1.0 0.0942328503
H  H34  1  0.88640000  0.97180000  0.35700000  1.0 0.0942328503
H  H35  1  0.97180000  0.61480000  0.08540000  1.0 0.0942328503
H  H36  1  0.61480000  0.52940000  0.64300000  1.0 0.0942328503
H  H37  1  0.38520000  0.02820000  0.91460000  1.0 0.0942328503
H  H38  1  0.02820000  0.11360000  0.64300000  1.0 0.0942328503
H  H39  1  0.11360000  0.47060000  0.08540000  1.0 0.0942328503
H  H40  1  0.47060000  0.38520000  0.35700000  1.0 0.0942328503
H  H41  1  0.52940000  0.61480000  0.50120000  1.0 0.0942328503
H  H42  1  0.47060000  0.97180000  0.08540000  1.0 0.0942328503
H  H43  1  0.61480000  0.11360000  0.08540000  1.0 0.0942328503
H  H44  1  0.88640000  0.38520000  0.91460000  1.0 0.0942328503
H  H45  1  0.02820000  0.52940000  0.91460000  1.0 0.0942328503
H  H46  1  0.97180000  0.88640000  0.50120000  1.0 0.0942328503
H  H47  1  0.11360000  0.02820000  0.49880000  1.0 0.0942328503
H  H48  1  0.38520000  0.47060000  0.49880000  1.0 0.0942328503
H  H49  1  0.48380000  0.02300000  0.31440000  1.0 0.1257309845
H  H50  1  0.02300000  0.70860000  0.53920000  1.0 0.1257309845
H  H51  1  0.70860000  0.16940000  0.68560000  1.0 0.1257309845
H  H52  1  0.16940000  0.48380000  0.46080000  1.0 0.1257309845
H  H53  1  0.83060000  0.29140000  0.31440000  1.0 0.1257309845
H  H54  1  0.29140000  0.97700000  0.46080000  1.0 0.1257309845
H  H55  1  0.97700000  0.51620000  0.68560000  1.0 0.1257309845
H  H56  1  0.51620000  0.83060000  0.53920000  1.0 0.1257309845
H  H57  1  0.48380000  0.16940000  0.19240000  1.0 0.1257309845
H  H58  1  0.16940000  0.97700000  0.68560000  1.0 0.1257309845
H  H59  1  0.97700000  0.29140000  0.80760000  1.0 0.1257309845
H  H60  1  0.29140000  0.48380000  0.31440000  1.0 0.1257309845
H  H61  1  0.70860000  0.02300000  0.19240000  1.0 0.1257309845
H  H62  1  0.02300000  0.83060000  0.31440000  1.0 0.1257309845
H  H63  1  0.83060000  0.51620000  0.80760000  1.0 0.1257309845
H  H64  1  0.51620000  0.70860000  0.68560000  1.0 0.1257309845
H  H65  1  0.48380000  0.29140000  0.46080000  1.0 0.1257309845
H  H66  1  0.51620000  0.97700000  0.80760000  1.0 0.1257309845
H  H67  1  0.29140000  0.83060000  0.80760000  1.0 0.1257309845
H  H68  1  0.16940000  0.70860000  0.19240000  1.0 0.1257309845
H  H69  1  0.02300000  0.48380000  0.19240000  1.0 0.1257309845
H  H70  1  0.97700000  0.16940000  0.46080000  1.0 0.1257309845
H  H71  1  0.83060000  0.02300000  0.53920000  1.0 0.1257309845
H  H72  1  0.70860000  0.51620000  0.53920000  1.0 0.1257309845
H  H73  1  0.51620000  0.97700000  0.68560000  1.0 0.1257309845
H  H74  1  0.97700000  0.29140000  0.46080000  1.0 0.1257309845
H  H75  1  0.29140000  0.83060000  0.31440000  1.0 0.1257309845
H  H76  1  0.83060000  0.51620000  0.53920000  1.0 0.1257309845
H  H77  1  0.16940000  0.70860000  0.68560000  1.0 0.1257309845
H  H78  1  0.70860000  0.02300000  0.53920000  1.0 0.1257309845
H  H79  1  0.02300000  0.48380000  0.31440000  1.0 0.1257309845
H  H80  1  0.48380000  0.16940000  0.46080000  1.0 0.1257309845
H  H81  1  0.51620000  0.83060000  0.80760000  1.0 0.1257309845
H  H82  1  0.83060000  0.02300000  0.31440000  1.0 0.1257309845
H  H83  1  0.02300000  0.70860000  0.19240000  1.0 0.1257309845
H  H84  1  0.70860000  0.51620000  0.68560000  1.0 0.1257309845
H  H85  1  0.29140000  0.97700000  0.80760000  1.0 0.1257309845
H  H86  1  0.97700000  0.16940000  0.68560000  1.0 0.1257309845
H  H87  1  0.16940000  0.48380000  0.19240000  1.0 0.1257309845
H  H88  1  0.48380000  0.29140000  0.31440000  1.0 0.1257309845
H  H89  1  0.51620000  0.70860000  0.53920000  1.0 0.1257309845
H  H90  1  0.48380000  0.02300000  0.19240000  1.0 0.1257309845
H  H91  1  0.70860000  0.16940000  0.19240000  1.0 0.1257309845
H  H92  1  0.83060000  0.29140000  0.80760000  1.0 0.1257309845
H  H93  1  0.97700000  0.51620000  0.80760000  1.0 0.1257309845
H  H94  1  0.02300000  0.83060000  0.53920000  1.0 0.1257309845
H  H95  1  0.16940000  0.97700000  0.46080000  1.0 0.1257309845
H  H96  1  0.29140000  0.48380000  0.46080000  1.0 0.1257309845
C  C1  1  0.48690000  0.11790000  0.60480000  1.0 -0.0053144318
C  C2  1  0.11790000  0.51310000  0.63100000  1.0 0.0024654853
C  C3  1  0.51310000  0.88210000  0.39520000  1.0 0.0024654853
C  C4  1  0.88210000  0.48690000  0.36900000  1.0 0.0024654853
C  C5  1  0.11790000  0.48690000  0.60480000  1.0 -0.0053144318
C  C6  1  0.48690000  0.88210000  0.36900000  1.0 0.0024654853
C  C7  1  0.88210000  0.51310000  0.39520000  1.0 0.0024654853
C  C8  1  0.51310000  0.11790000  0.63100000  1.0 0.0024654853
C  C9  1  0.48690000  0.88210000  0.00000000  1.0 -0.0040239572
C  C10  1  0.88210000  0.88210000  0.39520000  1.0 -0.0040239572
C  C11  1  0.88210000  0.48690000  0.00000000  1.0 -0.0040239572
C  C12  1  0.48690000  0.48690000  0.60480000  1.0 -0.0040239572
C  C13  1  0.51310000  0.11790000  0.00000000  1.0 -0.0053144318
C  C14  1  0.11790000  0.11790000  0.60480000  1.0 -0.0053144318
C  C15  1  0.11790000  0.51310000  0.00000000  1.0 -0.0053144318
C  C16  1  0.51310000  0.51310000  0.39520000  1.0 0.0024654853
C  C17  1  0.48690000  0.48690000  0.36900000  1.0 0.0024654853
C  C18  1  0.51310000  0.88210000  0.00000000  1.0 -0.0040239572
C  C19  1  0.48690000  0.11790000  0.00000000  1.0 -0.0053144318
C  C20  1  0.88210000  0.51310000  0.00000000  1.0 -0.0040239572
C  C21  1  0.11790000  0.48690000  0.00000000  1.0 -0.0053144318
C  C22  1  0.88210000  0.88210000  0.36900000  1.0 -0.0040239572
C  C23  1  0.11790000  0.11790000  0.63100000  1.0 0.0024654853
C  C24  1  0.51310000  0.51310000  0.63100000  1.0 0.0024654853
C  C25  1  0.47840000  0.01340000  0.38120000  1.0 0.0554033744
C  C26  1  0.01340000  0.63220000  0.53500000  1.0 0.0554033744
C  C27  1  0.63220000  0.09720000  0.61880000  1.0 0.0554033744
C  C28  1  0.09720000  0.47840000  0.46500000  1.0 0.0554033744
C  C29  1  0.90280000  0.36780000  0.38120000  1.0 0.0554033744
C  C30  1  0.36780000  0.98660000  0.46500000  1.0 0.0554033744
C  C31  1  0.98660000  0.52160000  0.61880000  1.0 0.0554033744
C  C32  1  0.52160000  0.90280000  0.53500000  1.0 0.0543541376
C  C33  1  0.47840000  0.09720000  0.11060000  1.0 0.0554033744
C  C34  1  0.09720000  0.98660000  0.61880000  1.0 0.0554033744
C  C35  1  0.98660000  0.36780000  0.88940000  1.0 0.0554033744
C  C36  1  0.36780000  0.47840000  0.38120000  1.0 0.0554033744
C  C37  1  0.63220000  0.01340000  0.11060000  1.0 0.0554033744
C  C38  1  0.01340000  0.90280000  0.38120000  1.0 0.0554033744
C  C39  1  0.90280000  0.52160000  0.88940000  1.0 0.0554033744
C  C40  1  0.52160000  0.63220000  0.61880000  1.0 0.0554033744
C  C41  1  0.47840000  0.36780000  0.46500000  1.0 0.0554033744
C  C42  1  0.52160000  0.98660000  0.88940000  1.0 0.0554033744
C  C43  1  0.36780000  0.90280000  0.88940000  1.0 0.0554033744
C  C44  1  0.09720000  0.63220000  0.11060000  1.0 0.0554033744
C  C45  1  0.01340000  0.47840000  0.11060000  1.0 0.0554033744
C  C46  1  0.98660000  0.09720000  0.46500000  1.0 0.0554033744
C  C47  1  0.90280000  0.01340000  0.53500000  1.0 0.0554033744
C  C48  1  0.63220000  0.52160000  0.53500000  1.0 0.0554033744
C  C49  1  0.52160000  0.98660000  0.61880000  1.0 0.0554033744
C  C50  1  0.98660000  0.36780000  0.46500000  1.0 0.0554033744
C  C51  1  0.36780000  0.90280000  0.38120000  1.0 0.0554033744
C  C52  1  0.90280000  0.52160000  0.53500000  1.0 0.0554033744
C  C53  1  0.09720000  0.63220000  0.61880000  1.0 0.0554033744
C  C54  1  0.63220000  0.01340000  0.53500000  1.0 0.0554033744
C  C55  1  0.01340000  0.47840000  0.38120000  1.0 0.0554033744
C  C56  1  0.47840000  0.09720000  0.46500000  1.0 0.0554033744
C  C57  1  0.52160000  0.90280000  0.88940000  1.0 0.0554033744
C  C58  1  0.90280000  0.01340000  0.38120000  1.0 0.0554033744
C  C59  1  0.01340000  0.63220000  0.11060000  1.0 0.0554033744
C  C60  1  0.63220000  0.52160000  0.61880000  1.0 0.0554033744
C  C61  1  0.36780000  0.98660000  0.88940000  1.0 0.0554033744
C  C62  1  0.98660000  0.09720000  0.61880000  1.0 0.0554033744
C  C63  1  0.09720000  0.47840000  0.11060000  1.0 0.0554033744
C  C64  1  0.47840000  0.36780000  0.38120000  1.0 0.0554033744
C  C65  1  0.52160000  0.63220000  0.53500000  1.0 0.0554033744
C  C66  1  0.47840000  0.01340000  0.11060000  1.0 0.0554033744
C  C67  1  0.63220000  0.09720000  0.11060000  1.0 0.0554033744
C  C68  1  0.90280000  0.36780000  0.88940000  1.0 0.0554033744
C  C69  1  0.98660000  0.52160000  0.88940000  1.0 0.0554033744
C  C70  1  0.01340000  0.90280000  0.53500000  1.0 0.0543541376
C  C71  1  0.09720000  0.98660000  0.46500000  1.0 0.0554033744
C  C72  1  0.36780000  0.47840000  0.46500000  1.0 0.0554033744
C  C73  1  0.48180000  0.04260000  0.35280000  1.0 -0.1330703237
C  C74  1  0.04260000  0.68980000  0.56080000  1.0 -0.1330703237
C  C75  1  0.68980000  0.12900000  0.64720000  1.0 -0.1330703237
C  C76  1  0.12900000  0.48180000  0.43920000  1.0 -0.1330703237
C  C77  1  0.87100000  0.31020000  0.35280000  1.0 -0.1330703237
C  C78  1  0.31020000  0.95740000  0.43920000  1.0 -0.1330703237
C  C79  1  0.95740000  0.51820000  0.64720000  1.0 -0.1330703237
C  C80  1  0.51820000  0.87100000  0.56080000  1.0 -0.1330703237
C  C81  1  0.48180000  0.12900000  0.17160000  1.0 -0.1330703237
C  C82  1  0.12900000  0.95740000  0.64720000  1.0 -0.1330703237
C  C83  1  0.95740000  0.31020000  0.82840000  1.0 -0.1330703237
C  C84  1  0.31020000  0.48180000  0.35280000  1.0 -0.1330703237
C  C85  1  0.68980000  0.04260000  0.17160000  1.0 -0.1330703237
C  C86  1  0.04260000  0.87100000  0.35280000  1.0 -0.1330703237
C  C87  1  0.87100000  0.51820000  0.82840000  1.0 -0.1330703237
C  C88  1  0.51820000  0.68980000  0.64720000  1.0 -0.1330703237
C  C89  1  0.48180000  0.31020000  0.43920000  1.0 -0.1330703237
C  C90  1  0.51820000  0.95740000  0.82840000  1.0 -0.1330703237
C  C91  1  0.31020000  0.87100000  0.82840000  1.0 -0.1330703237
C  C92  1  0.12900000  0.68980000  0.17160000  1.0 -0.1330703237
C  C93  1  0.04260000  0.48180000  0.17160000  1.0 -0.1330703237
C  C94  1  0.95740000  0.12900000  0.43920000  1.0 -0.1330703237
C  C95  1  0.87100000  0.04260000  0.56080000  1.0 -0.1330703237
C  C96  1  0.68980000  0.51820000  0.56080000  1.0 -0.1330703237
C  C97  1  0.51820000  0.95740000  0.64720000  1.0 -0.1330703237
C  C98  1  0.95740000  0.31020000  0.43920000  1.0 -0.1330703237
C  C99  1  0.31020000  0.87100000  0.35280000  1.0 -0.1330703237
C  C100  1  0.87100000  0.51820000  0.56080000  1.0 -0.1330703237
C  C101  1  0.12900000  0.68980000  0.64720000  1.0 -0.1330703237
C  C102  1  0.68980000  0.04260000  0.56080000  1.0 -0.1330703237
C  C103  1  0.04260000  0.48180000  0.35280000  1.0 -0.1330703237
C  C104  1  0.48180000  0.12900000  0.43920000  1.0 -0.1330703237
C  C105  1  0.51820000  0.87100000  0.82840000  1.0 -0.1330703237
C  C106  1  0.87100000  0.04260000  0.35280000  1.0 -0.1330703237
C  C107  1  0.04260000  0.68980000  0.17160000  1.0 -0.1330703237
C  C108  1  0.68980000  0.51820000  0.64720000  1.0 -0.1330703237
C  C109  1  0.31020000  0.95740000  0.82840000  1.0 -0.1330703237
C  C110  1  0.95740000  0.12900000  0.64720000  1.0 -0.1330703237
C  C111  1  0.12900000  0.48180000  0.17160000  1.0 -0.1330703237
C  C112  1  0.48180000  0.31020000  0.35280000  1.0 -0.1330703237
C  C113  1  0.51820000  0.68980000  0.56080000  1.0 -0.1330703237
C  C114  1  0.48180000  0.04260000  0.17160000  1.0 -0.1330703237
C  C115  1  0.68980000  0.12900000  0.17160000  1.0 -0.1330703237
C  C116  1  0.87100000  0.31020000  0.82840000  1.0 -0.1330703237
C  C117  1  0.95740000  0.51820000  0.82840000  1.0 -0.1330703237
C  C118  1  0.04260000  0.87100000  0.56080000  1.0 -0.1330703237
C  C119  1  0.12900000  0.95740000  0.43920000  1.0 -0.1330703237
C  C120  1  0.31020000  0.48180000  0.43920000  1.0 -0.1330703237
C  C121  1  0.48190000  0.10030000  0.38160000  1.0 0.0158879252
C  C122  1  0.10030000  0.71870000  0.61840000  1.0 0.0158879252
C  C123  1  0.71870000  0.10030000  0.61840000  1.0 0.0158879252
C  C124  1  0.10030000  0.48190000  0.38160000  1.0 0.0158879252
C  C125  1  0.89970000  0.28130000  0.38160000  1.0 0.0158879252
C  C126  1  0.28130000  0.89970000  0.38160000  1.0 0.0158879252
C  C127  1  0.89970000  0.51810000  0.61840000  1.0 0.0158879252
C  C128  1  0.51810000  0.89970000  0.61840000  1.0 0.0158879252
C  C129  1  0.48190000  0.10030000  0.20060000  1.0 0.0158879252
C  C130  1  0.10030000  0.89970000  0.61840000  1.0 0.0158879252
C  C131  1  0.89970000  0.28130000  0.79940000  1.0 0.0158879252
C  C132  1  0.28130000  0.48190000  0.38160000  1.0 0.0158879252
C  C133  1  0.71870000  0.10030000  0.20060000  1.0 0.0158879252
C  C134  1  0.10030000  0.89970000  0.38160000  1.0 0.0158879252
C  C135  1  0.89970000  0.51810000  0.79940000  1.0 0.0158879252
C  C136  1  0.51810000  0.71870000  0.61840000  1.0 0.0158879252
C  C137  1  0.48190000  0.28130000  0.38160000  1.0 0.0158879252
C  C138  1  0.51810000  0.89970000  0.79940000  1.0 0.0158879252
C  C139  1  0.28130000  0.89970000  0.79940000  1.0 0.0158879252
C  C140  1  0.10030000  0.71870000  0.20060000  1.0 0.0158879252
C  C141  1  0.10030000  0.48190000  0.20060000  1.0 0.0158879252
C  C142  1  0.89970000  0.10030000  0.38160000  1.0 0.0158879252
C  C143  1  0.89970000  0.10030000  0.61840000  1.0 0.0158879252
C  C144  1  0.71870000  0.51810000  0.61840000  1.0 0.0158879252
C  C145  1  0.48000000  0.13260000  0.34740000  1.0 0.3817364973
C  C146  1  0.13260000  0.78520000  0.65260000  1.0 0.3817364973
C  C147  1  0.78520000  0.13260000  0.65260000  1.0 0.3817364973
C  C148  1  0.13260000  0.48000000  0.34740000  1.0 0.3817364973
C  C149  1  0.86740000  0.21480000  0.34740000  1.0 0.3817364973
C  C150  1  0.21480000  0.86740000  0.34740000  1.0 0.3817364973
C  C151  1  0.86740000  0.52000000  0.65260000  1.0 0.3817364973
C  C152  1  0.52000000  0.86740000  0.65260000  1.0 0.3817364973
C  C153  1  0.48000000  0.13260000  0.26520000  1.0 0.3817364973
C  C154  1  0.13260000  0.86740000  0.65260000  1.0 0.3817364973
C  C155  1  0.86740000  0.21480000  0.73480000  1.0 0.3817364973
C  C156  1  0.21480000  0.48000000  0.34740000  1.0 0.3817364973
C  C157  1  0.78520000  0.13260000  0.26520000  1.0 0.3817364973
C  C158  1  0.13260000  0.86740000  0.34740000  1.0 0.3817364973
C  C159  1  0.86740000  0.52000000  0.73480000  1.0 0.3817364973
C  C160  1  0.52000000  0.78520000  0.65260000  1.0 0.3817364973
C  C161  1  0.48000000  0.21480000  0.34740000  1.0 0.3817364973
C  C162  1  0.52000000  0.86740000  0.73480000  1.0 0.3817364973
C  C163  1  0.21480000  0.86740000  0.73480000  1.0 0.3817364973
C  C164  1  0.13260000  0.78520000  0.26520000  1.0 0.3817364973
C  C165  1  0.13260000  0.48000000  0.26520000  1.0 0.3817364973
C  C166  1  0.86740000  0.13260000  0.34740000  1.0 0.3817364973
C  C167  1  0.86740000  0.13260000  0.65260000  1.0 0.3817364973
C  C168  1  0.78520000  0.52000000  0.65260000  1.0 0.3817364973
S  S1  1  0.47940000  0.17300000  0.65240000  1.0 -0.1008548213
S  S2  1  0.17300000  0.52060000  0.69360000  1.0 -0.1008548213
S  S3  1  0.52060000  0.82700000  0.34760000  1.0 -0.1008548213
S  S4  1  0.82700000  0.47940000  0.30640000  1.0 -0.1008548213
S  S5  1  0.17300000  0.47940000  0.65240000  1.0 -0.094436952
S  S6  1  0.47940000  0.82700000  0.30640000  1.0 -0.1008548213
S  S7  1  0.82700000  0.52060000  0.34760000  1.0 -0.1008548213
S  S8  1  0.52060000  0.17300000  0.69360000  1.0 -0.1008548213
S  S9  1  0.47940000  0.82700000  0.00000000  1.0 -0.1008548213
S  S10  1  0.82700000  0.82700000  0.34760000  1.0 -0.1008548213
S  S11  1  0.82700000  0.47940000  0.00000000  1.0 -0.1008548213
S  S12  1  0.47940000  0.47940000  0.65240000  1.0 -0.1008548213
S  S13  1  0.52060000  0.17300000  0.00000000  1.0 -0.1008548213
S  S14  1  0.17300000  0.17300000  0.65240000  1.0 -0.1008548213
S  S15  1  0.17300000  0.52060000  0.00000000  1.0 -0.1008548213
S  S16  1  0.52060000  0.52060000  0.34760000  1.0 -0.1008548213
S  S17  1  0.47940000  0.47940000  0.30640000  1.0 -0.1008548213
S  S18  1  0.52060000  0.82700000  0.00000000  1.0 -0.1008548213
S  S19  1  0.47940000  0.17300000  0.00000000  1.0 -0.1008548213
S  S20  1  0.82700000  0.52060000  0.00000000  1.0 -0.1008548213
S  S21  1  0.17300000  0.47940000  0.00000000  1.0 -0.1008548213
S  S22  1  0.82700000  0.82700000  0.30640000  1.0 -0.1008548213
S  S23  1  0.17300000  0.17300000  0.69360000  1.0 -0.1008548213
S  S24  1  0.52060000  0.52060000  0.69360000  1.0 -0.1008548213
N  N1  1  0.50000000  0.07720000  0.57720000  1.0 -0.2523955937
N  N2  1  0.07720000  0.50000000  0.57720000  1.0 -0.2523955937
N  N3  1  0.50000000  0.92280000  0.42280000  1.0 -0.2575257704
N  N4  1  0.92280000  0.50000000  0.42280000  1.0 -0.2575257704
N  N5  1  0.50000000  0.92280000  0.00000000  1.0 -0.2523955937
N  N6  1  0.92280000  0.92280000  0.42280000  1.0 -0.2523955937
N  N7  1  0.92280000  0.50000000  0.00000000  1.0 -0.2523955937
N  N8  1  0.50000000  0.50000000  0.57720000  1.0 -0.2523955937
N  N9  1  0.50000000  0.07720000  0.00000000  1.0 -0.2523955937
N  N10  1  0.07720000  0.07720000  0.57720000  1.0 -0.2523955937
N  N11  1  0.07720000  0.50000000  0.00000000  1.0 -0.2523955937
N  N12  1  0.50000000  0.50000000  0.42280000  1.0 -0.2575257704
N  N13  1  0.48630000  0.04350000  0.44280000  1.0 -0.2076451646
N  N14  1  0.04350000  0.60070000  0.55720000  1.0 -0.2076451646
N  N15  1  0.60070000  0.04350000  0.55720000  1.0 -0.2076451646
N  N16  1  0.04350000  0.48630000  0.44280000  1.0 -0.2076451646
N  N17  1  0.95650000  0.39930000  0.44280000  1.0 -0.2076451646
N  N18  1  0.39930000  0.95650000  0.44280000  1.0 -0.2076451646
N  N19  1  0.95650000  0.51370000  0.55720000  1.0 -0.2076451646
N  N20  1  0.51370000  0.95650000  0.55720000  1.0 -0.2076451646
N  N21  1  0.48630000  0.04350000  0.08700000  1.0 -0.2076451646
N  N22  1  0.04350000  0.95650000  0.55720000  1.0 -0.2076451646
N  N23  1  0.95650000  0.39930000  0.91300000  1.0 -0.2076451646
N  N24  1  0.39930000  0.48630000  0.44280000  1.0 -0.2076451646
N  N25  1  0.60070000  0.04350000  0.08700000  1.0 -0.2076451646
N  N26  1  0.04350000  0.95650000  0.44280000  1.0 -0.2076451646
N  N27  1  0.95650000  0.51370000  0.91300000  1.0 -0.2076451646
N  N28  1  0.51370000  0.60070000  0.55720000  1.0 -0.2076451646
N  N29  1  0.48630000  0.39930000  0.44280000  1.0 -0.2076451646
N  N30  1  0.51370000  0.95650000  0.91300000  1.0 -0.2076451646
N  N31  1  0.39930000  0.95650000  0.91300000  1.0 -0.2076451646
N  N32  1  0.04350000  0.60070000  0.08700000  1.0 -0.2076451646
N  N33  1  0.04350000  0.48630000  0.08700000  1.0 -0.2076451646
N  N34  1  0.95650000  0.04350000  0.44280000  1.0 -0.2076451646
N  N35  1  0.95650000  0.04350000  0.55720000  1.0 -0.2076451646
N  N36  1  0.60070000  0.51370000  0.55720000  1.0 -0.2076451646
N  N37  1  0.47738000  0.10138000  0.28938000  1.0 -0.3987273299
N  N38  1  0.10138000  0.81200000  0.62400000  1.0 -0.3987273299
N  N39  1  0.81200000  0.18800000  0.71062000  1.0 -0.3987273299
N  N40  1  0.18800000  0.47738000  0.37600000  1.0 -0.3987273299
N  N41  1  0.81200000  0.18800000  0.28938000  1.0 -0.3987273299
N  N42  1  0.18800000  0.89862000  0.37600000  1.0 -0.3987273299
N  N43  1  0.89862000  0.52262000  0.71062000  1.0 -0.3987273299
N  N44  1  0.52262000  0.81200000  0.62400000  1.0 -0.3987273299
N  N45  1  0.47738000  0.18800000  0.28938000  1.0 -0.3987273299
N  N46  1  0.18800000  0.89862000  0.71062000  1.0 -0.3987273299
N  N47  1  0.89862000  0.18800000  0.71062000  1.0 -0.3987273299
N  N48  1  0.18800000  0.47738000  0.28938000  1.0 -0.3987273299
N  N49  1  0.81200000  0.10138000  0.28938000  1.0 -0.3987273299
N  N50  1  0.10138000  0.81200000  0.28938000  1.0 -0.3987273299
N  N51  1  0.81200000  0.52262000  0.71062000  1.0 -0.3987273299
N  N52  1  0.52262000  0.81200000  0.71062000  1.0 -0.3987273299
N  N53  1  0.47738000  0.18800000  0.37600000  1.0 -0.3987273299
N  N54  1  0.52262000  0.89862000  0.71062000  1.0 -0.3987273299
N  N55  1  0.18800000  0.81200000  0.71062000  1.0 -0.3987273299
N  N56  1  0.18800000  0.81200000  0.28938000  1.0 -0.3987273299
N  N57  1  0.10138000  0.47738000  0.28938000  1.0 -0.3987273299
N  N58  1  0.89862000  0.18800000  0.37600000  1.0 -0.3987273299
N  N59  1  0.81200000  0.10138000  0.62400000  1.0 -0.3987273299
N  N60  1  0.81200000  0.52262000  0.62400000  1.0 -0.3987273299
