# DDEC6 charges by PACMAN v1.1 (https://github.com/mtap-research/PACMAN-charge/)
data_FEYJOJ_ASR_pacman
_symmetry_space_group_name_H-M   'P 1'
_cell_length_a   14.27900000
_cell_length_b   13.00600000
_cell_length_c   21.23240000
_cell_angle_alpha   90.00000000
_cell_angle_beta   125.01600000
_cell_angle_gamma   90.00000000
_symmetry_Int_Tables_number   1
_chemical_formula_structural   CoH3(C2O)4
_chemical_formula_sum   'Co8 H24 C64 O32'
_cell_volume   3229.38783585
_cell_formula_units_Z   8
loop_
 _symmetry_equiv_pos_site_id
 _symmetry_equiv_pos_as_xyz
  1  'x, y, z'
loop_
 _atom_site_type_symbol
 _atom_site_label
 _atom_site_symmetry_multiplicity
 _atom_site_fract_x
 _atom_site_fract_y
 _atom_site_fract_z
 _atom_site_occupancy
 _atom_site_charge
Co  Co1  1  0.77541000  0.93298000  0.77396000  1.0 0.9705183169
Co  Co2  1  0.22459000  0.43298000  0.72604000  1.0 0.9705183169
Co  Co3  1  0.22459000  0.06702000  0.22604000  1.0 0.9705183169
Co  Co4  1  0.77541000  0.56702000  0.27396000  1.0 0.9705183169
Co  Co5  1  0.70067000  0.72838000  0.13121000  1.0 1.0575725397
Co  Co6  1  0.29933000  0.22838000  0.36879000  1.0 1.0575725397
Co  Co7  1  0.29933000  0.27162000  0.86879000  1.0 1.0575725397
Co  Co8  1  0.70067000  0.77162000  0.63121000  1.0 1.0575725397
H  H1  1  0.99810000  0.39820000  0.22540000  1.0 0.131657209
H  H2  1  0.00190000  0.89820000  0.27460000  1.0 0.131657209
H  H3  1  0.00190000  0.60180000  0.77460000  1.0 0.131657209
H  H4  1  0.99810000  0.10180000  0.72540000  1.0 0.131657209
H  H5  1  0.70610000  0.44450000  0.01460000  1.0 0.1167678598
H  H6  1  0.29390000  0.94450000  0.48540000  1.0 0.1167678598
H  H7  1  0.29390000  0.55550000  0.98540000  1.0 0.1167678598
H  H8  1  0.70610000  0.05550000  0.51460000  1.0 0.1167678598
H  H9  1  0.91480000  0.20840000  0.05010000  1.0 0.1167678598
H  H10  1  0.08520000  0.70840000  0.44990000  1.0 0.1167678598
H  H11  1  0.08520000  0.79160000  0.94990000  1.0 0.1167678598
H  H12  1  0.91480000  0.29160000  0.55010000  1.0 0.1167678598
H  H13  1  0.81760000  0.18210000  0.93580000  1.0 0.1167678598
H  H14  1  0.18240000  0.68210000  0.56420000  1.0 0.1167678598
H  H15  1  0.18240000  0.81790000  0.06420000  1.0 0.1167678598
H  H16  1  0.81760000  0.31790000  0.43580000  1.0 0.1167678598
H  H17  1  0.50280000  0.19540000  0.73590000  1.0 0.131657209
H  H18  1  0.49720000  0.69540000  0.76410000  1.0 0.131657209
H  H19  1  0.49720000  0.80460000  0.26410000  1.0 0.131657209
H  H20  1  0.50280000  0.30460000  0.23590000  1.0 0.131657209
H  H21  1  0.57270000  0.35960000  0.91990000  1.0 0.1167678598
H  H22  1  0.42730000  0.85960000  0.58010000  1.0 0.1167678598
H  H23  1  0.42730000  0.64040000  0.08010000  1.0 0.1167678598
H  H24  1  0.57270000  0.14040000  0.41990000  1.0 0.1167678598
C  C1  1  0.94746000  0.37900000  0.17286000  1.0 -0.0964901049
C  C2  1  0.05254000  0.87900000  0.32714000  1.0 -0.0964901049
C  C3  1  0.05254000  0.62100000  0.82714000  1.0 -0.0964901049
C  C4  1  0.94746000  0.12100000  0.67286000  1.0 -0.0964901049
C  C5  1  0.81460000  0.51810000  0.15660000  1.0 0.5999053763
C  C6  1  0.18540000  0.01810000  0.34340000  1.0 0.5999053763
C  C7  1  0.18540000  0.48190000  0.84340000  1.0 0.5999053763
C  C8  1  0.81460000  0.98190000  0.65660000  1.0 0.5999053763
C  C9  1  0.84720000  0.43350000  0.12470000  1.0 -0.0106326954
C  C10  1  0.15280000  0.93350000  0.37530000  1.0 -0.0151683373
C  C11  1  0.15280000  0.56650000  0.87530000  1.0 -0.0106326954
C  C12  1  0.84720000  0.06650000  0.62470000  1.0 -0.0106326954
C  C13  1  0.77290000  0.40470000  0.04820000  1.0 -0.140217266
C  C14  1  0.22710000  0.90470000  0.45180000  1.0 -0.140217266
C  C15  1  0.22710000  0.59530000  0.95180000  1.0 -0.140217266
C  C16  1  0.77290000  0.09530000  0.54820000  1.0 -0.140217266
C  C17  1  0.71090000  0.28040000  0.93990000  1.0 0.0689753888
C  C18  1  0.28910000  0.78040000  0.56010000  1.0 0.0689753888
C  C19  1  0.28910000  0.71960000  0.06010000  1.0 0.0689753888
C  C20  1  0.71090000  0.21960000  0.43990000  1.0 0.0689753888
C  C21  1  0.97420000  0.29700000  0.14470000  1.0 -0.0106326954
C  C22  1  0.02580000  0.79700000  0.35530000  1.0 -0.0106326954
C  C23  1  0.02580000  0.70300000  0.85530000  1.0 -0.0106326954
C  C24  1  0.97420000  0.20300000  0.64470000  1.0 -0.0106326954
C  C25  1  0.79480000  0.31820000  0.02000000  1.0 0.0629616453
C  C26  1  0.20520000  0.81820000  0.48000000  1.0 0.0629616453
C  C27  1  0.20520000  0.68180000  0.98000000  1.0 0.0629616453
C  C28  1  0.79480000  0.18180000  0.52000000  1.0 0.0629616453
C  C29  1  0.89720000  0.26620000  0.06890000  1.0 -0.140217266
C  C30  1  0.10280000  0.76620000  0.43110000  1.0 -0.140217266
C  C31  1  0.10280000  0.73380000  0.93110000  1.0 -0.140217266
C  C32  1  0.89720000  0.23380000  0.56890000  1.0 -0.140217266
C  C33  1  0.74190000  0.20870000  0.90660000  1.0 -0.140217266
C  C34  1  0.25810000  0.70870000  0.59340000  1.0 -0.140217266
C  C35  1  0.25810000  0.79130000  0.09340000  1.0 -0.140217266
C  C36  1  0.74190000  0.29130000  0.40660000  1.0 -0.140217266
C  C37  1  0.70040000  0.09230000  0.80000000  1.0 0.5364226212
C  C38  1  0.29960000  0.59230000  0.70000000  1.0 0.5364226212
C  C39  1  0.29960000  0.90770000  0.20000000  1.0 0.5364226212
C  C40  1  0.70040000  0.40770000  0.30000000  1.0 0.5364226212
C  C41  1  0.52150000  0.28340000  0.82200000  1.0 -0.0106326954
C  C42  1  0.47850000  0.78340000  0.67800000  1.0 -0.0106326954
C  C43  1  0.47850000  0.71660000  0.17800000  1.0 -0.0106326954
C  C44  1  0.52150000  0.21660000  0.32200000  1.0 -0.0106326954
C  C45  1  0.40300000  0.32500000  0.77660000  1.0 0.5655713191
C  C46  1  0.59700000  0.82500000  0.72340000  1.0 0.5655713191
C  C47  1  0.59700000  0.67500000  0.22340000  1.0 0.5655713191
C  C48  1  0.40300000  0.17500000  0.27660000  1.0 0.5655713191
C  C49  1  0.55480000  0.21480000  0.78820000  1.0 -0.0964901049
C  C50  1  0.44520000  0.71480000  0.71180000  1.0 -0.0964901049
C  C51  1  0.44520000  0.78520000  0.21180000  1.0 -0.0964901049
C  C52  1  0.55480000  0.28520000  0.28820000  1.0 -0.0964901049
C  C53  1  0.59750000  0.31450000  0.89700000  1.0 -0.1528146827
C  C54  1  0.40250000  0.81450000  0.60300000  1.0 -0.1528146827
C  C55  1  0.40250000  0.68550000  0.10300000  1.0 -0.1528146827
C  C56  1  0.59750000  0.18550000  0.39700000  1.0 -0.1528146827
C  C57  1  0.66530000  0.17500000  0.83190000  1.0 -0.0033235994
C  C58  1  0.33470000  0.67500000  0.66810000  1.0 -0.0033235994
C  C59  1  0.33470000  0.82500000  0.16810000  1.0 -0.0033235994
C  C60  1  0.66530000  0.32500000  0.33190000  1.0 -0.0033235994
C  C61  1  0.08350000  0.23770000  0.19520000  1.0 0.5999053763
C  C62  1  0.91650000  0.73770000  0.30480000  1.0 0.5999053763
C  C63  1  0.91650000  0.76230000  0.80480000  1.0 0.5999053763
C  C64  1  0.08350000  0.26230000  0.69520000  1.0 0.5948492845
O  O1  1  0.64056000  0.07290000  0.72976000  1.0 -0.5297178144
O  O2  1  0.35944000  0.57290000  0.77024000  1.0 -0.5297178144
O  O3  1  0.35944000  0.92710000  0.27024000  1.0 -0.5297178144
O  O4  1  0.64056000  0.42710000  0.22976000  1.0 -0.5297178144
O  O5  1  0.78972000  0.04160000  0.84720000  1.0 -0.5297178144
O  O6  1  0.21028000  0.54160000  0.65280000  1.0 -0.5297178144
O  O7  1  0.21028000  0.95840000  0.15280000  1.0 -0.5297178144
O  O8  1  0.78972000  0.45840000  0.34720000  1.0 -0.5297178144
O  O9  1  0.84661000  0.50460000  0.22530000  1.0 -0.5383202473
O  O10  1  0.15339000  0.00460000  0.27470000  1.0 -0.5383202473
O  O11  1  0.15339000  0.49540000  0.77470000  1.0 -0.5383202473
O  O12  1  0.84661000  0.99540000  0.72530000  1.0 -0.5383202473
O  O13  1  0.75858000  0.59220000  0.11409000  1.0 -0.5751443545
O  O14  1  0.24142000  0.09220000  0.38591000  1.0 -0.5751443545
O  O15  1  0.24142000  0.40780000  0.88591000  1.0 -0.5747306386
O  O16  1  0.75858000  0.90780000  0.61409000  1.0 -0.5751443545
O  O17  1  0.10189000  0.16710000  0.16287000  1.0 -0.5213322977
O  O18  1  0.89811000  0.66710000  0.33713000  1.0 -0.5213322977
O  O19  1  0.89811000  0.83290000  0.83713000  1.0 -0.5213322977
O  O20  1  0.10189000  0.33290000  0.66287000  1.0 -0.5213322977
O  O21  1  0.14661000  0.26190000  0.26415000  1.0 -0.591724355
O  O22  1  0.85339000  0.76190000  0.23585000  1.0 -0.591724355
O  O23  1  0.85339000  0.73810000  0.73585000  1.0 -0.591724355
O  O24  1  0.14661000  0.23810000  0.76415000  1.0 -0.591724355
O  O25  1  0.36172000  0.35584000  0.81414000  1.0 -0.6326516757
O  O26  1  0.63828000  0.85584000  0.68586000  1.0 -0.6326516757
O  O27  1  0.63828000  0.64416000  0.18586000  1.0 -0.6326516757
O  O28  1  0.36172000  0.14416000  0.31414000  1.0 -0.6326516757
O  O29  1  0.34862000  0.33590000  0.70637000  1.0 -0.4696470017
O  O30  1  0.65138000  0.83590000  0.79363000  1.0 -0.4696470017
O  O31  1  0.65138000  0.66410000  0.29363000  1.0 -0.4696470017
O  O32  1  0.34862000  0.16410000  0.20637000  1.0 -0.4696470017
