# DDEC6 charges by PACMAN v1.1 (https://github.com/mtap-research/PACMAN-charge/)
data_FEYQUW_FSR_pacman
_symmetry_space_group_name_H-M   'P 1'
_cell_length_a   7.78780000
_cell_length_b   19.66490000
_cell_length_c   21.94150000
_cell_angle_alpha   90.00000000
_cell_angle_beta   90.00000000
_cell_angle_gamma   90.00000000
_symmetry_Int_Tables_number   1
_chemical_formula_structural   PrH8C11O7
_chemical_formula_sum   'Pr8 H64 C88 O56'
_cell_volume   3360.25972181
_cell_formula_units_Z   8
loop_
 _symmetry_equiv_pos_site_id
 _symmetry_equiv_pos_as_xyz
  1  'x, y, z'
loop_
 _atom_site_type_symbol
 _atom_site_label
 _atom_site_symmetry_multiplicity
 _atom_site_fract_x
 _atom_site_fract_y
 _atom_site_fract_z
 _atom_site_occupancy
 _atom_site_charge
Pr  Pr1  1  0.57803000  0.05564000  0.28128000  1.0 2.0798396454
Pr  Pr2  1  0.92197000  0.55564000  0.21872000  1.0 2.0798396454
Pr  Pr3  1  0.57803000  0.44436000  0.71872000  1.0 2.0798396454
Pr  Pr4  1  0.92197000  0.94436000  0.78128000  1.0 2.0798396454
Pr  Pr5  1  0.42197000  0.94436000  0.71872000  1.0 2.0798396454
Pr  Pr6  1  0.07803000  0.44436000  0.78128000  1.0 2.0798396454
Pr  Pr7  1  0.42197000  0.55564000  0.28128000  1.0 2.0798396454
Pr  Pr8  1  0.07803000  0.05564000  0.21872000  1.0 2.0798396454
H  H1  1  0.28810000  0.04240000  0.36240000  1.0 0.3820414529
H  H2  1  0.21190000  0.54240000  0.13760000  1.0 0.3820414529
H  H3  1  0.28810000  0.45760000  0.63760000  1.0 0.3820414529
H  H4  1  0.21190000  0.95760000  0.86240000  1.0 0.3820414529
H  H5  1  0.71190000  0.95760000  0.63760000  1.0 0.3820414529
H  H6  1  0.78810000  0.45760000  0.86240000  1.0 0.3820414529
H  H7  1  0.71190000  0.54240000  0.36240000  1.0 0.3820414529
H  H8  1  0.78810000  0.04240000  0.13760000  1.0 0.3820414529
H  H9  1  0.39580000  0.99420000  0.39430000  1.0 0.3876957879
H  H10  1  0.10420000  0.49420000  0.10570000  1.0 0.3876957879
H  H11  1  0.39580000  0.50580000  0.60570000  1.0 0.3876957879
H  H12  1  0.10420000  0.00580000  0.89430000  1.0 0.3876957879
H  H13  1  0.60420000  0.00580000  0.60570000  1.0 0.3876957879
H  H14  1  0.89580000  0.50580000  0.89430000  1.0 0.3876957879
H  H15  1  0.60420000  0.49420000  0.39430000  1.0 0.3876957879
H  H16  1  0.89580000  0.99420000  0.10570000  1.0 0.3876957879
H  H17  1  0.04410000  0.90880000  0.31690000  1.0 0.159091568
H  H18  1  0.45590000  0.40880000  0.18310000  1.0 0.159091568
H  H19  1  0.04410000  0.59120000  0.68310000  1.0 0.159091568
H  H20  1  0.45590000  0.09120000  0.81690000  1.0 0.159091568
H  H21  1  0.95590000  0.09120000  0.68310000  1.0 0.159091568
H  H22  1  0.54410000  0.59120000  0.81690000  1.0 0.159091568
H  H23  1  0.95590000  0.40880000  0.31690000  1.0 0.159091568
H  H24  1  0.54410000  0.90880000  0.18310000  1.0 0.159091568
H  H25  1  0.96630000  0.86100000  0.26710000  1.0 0.149255088
H  H26  1  0.53370000  0.36100000  0.23290000  1.0 0.149255088
H  H27  1  0.96630000  0.63900000  0.73290000  1.0 0.149255088
H  H28  1  0.53370000  0.13900000  0.76710000  1.0 0.149255088
H  H29  1  0.03370000  0.13900000  0.73290000  1.0 0.149255088
H  H30  1  0.46630000  0.63900000  0.76710000  1.0 0.149255088
H  H31  1  0.03370000  0.36100000  0.26710000  1.0 0.149255088
H  H32  1  0.46630000  0.86100000  0.23290000  1.0 0.149255088
H  H33  1  0.61440000  0.08530000  0.05910000  1.0 0.1176403933
H  H34  1  0.88560000  0.58530000  0.44090000  1.0 0.1176403933
H  H35  1  0.61440000  0.41470000  0.94090000  1.0 0.1176403933
H  H36  1  0.88560000  0.91470000  0.55910000  1.0 0.1176403933
H  H37  1  0.38560000  0.91470000  0.94090000  1.0 0.1176403933
H  H38  1  0.11440000  0.41470000  0.55910000  1.0 0.1176403933
H  H39  1  0.38560000  0.58530000  0.05910000  1.0 0.1176403933
H  H40  1  0.11440000  0.08530000  0.44090000  1.0 0.1176403933
H  H41  1  0.42560000  0.10350000  0.03970000  1.0 0.1327425078
H  H42  1  0.07440000  0.60350000  0.46030000  1.0 0.1327425078
H  H43  1  0.42560000  0.39650000  0.96030000  1.0 0.1327425078
H  H44  1  0.07440000  0.89650000  0.53970000  1.0 0.1327425078
H  H45  1  0.57440000  0.89650000  0.96030000  1.0 0.1327425078
H  H46  1  0.92560000  0.39650000  0.53970000  1.0 0.1327425078
H  H47  1  0.57440000  0.60350000  0.03970000  1.0 0.1327425078
H  H48  1  0.92560000  0.10350000  0.46030000  1.0 0.1327425078
H  H49  1  0.54700000  0.96910000  0.05560000  1.0 0.0838666469
H  H50  1  0.95300000  0.46910000  0.44440000  1.0 0.0838666469
H  H51  1  0.54700000  0.53090000  0.94440000  1.0 0.0838666469
H  H52  1  0.95300000  0.03090000  0.55560000  1.0 0.0838666469
H  H53  1  0.45300000  0.03090000  0.94440000  1.0 0.0838666469
H  H54  1  0.04700000  0.53090000  0.55560000  1.0 0.0838666469
H  H55  1  0.45300000  0.46910000  0.05560000  1.0 0.0838666469
H  H56  1  0.04700000  0.96910000  0.44440000  1.0 0.0838666469
H  H57  1  0.35720000  0.98660000  0.03780000  1.0 0.097600846
H  H58  1  0.14280000  0.48660000  0.46220000  1.0 0.097600846
H  H59  1  0.35720000  0.51340000  0.96220000  1.0 0.097600846
H  H60  1  0.14280000  0.01340000  0.53780000  1.0 0.097600846
H  H61  1  0.64280000  0.01340000  0.96220000  1.0 0.097600846
H  H62  1  0.85720000  0.51340000  0.53780000  1.0 0.097600846
H  H63  1  0.64280000  0.48660000  0.03780000  1.0 0.097600846
H  H64  1  0.85720000  0.98660000  0.46220000  1.0 0.097600846
C  C1  1  0.80420000  0.93710000  0.29140000  1.0 0.6607107729
C  C2  1  0.69580000  0.43710000  0.20860000  1.0 0.6607107729
C  C3  1  0.80420000  0.56290000  0.70860000  1.0 0.6607107729
C  C4  1  0.69580000  0.06290000  0.79140000  1.0 0.6607107729
C  C5  1  0.19580000  0.06290000  0.70860000  1.0 0.6607107729
C  C6  1  0.30420000  0.56290000  0.79140000  1.0 0.6607107729
C  C7  1  0.19580000  0.43710000  0.29140000  1.0 0.6607107729
C  C8  1  0.30420000  0.93710000  0.20860000  1.0 0.6607107729
C  C9  1  0.44040000  0.06850000  0.12760000  1.0 0.6904338882
C  C10  1  0.05960000  0.56850000  0.37240000  1.0 0.6904338882
C  C11  1  0.44040000  0.43150000  0.87240000  1.0 0.6904338882
C  C12  1  0.05960000  0.93150000  0.62760000  1.0 0.6904338882
C  C13  1  0.55960000  0.93150000  0.87240000  1.0 0.6904338882
C  C14  1  0.94040000  0.43150000  0.62760000  1.0 0.6904338882
C  C15  1  0.55960000  0.56850000  0.12760000  1.0 0.6904338882
C  C16  1  0.94040000  0.06850000  0.37240000  1.0 0.6904338882
C  C17  1  0.89570000  0.83290000  0.35380000  1.0 0.0571630611
C  C18  1  0.60430000  0.33290000  0.14620000  1.0 0.0571630611
C  C19  1  0.89570000  0.66710000  0.64620000  1.0 0.0571630611
C  C20  1  0.60430000  0.16710000  0.85380000  1.0 0.0571630611
C  C21  1  0.10430000  0.16710000  0.64620000  1.0 0.0571630611
C  C22  1  0.39570000  0.66710000  0.85380000  1.0 0.0571630611
C  C23  1  0.10430000  0.33290000  0.35380000  1.0 0.0571630611
C  C24  1  0.39570000  0.83290000  0.14620000  1.0 0.0571630611
C  C25  1  0.94060000  0.88510000  0.30460000  1.0 -0.3981887713
C  C26  1  0.55940000  0.38510000  0.19540000  1.0 -0.3981887713
C  C27  1  0.94060000  0.61490000  0.69540000  1.0 -0.3981887713
C  C28  1  0.55940000  0.11490000  0.80460000  1.0 -0.3981887713
C  C29  1  0.05940000  0.11490000  0.69540000  1.0 -0.3981887713
C  C30  1  0.44060000  0.61490000  0.80460000  1.0 -0.3981887713
C  C31  1  0.05940000  0.38510000  0.30460000  1.0 -0.3981887713
C  C32  1  0.44060000  0.88510000  0.19540000  1.0 -0.3981887713
C  C33  1  0.49550000  0.07090000  0.06175000  1.0 -0.3364833682
C  C34  1  0.00450000  0.57090000  0.43825000  1.0 -0.3364833682
C  C35  1  0.49550000  0.42910000  0.93825000  1.0 -0.3364833682
C  C36  1  0.00450000  0.92910000  0.56175000  1.0 -0.3364833682
C  C37  1  0.50450000  0.92910000  0.93825000  1.0 -0.3364833682
C  C38  1  0.99550000  0.42910000  0.56175000  1.0 -0.3364833682
C  C39  1  0.50450000  0.57090000  0.06175000  1.0 -0.3364833682
C  C40  1  0.99550000  0.07090000  0.43825000  1.0 -0.3364833682
C  C41  1  0.64930000  0.67290000  0.29880000  1.0 0.5032946304
C  C42  1  0.85070000  0.17290000  0.20120000  1.0 0.5032946304
C  C43  1  0.64930000  0.82710000  0.70120000  1.0 0.5032946304
C  C44  1  0.85070000  0.32710000  0.79880000  1.0 0.5032946304
C  C45  1  0.35070000  0.32710000  0.70120000  1.0 0.5032946304
C  C46  1  0.14930000  0.82710000  0.79880000  1.0 0.5032946304
C  C47  1  0.35070000  0.17290000  0.29880000  1.0 0.5032946304
C  C48  1  0.14930000  0.67290000  0.20120000  1.0 0.5032946304
C  C49  1  0.47560000  0.00110000  0.03345000  1.0 -0.1369486633
C  C50  1  0.02440000  0.50110000  0.46655000  1.0 -0.1369486633
C  C51  1  0.47560000  0.49890000  0.96655000  1.0 -0.1369486633
C  C52  1  0.02440000  0.99890000  0.53345000  1.0 -0.1369486633
C  C53  1  0.52440000  0.99890000  0.96655000  1.0 -0.1369486633
C  C54  1  0.97560000  0.49890000  0.53345000  1.0 -0.1369486633
C  C55  1  0.52440000  0.50110000  0.03345000  1.0 -0.1369486633
C  C56  1  0.97560000  0.00110000  0.46655000  1.0 -0.1369486633
C  C57  1  0.78480000  0.78500000  0.30910000  1.0 -0.0101881136
C  C58  1  0.71520000  0.28500000  0.19090000  1.0 -0.0101881136
C  C59  1  0.78480000  0.71500000  0.69090000  1.0 -0.0101881136
C  C60  1  0.71520000  0.21500000  0.80910000  1.0 -0.0101881136
C  C61  1  0.21520000  0.21500000  0.69090000  1.0 -0.0101881136
C  C62  1  0.28480000  0.71500000  0.80910000  1.0 -0.0101881136
C  C63  1  0.21520000  0.28500000  0.30910000  1.0 -0.0101881136
C  C64  1  0.28480000  0.78500000  0.19090000  1.0 -0.0101881136
C  C65  1  0.78160000  0.71380000  0.33530000  1.0 -0.0101881136
C  C66  1  0.71840000  0.21380000  0.16470000  1.0 -0.0101881136
C  C67  1  0.78160000  0.78620000  0.66470000  1.0 -0.0101881136
C  C68  1  0.71840000  0.28620000  0.83530000  1.0 -0.0101881136
C  C69  1  0.21840000  0.28620000  0.66470000  1.0 -0.0101881136
C  C70  1  0.28160000  0.78620000  0.83530000  1.0 -0.0101881136
C  C71  1  0.21840000  0.21380000  0.33530000  1.0 -0.0101881136
C  C72  1  0.28160000  0.71380000  0.16470000  1.0 -0.0101881136
C  C73  1  0.26090000  0.28360000  0.35020000  1.0 0.0867710546
C  C74  1  0.23910000  0.78360000  0.14980000  1.0 0.0867710546
C  C75  1  0.26090000  0.21640000  0.64980000  1.0 0.0867710546
C  C76  1  0.23910000  0.71640000  0.85020000  1.0 0.0867710546
C  C77  1  0.73910000  0.71640000  0.64980000  1.0 0.0867710546
C  C78  1  0.76090000  0.21640000  0.85020000  1.0 0.0867710546
C  C79  1  0.73910000  0.78360000  0.35020000  1.0 0.0867710546
C  C80  1  0.76090000  0.28360000  0.14980000  1.0 0.0867710546
C  C81  1  0.21100000  0.22750000  0.29890000  1.0 -0.0403556382
C  C82  1  0.28900000  0.72750000  0.20110000  1.0 -0.0403556382
C  C83  1  0.21100000  0.27250000  0.70110000  1.0 -0.0403556382
C  C84  1  0.28900000  0.77250000  0.79890000  1.0 -0.0403556382
C  C85  1  0.78900000  0.77250000  0.70110000  1.0 -0.0403556382
C  C86  1  0.71100000  0.27250000  0.79890000  1.0 -0.0403556382
C  C87  1  0.78900000  0.72750000  0.29890000  1.0 -0.0403556382
C  C88  1  0.71100000  0.22750000  0.20110000  1.0 -0.0403556382
O  O1  1  0.55390000  0.05631000  0.16737000  1.0 -0.6862940505
O  O2  1  0.94610000  0.55631000  0.33263000  1.0 -0.6862940505
O  O3  1  0.55390000  0.44369000  0.83263000  1.0 -0.6862940505
O  O4  1  0.94610000  0.94369000  0.66737000  1.0 -0.6862940505
O  O5  1  0.44610000  0.94369000  0.83263000  1.0 -0.6862940505
O  O6  1  0.05390000  0.44369000  0.66737000  1.0 -0.6862940505
O  O7  1  0.44610000  0.55631000  0.16737000  1.0 -0.6862940505
O  O8  1  0.05390000  0.05631000  0.33263000  1.0 -0.6862940505
O  O9  1  0.83330000  0.98071000  0.24907000  1.0 -0.7311944678
O  O10  1  0.66666667  0.48071000  0.25093000  1.0 -0.7311944678
O  O11  1  0.83330000  0.51929000  0.75093000  1.0 -0.7311944678
O  O12  1  0.66666667  0.01929000  0.74907000  1.0 -0.7311944678
O  O13  1  0.16670000  0.01929000  0.75093000  1.0 -0.7311944678
O  O14  1  0.33333333  0.51929000  0.74907000  1.0 -0.7311944678
O  O15  1  0.16670000  0.48071000  0.24907000  1.0 -0.7311944678
O  O16  1  0.33333333  0.98071000  0.25093000  1.0 -0.7311944678
O  O17  1  0.28570000  0.07558000  0.13899000  1.0 -0.6315476312
O  O18  1  0.21430000  0.57558000  0.36101000  1.0 -0.6315476312
O  O19  1  0.28570000  0.42442000  0.86101000  1.0 -0.6315476312
O  O20  1  0.21430000  0.92442000  0.63899000  1.0 -0.6315476312
O  O21  1  0.71430000  0.92442000  0.86101000  1.0 -0.6315476312
O  O22  1  0.78570000  0.42442000  0.63899000  1.0 -0.6315476312
O  O23  1  0.71430000  0.57558000  0.13899000  1.0 -0.6315476312
O  O24  1  0.78570000  0.07558000  0.36101000  1.0 -0.6315476312
O  O25  1  0.66910000  0.93922000  0.32081000  1.0 -0.5632067262
O  O26  1  0.83090000  0.43922000  0.17919000  1.0 -0.5632067262
O  O27  1  0.66910000  0.56078000  0.67919000  1.0 -0.5632067262
O  O28  1  0.83090000  0.06078000  0.82081000  1.0 -0.5632067262
O  O29  1  0.33090000  0.06078000  0.67919000  1.0 -0.5632067262
O  O30  1  0.16910000  0.56078000  0.82081000  1.0 -0.5632067262
O  O31  1  0.33090000  0.43922000  0.32081000  1.0 -0.5632067262
O  O32  1  0.16910000  0.93922000  0.17919000  1.0 -0.5632067262
O  O33  1  0.69240000  0.62526000  0.26276000  1.0 -0.7205587714
O  O34  1  0.80760000  0.12526000  0.23724000  1.0 -0.7205587714
O  O35  1  0.69240000  0.87474000  0.73724000  1.0 -0.7205587714
O  O36  1  0.80760000  0.37474000  0.76276000  1.0 -0.7205587714
O  O37  1  0.30760000  0.37474000  0.73724000  1.0 -0.7205587714
O  O38  1  0.19240000  0.87474000  0.76276000  1.0 -0.7205587714
O  O39  1  0.30760000  0.12526000  0.26276000  1.0 -0.7205587714
O  O40  1  0.19240000  0.62526000  0.23724000  1.0 -0.7205587714
O  O41  1  0.50330000  0.67525000  0.32003000  1.0 -0.551457943
O  O42  1  0.99670000  0.17525000  0.17997000  1.0 -0.551457943
O  O43  1  0.50330000  0.82475000  0.67997000  1.0 -0.551457943
O  O44  1  0.99670000  0.32475000  0.82003000  1.0 -0.551457943
O  O45  1  0.49670000  0.32475000  0.67997000  1.0 -0.551457943
O  O46  1  0.00330000  0.82475000  0.82003000  1.0 -0.551457943
O  O47  1  0.49670000  0.17525000  0.32003000  1.0 -0.551457943
O  O48  1  0.00330000  0.67525000  0.17997000  1.0 -0.551457943
O  O49  1  0.39120000  0.03622000  0.37167000  1.0 -0.7715350851
O  O50  1  0.10880000  0.53622000  0.12833000  1.0 -0.7715350851
O  O51  1  0.39120000  0.46378000  0.62833000  1.0 -0.7715350851
O  O52  1  0.10880000  0.96378000  0.87167000  1.0 -0.7715350851
O  O53  1  0.60880000  0.96378000  0.62833000  1.0 -0.7715350851
O  O54  1  0.89120000  0.46378000  0.87167000  1.0 -0.7715350851
O  O55  1  0.60880000  0.53622000  0.37167000  1.0 -0.7715350851
O  O56  1  0.89120000  0.03622000  0.12833000  1.0 -0.7715350851
