# DDEC6 charges by PACMAN v1.1 (https://github.com/mtap-research/PACMAN-charge/)
data_FEYZUF01_ASR_pacman
_symmetry_space_group_name_H-M   'P 1'
_cell_length_a   7.64930000
_cell_length_b   19.66910000
_cell_length_c   21.92500000
_cell_angle_alpha   90.00000000
_cell_angle_beta   90.00000000
_cell_angle_gamma   90.00000000
_symmetry_Int_Tables_number   1
_chemical_formula_structural   EuH16C11O6
_chemical_formula_sum   'Eu8 H128 C88 O48'
_cell_volume   3298.72251236
_cell_formula_units_Z   8
loop_
 _symmetry_equiv_pos_site_id
 _symmetry_equiv_pos_as_xyz
  1  'x, y, z'
loop_
 _atom_site_type_symbol
 _atom_site_label
 _atom_site_symmetry_multiplicity
 _atom_site_fract_x
 _atom_site_fract_y
 _atom_site_fract_z
 _atom_site_occupancy
 _atom_site_charge
Eu  Eu1  1  0.42492000  0.05355000  0.28059000  1.0 1.92490536
Eu  Eu2  1  0.07508000  0.55354000  0.21941000  1.0 1.92490536
Eu  Eu3  1  0.42492000  0.44645000  0.71941000  1.0 1.92490536
Eu  Eu4  1  0.07508000  0.94646000  0.78059000  1.0 1.92490536
Eu  Eu5  1  0.57508000  0.94646000  0.71941000  1.0 1.92490536
Eu  Eu6  1  0.92492000  0.44645000  0.78059000  1.0 1.92490536
Eu  Eu7  1  0.57508000  0.55354000  0.28059000  1.0 1.92490536
Eu  Eu8  1  0.92492000  0.05355000  0.21941000  1.0 1.92490536
H  H1  1  0.57620000  0.10179000  0.04290000  1.0 0.1372679736
H  H2  1  0.92380000  0.60179000  0.45710000  1.0 0.1372679736
H  H3  1  0.57620000  0.39820000  0.95710000  1.0 0.1372679736
H  H4  1  0.92380000  0.89821000  0.54290000  1.0 0.1372679736
H  H5  1  0.42380000  0.89821000  0.95710000  1.0 0.1372679736
H  H6  1  0.07620000  0.39820000  0.54290000  1.0 0.1372679736
H  H7  1  0.42380000  0.60179000  0.04290000  1.0 0.1372679736
H  H8  1  0.07620000  0.10179000  0.45710000  1.0 0.1372679736
H  H9  1  0.38510000  0.08249000  0.06230000  1.0 0.1330187994
H  H10  1  0.11490000  0.58249000  0.43770000  1.0 0.1330187994
H  H11  1  0.38510000  0.41750000  0.93770000  1.0 0.1330187994
H  H12  1  0.11490000  0.91750000  0.56230000  1.0 0.1330187994
H  H13  1  0.61490000  0.91750000  0.93770000  1.0 0.1330187994
H  H14  1  0.88510000  0.41750000  0.56230000  1.0 0.1330187994
H  H15  1  0.61490000  0.58249000  0.06230000  1.0 0.1330187994
H  H16  1  0.88510000  0.08249000  0.43770000  1.0 0.1330187994
H  H17  1  0.64730000  0.98539000  0.03650000  1.0 0.0976552147
H  H18  1  0.85270000  0.48540000  0.46350000  1.0 0.0976552147
H  H19  1  0.64730000  0.51460000  0.96350000  1.0 0.0976552147
H  H20  1  0.85270000  0.01460000  0.53650000  1.0 0.0976552147
H  H21  1  0.35270000  0.01460000  0.96350000  1.0 0.0976552147
H  H22  1  0.14730000  0.51460000  0.53650000  1.0 0.0976552147
H  H23  1  0.35270000  0.48540000  0.03650000  1.0 0.0976552147
H  H24  1  0.14730000  0.98539000  0.46350000  1.0 0.0976552147
H  H25  1  0.45540000  0.96659000  0.05480000  1.0 0.0976552147
H  H26  1  0.04460000  0.46659000  0.44520000  1.0 0.0976552147
H  H27  1  0.45540000  0.53341000  0.94520000  1.0 0.0976552147
H  H28  1  0.04460000  0.03340000  0.55480000  1.0 0.0976552147
H  H29  1  0.54460000  0.03340000  0.94520000  1.0 0.0976552147
H  H30  1  0.95540000  0.53341000  0.55480000  1.0 0.0976552147
H  H31  1  0.54460000  0.46659000  0.05480000  1.0 0.0976552147
H  H32  1  0.95540000  0.96659000  0.44520000  1.0 0.0976552147
H  H33  1  0.22620000  0.68829000  0.37750000  1.0 0.0976552147
H  H34  1  0.27380000  0.18829000  0.12250000  1.0 0.0976552147
H  H35  1  0.22620000  0.81171000  0.62250000  1.0 0.0976552147
H  H36  1  0.27380000  0.31171000  0.87750000  1.0 0.0976552147
H  H37  1  0.77380000  0.31171000  0.62250000  1.0 0.0976552147
H  H38  1  0.72620000  0.81171000  0.87750000  1.0 0.0976552147
H  H39  1  0.77380000  0.18829000  0.37750000  1.0 0.0976552147
H  H40  1  0.72620000  0.68829000  0.12250000  1.0 0.0976552147
H  H41  1  0.11200000  0.70600000  0.32080000  1.0 0.1201652466
H  H42  1  0.38800000  0.20600000  0.17920000  1.0 0.1201652466
H  H43  1  0.11200000  0.79400000  0.67920000  1.0 0.1201652466
H  H44  1  0.38800000  0.29401000  0.82080000  1.0 0.1201652466
H  H45  1  0.88800000  0.29401000  0.67920000  1.0 0.1201652466
H  H46  1  0.61200000  0.79400000  0.82080000  1.0 0.1201652466
H  H47  1  0.88800000  0.20600000  0.32080000  1.0 0.1201652466
H  H48  1  0.61200000  0.70600000  0.17920000  1.0 0.1201652466
H  H49  1  0.33000000  0.78619000  0.38490000  1.0 0.0806882831
H  H50  1  0.17000000  0.28619000  0.11510000  1.0 0.0806882831
H  H51  1  0.33000000  0.71381000  0.61510000  1.0 0.0806882831
H  H52  1  0.17000000  0.21380000  0.88490000  1.0 0.0806882831
H  H53  1  0.67000000  0.21380000  0.61510000  1.0 0.0806882831
H  H54  1  0.83000000  0.71381000  0.88490000  1.0 0.0806882831
H  H55  1  0.67000000  0.28619000  0.38490000  1.0 0.0806882831
H  H56  1  0.83000000  0.78619000  0.11510000  1.0 0.0806882831
H  H57  1  0.33790000  0.79760000  0.31470000  1.0 0.1110134919
H  H58  1  0.16210000  0.29759000  0.18530000  1.0 0.1110134919
H  H59  1  0.33790000  0.70240000  0.68530000  1.0 0.1110134919
H  H60  1  0.16210000  0.20241000  0.81470000  1.0 0.1110134919
H  H61  1  0.66210000  0.20241000  0.68530000  1.0 0.1110134919
H  H62  1  0.83790000  0.70240000  0.81470000  1.0 0.1110134919
H  H63  1  0.66210000  0.29759000  0.31470000  1.0 0.1110134919
H  H64  1  0.83790000  0.79760000  0.18530000  1.0 0.1110134919
H  H65  1  0.00970000  0.80570000  0.35960000  1.0 0.0695682292
H  H66  1  0.49030000  0.30569000  0.14040000  1.0 0.0695682292
H  H67  1  0.00970000  0.69430000  0.64040000  1.0 0.0695682292
H  H68  1  0.49030000  0.19430000  0.85960000  1.0 0.0695682292
H  H69  1  0.99030000  0.19430000  0.64040000  1.0 0.0695682292
H  H70  1  0.50970000  0.69430000  0.85960000  1.0 0.0695682292
H  H71  1  0.99030000  0.30569000  0.35960000  1.0 0.0695682292
H  H72  1  0.50970000  0.80570000  0.14040000  1.0 0.0695682292
H  H73  1  0.13480000  0.85850000  0.38900000  1.0 0.0695682292
H  H74  1  0.36520000  0.35850000  0.11100000  1.0 0.0695682292
H  H75  1  0.13480000  0.64150000  0.61100000  1.0 0.0695682292
H  H76  1  0.36520000  0.14150000  0.88900000  1.0 0.0695682292
H  H77  1  0.86520000  0.14150000  0.61100000  1.0 0.0695682292
H  H78  1  0.63480000  0.64150000  0.88900000  1.0 0.0695682292
H  H79  1  0.86520000  0.35850000  0.38900000  1.0 0.0695682292
H  H80  1  0.63480000  0.85850000  0.11100000  1.0 0.0695682292
H  H81  1  0.03800000  0.85969000  0.26630000  1.0 0.1201652466
H  H82  1  0.46200000  0.35969000  0.23370000  1.0 0.1201652466
H  H83  1  0.03800000  0.64031000  0.73370000  1.0 0.1201652466
H  H84  1  0.46200000  0.14031000  0.76630000  1.0 0.1201652466
H  H85  1  0.96200000  0.14031000  0.73370000  1.0 0.1201652466
H  H86  1  0.53800000  0.64031000  0.76630000  1.0 0.1201652466
H  H87  1  0.96200000  0.35969000  0.26630000  1.0 0.1201652466
H  H88  1  0.53800000  0.85969000  0.23370000  1.0 0.1201652466
H  H89  1  0.95770000  0.90670000  0.31660000  1.0 0.1330187994
H  H90  1  0.54230000  0.40669000  0.18340000  1.0 0.1330187994
H  H91  1  0.95770000  0.59330000  0.68340000  1.0 0.1330187994
H  H92  1  0.54230000  0.09330000  0.81660000  1.0 0.1330187994
H  H93  1  0.04230000  0.09330000  0.68340000  1.0 0.1330187994
H  H94  1  0.45770000  0.59330000  0.81660000  1.0 0.1330187994
H  H95  1  0.04230000  0.40669000  0.31660000  1.0 0.1330187994
H  H96  1  0.45770000  0.90670000  0.18340000  1.0 0.1330187994
H  H97  1  0.87800000  0.21030000  0.32730000  1.0 0.1201652466
H  H98  1  0.62200000  0.71030000  0.17270000  1.0 0.1201652466
H  H99  1  0.87800000  0.28970000  0.67270000  1.0 0.1201652466
H  H100  1  0.62200000  0.78970000  0.82730000  1.0 0.1201652466
H  H101  1  0.12200000  0.78970000  0.67270000  1.0 0.1201652466
H  H102  1  0.37800000  0.28970000  0.82730000  1.0 0.1201652466
H  H103  1  0.12200000  0.71030000  0.32730000  1.0 0.1201652466
H  H104  1  0.37800000  0.21030000  0.17270000  1.0 0.1201652466
H  H105  1  0.84380000  0.22599000  0.25960000  1.0 0.0908669236
H  H106  1  0.65620000  0.72599000  0.24040000  1.0 0.0908669236
H  H107  1  0.84380000  0.27400000  0.74040000  1.0 0.0908669236
H  H108  1  0.65620000  0.77401000  0.75960000  1.0 0.0908669236
H  H109  1  0.15620000  0.77401000  0.74040000  1.0 0.0908669236
H  H110  1  0.34380000  0.27400000  0.75960000  1.0 0.0908669236
H  H111  1  0.15620000  0.72599000  0.25960000  1.0 0.0908669236
H  H112  1  0.34380000  0.22599000  0.24040000  1.0 0.0908669236
H  H113  1  0.66590000  0.28309000  0.31920000  1.0 0.1201652466
H  H114  1  0.83410000  0.78309000  0.18080000  1.0 0.1201652466
H  H115  1  0.66590000  0.21690000  0.68080000  1.0 0.1201652466
H  H116  1  0.83410000  0.71691000  0.81920000  1.0 0.1201652466
H  H117  1  0.33410000  0.71691000  0.68080000  1.0 0.1201652466
H  H118  1  0.16590000  0.21690000  0.81920000  1.0 0.1201652466
H  H119  1  0.33410000  0.78309000  0.31920000  1.0 0.1201652466
H  H120  1  0.16590000  0.28309000  0.18080000  1.0 0.1201652466
H  H121  1  0.80060000  0.29600000  0.26850000  1.0 0.0806882831
H  H122  1  0.69940000  0.79600000  0.23150000  1.0 0.0806882831
H  H123  1  0.80060000  0.20400000  0.73150000  1.0 0.0806882831
H  H124  1  0.69940000  0.70400000  0.76850000  1.0 0.0806882831
H  H125  1  0.19940000  0.70400000  0.73150000  1.0 0.0806882831
H  H126  1  0.30060000  0.20400000  0.76850000  1.0 0.0806882831
H  H127  1  0.19940000  0.79600000  0.26850000  1.0 0.0806882831
H  H128  1  0.30060000  0.29600000  0.23150000  1.0 0.0806882831
C  C1  1  0.56260000  0.06549000  0.12960000  1.0 0.6690829995
C  C2  1  0.93740000  0.56549000  0.37040000  1.0 0.6690829995
C  C3  1  0.56260000  0.43450000  0.87040000  1.0 0.6690829995
C  C4  1  0.93740000  0.93451000  0.62960000  1.0 0.6690829995
C  C5  1  0.43740000  0.93451000  0.87040000  1.0 0.6690829995
C  C6  1  0.06260000  0.43450000  0.62960000  1.0 0.6690829995
C  C7  1  0.43740000  0.56549000  0.12960000  1.0 0.6690829995
C  C8  1  0.06260000  0.06549000  0.37040000  1.0 0.6690829995
C  C9  1  0.50640000  0.06829000  0.06440000  1.0 -0.3367786479
C  C10  1  0.99360000  0.56829000  0.43560000  1.0 -0.3367786479
C  C11  1  0.50640000  0.43171000  0.93560000  1.0 -0.3367786479
C  C12  1  0.99360000  0.93171000  0.56440000  1.0 -0.3367786479
C  C13  1  0.49360000  0.93171000  0.93560000  1.0 -0.3367786479
C  C14  1  0.00640000  0.43171000  0.56440000  1.0 -0.3367786479
C  C15  1  0.49360000  0.56829000  0.06440000  1.0 -0.3367786479
C  C16  1  0.00640000  0.06829000  0.43560000  1.0 -0.3367786479
C  C17  1  0.52640000  0.99979000  0.03340000  1.0 -0.1308066097
C  C18  1  0.97360000  0.49979000  0.46660000  1.0 -0.1308066097
C  C19  1  0.52640000  0.50021000  0.96660000  1.0 -0.1308066097
C  C20  1  0.97360000  0.00020000  0.53340000  1.0 -0.1308066097
C  C21  1  0.47360000  0.00020000  0.96660000  1.0 -0.1308066097
C  C22  1  0.02640000  0.50021000  0.53340000  1.0 -0.1308066097
C  C23  1  0.47360000  0.49979000  0.03340000  1.0 -0.1308066097
C  C24  1  0.02640000  0.99979000  0.46660000  1.0 -0.1308066097
C  C25  1  0.35110000  0.66700000  0.29690000  1.0 0.4132343384
C  C26  1  0.14890000  0.16700000  0.20310000  1.0 0.4132343384
C  C27  1  0.35110000  0.83300000  0.70310000  1.0 0.4132343384
C  C28  1  0.14890000  0.33300000  0.79690000  1.0 0.4132343384
C  C29  1  0.64890000  0.33300000  0.70310000  1.0 0.4132343384
C  C30  1  0.85110000  0.83300000  0.79690000  1.0 0.4132343384
C  C31  1  0.64890000  0.16700000  0.29690000  1.0 0.4132343384
C  C32  1  0.85110000  0.66700000  0.20310000  1.0 0.4132343384
C  C33  1  0.22900000  0.70989000  0.33800000  1.0 -0.1481326406
C  C34  1  0.27100000  0.20990000  0.16200000  1.0 -0.1481326406
C  C35  1  0.22900000  0.79010000  0.66200000  1.0 -0.1481326406
C  C36  1  0.27100000  0.29010000  0.83800000  1.0 -0.1481326406
C  C37  1  0.77100000  0.29010000  0.66200000  1.0 -0.1481326406
C  C38  1  0.72900000  0.79010000  0.83800000  1.0 -0.1481326406
C  C39  1  0.77100000  0.20990000  0.33800000  1.0 -0.1481326406
C  C40  1  0.72900000  0.70989000  0.16200000  1.0 -0.1481326406
C  C41  1  0.26300000  0.78239000  0.34760000  1.0 -0.1038357911
C  C42  1  0.23700000  0.28240000  0.15240000  1.0 -0.1038357911
C  C43  1  0.26300000  0.71761000  0.65240000  1.0 -0.1038357911
C  C44  1  0.23700000  0.21760000  0.84760000  1.0 -0.1038357911
C  C45  1  0.73700000  0.21760000  0.65240000  1.0 -0.1038357911
C  C46  1  0.76300000  0.71761000  0.84760000  1.0 -0.1038357911
C  C47  1  0.73700000  0.28240000  0.34760000  1.0 -0.1038357911
C  C48  1  0.76300000  0.78239000  0.15240000  1.0 -0.1038357911
C  C49  1  0.11390000  0.83259000  0.35210000  1.0 -0.0518311893
C  C50  1  0.38610000  0.33259000  0.14790000  1.0 -0.0518311893
C  C51  1  0.11390000  0.66741000  0.64790000  1.0 -0.0518311893
C  C52  1  0.38610000  0.16740000  0.85210000  1.0 -0.0518311893
C  C53  1  0.88610000  0.16740000  0.64790000  1.0 -0.0518311893
C  C54  1  0.61390000  0.66741000  0.85210000  1.0 -0.0518311893
C  C55  1  0.88610000  0.33259000  0.35210000  1.0 -0.0518311893
C  C56  1  0.61390000  0.83259000  0.14790000  1.0 -0.0518311893
C  C57  1  0.06390000  0.88389000  0.30380000  1.0 -0.3853348044
C  C58  1  0.43610000  0.38389000  0.19620000  1.0 -0.3853348044
C  C59  1  0.06390000  0.61611000  0.69620000  1.0 -0.3853348044
C  C60  1  0.43610000  0.11610000  0.80380000  1.0 -0.3853348044
C  C61  1  0.93610000  0.11610000  0.69620000  1.0 -0.3853348044
C  C62  1  0.56390000  0.61611000  0.80380000  1.0 -0.3853348044
C  C63  1  0.93610000  0.38389000  0.30380000  1.0 -0.3853348044
C  C64  1  0.56390000  0.88389000  0.19620000  1.0 -0.3853348044
C  C65  1  0.20200000  0.93769000  0.29020000  1.0 0.6327414888
C  C66  1  0.29800000  0.43769000  0.20980000  1.0 0.6327414888
C  C67  1  0.20200000  0.56230000  0.70980000  1.0 0.6327414888
C  C68  1  0.29800000  0.06230000  0.79020000  1.0 0.6327414888
C  C69  1  0.79800000  0.06230000  0.70980000  1.0 0.6327414888
C  C70  1  0.70200000  0.56230000  0.79020000  1.0 0.6327414888
C  C71  1  0.79800000  0.43769000  0.29020000  1.0 0.6327414888
C  C72  1  0.70200000  0.93769000  0.20980000  1.0 0.6327414888
C  C73  1  0.79000000  0.22770000  0.29960000  1.0 -0.1357167733
C  C74  1  0.71000000  0.72769000  0.20040000  1.0 -0.1357167733
C  C75  1  0.79000000  0.27231000  0.70040000  1.0 -0.1357167733
C  C76  1  0.71000000  0.77231000  0.79960000  1.0 -0.1357167733
C  C77  1  0.21000000  0.77231000  0.70040000  1.0 -0.1357167733
C  C78  1  0.29000000  0.27231000  0.79960000  1.0 -0.1357167733
C  C79  1  0.21000000  0.72769000  0.29960000  1.0 -0.1357167733
C  C80  1  0.29000000  0.22770000  0.20040000  1.0 -0.1357167733
C  C81  1  0.78800000  0.27599000  0.30880000  1.0 -0.1088936326
C  C82  1  0.71200000  0.77599000  0.19120000  1.0 -0.1088936326
C  C83  1  0.78800000  0.22401000  0.69120000  1.0 -0.1088936326
C  C84  1  0.71200000  0.72401000  0.80880000  1.0 -0.1088936326
C  C85  1  0.21200000  0.72401000  0.69120000  1.0 -0.1088936326
C  C86  1  0.28800000  0.22401000  0.80880000  1.0 -0.1088936326
C  C87  1  0.21200000  0.77599000  0.30880000  1.0 -0.1088936326
C  C88  1  0.28800000  0.27599000  0.19120000  1.0 -0.1088936326
O  O1  1  0.33990000  0.93900000  0.31920000  1.0 -0.5769808439
O  O2  1  0.16010000  0.43899000  0.18080000  1.0 -0.5769808439
O  O3  1  0.33990000  0.56100000  0.68080000  1.0 -0.5769808439
O  O4  1  0.16010000  0.06100000  0.81920000  1.0 -0.5769808439
O  O5  1  0.66010000  0.06100000  0.68080000  1.0 -0.5769808439
O  O6  1  0.83990000  0.56100000  0.81920000  1.0 -0.5769808439
O  O7  1  0.66010000  0.43899000  0.31920000  1.0 -0.5769808439
O  O8  1  0.83990000  0.93900000  0.18080000  1.0 -0.5769808439
O  O9  1  0.44710000  0.05479000  0.16960000  1.0 -0.6732696441
O  O10  1  0.05290000  0.55479000  0.33040000  1.0 -0.6732696441
O  O11  1  0.44710000  0.44520000  0.83040000  1.0 -0.6732696441
O  O12  1  0.05290000  0.94520000  0.66960000  1.0 -0.6732696441
O  O13  1  0.55290000  0.94520000  0.83040000  1.0 -0.6732696441
O  O14  1  0.94710000  0.44520000  0.66960000  1.0 -0.6732696441
O  O15  1  0.55290000  0.55479000  0.16960000  1.0 -0.6732696441
O  O16  1  0.94710000  0.05479000  0.33040000  1.0 -0.6732696441
O  O17  1  0.16920000  0.98119000  0.24840000  1.0 -0.7523587939
O  O18  1  0.33080000  0.48119000  0.25160000  1.0 -0.7523587939
O  O19  1  0.16920000  0.51880000  0.75160000  1.0 -0.7523587939
O  O20  1  0.33080000  0.01880000  0.74840000  1.0 -0.7523587939
O  O21  1  0.83080000  0.01880000  0.75160000  1.0 -0.7523587939
O  O22  1  0.66920000  0.51880000  0.74840000  1.0 -0.7523587939
O  O23  1  0.83080000  0.48119000  0.24840000  1.0 -0.7523587939
O  O24  1  0.66920000  0.98119000  0.25160000  1.0 -0.7523587939
O  O25  1  0.30520000  0.62060000  0.26080000  1.0 -0.6869468016
O  O26  1  0.19480000  0.12059000  0.23920000  1.0 -0.6869468016
O  O27  1  0.30520000  0.87940000  0.73920000  1.0 -0.6869468016
O  O28  1  0.19480000  0.37940000  0.76080000  1.0 -0.6869468016
O  O29  1  0.69480000  0.37940000  0.73920000  1.0 -0.6869468016
O  O30  1  0.80520000  0.87940000  0.76080000  1.0 -0.6869468016
O  O31  1  0.69480000  0.12059000  0.26080000  1.0 -0.6869468016
O  O32  1  0.80520000  0.62060000  0.23920000  1.0 -0.6869468016
O  O33  1  0.50110000  0.67179000  0.31730000  1.0 -0.5303437558
O  O34  1  0.99890000  0.17180000  0.18270000  1.0 -0.5303437558
O  O35  1  0.50110000  0.82820000  0.68270000  1.0 -0.5303437558
O  O36  1  0.99890000  0.32821000  0.81730000  1.0 -0.5303437558
O  O37  1  0.49890000  0.32821000  0.68270000  1.0 -0.5303437558
O  O38  1  0.00110000  0.82820000  0.81730000  1.0 -0.5303437558
O  O39  1  0.49890000  0.17180000  0.31730000  1.0 -0.5303437558
O  O40  1  0.00110000  0.67179000  0.18270000  1.0 -0.5303437558
O  O41  1  0.72420000  0.07190000  0.14060000  1.0 -0.6980599014
O  O42  1  0.77580000  0.57190000  0.35940000  1.0 -0.6980599014
O  O43  1  0.72420000  0.42811000  0.85940000  1.0 -0.6980599014
O  O44  1  0.77580000  0.92810000  0.64060000  1.0 -0.6980599014
O  O45  1  0.27580000  0.92810000  0.85940000  1.0 -0.6980599014
O  O46  1  0.22420000  0.42811000  0.64060000  1.0 -0.6980599014
O  O47  1  0.27580000  0.57190000  0.14060000  1.0 -0.6980599014
O  O48  1  0.22420000  0.07190000  0.35940000  1.0 -0.6980599014
