# DDEC6 charges by PACMAN v1.1 (https://github.com/mtap-research/PACMAN-charge/)
data_FEZCUJ_FSR_pacman
_symmetry_space_group_name_H-M   'P 1'
_cell_length_a   15.08050000
_cell_length_b   15.68230000
_cell_length_c   27.30240000
_cell_angle_alpha   90.00000000
_cell_angle_beta   101.67000000
_cell_angle_gamma   90.00000000
_symmetry_Int_Tables_number   1
_chemical_formula_structural   ErCu6H53C34N17O8
_chemical_formula_sum   'Er4 Cu24 H212 C136 N68 O32'
_cell_volume   6323.46144116
_cell_formula_units_Z   4
loop_
 _symmetry_equiv_pos_site_id
 _symmetry_equiv_pos_as_xyz
  1  'x, y, z'
loop_
 _atom_site_type_symbol
 _atom_site_label
 _atom_site_symmetry_multiplicity
 _atom_site_fract_x
 _atom_site_fract_y
 _atom_site_fract_z
 _atom_site_occupancy
 _atom_site_charge
Er  Er1  1  0.78008000  0.88373000  0.87115000  1.0 1.9990607029
Er  Er2  1  0.21992000  0.38373000  0.62885000  1.0 1.9990607029
Er  Er3  1  0.21992000  0.11627000  0.12885000  1.0 1.9990607029
Er  Er4  1  0.78008000  0.61627000  0.37115000  1.0 1.9990607029
Cu  Cu1  1  0.23234000  0.79990000  0.62196000  1.0 0.3555911308
Cu  Cu2  1  0.76766000  0.29990000  0.87804000  1.0 0.3555911308
Cu  Cu3  1  0.76766000  0.20010000  0.37804000  1.0 0.3555911308
Cu  Cu4  1  0.23234000  0.70010000  0.12196000  1.0 0.3555911308
Cu  Cu5  1  0.72727000  0.55630000  0.65726000  1.0 0.2349126165
Cu  Cu6  1  0.27273000  0.05630000  0.84274000  1.0 0.2357549345
Cu  Cu7  1  0.27273000  0.44370000  0.34274000  1.0 0.2357549345
Cu  Cu8  1  0.72727000  0.94370000  0.15726000  1.0 0.2349126165
Cu  Cu9  1  0.92650000  0.80874000  0.66536000  1.0 0.2508621042
Cu  Cu10  1  0.07350000  0.30874000  0.83464000  1.0 0.2508621042
Cu  Cu11  1  0.07350000  0.19126000  0.33464000  1.0 0.2508621042
Cu  Cu12  1  0.92650000  0.69126000  0.16536000  1.0 0.2508621042
Cu  Cu13  1  0.46980000  0.97630000  0.72561000  1.0 0.3455462878
Cu  Cu14  1  0.53020000  0.47630000  0.77439000  1.0 0.3455462878
Cu  Cu15  1  0.53020000  0.02370000  0.27439000  1.0 0.3455462878
Cu  Cu16  1  0.46980000  0.52370000  0.22561000  1.0 0.3455462878
Cu  Cu17  1  0.73131000  0.06474000  0.65330000  1.0 0.3767616576
Cu  Cu18  1  0.26869000  0.56474000  0.84670000  1.0 0.3767616576
Cu  Cu19  1  0.26869000  0.93526000  0.34670000  1.0 0.3767616576
Cu  Cu20  1  0.73131000  0.43526000  0.15330000  1.0 0.3767616576
Cu  Cu21  1  0.74503000  0.31784000  0.54250000  1.0 0.2508621042
Cu  Cu22  1  0.25497000  0.81784000  0.95750000  1.0 0.2508621042
Cu  Cu23  1  0.25497000  0.68216000  0.45750000  1.0 0.2508621042
Cu  Cu24  1  0.74503000  0.18216000  0.04250000  1.0 0.2508621042
H  H1  1  0.92080000  0.92480000  0.78880000  1.0 0.1215822225
H  H2  1  0.14250000  0.89000000  0.77870000  1.0 0.1397147818
H  H3  1  0.08390000  0.97240000  0.78620000  1.0 0.1397147818
H  H4  1  0.04900000  0.90860000  0.74060000  1.0 0.1304521193
H  H5  1  0.72810000  0.89010000  0.73440000  1.0 0.1007508484
H  H6  1  0.58470000  0.76410000  0.64630000  1.0 0.1304521193
H  H7  1  0.68670000  0.79790000  0.65360000  1.0 0.1304521193
H  H8  1  0.60540000  0.86410000  0.65220000  1.0 0.1397147818
H  H9  1  0.54570000  0.70550000  0.70700000  1.0 0.1304521193
H  H10  1  0.54180000  0.76480000  0.75420000  1.0 0.1304521193
H  H11  1  0.62090000  0.69580000  0.75720000  1.0 0.1397147818
H  H12  1  0.86290000  0.69600000  0.83050000  1.0 0.1076422635
H  H13  1  0.69070000  0.52120000  0.85350000  1.0 0.1304521193
H  H14  1  0.65670000  0.61810000  0.85120000  1.0 0.1304521193
H  H15  1  0.72680000  0.58420000  0.89930000  1.0 0.1304521193
H  H16  1  0.78550000  0.48840000  0.80890000  1.0 0.1454374319
H  H17  1  0.88320000  0.53200000  0.82330000  1.0 0.1397147818
H  H18  1  0.81210000  0.56360000  0.77500000  1.0 0.1304521193
H  H19  1  0.54970000  0.86880000  0.82330000  1.0 0.1007508484
H  H20  1  0.43850000  0.73080000  0.91510000  1.0 0.1397147818
H  H21  1  0.51410000  0.79740000  0.94080000  1.0 0.1304521193
H  H22  1  0.54310000  0.71240000  0.91570000  1.0 0.1397147818
H  H23  1  0.35870000  0.76520000  0.84860000  1.0 0.1304521193
H  H24  1  0.40600000  0.77150000  0.80120000  1.0 0.1304521193
H  H25  1  0.37710000  0.85650000  0.82640000  1.0 0.1397147818
H  H26  1  0.81100000  0.72770000  0.96320000  1.0 0.1007508484
H  H27  1  0.67510000  0.81050000  0.06280000  1.0 0.1304521193
H  H28  1  0.64830000  0.85200000  0.00830000  1.0 0.1304521193
H  H29  1  0.74080000  0.87870000  0.04500000  1.0 0.1304521193
H  H30  1  0.71610000  0.68430000  0.06660000  1.0 0.1397147818
H  H31  1  0.81170000  0.66460000  0.05210000  1.0 0.1397147818
H  H32  1  0.71980000  0.63750000  0.01490000  1.0 0.1304521193
H  H33  1  0.67500000  0.98710000  0.95500000  1.0 0.1007508484
H  H34  1  0.51960000  0.16220000  0.87700000  1.0 0.1304521193
H  H35  1  0.55480000  0.08860000  0.84510000  1.0 0.1397147818
H  H36  1  0.62330000  0.16060000  0.87150000  1.0 0.1304521193
H  H37  1  0.49380000  0.12810000  0.94590000  1.0 0.1397147818
H  H38  1  0.57980000  0.10400000  0.98830000  1.0 0.1215822225
H  H39  1  0.51150000  0.03100000  0.96310000  1.0 0.1304521193
H  H40  1  0.86420000  0.06690000  0.92750000  1.0 0.1007508484
H  H41  1  0.13000000  0.05970000  0.95360000  1.0 0.1304521193
H  H42  1  0.07930000  0.00110000  0.90860000  1.0 0.1304521193
H  H43  1  0.08170000  0.97330000  0.96520000  1.0 0.1304521193
H  H44  1  0.07010000  0.17180000  0.96330000  1.0 0.1304521193
H  H45  1  0.97770000  0.16880000  0.98360000  1.0 0.1397147818
H  H46  1  0.97580000  0.19240000  0.92640000  1.0 0.1397147818
H  H47  1  0.70780000  0.06880000  0.80050000  1.0 0.1076422635
H  H48  1  0.80220000  0.23620000  0.74610000  1.0 0.1397147818
H  H49  1  0.73220000  0.22700000  0.78270000  1.0 0.1397147818
H  H50  1  0.71380000  0.17820000  0.73010000  1.0 0.1304521193
H  H51  1  0.92470000  0.16860000  0.76420000  1.0 0.1304521193
H  H52  1  0.91530000  0.06710000  0.76050000  1.0 0.1304521193
H  H53  1  0.94160000  0.11220000  0.81410000  1.0 0.1397147818
H  H54  1  0.07920000  0.42480000  0.71120000  1.0 0.1215822225
H  H55  1  0.85750000  0.39000000  0.72130000  1.0 0.1397147818
H  H56  1  0.91610000  0.47240000  0.71380000  1.0 0.1397147818
H  H57  1  0.95100000  0.40860000  0.75940000  1.0 0.1304521193
H  H58  1  0.27190000  0.39010000  0.76560000  1.0 0.1007508484
H  H59  1  0.41530000  0.26410000  0.85370000  1.0 0.1304521193
H  H60  1  0.31330000  0.29790000  0.84640000  1.0 0.1304521193
H  H61  1  0.39460000  0.36410000  0.84780000  1.0 0.1397147818
H  H62  1  0.45430000  0.20550000  0.79300000  1.0 0.1304521193
H  H63  1  0.45820000  0.26480000  0.74580000  1.0 0.1304521193
H  H64  1  0.37910000  0.19580000  0.74280000  1.0 0.1397147818
H  H65  1  0.13710000  0.19600000  0.66950000  1.0 0.1076422635
H  H66  1  0.30930000  0.02120000  0.64650000  1.0 0.1304521193
H  H67  1  0.34330000  0.11810000  0.64880000  1.0 0.1304521193
H  H68  1  0.27320000  0.08420000  0.60070000  1.0 0.1304521193
H  H69  1  0.21450000  0.98840000  0.69110000  1.0 0.1397147818
H  H70  1  0.11680000  0.03200000  0.67670000  1.0 0.1397147818
H  H71  1  0.18790000  0.06360000  0.72500000  1.0 0.1304521193
H  H72  1  0.45030000  0.36880000  0.67670000  1.0 0.1007508484
H  H73  1  0.56150000  0.23080000  0.58490000  1.0 0.1397147818
H  H74  1  0.48590000  0.29740000  0.55920000  1.0 0.1304521193
H  H75  1  0.45690000  0.21240000  0.58430000  1.0 0.1397147818
H  H76  1  0.64130000  0.26520000  0.65140000  1.0 0.1304521193
H  H77  1  0.59400000  0.27150000  0.69880000  1.0 0.1397147818
H  H78  1  0.62290000  0.35650000  0.67360000  1.0 0.1397147818
H  H79  1  0.18900000  0.22770000  0.53680000  1.0 0.1007508484
H  H80  1  0.32490000  0.31050000  0.43720000  1.0 0.1304521193
H  H81  1  0.35170000  0.35200000  0.49170000  1.0 0.1304521193
H  H82  1  0.25920000  0.37870000  0.45500000  1.0 0.1304521193
H  H83  1  0.28390000  0.18430000  0.43340000  1.0 0.1397147818
H  H84  1  0.18830000  0.16460000  0.44790000  1.0 0.1397147818
H  H85  1  0.28020000  0.13750000  0.48510000  1.0 0.1304521193
H  H86  1  0.32500000  0.48710000  0.54500000  1.0 0.1007508484
H  H87  1  0.48040000  0.66220000  0.62300000  1.0 0.1304521193
H  H88  1  0.44520000  0.58860000  0.65490000  1.0 0.1397147818
H  H89  1  0.37670000  0.66060000  0.62850000  1.0 0.1304521193
H  H90  1  0.50620000  0.62810000  0.55410000  1.0 0.1397147818
H  H91  1  0.42020000  0.60400000  0.51170000  1.0 0.1215822225
H  H92  1  0.48850000  0.53100000  0.53690000  1.0 0.1304521193
H  H93  1  0.13580000  0.56690000  0.57250000  1.0 0.1007508484
H  H94  1  0.87000000  0.55970000  0.54640000  1.0 0.1304521193
H  H95  1  0.92070000  0.50110000  0.59140000  1.0 0.1304521193
H  H96  1  0.91830000  0.47330000  0.53480000  1.0 0.1304521193
H  H97  1  0.92990000  0.67180000  0.53670000  1.0 0.1304521193
H  H98  1  0.02230000  0.66880000  0.51640000  1.0 0.1397147818
H  H99  1  0.02420000  0.69240000  0.57360000  1.0 0.1397147818
H  H100  1  0.29220000  0.56880000  0.69950000  1.0 0.1076422635
H  H101  1  0.19780000  0.73620000  0.75390000  1.0 0.1397147818
H  H102  1  0.26780000  0.72700000  0.71730000  1.0 0.1304521193
H  H103  1  0.28620000  0.67820000  0.76990000  1.0 0.1304521193
H  H104  1  0.07530000  0.66860000  0.73580000  1.0 0.1304521193
H  H105  1  0.08470000  0.56710000  0.73950000  1.0 0.1304521193
H  H106  1  0.05840000  0.61220000  0.68590000  1.0 0.1397147818
H  H107  1  0.07920000  0.07520000  0.21120000  1.0 0.1215822225
H  H108  1  0.85750000  0.11000000  0.22130000  1.0 0.1397147818
H  H109  1  0.91610000  0.02760000  0.21380000  1.0 0.1397147818
H  H110  1  0.95100000  0.09140000  0.25940000  1.0 0.1304521193
H  H111  1  0.27190000  0.10990000  0.26560000  1.0 0.1007508484
H  H112  1  0.41530000  0.23590000  0.35370000  1.0 0.1304521193
H  H113  1  0.31330000  0.20210000  0.34640000  1.0 0.1304521193
H  H114  1  0.39460000  0.13590000  0.34780000  1.0 0.1397147818
H  H115  1  0.45430000  0.29450000  0.29300000  1.0 0.1304521193
H  H116  1  0.45820000  0.23520000  0.24580000  1.0 0.1304521193
H  H117  1  0.37910000  0.30420000  0.24280000  1.0 0.1397147818
H  H118  1  0.13710000  0.30400000  0.16950000  1.0 0.1076422635
H  H119  1  0.30930000  0.47880000  0.14650000  1.0 0.1304521193
H  H120  1  0.34330000  0.38190000  0.14880000  1.0 0.1304521193
H  H121  1  0.27320000  0.41580000  0.10070000  1.0 0.1304521193
H  H122  1  0.21450000  0.51160000  0.19110000  1.0 0.1397147818
H  H123  1  0.11680000  0.46800000  0.17670000  1.0 0.1397147818
H  H124  1  0.18790000  0.43640000  0.22500000  1.0 0.1304521193
H  H125  1  0.45030000  0.13120000  0.17670000  1.0 0.1007508484
H  H126  1  0.56150000  0.26920000  0.08490000  1.0 0.1397147818
H  H127  1  0.48590000  0.20260000  0.05920000  1.0 0.1304521193
H  H128  1  0.45690000  0.28760000  0.08430000  1.0 0.1397147818
H  H129  1  0.64130000  0.23480000  0.15140000  1.0 0.1304521193
H  H130  1  0.59400000  0.22850000  0.19880000  1.0 0.1304521193
H  H131  1  0.62290000  0.14350000  0.17360000  1.0 0.1397147818
H  H132  1  0.18900000  0.27230000  0.03680000  1.0 0.1007508484
H  H133  1  0.32490000  0.18950000  0.93720000  1.0 0.1304521193
H  H134  1  0.35170000  0.14800000  0.99170000  1.0 0.1304521193
H  H135  1  0.25920000  0.12130000  0.95500000  1.0 0.1304521193
H  H136  1  0.28390000  0.31570000  0.93340000  1.0 0.1397147818
H  H137  1  0.18830000  0.33540000  0.94790000  1.0 0.1397147818
H  H138  1  0.28020000  0.36250000  0.98510000  1.0 0.1304521193
H  H139  1  0.32500000  0.01290000  0.04500000  1.0 0.1007508484
H  H140  1  0.48040000  0.83780000  0.12300000  1.0 0.1304521193
H  H141  1  0.44520000  0.91140000  0.15490000  1.0 0.1397147818
H  H142  1  0.37670000  0.83940000  0.12850000  1.0 0.1304521193
H  H143  1  0.50620000  0.87190000  0.05410000  1.0 0.1397147818
H  H144  1  0.42020000  0.89600000  0.01170000  1.0 0.1215822225
H  H145  1  0.48850000  0.96900000  0.03690000  1.0 0.1304521193
H  H146  1  0.13580000  0.93310000  0.07250000  1.0 0.1007508484
H  H147  1  0.87000000  0.94030000  0.04640000  1.0 0.1304521193
H  H148  1  0.92070000  0.99890000  0.09140000  1.0 0.1304521193
H  H149  1  0.91830000  0.02670000  0.03480000  1.0 0.1304521193
H  H150  1  0.92990000  0.82820000  0.03670000  1.0 0.1304521193
H  H151  1  0.02230000  0.83120000  0.01640000  1.0 0.1397147818
H  H152  1  0.02420000  0.80760000  0.07360000  1.0 0.1397147818
H  H153  1  0.29220000  0.93120000  0.19950000  1.0 0.1076422635
H  H154  1  0.19780000  0.76380000  0.25390000  1.0 0.1397147818
H  H155  1  0.26780000  0.77300000  0.21730000  1.0 0.1304521193
H  H156  1  0.28620000  0.82180000  0.26990000  1.0 0.1304521193
H  H157  1  0.07530000  0.83140000  0.23580000  1.0 0.1304521193
H  H158  1  0.08470000  0.93290000  0.23950000  1.0 0.1304521193
H  H159  1  0.05840000  0.88780000  0.18590000  1.0 0.1397147818
H  H160  1  0.92080000  0.57520000  0.28880000  1.0 0.1215822225
H  H161  1  0.14250000  0.61000000  0.27870000  1.0 0.1397147818
H  H162  1  0.08390000  0.52760000  0.28620000  1.0 0.1397147818
H  H163  1  0.04900000  0.59140000  0.24060000  1.0 0.1304521193
H  H164  1  0.72810000  0.60990000  0.23440000  1.0 0.1007508484
H  H165  1  0.58470000  0.73590000  0.14630000  1.0 0.1304521193
H  H166  1  0.68670000  0.70210000  0.15360000  1.0 0.1304521193
H  H167  1  0.60540000  0.63590000  0.15220000  1.0 0.1397147818
H  H168  1  0.54570000  0.79450000  0.20700000  1.0 0.1304521193
H  H169  1  0.54180000  0.73520000  0.25420000  1.0 0.1304521193
H  H170  1  0.62090000  0.80420000  0.25720000  1.0 0.1397147818
H  H171  1  0.86290000  0.80400000  0.33050000  1.0 0.1076422635
H  H172  1  0.69070000  0.97880000  0.35350000  1.0 0.1304521193
H  H173  1  0.65670000  0.88190000  0.35120000  1.0 0.1304521193
H  H174  1  0.72680000  0.91580000  0.39930000  1.0 0.1304521193
H  H175  1  0.78550000  0.01160000  0.30890000  1.0 0.1454374319
H  H176  1  0.88320000  0.96800000  0.32330000  1.0 0.1397147818
H  H177  1  0.81210000  0.93640000  0.27500000  1.0 0.1304521193
H  H178  1  0.54970000  0.63120000  0.32330000  1.0 0.1007508484
H  H179  1  0.43850000  0.76920000  0.41510000  1.0 0.1397147818
H  H180  1  0.51410000  0.70260000  0.44080000  1.0 0.1304521193
H  H181  1  0.54310000  0.78760000  0.41570000  1.0 0.1397147818
H  H182  1  0.35870000  0.73480000  0.34860000  1.0 0.1304521193
H  H183  1  0.40600000  0.72850000  0.30120000  1.0 0.1304521193
H  H184  1  0.37710000  0.64350000  0.32640000  1.0 0.1397147818
H  H185  1  0.81100000  0.77230000  0.46320000  1.0 0.1007508484
H  H186  1  0.67510000  0.68950000  0.56280000  1.0 0.1304521193
H  H187  1  0.64830000  0.64800000  0.50830000  1.0 0.1304521193
H  H188  1  0.74080000  0.62130000  0.54500000  1.0 0.1304521193
H  H189  1  0.71610000  0.81570000  0.56660000  1.0 0.1397147818
H  H190  1  0.81170000  0.83540000  0.55210000  1.0 0.1397147818
H  H191  1  0.71980000  0.86250000  0.51490000  1.0 0.1304521193
H  H192  1  0.67500000  0.51290000  0.45500000  1.0 0.1007508484
H  H193  1  0.51960000  0.33780000  0.37700000  1.0 0.1304521193
H  H194  1  0.55480000  0.41140000  0.34510000  1.0 0.1397147818
H  H195  1  0.62330000  0.33940000  0.37150000  1.0 0.1304521193
H  H196  1  0.49380000  0.37190000  0.44590000  1.0 0.1397147818
H  H197  1  0.57980000  0.39600000  0.48830000  1.0 0.1215822225
H  H198  1  0.51150000  0.46900000  0.46310000  1.0 0.1304521193
H  H199  1  0.86420000  0.43310000  0.42750000  1.0 0.1007508484
H  H200  1  0.13000000  0.44030000  0.45360000  1.0 0.1304521193
H  H201  1  0.07930000  0.49890000  0.40860000  1.0 0.1304521193
H  H202  1  0.08170000  0.52670000  0.46520000  1.0 0.1304521193
H  H203  1  0.07010000  0.32820000  0.46330000  1.0 0.1304521193
H  H204  1  0.97770000  0.33120000  0.48360000  1.0 0.1397147818
H  H205  1  0.97580000  0.30760000  0.42640000  1.0 0.1397147818
H  H206  1  0.70780000  0.43120000  0.30050000  1.0 0.1076422635
H  H207  1  0.80220000  0.26380000  0.24610000  1.0 0.1397147818
H  H208  1  0.73220000  0.27300000  0.28270000  1.0 0.1304521193
H  H209  1  0.71380000  0.32180000  0.23010000  1.0 0.1304521193
H  H210  1  0.92470000  0.33140000  0.26420000  1.0 0.1304521193
H  H211  1  0.91530000  0.43290000  0.26050000  1.0 0.1304521193
H  H212  1  0.94160000  0.38780000  0.31410000  1.0 0.1397147818
C  C1  1  0.04240000  0.81190000  0.64810000  1.0 -0.098588028
C  C2  1  0.95760000  0.31190000  0.85190000  1.0 -0.089499026
C  C3  1  0.95760000  0.18810000  0.35190000  1.0 -0.089499026
C  C4  1  0.04240000  0.68810000  0.14810000  1.0 -0.098588028
C  C5  1  0.81410000  0.64470000  0.66845000  1.0 -0.1112042802
C  C6  1  0.18590000  0.14470000  0.83155000  1.0 -0.1112042802
C  C7  1  0.18590000  0.35530000  0.33155000  1.0 -0.1112042802
C  C8  1  0.81410000  0.85530000  0.16845000  1.0 -0.1112042802
C  C9  1  0.33670000  0.84770000  0.66259000  1.0 -0.1456251935
C  C10  1  0.66330000  0.34770000  0.83741000  1.0 -0.1446070696
C  C11  1  0.66330000  0.15230000  0.33741000  1.0 -0.1456251935
C  C12  1  0.33670000  0.65230000  0.16259000  1.0 -0.1456251935
C  C13  1  0.64000000  0.52730000  0.69583000  1.0 -0.098588028
C  C14  1  0.36000000  0.02730000  0.80417000  1.0 -0.098588028
C  C15  1  0.36000000  0.47270000  0.30417000  1.0 -0.098588028
C  C16  1  0.64000000  0.97270000  0.19583000  1.0 -0.098588028
C  C17  1  0.24020000  0.71090000  0.52206000  1.0 -0.089499026
C  C18  1  0.75980000  0.21090000  0.97794000  1.0 -0.089499026
C  C19  1  0.75980000  0.28910000  0.47794000  1.0 -0.089499026
C  C20  1  0.24020000  0.78910000  0.02206000  1.0 -0.089499026
C  C21  1  0.86290000  0.91210000  0.67209000  1.0 -0.089499026
C  C22  1  0.13710000  0.41210000  0.82791000  1.0 -0.089499026
C  C23  1  0.13710000  0.08790000  0.32791000  1.0 -0.089499026
C  C24  1  0.86290000  0.58790000  0.17209000  1.0 -0.089499026
C  C25  1  0.72780000  0.42070000  0.57571000  1.0 -0.098588028
C  C26  1  0.27220000  0.92070000  0.92429000  1.0 -0.098588028
C  C27  1  0.27220000  0.57930000  0.42429000  1.0 -0.098588028
C  C28  1  0.72780000  0.07930000  0.07571000  1.0 -0.098588028
C  C29  1  0.56850000  0.02220000  0.70194000  1.0 -0.1456251935
C  C30  1  0.43150000  0.52220000  0.79806000  1.0 -0.1456251935
C  C31  1  0.43150000  0.97780000  0.29806000  1.0 -0.1456251935
C  C32  1  0.56850000  0.47780000  0.20194000  1.0 -0.1456251935
C  C33  1  0.73950000  0.15820000  0.61066000  1.0 -0.1112042802
C  C34  1  0.26050000  0.65820000  0.88934000  1.0 -0.1112042802
C  C35  1  0.26050000  0.84180000  0.38934000  1.0 -0.1112042802
C  C36  1  0.73950000  0.34180000  0.11066000  1.0 -0.1112042802
C  C37  1  0.95010000  0.88020000  0.80950000  1.0 0.169919466
C  C38  1  0.08510000  0.80800000  0.84170000  1.0 0.0620057968
C  C39  1  0.08100000  0.91260000  0.77560000  1.0 -0.3305284807
C  C40  1  0.69270000  0.84970000  0.74789000  1.0 0.3096179491
C  C41  1  0.62790000  0.80700000  0.66282000  1.0 -0.340464178
C  C42  1  0.58200000  0.73620000  0.73536000  1.0 -0.3191793168
C  C43  1  0.81510000  0.68110000  0.84683000  1.0 0.2987748246
C  C44  1  0.70830000  0.58010000  0.86290000  1.0 -0.3191793168
C  C45  1  0.81900000  0.54200000  0.80930000  1.0 -0.3305284807
C  C46  1  0.55840000  0.84060000  0.85470000  1.0 0.2987748246
C  C47  1  0.49670000  0.75690000  0.91320000  1.0 -0.3191793168
C  C48  1  0.40050000  0.79840000  0.83285000  1.0 -0.3305284807
C  C49  1  0.78390000  0.77550000  0.97578000  1.0 0.2987748246
C  C50  1  0.69860000  0.83170000  0.03419000  1.0 -0.340464178
C  C51  1  0.74850000  0.68060000  0.03897000  1.0 -0.340464178
C  C52  1  0.66130000  0.01880000  0.92480000  1.0 0.2987748246
C  C53  1  0.57100000  0.12530000  0.87460000  1.0 -0.3305284807
C  C54  1  0.54040000  0.08490000  0.95720000  1.0 -0.3522800753
C  C55  1  0.91620000  0.03240000  0.92846000  1.0 0.3096179491
C  C56  1  0.07820000  0.02190000  0.94230000  1.0 -0.3191793168
C  C57  1  0.00550000  0.15750000  0.95480000  1.0 -0.340464178
C  C58  1  0.77050000  0.06270000  0.80082000  1.0 0.2987748246
C  C59  1  0.76060000  0.19730000  0.75830000  1.0 -0.3522800753
C  C60  1  0.90570000  0.11750000  0.78000000  1.0 -0.3305284807
C  C61  1  0.05400000  0.76000000  0.81650000  1.0 -0.0640702012
C  C62  1  0.04990000  0.38020000  0.69050000  1.0 0.169919466
C  C63  1  0.91490000  0.30800000  0.65830000  1.0 0.0620057968
C  C64  1  0.91900000  0.41260000  0.72440000  1.0 -0.3305284807
C  C65  1  0.30730000  0.34970000  0.75211000  1.0 0.3096179491
C  C66  1  0.37210000  0.30700000  0.83718000  1.0 -0.340464178
C  C67  1  0.41800000  0.23620000  0.76464000  1.0 -0.3191793168
C  C68  1  0.18490000  0.18110000  0.65317000  1.0 0.2932460532
C  C69  1  0.29170000  0.08010000  0.63710000  1.0 -0.3191793168
C  C70  1  0.18100000  0.04200000  0.69070000  1.0 -0.3305284807
C  C71  1  0.44160000  0.34060000  0.64530000  1.0 0.2987748246
C  C72  1  0.50330000  0.25690000  0.58680000  1.0 -0.3191793168
C  C73  1  0.59950000  0.29840000  0.66715000  1.0 -0.340464178
C  C74  1  0.21610000  0.27550000  0.52422000  1.0 0.2932460532
C  C75  1  0.30140000  0.33170000  0.46581000  1.0 -0.340464178
C  C76  1  0.25150000  0.18060000  0.46103000  1.0 -0.340464178
C  C77  1  0.33870000  0.51880000  0.57520000  1.0 0.2987748246
C  C78  1  0.42900000  0.62530000  0.62540000  1.0 -0.3305284807
C  C79  1  0.45960000  0.58490000  0.54280000  1.0 -0.3522800753
C  C80  1  0.08380000  0.53240000  0.57154000  1.0 0.3096179491
C  C81  1  0.92180000  0.52190000  0.55770000  1.0 -0.3191793168
C  C82  1  0.99450000  0.65750000  0.54520000  1.0 -0.340464178
C  C83  1  0.22950000  0.56270000  0.69918000  1.0 0.2987748246
C  C84  1  0.23940000  0.69730000  0.74170000  1.0 -0.3522800753
C  C85  1  0.09430000  0.61750000  0.72000000  1.0 -0.3305284807
C  C86  1  0.94600000  0.26000000  0.68350000  1.0 -0.0671529869
C  C87  1  0.04990000  0.11980000  0.19050000  1.0 0.169919466
C  C88  1  0.91490000  0.19200000  0.15830000  1.0 0.0620057968
C  C89  1  0.91900000  0.08740000  0.22440000  1.0 -0.3305284807
C  C90  1  0.30730000  0.15030000  0.25211000  1.0 0.3096179491
C  C91  1  0.37210000  0.19300000  0.33718000  1.0 -0.340464178
C  C92  1  0.41800000  0.26380000  0.26464000  1.0 -0.3191793168
C  C93  1  0.18490000  0.31890000  0.15317000  1.0 0.2932460532
C  C94  1  0.29170000  0.41990000  0.13710000  1.0 -0.3191793168
C  C95  1  0.18100000  0.45800000  0.19070000  1.0 -0.3305284807
C  C96  1  0.44160000  0.15940000  0.14530000  1.0 0.2987748246
C  C97  1  0.50330000  0.24310000  0.08680000  1.0 -0.3191793168
C  C98  1  0.59950000  0.20160000  0.16715000  1.0 -0.340464178
C  C99  1  0.21610000  0.22450000  0.02422000  1.0 0.2987748246
C  C100  1  0.30140000  0.16830000  0.96581000  1.0 -0.340464178
C  C101  1  0.25150000  0.31940000  0.96103000  1.0 -0.340464178
C  C102  1  0.33870000  0.98120000  0.07520000  1.0 0.2987748246
C  C103  1  0.42900000  0.87470000  0.12540000  1.0 -0.3305284807
C  C104  1  0.45960000  0.91510000  0.04280000  1.0 -0.3522800753
C  C105  1  0.08380000  0.96760000  0.07154000  1.0 0.3096179491
C  C106  1  0.92180000  0.97810000  0.05770000  1.0 -0.3191793168
C  C107  1  0.99450000  0.84250000  0.04520000  1.0 -0.340464178
C  C108  1  0.22950000  0.93730000  0.19918000  1.0 0.2987748246
C  C109  1  0.23940000  0.80270000  0.24170000  1.0 -0.3522800753
C  C110  1  0.09430000  0.88250000  0.22000000  1.0 -0.3305284807
C  C111  1  0.94600000  0.24000000  0.18350000  1.0 -0.0671529869
C  C112  1  0.95010000  0.61980000  0.30950000  1.0 0.169919466
C  C113  1  0.08510000  0.69200000  0.34170000  1.0 0.0620057968
C  C114  1  0.08100000  0.58740000  0.27560000  1.0 -0.3305284807
C  C115  1  0.69270000  0.65030000  0.24789000  1.0 0.3096179491
C  C116  1  0.62790000  0.69300000  0.16282000  1.0 -0.340464178
C  C117  1  0.58200000  0.76380000  0.23536000  1.0 -0.3191793168
C  C118  1  0.81510000  0.81890000  0.34683000  1.0 0.2987748246
C  C119  1  0.70830000  0.91990000  0.36290000  1.0 -0.3191793168
C  C120  1  0.81900000  0.95800000  0.30930000  1.0 -0.3305284807
C  C121  1  0.55840000  0.65940000  0.35470000  1.0 0.2987748246
C  C122  1  0.49670000  0.74310000  0.41320000  1.0 -0.3191793168
C  C123  1  0.40050000  0.70160000  0.33285000  1.0 -0.340464178
C  C124  1  0.78390000  0.72450000  0.47578000  1.0 0.2987748246
C  C125  1  0.69860000  0.66830000  0.53419000  1.0 -0.340464178
C  C126  1  0.74850000  0.81940000  0.53897000  1.0 -0.340464178
C  C127  1  0.66130000  0.48120000  0.42480000  1.0 0.2987748246
C  C128  1  0.57100000  0.37470000  0.37460000  1.0 -0.3305284807
C  C129  1  0.54040000  0.41510000  0.45720000  1.0 -0.3522800753
C  C130  1  0.91620000  0.46760000  0.42846000  1.0 0.3096179491
C  C131  1  0.07820000  0.47810000  0.44230000  1.0 -0.3191793168
C  C132  1  0.00550000  0.34250000  0.45480000  1.0 -0.340464178
C  C133  1  0.77050000  0.43730000  0.30082000  1.0 0.2987748246
C  C134  1  0.76060000  0.30270000  0.25830000  1.0 -0.3522800753
C  C135  1  0.90570000  0.38250000  0.28000000  1.0 -0.3305284807
C  C136  1  0.05400000  0.74000000  0.31650000  1.0 -0.0671529869
N  N1  1  0.11250000  0.81240000  0.63696000  1.0 -0.3305284807
N  N2  1  0.88750000  0.31240000  0.86304000  1.0 -0.3305284807
N  N3  1  0.88750000  0.18760000  0.36304000  1.0 -0.3305284807
N  N4  1  0.11250000  0.68760000  0.13696000  1.0 -0.3305284807
N  N5  1  0.86200000  0.70330000  0.67151000  1.0 -0.3135230938
N  N6  1  0.13800000  0.20330000  0.82849000  1.0 -0.3135230938
N  N7  1  0.13800000  0.29670000  0.32849000  1.0 -0.3135230938
N  N8  1  0.86200000  0.79670000  0.17151000  1.0 -0.3135230938
N  N9  1  0.39640000  0.88330000  0.68747000  1.0 -0.3135230938
N  N10  1  0.60360000  0.38330000  0.81253000  1.0 -0.3135230938
N  N11  1  0.60360000  0.11670000  0.31253000  1.0 -0.3135230938
N  N12  1  0.39640000  0.61670000  0.18747000  1.0 -0.3135230938
N  N13  1  0.59180000  0.50670000  0.72160000  1.0 -0.3305284807
N  N14  1  0.40820000  0.00670000  0.77840000  1.0 -0.3305284807
N  N15  1  0.40820000  0.49330000  0.27840000  1.0 -0.3305284807
N  N16  1  0.59180000  0.99330000  0.22160000  1.0 -0.3305284807
N  N17  1  0.23500000  0.73740000  0.56134000  1.0 -0.3191793168
N  N18  1  0.76500000  0.23740000  0.93866000  1.0 -0.3191793168
N  N19  1  0.76500000  0.26260000  0.43866000  1.0 -0.3191793168
N  N20  1  0.23500000  0.76260000  0.06134000  1.0 -0.3191793168
N  N21  1  0.81820000  0.97260000  0.66896000  1.0 -0.3305284807
N  N22  1  0.18180000  0.47260000  0.83104000  1.0 -0.3305284807
N  N23  1  0.18180000  0.02740000  0.33104000  1.0 -0.3305284807
N  N24  1  0.81820000  0.52740000  0.16896000  1.0 -0.3305284807
N  N25  1  0.72250000  0.47890000  0.60060000  1.0 -0.3016415859
N  N26  1  0.27750000  0.97890000  0.89940000  1.0 -0.3016415859
N  N27  1  0.27750000  0.52110000  0.39940000  1.0 -0.3016415859
N  N28  1  0.72250000  0.02110000  0.10060000  1.0 -0.3016415859
N  N29  1  0.62810000  0.04590000  0.68538000  1.0 -0.3305284807
N  N30  1  0.37190000  0.54590000  0.81462000  1.0 -0.3305284807
N  N31  1  0.37190000  0.95410000  0.31462000  1.0 -0.3305284807
N  N32  1  0.62810000  0.45410000  0.18538000  1.0 -0.3305284807
N  N33  1  0.74460000  0.21640000  0.58529000  1.0 -0.2778722892
N  N34  1  0.25540000  0.71640000  0.91471000  1.0 -0.2778722892
N  N35  1  0.25540000  0.78360000  0.41471000  1.0 -0.2778722892
N  N36  1  0.74460000  0.28360000  0.08529000  1.0 -0.2778722892
N  N37  1  0.03250000  0.86300000  0.80709000  1.0 0.1304521193
N  N38  1  0.63810000  0.79940000  0.71697000  1.0 0.048092293
N  N39  1  0.78310000  0.60490000  0.84000000  1.0 0.048092293
N  N40  1  0.48880000  0.80140000  0.86602000  1.0 0.03839024
N  N41  1  0.74560000  0.76320000  0.01409000  1.0 0.0323456259
N  N42  1  0.59380000  0.07270000  0.91924000  1.0 0.048092293
N  N43  1  0.99510000  0.06820000  0.94152000  1.0 0.03839024
N  N44  1  0.81030000  0.12430000  0.78181000  1.0 0.048092293
N  N45  1  0.96750000  0.36300000  0.69291000  1.0 0.1304521193
N  N46  1  0.36190000  0.29940000  0.78303000  1.0 0.048092293
N  N47  1  0.21690000  0.10490000  0.66000000  1.0 0.048092293
N  N48  1  0.51120000  0.30140000  0.63398000  1.0 0.03839024
N  N49  1  0.25440000  0.26320000  0.48591000  1.0 0.0323456259
N  N50  1  0.40620000  0.57270000  0.58076000  1.0 0.048092293
N  N51  1  0.00490000  0.56820000  0.55848000  1.0 0.03839024
N  N52  1  0.18970000  0.62430000  0.71819000  1.0 0.048092293
N  N53  1  0.96750000  0.13700000  0.19291000  1.0 0.1304521193
N  N54  1  0.36190000  0.20060000  0.28303000  1.0 0.048092293
N  N55  1  0.21690000  0.39510000  0.16000000  1.0 0.048092293
N  N56  1  0.51120000  0.19860000  0.13398000  1.0 0.03839024
N  N57  1  0.25440000  0.23680000  0.98591000  1.0 0.0323456259
N  N58  1  0.40620000  0.92730000  0.08076000  1.0 0.048092293
N  N59  1  0.00490000  0.93180000  0.05848000  1.0 0.03839024
N  N60  1  0.18970000  0.87570000  0.21819000  1.0 0.048092293
N  N61  1  0.03250000  0.63700000  0.30709000  1.0 0.1304521193
N  N62  1  0.63810000  0.70060000  0.21697000  1.0 0.048092293
N  N63  1  0.78310000  0.89510000  0.34000000  1.0 0.048092293
N  N64  1  0.48880000  0.69860000  0.36602000  1.0 0.03839024
N  N65  1  0.74560000  0.73680000  0.51409000  1.0 0.0323456259
N  N66  1  0.59380000  0.42730000  0.41924000  1.0 0.048092293
N  N67  1  0.99510000  0.43180000  0.44152000  1.0 0.03839024
N  N68  1  0.81030000  0.37570000  0.28181000  1.0 0.048092293
O  O1  1  0.90507000  0.84218000  0.83722000  1.0 -0.5699136654
O  O2  1  0.70010000  0.84660000  0.79365000  1.0 -0.5872334117
O  O3  1  0.78900000  0.73615000  0.87275000  1.0 -0.5642099852
O  O4  1  0.63472000  0.84370000  0.88158000  1.0 -0.546844768
O  O5  1  0.78737000  0.84586000  0.95442000  1.0 -0.5806286211
O  O6  1  0.70874000  0.00626000  0.89322000  1.0 -0.5872334117
O  O7  1  0.90425000  0.95615000  0.91719000  1.0 -0.546844768
O  O8  1  0.80820000  0.99647000  0.81931000  1.0 -0.5699136654
O  O9  1  0.09493000  0.34218000  0.66278000  1.0 -0.5699136654
O  O10  1  0.29990000  0.34660000  0.70635000  1.0 -0.5872334117
O  O11  1  0.21100000  0.23615000  0.62725000  1.0 -0.5642099852
O  O12  1  0.36528000  0.34370000  0.61842000  1.0 -0.546844768
O  O13  1  0.21263000  0.34586000  0.54558000  1.0 -0.5806286211
O  O14  1  0.29126000  0.50626000  0.60678000  1.0 -0.5872334117
O  O15  1  0.09575000  0.45615000  0.58281000  1.0 -0.546844768
O  O16  1  0.19180000  0.49647000  0.68069000  1.0 -0.5699136654
O  O17  1  0.09493000  0.15782000  0.16278000  1.0 -0.5699136654
O  O18  1  0.29990000  0.15340000  0.20635000  1.0 -0.5872334117
O  O19  1  0.21100000  0.26385000  0.12725000  1.0 -0.5642099852
O  O20  1  0.36528000  0.15630000  0.11842000  1.0 -0.546844768
O  O21  1  0.21263000  0.15414000  0.04558000  1.0 -0.5806286211
O  O22  1  0.29126000  0.99374000  0.10678000  1.0 -0.5872334117
O  O23  1  0.09575000  0.04385000  0.08281000  1.0 -0.546844768
O  O24  1  0.19180000  0.00353000  0.18069000  1.0 -0.5699136654
O  O25  1  0.90507000  0.65782000  0.33722000  1.0 -0.5699136654
O  O26  1  0.70010000  0.65340000  0.29365000  1.0 -0.5872334117
O  O27  1  0.78900000  0.76385000  0.37275000  1.0 -0.5642099852
O  O28  1  0.63472000  0.65630000  0.38158000  1.0 -0.546844768
O  O29  1  0.78737000  0.65414000  0.45442000  1.0 -0.5806286211
O  O30  1  0.70874000  0.49374000  0.39322000  1.0 -0.5872334117
O  O31  1  0.90425000  0.54385000  0.41719000  1.0 -0.546844768
O  O32  1  0.80820000  0.50353000  0.31931000  1.0 -0.5699136654
