# DDEC6 charges by PACMAN v1.1 (https://github.com/mtap-research/PACMAN-charge/)
data_FEZCOD_FSR_pacman
_symmetry_space_group_name_H-M   'P 1'
_cell_length_a   15.13280000
_cell_length_b   15.72920000
_cell_length_c   27.28840000
_cell_angle_alpha   90.00000000
_cell_angle_beta   101.39800000
_cell_angle_gamma   90.00000000
_symmetry_Int_Tables_number   1
_chemical_formula_structural   EuCu6H56C33N17O8
_chemical_formula_sum   'Eu4 Cu24 H224 C132 N68 O32'
_cell_volume   6367.27031948
_cell_formula_units_Z   4
loop_
 _symmetry_equiv_pos_site_id
 _symmetry_equiv_pos_as_xyz
  1  'x, y, z'
loop_
 _atom_site_type_symbol
 _atom_site_label
 _atom_site_symmetry_multiplicity
 _atom_site_fract_x
 _atom_site_fract_y
 _atom_site_fract_z
 _atom_site_occupancy
 _atom_site_charge
Eu  Eu1  1  0.21900000  0.88348000  0.12810000  1.0 2.041839966
Eu  Eu2  1  0.78100000  0.38348000  0.37190000  1.0 2.041839966
Eu  Eu3  1  0.78100000  0.11652000  0.87190000  1.0 2.041839966
Eu  Eu4  1  0.21900000  0.61652000  0.62810000  1.0 2.041839966
Cu  Cu1  1  0.76800000  0.70050000  0.87749000  1.0 0.2519763349
Cu  Cu2  1  0.23200000  0.20050000  0.62251000  1.0 0.2519763349
Cu  Cu3  1  0.23200000  0.29950000  0.12251000  1.0 0.2519763349
Cu  Cu4  1  0.76800000  0.79950000  0.37749000  1.0 0.2519763349
Cu  Cu5  1  0.07434000  0.69210000  0.83526000  1.0 0.2519763349
Cu  Cu6  1  0.92566000  0.19210000  0.66474000  1.0 0.2519763349
Cu  Cu7  1  0.92566000  0.30790000  0.16474000  1.0 0.2519763349
Cu  Cu8  1  0.07434000  0.80790000  0.33526000  1.0 0.2519763349
Cu  Cu9  1  0.26937000  0.43675000  0.84692000  1.0 0.3643000512
Cu  Cu10  1  0.73063000  0.93675000  0.65308000  1.0 0.3643000512
Cu  Cu11  1  0.73063000  0.56325000  0.15308000  1.0 0.3661025553
Cu  Cu12  1  0.26937000  0.06325000  0.34692000  1.0 0.3661025553
Cu  Cu13  1  0.74509000  0.81622000  0.04263000  1.0 0.3222982822
Cu  Cu14  1  0.25491000  0.31622000  0.45737000  1.0 0.3222982822
Cu  Cu15  1  0.25491000  0.18378000  0.95737000  1.0 0.3222982822
Cu  Cu16  1  0.74509000  0.68378000  0.54263000  1.0 0.3222982822
Cu  Cu17  1  0.72672000  0.05575000  0.15637000  1.0 0.2357948659
Cu  Cu18  1  0.27328000  0.55575000  0.34363000  1.0 0.2357948659
Cu  Cu19  1  0.27328000  0.94425000  0.84363000  1.0 0.2357948659
Cu  Cu20  1  0.72672000  0.44425000  0.65637000  1.0 0.2357948659
Cu  Cu21  1  0.53133000  0.52384000  0.77483000  1.0 0.3464544205
Cu  Cu22  1  0.46867000  0.02384000  0.72517000  1.0 0.3464544205
Cu  Cu23  1  0.46867000  0.47616000  0.22517000  1.0 0.3464544205
Cu  Cu24  1  0.53133000  0.97616000  0.27483000  1.0 0.3464544205
H  H1  1  0.27310000  0.88680000  0.26680000  1.0 0.10139706
H  H2  1  0.45970000  0.70720000  0.29210000  1.0 0.1299974505
H  H3  1  0.46010000  0.76690000  0.24470000  1.0 0.1299974505
H  H4  1  0.38390000  0.69580000  0.24260000  1.0 0.1386293925
H  H5  1  0.41910000  0.76210000  0.35340000  1.0 0.1299974505
H  H6  1  0.31700000  0.79390000  0.34710000  1.0 0.1299974505
H  H7  1  0.39640000  0.86150000  0.34840000  1.0 0.1386293925
H  H8  1  0.13430000  0.69380000  0.16860000  1.0 0.1078772595
H  H9  1  0.21410000  0.48780000  0.19190000  1.0 0.1386293925
H  H10  1  0.11620000  0.53010000  0.17770000  1.0 0.1386293925
H  H11  1  0.18660000  0.56280000  0.22560000  1.0 0.1299974505
H  H12  1  0.30760000  0.51970000  0.14730000  1.0 0.1299974505
H  H13  1  0.34100000  0.61640000  0.14900000  1.0 0.1299974505
H  H14  1  0.27160000  0.58170000  0.10120000  1.0 0.1299974505
H  H15  1  0.45240000  0.87210000  0.17500000  1.0 0.10139706
H  H16  1  0.64140000  0.76370000  0.15220000  1.0 0.1386293925
H  H17  1  0.59320000  0.77290000  0.19910000  1.0 0.1299974505
H  H18  1  0.62350000  0.85600000  0.17300000  1.0 0.1386293925
H  H19  1  0.56090000  0.72670000  0.08580000  1.0 0.1386293925
H  H20  1  0.48440000  0.79110000  0.05930000  1.0 0.1299974505
H  H21  1  0.45750000  0.70860000  0.08730000  1.0 0.1386293925
H  H22  1  0.18830000  0.72580000  0.03440000  1.0 0.10139706
H  H23  1  0.28760000  0.68170000  0.93220000  1.0 0.1386293925
H  H24  1  0.19030000  0.66420000  0.94470000  1.0 0.1386293925
H  H25  1  0.27910000  0.63420000  0.98290000  1.0 0.1386293925
H  H26  1  0.33070000  0.80840000  0.93770000  1.0 0.1299974505
H  H27  1  0.35340000  0.84970000  0.99240000  1.0 0.1299974505
H  H28  1  0.26310000  0.87590000  0.95430000  1.0 0.1299974505
H  H29  1  0.32260000  0.99250000  0.04240000  1.0 0.10139706
H  H30  1  0.50790000  0.12800000  0.05370000  1.0 0.1386293925
H  H31  1  0.42110000  0.10870000  0.01120000  1.0 0.1299974505
H  H32  1  0.48650000  0.03270000  0.03440000  1.0 0.1299974505
H  H33  1  0.48370000  0.15860000  0.12410000  1.0 0.1299974505
H  H34  1  0.44260000  0.08620000  0.15420000  1.0 0.1386293925
H  H35  1  0.37970000  0.16190000  0.12810000  1.0 0.1299974505
H  H36  1  0.28980000  0.07120000  0.19860000  1.0 0.1078772595
H  H37  1  0.07460000  0.16820000  0.23770000  1.0 0.1299974505
H  H38  1  0.08380000  0.06680000  0.23970000  1.0 0.1299974505
H  H39  1  0.05790000  0.11430000  0.18700000  1.0 0.1386293925
H  H40  1  0.19630000  0.23670000  0.25610000  1.0 0.1386293925
H  H41  1  0.26530000  0.22950000  0.21880000  1.0 0.1299974505
H  H42  1  0.28500000  0.17960000  0.27090000  1.0 0.1224876805
H  H43  1  0.13310000  0.06780000  0.07010000  1.0 0.10139706
H  H44  1  0.86880000  0.06400000  0.04710000  1.0 0.1299974505
H  H45  1  0.91940000  0.00340000  0.09090000  1.0 0.1299974505
H  H46  1  0.91530000  0.97800000  0.03370000  1.0 0.1299974505
H  H47  1  0.92960000  0.17520000  0.03700000  1.0 0.1299974505
H  H48  1  0.01980000  0.16940000  0.01490000  1.0 0.1386293925
H  H49  1  0.02520000  0.19410000  0.07230000  1.0 0.1299974505
H  H50  1  0.08170000  0.91890000  0.21560000  1.0 0.10139706
H  H51  1  0.85330000  0.80660000  0.16790000  1.0 0.1299974505
H  H52  1  0.94200000  0.75260000  0.16580000  1.0 0.1386293925
H  H53  1  0.91230000  0.82830000  0.12690000  1.0 0.1386293925
H  H54  1  0.85650000  0.89500000  0.22210000  1.0 0.1386293925
H  H55  1  0.91910000  0.97520000  0.21690000  1.0 0.1299974505
H  H56  1  0.94930000  0.90810000  0.26120000  1.0 0.1224876805
H  H57  1  0.72690000  0.38680000  0.23320000  1.0 0.10139706
H  H58  1  0.54030000  0.20720000  0.20790000  1.0 0.1299974505
H  H59  1  0.53990000  0.26690000  0.25530000  1.0 0.1299974505
H  H60  1  0.61610000  0.19580000  0.25740000  1.0 0.1386293925
H  H61  1  0.58090000  0.26210000  0.14660000  1.0 0.1299974505
H  H62  1  0.68300000  0.29390000  0.15290000  1.0 0.1299974505
H  H63  1  0.60360000  0.36150000  0.15160000  1.0 0.1386293925
H  H64  1  0.86570000  0.19380000  0.33140000  1.0 0.1078772595
H  H65  1  0.78590000  0.98780000  0.30810000  1.0 0.1386293925
H  H66  1  0.88380000  0.03010000  0.32230000  1.0 0.1386293925
H  H67  1  0.81340000  0.06280000  0.27440000  1.0 0.1299974505
H  H68  1  0.69240000  0.01970000  0.35270000  1.0 0.1299974505
H  H69  1  0.65900000  0.11640000  0.35100000  1.0 0.1299974505
H  H70  1  0.72840000  0.08170000  0.39880000  1.0 0.1299974505
H  H71  1  0.54760000  0.37210000  0.32500000  1.0 0.10139706
H  H72  1  0.35860000  0.26370000  0.34780000  1.0 0.1386293925
H  H73  1  0.40680000  0.27290000  0.30090000  1.0 0.1386293925
H  H74  1  0.37650000  0.35600000  0.32700000  1.0 0.1386293925
H  H75  1  0.43910000  0.22670000  0.41420000  1.0 0.1386293925
H  H76  1  0.51560000  0.29110000  0.44070000  1.0 0.1299974505
H  H77  1  0.54250000  0.20860000  0.41270000  1.0 0.1386293925
H  H78  1  0.81170000  0.22580000  0.46560000  1.0 0.10139706
H  H79  1  0.71240000  0.18170000  0.56780000  1.0 0.1386293925
H  H80  1  0.80970000  0.16420000  0.55530000  1.0 0.1386293925
H  H81  1  0.72090000  0.13420000  0.51710000  1.0 0.1386293925
H  H82  1  0.66930000  0.30840000  0.56230000  1.0 0.1299974505
H  H83  1  0.64660000  0.34970000  0.50760000  1.0 0.1299974505
H  H84  1  0.73690000  0.37590000  0.54570000  1.0 0.1299974505
H  H85  1  0.67740000  0.49250000  0.45760000  1.0 0.10139706
H  H86  1  0.49210000  0.62800000  0.44630000  1.0 0.1386293925
H  H87  1  0.57890000  0.60870000  0.48880000  1.0 0.1299974505
H  H88  1  0.51350000  0.53270000  0.46560000  1.0 0.1299974505
H  H89  1  0.51630000  0.65860000  0.37590000  1.0 0.1299974505
H  H90  1  0.55740000  0.58620000  0.34580000  1.0 0.1386293925
H  H91  1  0.62030000  0.66190000  0.37190000  1.0 0.1299974505
H  H92  1  0.71020000  0.57120000  0.30140000  1.0 0.1078772595
H  H93  1  0.92540000  0.66820000  0.26230000  1.0 0.1299974505
H  H94  1  0.91620000  0.56680000  0.26030000  1.0 0.1299974505
H  H95  1  0.94210000  0.61430000  0.31300000  1.0 0.1386293925
H  H96  1  0.80370000  0.73670000  0.24390000  1.0 0.1386293925
H  H97  1  0.73470000  0.72950000  0.28120000  1.0 0.1299974505
H  H98  1  0.71500000  0.67960000  0.22910000  1.0 0.1224876805
H  H99  1  0.86690000  0.56780000  0.42990000  1.0 0.10139706
H  H100  1  0.13120000  0.56400000  0.45290000  1.0 0.1299974505
H  H101  1  0.08060000  0.50340000  0.40910000  1.0 0.1299974505
H  H102  1  0.08470000  0.47800000  0.46630000  1.0 0.1299974505
H  H103  1  0.07040000  0.67520000  0.46300000  1.0 0.1299974505
H  H104  1  0.98020000  0.66940000  0.48510000  1.0 0.1386293925
H  H105  1  0.97480000  0.69410000  0.42770000  1.0 0.1299974505
H  H106  1  0.91830000  0.41890000  0.28440000  1.0 0.10139706
H  H107  1  0.14670000  0.30660000  0.33210000  1.0 0.1299974505
H  H108  1  0.05800000  0.25260000  0.33420000  1.0 0.1386293925
H  H109  1  0.08770000  0.32830000  0.37310000  1.0 0.1386293925
H  H110  1  0.14350000  0.39500000  0.27790000  1.0 0.1386293925
H  H111  1  0.08090000  0.47520000  0.28310000  1.0 0.1299974505
H  H112  1  0.05070000  0.40810000  0.23880000  1.0 0.1224876805
H  H113  1  0.72690000  0.11320000  0.73320000  1.0 0.10139706
H  H114  1  0.54030000  0.29280000  0.70790000  1.0 0.1299974505
H  H115  1  0.53990000  0.23310000  0.75530000  1.0 0.1299974505
H  H116  1  0.61610000  0.30420000  0.75740000  1.0 0.1386293925
H  H117  1  0.58090000  0.23790000  0.64660000  1.0 0.1299974505
H  H118  1  0.68300000  0.20610000  0.65290000  1.0 0.1299974505
H  H119  1  0.60360000  0.13850000  0.65160000  1.0 0.1386293925
H  H120  1  0.86570000  0.30620000  0.83140000  1.0 0.1078772595
H  H121  1  0.78590000  0.51220000  0.80810000  1.0 0.1386293925
H  H122  1  0.88380000  0.46990000  0.82230000  1.0 0.1386293925
H  H123  1  0.81340000  0.43720000  0.77440000  1.0 0.1299974505
H  H124  1  0.69240000  0.48030000  0.85270000  1.0 0.1299974505
H  H125  1  0.65900000  0.38360000  0.85100000  1.0 0.1299974505
H  H126  1  0.72840000  0.41830000  0.89880000  1.0 0.1299974505
H  H127  1  0.54760000  0.12790000  0.82500000  1.0 0.10139706
H  H128  1  0.35860000  0.23630000  0.84780000  1.0 0.1386293925
H  H129  1  0.40680000  0.22710000  0.80090000  1.0 0.1299974505
H  H130  1  0.37650000  0.14400000  0.82700000  1.0 0.1386293925
H  H131  1  0.43910000  0.27330000  0.91420000  1.0 0.1386293925
H  H132  1  0.51560000  0.20890000  0.94070000  1.0 0.1299974505
H  H133  1  0.54250000  0.29140000  0.91270000  1.0 0.1386293925
H  H134  1  0.81170000  0.27420000  0.96560000  1.0 0.10139706
H  H135  1  0.71240000  0.31830000  0.06780000  1.0 0.1386293925
H  H136  1  0.80970000  0.33580000  0.05530000  1.0 0.1386293925
H  H137  1  0.72090000  0.36580000  0.01710000  1.0 0.1386293925
H  H138  1  0.66930000  0.19160000  0.06230000  1.0 0.1299974505
H  H139  1  0.64660000  0.15030000  0.00760000  1.0 0.1299974505
H  H140  1  0.73690000  0.12410000  0.04570000  1.0 0.1299974505
H  H141  1  0.67740000  0.00750000  0.95760000  1.0 0.10139706
H  H142  1  0.49210000  0.87200000  0.94630000  1.0 0.1386293925
H  H143  1  0.57890000  0.89130000  0.98880000  1.0 0.1299974505
H  H144  1  0.51350000  0.96730000  0.96560000  1.0 0.1299974505
H  H145  1  0.51630000  0.84140000  0.87590000  1.0 0.1299974505
H  H146  1  0.55740000  0.91380000  0.84580000  1.0 0.1386293925
H  H147  1  0.62030000  0.83810000  0.87190000  1.0 0.1299974505
H  H148  1  0.71020000  0.92880000  0.80140000  1.0 0.1078772595
H  H149  1  0.92540000  0.83180000  0.76230000  1.0 0.1299974505
H  H150  1  0.91620000  0.93320000  0.76030000  1.0 0.1299974505
H  H151  1  0.94210000  0.88570000  0.81300000  1.0 0.1386293925
H  H152  1  0.80370000  0.76330000  0.74390000  1.0 0.1386293925
H  H153  1  0.73470000  0.77050000  0.78120000  1.0 0.1299974505
H  H154  1  0.71500000  0.82040000  0.72910000  1.0 0.1224876805
H  H155  1  0.86690000  0.93220000  0.92990000  1.0 0.10139706
H  H156  1  0.13120000  0.93600000  0.95290000  1.0 0.1299974505
H  H157  1  0.08060000  0.99660000  0.90910000  1.0 0.1299974505
H  H158  1  0.08470000  0.02200000  0.96630000  1.0 0.1299974505
H  H159  1  0.07040000  0.82480000  0.96300000  1.0 0.1299974505
H  H160  1  0.98020000  0.83060000  0.98510000  1.0 0.1386293925
H  H161  1  0.97480000  0.80590000  0.92770000  1.0 0.1299974505
H  H162  1  0.91830000  0.08110000  0.78440000  1.0 0.10139706
H  H163  1  0.14670000  0.19340000  0.83210000  1.0 0.1299974505
H  H164  1  0.05800000  0.24740000  0.83420000  1.0 0.1386293925
H  H165  1  0.08770000  0.17170000  0.87310000  1.0 0.1386293925
H  H166  1  0.14350000  0.10500000  0.77790000  1.0 0.1386293925
H  H167  1  0.08090000  0.02480000  0.78310000  1.0 0.1299974505
H  H168  1  0.05070000  0.09190000  0.73880000  1.0 0.1224876805
H  H169  1  0.27310000  0.61320000  0.76680000  1.0 0.10139706
H  H170  1  0.45970000  0.79280000  0.79210000  1.0 0.1299974505
H  H171  1  0.46010000  0.73310000  0.74470000  1.0 0.1299974505
H  H172  1  0.38390000  0.80420000  0.74260000  1.0 0.1386293925
H  H173  1  0.41910000  0.73790000  0.85340000  1.0 0.1299974505
H  H174  1  0.31700000  0.70610000  0.84710000  1.0 0.1299974505
H  H175  1  0.39640000  0.63850000  0.84840000  1.0 0.1386293925
H  H176  1  0.13430000  0.80620000  0.66860000  1.0 0.1078772595
H  H177  1  0.21410000  0.01220000  0.69190000  1.0 0.1386293925
H  H178  1  0.11620000  0.96990000  0.67770000  1.0 0.1386293925
H  H179  1  0.18660000  0.93720000  0.72560000  1.0 0.1299974505
H  H180  1  0.30760000  0.98030000  0.64730000  1.0 0.1299974505
H  H181  1  0.34100000  0.88360000  0.64900000  1.0 0.1299974505
H  H182  1  0.27160000  0.91830000  0.60120000  1.0 0.1299974505
H  H183  1  0.45240000  0.62790000  0.67500000  1.0 0.10139706
H  H184  1  0.64140000  0.73630000  0.65220000  1.0 0.1386293925
H  H185  1  0.59320000  0.72710000  0.69910000  1.0 0.1386293925
H  H186  1  0.62350000  0.64400000  0.67300000  1.0 0.1386293925
H  H187  1  0.56090000  0.77330000  0.58580000  1.0 0.1386293925
H  H188  1  0.48440000  0.70890000  0.55930000  1.0 0.1299974505
H  H189  1  0.45750000  0.79140000  0.58730000  1.0 0.1386293925
H  H190  1  0.18830000  0.77420000  0.53440000  1.0 0.10139706
H  H191  1  0.28760000  0.81830000  0.43220000  1.0 0.1386293925
H  H192  1  0.19030000  0.83580000  0.44470000  1.0 0.1386293925
H  H193  1  0.27910000  0.86580000  0.48290000  1.0 0.1386293925
H  H194  1  0.33070000  0.69160000  0.43770000  1.0 0.1299974505
H  H195  1  0.35340000  0.65030000  0.49240000  1.0 0.1299974505
H  H196  1  0.26310000  0.62410000  0.45430000  1.0 0.1299974505
H  H197  1  0.32260000  0.50750000  0.54240000  1.0 0.10139706
H  H198  1  0.50790000  0.37200000  0.55370000  1.0 0.1386293925
H  H199  1  0.42110000  0.39130000  0.51120000  1.0 0.1299974505
H  H200  1  0.48650000  0.46730000  0.53440000  1.0 0.1299974505
H  H201  1  0.48370000  0.34140000  0.62410000  1.0 0.1299974505
H  H202  1  0.44260000  0.41380000  0.65420000  1.0 0.1386293925
H  H203  1  0.37970000  0.33810000  0.62810000  1.0 0.1299974505
H  H204  1  0.28980000  0.42880000  0.69860000  1.0 0.1078772595
H  H205  1  0.07460000  0.33180000  0.73770000  1.0 0.1299974505
H  H206  1  0.08380000  0.43320000  0.73970000  1.0 0.1299974505
H  H207  1  0.05790000  0.38570000  0.68700000  1.0 0.1386293925
H  H208  1  0.19630000  0.26330000  0.75610000  1.0 0.1386293925
H  H209  1  0.26530000  0.27050000  0.71880000  1.0 0.1299974505
H  H210  1  0.28500000  0.32040000  0.77090000  1.0 0.1224876805
H  H211  1  0.13310000  0.43220000  0.57010000  1.0 0.10139706
H  H212  1  0.86880000  0.43600000  0.54710000  1.0 0.1299974505
H  H213  1  0.91940000  0.49660000  0.59090000  1.0 0.1299974505
H  H214  1  0.91530000  0.52200000  0.53370000  1.0 0.1299974505
H  H215  1  0.92960000  0.32480000  0.53700000  1.0 0.1299974505
H  H216  1  0.01980000  0.33060000  0.51490000  1.0 0.1386293925
H  H217  1  0.02520000  0.30590000  0.57230000  1.0 0.1299974505
H  H218  1  0.08170000  0.58110000  0.71560000  1.0 0.10139706
H  H219  1  0.85330000  0.69340000  0.66790000  1.0 0.1299974505
H  H220  1  0.94200000  0.74740000  0.66580000  1.0 0.1386293925
H  H221  1  0.91230000  0.67170000  0.62690000  1.0 0.1386293925
H  H222  1  0.85650000  0.60500000  0.72210000  1.0 0.1386293925
H  H223  1  0.91910000  0.52480000  0.71690000  1.0 0.1299974505
H  H224  1  0.94930000  0.59190000  0.76120000  1.0 0.1224876805
C  C1  1  0.30920000  0.84780000  0.25290000  1.0 0.3100861995
C  C2  1  0.42180000  0.73700000  0.26410000  1.0 -0.3195871965
C  C3  1  0.37510000  0.80450000  0.33750000  1.0 -0.3389628814
C  C4  1  0.18260000  0.67850000  0.15280000  1.0 0.2913248627
C  C5  1  0.18000000  0.54090000  0.19150000  1.0 -0.329490109
C  C6  1  0.28990000  0.57820000  0.13760000  1.0 -0.3195871965
C  C7  1  0.44340000  0.84220000  0.14420000  1.0 0.3005090563
C  C8  1  0.59970000  0.79820000  0.16720000  1.0 -0.329490109
C  C9  1  0.50310000  0.75300000  0.08780000  1.0 -0.3097816055
C  C10  1  0.21650000  0.77330000  0.02235000  1.0 0.2913248627
C  C11  1  0.25320000  0.67830000  0.95900000  1.0 -0.3389628814
C  C12  1  0.30500000  0.82920000  0.96570000  1.0 -0.3389628814
C  C13  1  0.33720000  0.02220000  0.07320000  1.0 0.3005090563
C  C14  1  0.45980000  0.08690000  0.04170000  1.0 -0.3517089547
C  C15  1  0.43010000  0.12430000  0.12530000  1.0 -0.329490109
C  C16  1  0.22770000  0.06440000  0.19930000  1.0 0.3005090563
C  C17  1  0.09350000  0.11810000  0.22100000  1.0 -0.329490109
C  C18  1  0.23780000  0.19880000  0.24320000  1.0 -0.3517089547
C  C19  1  0.08110000  0.03390000  0.07006000  1.0 0.3005090563
C  C20  1  0.92000000  0.02540000  0.05740000  1.0 -0.3097816055
C  C21  1  0.99350000  0.15950000  0.04440000  1.0 -0.3389628814
C  C22  1  0.04990000  0.87820000  0.19300000  1.0 0.2844944685
C  C23  1  0.91460000  0.80910000  0.16130000  1.0 -0.2859725268
C  C24  1  0.91880000  0.91500000  0.22620000  1.0 -0.3389628814
C  C25  1  0.69080000  0.34780000  0.24710000  1.0 0.3100861995
C  C26  1  0.57820000  0.23700000  0.23590000  1.0 -0.3195871965
C  C27  1  0.62490000  0.30450000  0.16250000  1.0 -0.3389628814
C  C28  1  0.81740000  0.17850000  0.34720000  1.0 0.2913248627
C  C29  1  0.82000000  0.04090000  0.30850000  1.0 -0.329490109
C  C30  1  0.71010000  0.07820000  0.36240000  1.0 -0.3195871965
C  C31  1  0.55660000  0.34220000  0.35580000  1.0 0.3005090563
C  C32  1  0.40030000  0.29820000  0.33280000  1.0 -0.329490109
C  C33  1  0.49690000  0.25300000  0.41220000  1.0 -0.3097816055
C  C34  1  0.78350000  0.27330000  0.47765000  1.0 0.2913248627
C  C35  1  0.74680000  0.17830000  0.54100000  1.0 -0.3389628814
C  C36  1  0.69500000  0.32920000  0.53430000  1.0 -0.3389628814
C  C37  1  0.66280000  0.52220000  0.42680000  1.0 0.3005090563
C  C38  1  0.54020000  0.58690000  0.45830000  1.0 -0.3517089547
C  C39  1  0.56990000  0.62430000  0.37470000  1.0 -0.329490109
C  C40  1  0.77230000  0.56440000  0.30070000  1.0 0.3005090563
C  C41  1  0.90650000  0.61810000  0.27900000  1.0 -0.329490109
C  C42  1  0.76220000  0.69880000  0.25680000  1.0 -0.3517089547
C  C43  1  0.91890000  0.53390000  0.42994000  1.0 0.3005090563
C  C44  1  0.08000000  0.52540000  0.44260000  1.0 -0.3097816055
C  C45  1  0.00650000  0.65950000  0.45560000  1.0 -0.3389628814
C  C46  1  0.95010000  0.37820000  0.30700000  1.0 0.2844944685
C  C47  1  0.08540000  0.30910000  0.33870000  1.0 -0.2859725268
C  C48  1  0.08120000  0.41500000  0.27380000  1.0 -0.3389628814
C  C49  1  0.69080000  0.15220000  0.74710000  1.0 0.3100861995
C  C50  1  0.57820000  0.26300000  0.73590000  1.0 -0.3195871965
C  C51  1  0.62490000  0.19550000  0.66250000  1.0 -0.3389628814
C  C52  1  0.81740000  0.32150000  0.84720000  1.0 0.2913248627
C  C53  1  0.82000000  0.45910000  0.80850000  1.0 -0.329490109
C  C54  1  0.71010000  0.42180000  0.86240000  1.0 -0.3195871965
C  C55  1  0.55660000  0.15780000  0.85580000  1.0 0.3005090563
C  C56  1  0.40030000  0.20180000  0.83280000  1.0 -0.329490109
C  C57  1  0.49690000  0.24700000  0.91220000  1.0 -0.3097816055
C  C58  1  0.78350000  0.22670000  0.97765000  1.0 0.2913248627
C  C59  1  0.74680000  0.32170000  0.04100000  1.0 -0.3389628814
C  C60  1  0.69500000  0.17080000  0.03430000  1.0 -0.3389628814
C  C61  1  0.66280000  0.97780000  0.92680000  1.0 0.3005090563
C  C62  1  0.54020000  0.91310000  0.95830000  1.0 -0.3517089547
C  C63  1  0.56990000  0.87570000  0.87470000  1.0 -0.329490109
C  C64  1  0.77230000  0.93560000  0.80070000  1.0 0.3005090563
C  C65  1  0.90650000  0.88190000  0.77900000  1.0 -0.329490109
C  C66  1  0.76220000  0.80120000  0.75680000  1.0 -0.3517089547
C  C67  1  0.91890000  0.96610000  0.92994000  1.0 0.3005090563
C  C68  1  0.08000000  0.97460000  0.94260000  1.0 -0.3097816055
C  C69  1  0.00650000  0.84050000  0.95560000  1.0 -0.3389628814
C  C70  1  0.95010000  0.12180000  0.80700000  1.0 0.2844944685
C  C71  1  0.08540000  0.19090000  0.83870000  1.0 -0.2859725268
C  C72  1  0.08120000  0.08500000  0.77380000  1.0 -0.3389628814
C  C73  1  0.30920000  0.65220000  0.75290000  1.0 0.3100861995
C  C74  1  0.42180000  0.76300000  0.76410000  1.0 -0.3195871965
C  C75  1  0.37510000  0.69550000  0.83750000  1.0 -0.3389628814
C  C76  1  0.18260000  0.82150000  0.65280000  1.0 0.2913248627
C  C77  1  0.18000000  0.95910000  0.69150000  1.0 -0.329490109
C  C78  1  0.28990000  0.92180000  0.63760000  1.0 -0.3195871965
C  C79  1  0.44340000  0.65780000  0.64420000  1.0 0.3005090563
C  C80  1  0.59970000  0.70180000  0.66720000  1.0 -0.329490109
C  C81  1  0.50310000  0.74700000  0.58780000  1.0 -0.3097816055
C  C82  1  0.21650000  0.72670000  0.52235000  1.0 0.2913248627
C  C83  1  0.25320000  0.82170000  0.45900000  1.0 -0.3389628814
C  C84  1  0.30500000  0.67080000  0.46570000  1.0 -0.3389628814
C  C85  1  0.33720000  0.47780000  0.57320000  1.0 0.2913248627
C  C86  1  0.45980000  0.41310000  0.54170000  1.0 -0.3517089547
C  C87  1  0.43010000  0.37570000  0.62530000  1.0 -0.329490109
C  C88  1  0.22770000  0.43560000  0.69930000  1.0 0.3005090563
C  C89  1  0.09350000  0.38190000  0.72100000  1.0 -0.329490109
C  C90  1  0.23780000  0.30120000  0.74320000  1.0 -0.3517089547
C  C91  1  0.08110000  0.46610000  0.57006000  1.0 0.3005090563
C  C92  1  0.92000000  0.47460000  0.55740000  1.0 -0.3097816055
C  C93  1  0.99350000  0.34050000  0.54440000  1.0 -0.3389628814
C  C94  1  0.04990000  0.62180000  0.69300000  1.0 0.2844944685
C  C95  1  0.91460000  0.69090000  0.66130000  1.0 -0.2859725268
C  C96  1  0.91880000  0.58500000  0.72620000  1.0 -0.3389628814
C  C97  1  0.95800000  0.68850000  0.85150000  1.0 -0.0973927784
C  C98  1  0.04200000  0.18850000  0.64850000  1.0 -0.0973927784
C  C99  1  0.04200000  0.31150000  0.14850000  1.0 -0.0973927784
C  C100  1  0.95800000  0.81150000  0.35150000  1.0 -0.0973927784
C  C101  1  0.13750000  0.59010000  0.82870000  1.0 -0.1113766611
C  C102  1  0.86250000  0.09010000  0.67130000  1.0 -0.1113766611
C  C103  1  0.86250000  0.40990000  0.17130000  1.0 -0.1113766611
C  C104  1  0.13750000  0.90990000  0.32870000  1.0 -0.1113766611
C  C105  1  0.18720000  0.85680000  0.83240000  1.0 -0.1113766611
C  C106  1  0.81280000  0.35680000  0.66760000  1.0 -0.1113766611
C  C107  1  0.81280000  0.14320000  0.16760000  1.0 -0.1113766611
C  C108  1  0.18720000  0.64320000  0.33240000  1.0 -0.1113766611
C  C109  1  0.74000000  0.65660000  0.11120000  1.0 -0.1413809095
C  C110  1  0.26000000  0.15660000  0.38880000  1.0 -0.1413809095
C  C111  1  0.26000000  0.34340000  0.88880000  1.0 -0.1338624866
C  C112  1  0.74000000  0.84340000  0.61120000  1.0 -0.1413809095
C  C113  1  0.43240000  0.47880000  0.79838000  1.0 -0.1413809095
C  C114  1  0.56760000  0.97880000  0.70162000  1.0 -0.1413809095
C  C115  1  0.56760000  0.52120000  0.20162000  1.0 -0.1413809095
C  C116  1  0.43240000  0.02120000  0.29838000  1.0 -0.1413809095
C  C117  1  0.76480000  0.76090000  0.93660000  1.0 -0.0779327141
C  C118  1  0.23520000  0.26090000  0.56340000  1.0 -0.0779327141
C  C119  1  0.23520000  0.23910000  0.06340000  1.0 -0.0779327141
C  C120  1  0.76480000  0.73910000  0.43660000  1.0 -0.0779327141
C  C121  1  0.72720000  0.91930000  0.07530000  1.0 -0.1413809095
C  C122  1  0.27280000  0.41930000  0.42470000  1.0 -0.1413809095
C  C123  1  0.27280000  0.08070000  0.92470000  1.0 -0.1413809095
C  C124  1  0.72720000  0.58070000  0.57530000  1.0 -0.1413809095
C  C125  1  0.66420000  0.65230000  0.83720000  1.0 -0.1113766611
C  C126  1  0.33580000  0.15230000  0.66280000  1.0 -0.1113766611
C  C127  1  0.33580000  0.34770000  0.16280000  1.0 -0.1113766611
C  C128  1  0.66420000  0.84770000  0.33720000  1.0 -0.1113766611
C  C129  1  0.64030000  0.47190000  0.69550000  1.0 -0.0973927784
C  C130  1  0.35970000  0.97190000  0.80450000  1.0 -0.0973927784
C  C131  1  0.35970000  0.52810000  0.30450000  1.0 -0.0973927784
C  C132  1  0.64030000  0.02810000  0.19550000  1.0 -0.0973927784
N  N1  1  0.36450000  0.79830000  0.28334000  1.0 0.0412233169
N  N2  1  0.21450000  0.60330000  0.16061000  1.0 0.0485959283
N  N3  1  0.51250000  0.80090000  0.13369000  1.0 0.0412233169
N  N4  1  0.25700000  0.76060000  0.98467000  1.0 0.0328333633
N  N5  1  0.40680000  0.07410000  0.07960000  1.0 0.0485959283
N  N6  1  0.18820000  0.12540000  0.21919000  1.0 0.0485959283
N  N7  1  0.00220000  0.07050000  0.05798000  1.0 0.0412233169
N  N8  1  0.96570000  0.86580000  0.19433000  1.0 0.0485959283
N  N9  1  0.63550000  0.29830000  0.21666000  1.0 0.0412233169
N  N10  1  0.78550000  0.10330000  0.33939000  1.0 0.0485959283
N  N11  1  0.48750000  0.30090000  0.36631000  1.0 0.0412233169
N  N12  1  0.74300000  0.26060000  0.51533000  1.0 0.0328333633
N  N13  1  0.59320000  0.57410000  0.42040000  1.0 0.0485959283
N  N14  1  0.81180000  0.62540000  0.28081000  1.0 0.0485959283
N  N15  1  0.99780000  0.57050000  0.44202000  1.0 0.0412233169
N  N16  1  0.03430000  0.36580000  0.30567000  1.0 0.0485959283
N  N17  1  0.63550000  0.20170000  0.71666000  1.0 0.0412233169
N  N18  1  0.78550000  0.39670000  0.83939000  1.0 0.0485959283
N  N19  1  0.48750000  0.19910000  0.86631000  1.0 0.0412233169
N  N20  1  0.74300000  0.23940000  0.01533000  1.0 0.0328333633
N  N21  1  0.59320000  0.92590000  0.92040000  1.0 0.0485959283
N  N22  1  0.81180000  0.87460000  0.78081000  1.0 0.0485959283
N  N23  1  0.99780000  0.92950000  0.94202000  1.0 0.0412233169
N  N24  1  0.03430000  0.13420000  0.80567000  1.0 0.0485959283
N  N25  1  0.36450000  0.70170000  0.78334000  1.0 0.0412233169
N  N26  1  0.21450000  0.89670000  0.66061000  1.0 0.0485959283
N  N27  1  0.51250000  0.69910000  0.63369000  1.0 0.0412233169
N  N28  1  0.25700000  0.73940000  0.48467000  1.0 0.0328333633
N  N29  1  0.40680000  0.42590000  0.57960000  1.0 0.0485959283
N  N30  1  0.18820000  0.37460000  0.71919000  1.0 0.0485959283
N  N31  1  0.00220000  0.42950000  0.55798000  1.0 0.0412233169
N  N32  1  0.96570000  0.63420000  0.69433000  1.0 0.0485959283
N  N33  1  0.88830000  0.68850000  0.86213000  1.0 -0.3097816055
N  N34  1  0.11170000  0.18850000  0.63787000  1.0 -0.3097816055
N  N35  1  0.11170000  0.31150000  0.13787000  1.0 -0.3044927032
N  N36  1  0.88830000  0.81150000  0.36213000  1.0 -0.3044927032
N  N37  1  0.18230000  0.53010000  0.83204000  1.0 -0.329490109
N  N38  1  0.81770000  0.03010000  0.66796000  1.0 -0.329490109
N  N39  1  0.81770000  0.46990000  0.16796000  1.0 -0.329490109
N  N40  1  0.18230000  0.96990000  0.33204000  1.0 -0.329490109
N  N41  1  0.13980000  0.79740000  0.82990000  1.0 -0.3195871965
N  N42  1  0.86020000  0.29740000  0.67010000  1.0 -0.3195871965
N  N43  1  0.86020000  0.20260000  0.17010000  1.0 -0.3195871965
N  N44  1  0.13980000  0.70260000  0.32990000  1.0 -0.3195871965
N  N45  1  0.74450000  0.71510000  0.08545000  1.0 -0.3097816055
N  N46  1  0.25550000  0.21510000  0.41455000  1.0 -0.3097816055
N  N47  1  0.25550000  0.28490000  0.91455000  1.0 -0.3097816055
N  N48  1  0.74450000  0.78490000  0.58545000  1.0 -0.3097816055
N  N49  1  0.37240000  0.45510000  0.81475000  1.0 -0.329490109
N  N50  1  0.62760000  0.95510000  0.68525000  1.0 -0.329490109
N  N51  1  0.62760000  0.54490000  0.18525000  1.0 -0.329490109
N  N52  1  0.37240000  0.04490000  0.31475000  1.0 -0.329490109
N  N53  1  0.76030000  0.78690000  0.97610000  1.0 -0.3195871965
N  N54  1  0.23970000  0.28690000  0.52390000  1.0 -0.3195871965
N  N55  1  0.23970000  0.21310000  0.02390000  1.0 -0.3195871965
N  N56  1  0.76030000  0.71310000  0.47610000  1.0 -0.3195871965
N  N57  1  0.72250000  0.97810000  0.10030000  1.0 -0.3097816055
N  N58  1  0.27750000  0.47810000  0.39970000  1.0 -0.3097816055
N  N59  1  0.27750000  0.02190000  0.89970000  1.0 -0.3097816055
N  N60  1  0.72250000  0.52190000  0.60030000  1.0 -0.3097816055
N  N61  1  0.60470000  0.61690000  0.81225000  1.0 -0.3195871965
N  N62  1  0.39530000  0.11690000  0.68775000  1.0 -0.3195871965
N  N63  1  0.39530000  0.38310000  0.18775000  1.0 -0.3195871965
N  N64  1  0.60470000  0.88310000  0.31225000  1.0 -0.3195871965
N  N65  1  0.59260000  0.49290000  0.72180000  1.0 -0.3389628814
N  N66  1  0.40740000  0.99290000  0.77820000  1.0 -0.3389628814
N  N67  1  0.40740000  0.50710000  0.27820000  1.0 -0.3389628814
N  N68  1  0.59260000  0.00710000  0.22180000  1.0 -0.3389628814
O  O1  1  0.30170000  0.84630000  0.20727000  1.0 -0.5887494521
O  O2  1  0.20910000  0.73310000  0.12646000  1.0 -0.5785808773
O  O3  1  0.36800000  0.84530000  0.11743000  1.0 -0.5442566038
O  O4  1  0.21230000  0.84300000  0.04349000  1.0 -0.5718094321
O  O5  1  0.28940000  0.00900000  0.10433000  1.0 -0.5785808773
O  O6  1  0.19030000  0.99810000  0.18122000  1.0 -0.5785808773
O  O7  1  0.09240000  0.95760000  0.08152000  1.0 -0.5579900505
O  O8  1  0.09320000  0.84060000  0.16431000  1.0 -0.5887494521
O  O9  1  0.69830000  0.34630000  0.29273000  1.0 -0.5887494521
O  O10  1  0.79090000  0.23310000  0.37354000  1.0 -0.5785808773
O  O11  1  0.63200000  0.34530000  0.38257000  1.0 -0.5442566038
O  O12  1  0.78770000  0.34300000  0.45651000  1.0 -0.5718094321
O  O13  1  0.71060000  0.50900000  0.39567000  1.0 -0.5785808773
O  O14  1  0.80970000  0.49810000  0.31878000  1.0 -0.5785808773
O  O15  1  0.90760000  0.45760000  0.41848000  1.0 -0.5579900505
O  O16  1  0.90680000  0.34060000  0.33569000  1.0 -0.5887494521
O  O17  1  0.69830000  0.15370000  0.79273000  1.0 -0.5887494521
O  O18  1  0.79090000  0.26690000  0.87354000  1.0 -0.5785808773
O  O19  1  0.63200000  0.15470000  0.88257000  1.0 -0.5442566038
O  O20  1  0.78770000  0.15700000  0.95651000  1.0 -0.5718094321
O  O21  1  0.71060000  0.99100000  0.89567000  1.0 -0.5785808773
O  O22  1  0.80970000  0.00190000  0.81878000  1.0 -0.5785808773
O  O23  1  0.90760000  0.04240000  0.91848000  1.0 -0.5579900505
O  O24  1  0.90680000  0.15940000  0.83569000  1.0 -0.5887494521
O  O25  1  0.30170000  0.65370000  0.70727000  1.0 -0.5887494521
O  O26  1  0.20910000  0.76690000  0.62646000  1.0 -0.5785808773
O  O27  1  0.36800000  0.65470000  0.61743000  1.0 -0.5442566038
O  O28  1  0.21230000  0.65700000  0.54349000  1.0 -0.5718094321
O  O29  1  0.28940000  0.49100000  0.60433000  1.0 -0.5785808773
O  O30  1  0.19030000  0.50190000  0.68122000  1.0 -0.5785808773
O  O31  1  0.09240000  0.54240000  0.58152000  1.0 -0.5579900505
O  O32  1  0.09320000  0.65940000  0.66431000  1.0 -0.5887494521
