# DDEC6 charges by PACMAN v1.1 (https://github.com/mtap-research/PACMAN-charge/)
data_FIBHIJ_FSR_pacman
_symmetry_space_group_name_H-M   'P 1'
_cell_length_a   11.42870000
_cell_length_b   11.70310000
_cell_length_c   13.08870000
_cell_angle_alpha   62.51220000
_cell_angle_beta   73.41360000
_cell_angle_gamma   71.12900000
_symmetry_Int_Tables_number   1
_chemical_formula_structural   Cu3H21(C5N2)4
_chemical_formula_sum   'Cu6 H42 C40 N16'
_cell_volume   1450.05923611
_cell_formula_units_Z   2
loop_
 _symmetry_equiv_pos_site_id
 _symmetry_equiv_pos_as_xyz
  1  'x, y, z'
loop_
 _atom_site_type_symbol
 _atom_site_label
 _atom_site_symmetry_multiplicity
 _atom_site_fract_x
 _atom_site_fract_y
 _atom_site_fract_z
 _atom_site_occupancy
 _atom_site_charge
Cu  Cu1  1  0.62499000  0.75153000  0.08005000  1.0 0.2366534198
Cu  Cu2  1  0.37501000  0.24847000  0.91995000  1.0 0.2366534198
Cu  Cu3  1  0.45441000  0.63339000  0.49800000  1.0 0.2366534198
Cu  Cu4  1  0.54559000  0.36661000  0.50200000  1.0 0.2366534198
Cu  Cu5  1  0.68451000  0.56583000  0.79610000  1.0 0.2602089743
Cu  Cu6  1  0.31549000  0.43417000  0.20390000  1.0 0.2602089743
H  H1  1  0.09050000  0.54700000  0.93220000  1.0 0.1559922347
H  H2  1  0.90950000  0.45300000  0.06780000  1.0 0.1559922347
H  H3  1  0.03270000  0.69830000  0.86920000  1.0 0.1505959997
H  H4  1  0.96730000  0.30170000  0.13080000  1.0 0.1505959997
H  H5  1  0.17160000  0.65060000  0.89140000  1.0 0.1505959997
H  H6  1  0.82840000  0.34940000  0.10860000  1.0 0.1505959997
H  H7  1  0.31850000  0.65160000  0.72200000  1.0 0.2845064128
H  H8  1  0.68150000  0.34840000  0.27800000  1.0 0.2845064128
H  H9  1  0.59760000  0.91210000  0.21270000  1.0 0.2863058771
H  H10  1  0.40240000  0.08790000  0.78730000  1.0 0.2863058771
H  H11  1  0.21110000  0.64370000  0.41730000  1.0 0.1505959997
H  H12  1  0.78890000  0.35630000  0.58270000  1.0 0.1505959997
H  H13  1  0.07890000  0.61250000  0.47920000  1.0 0.1398654642
H  H14  1  0.92110000  0.38750000  0.52080000  1.0 0.1398654642
H  H15  1  0.19950000  0.49760000  0.49820000  1.0 0.1559922347
H  H16  1  0.80050000  0.50240000  0.50180000  1.0 0.1559922347
H  H17  1  0.90790000  0.62660000  0.76380000  1.0 0.1398654642
H  H18  1  0.09210000  0.37340000  0.23620000  1.0 0.1398654642
H  H19  1  0.93100000  0.60350000  0.65040000  1.0 0.1327405447
H  H20  1  0.06900000  0.39650000  0.34960000  1.0 0.1327405447
H  H21  1  0.13890000  0.34820000  0.80710000  1.0 0.1398654642
H  H22  1  0.86110000  0.65180000  0.19290000  1.0 0.1398654642
H  H23  1  0.10760000  0.13700000  0.92450000  1.0 0.1154883491
H  H24  1  0.89240000  0.86300000  0.07550000  1.0 0.1154883491
H  H25  1  0.90960000  0.09880000  0.97030000  1.0 0.1327405447
H  H26  1  0.09040000  0.90120000  0.02970000  1.0 0.1327405447
H  H27  1  0.66360000  0.30310000  0.83980000  1.0 0.1398654642
H  H28  1  0.33640000  0.69690000  0.16020000  1.0 0.1398654642
H  H29  1  0.63820000  0.33220000  0.95040000  1.0 0.1398654642
H  H30  1  0.36180000  0.66780000  0.04960000  1.0 0.1398654642
H  H31  1  0.54870000  0.10700000  0.26120000  1.0 0.1559922347
H  H32  1  0.45130000  0.89300000  0.73880000  1.0 0.1559922347
H  H33  1  0.57770000  0.23930000  0.15920000  1.0 0.1559922347
H  H34  1  0.42230000  0.76070000  0.84080000  1.0 0.1559922347
H  H35  1  0.68590000  0.12800000  0.22240000  1.0 0.1398654642
H  H36  1  0.31410000  0.87200000  0.77760000  1.0 0.1398654642
H  H37  1  0.74030000  0.94130000  0.84880000  1.0 0.1505959997
H  H38  1  0.25970000  0.05870000  0.15120000  1.0 0.1505959997
H  H39  1  0.78550000  0.07280000  0.79900000  1.0 0.1505959997
H  H40  1  0.21450000  0.92720000  0.20100000  1.0 0.1505959997
H  H41  1  0.64700000  0.07790000  0.79800000  1.0 0.1559922347
H  H42  1  0.35300000  0.92210000  0.20200000  1.0 0.1559922347
C  C1  1  0.10770000  0.62990000  0.87290000  1.0 -0.4837633347
C  C2  1  0.89230000  0.37010000  0.12710000  1.0 -0.4837633347
C  C3  1  0.15080000  0.62020000  0.75930000  1.0 0.1983289147
C  C4  1  0.84920000  0.37980000  0.24070000  1.0 0.1983289147
C  C5  1  0.09220000  0.60140000  0.68970000  1.0 -0.0986346298
C  C6  1  0.90780000  0.39860000  0.31030000  1.0 -0.0986346298
C  C7  1  0.17730000  0.60610000  0.59060000  1.0 0.2058504696
C  C8  1  0.82270000  0.39390000  0.40940000  1.0 0.2058504696
C  C9  1  0.16560000  0.58830000  0.48690000  1.0 -0.4551179384
C  C10  1  0.83440000  0.41170000  0.51310000  1.0 -0.4551179384
C  C11  1  0.96280000  0.57380000  0.72190000  1.0 -0.2824685698
C  C12  1  0.03720000  0.42620000  0.27810000  1.0 -0.2824685698
C  C13  1  0.95530000  0.43430000  0.79370000  1.0 0.2602089743
C  C14  1  0.04470000  0.56570000  0.20630000  1.0 0.2602089743
C  C15  1  0.05900000  0.33200000  0.82920000  1.0 -0.1816872483
C  C16  1  0.94100000  0.66800000  0.17080000  1.0 -0.1816872483
C  C17  1  0.04030000  0.20670000  0.89740000  1.0 -0.0189589889
C  C18  1  0.95970000  0.79330000  0.10260000  1.0 -0.0189589889
C  C19  1  0.92220000  0.18410000  0.92580000  1.0 -0.1949337398
C  C20  1  0.07780000  0.81590000  0.07420000  1.0 -0.1949337398
C  C21  1  0.82380000  0.28690000  0.88850000  1.0 0.2521554256
C  C22  1  0.17620000  0.71310000  0.11150000  1.0 0.2521554256
C  C23  1  0.69090000  0.27360000  0.91340000  1.0 -0.2824685698
C  C24  1  0.30910000  0.72640000  0.08660000  1.0 -0.2824685698
C  C25  1  0.60930000  0.14540000  0.19590000  1.0 -0.4710976233
C  C26  1  0.39070000  0.85460000  0.80410000  1.0 -0.4710976233
C  C27  1  0.63360000  0.08650000  0.10990000  1.0 0.1876370782
C  C28  1  0.36640000  0.91350000  0.89010000  1.0 0.1876370782
C  C29  1  0.66980000  0.13460000  0.99100000  1.0 -0.0986346298
C  C30  1  0.33020000  0.86540000  0.00900000  1.0 -0.0986346298
C  C31  1  0.67760000  0.03410000  0.95780000  1.0 0.1876370782
C  C32  1  0.32240000  0.96590000  0.04220000  1.0 0.1876370782
C  C33  1  0.71600000  0.03130000  0.84050000  1.0 -0.4710976233
C  C34  1  0.28400000  0.96870000  0.15950000  1.0 -0.4710976233
C  C35  1  0.52070000  0.66870000  0.34150000  1.0 -0.0986346298
C  C36  1  0.47930000  0.33130000  0.65850000  1.0 -0.0986346298
C  C37  1  0.59000000  0.61010000  0.68400000  1.0 -0.1321994936
C  C38  1  0.41000000  0.38990000  0.31600000  1.0 -0.1321994936
C  C39  1  0.65710000  0.67590000  0.97640000  1.0 -0.0986346298
C  C40  1  0.34290000  0.32410000  0.02360000  1.0 -0.0986346298
N  N1  1  0.28430000  0.62520000  0.59410000  1.0 -0.2110992645
N  N2  1  0.71570000  0.37480000  0.40590000  1.0 -0.2110992645
N  N3  1  0.26420000  0.63620000  0.69870000  1.0 -0.1430208584
N  N4  1  0.73580000  0.36380000  0.30130000  1.0 -0.1430208584
N  N5  1  0.84020000  0.41040000  0.82460000  1.0 -0.2895072972
N  N6  1  0.15980000  0.58960000  0.17540000  1.0 -0.2895072972
N  N7  1  0.62080000  0.96340000  0.14180000  1.0 -0.1430208584
N  N8  1  0.37920000  0.03660000  0.85820000  1.0 -0.1430208584
N  N9  1  0.64850000  0.92840000  0.05030000  1.0 -0.2202911203
N  N10  1  0.35150000  0.07160000  0.94970000  1.0 -0.2202911203
N  N11  1  0.56280000  0.69500000  0.24550000  1.0 -0.3322496986
N  N12  1  0.43720000  0.30500000  0.75450000  1.0 -0.3322496986
N  N13  1  0.53590000  0.63100000  0.61390000  1.0 -0.2980753755
N  N14  1  0.46410000  0.36900000  0.38610000  1.0 -0.2980753755
N  N15  1  0.67190000  0.63230000  0.90740000  1.0 -0.3436533188
N  N16  1  0.32810000  0.36770000  0.09260000  1.0 -0.3436533188
