# DDEC6 charges by PACMAN v1.1 (https://github.com/mtap-research/PACMAN-charge/)
data_FIDHIM_ASR_pacman
_symmetry_space_group_name_H-M   'P 1'
_cell_length_a   14.62160000
_cell_length_b   20.81880000
_cell_length_c   27.00270000
_cell_angle_alpha   90.00000000
_cell_angle_beta   117.30000000
_cell_angle_gamma   90.00000000
_symmetry_Int_Tables_number   1
_chemical_formula_structural   Co6H30C59N4O21
_chemical_formula_sum   'Co24 H120 C236 N16 O84'
_cell_volume   7304.19761383
_cell_formula_units_Z   4
loop_
 _symmetry_equiv_pos_site_id
 _symmetry_equiv_pos_as_xyz
  1  'x, y, z'
loop_
 _atom_site_type_symbol
 _atom_site_label
 _atom_site_symmetry_multiplicity
 _atom_site_fract_x
 _atom_site_fract_y
 _atom_site_fract_z
 _atom_site_occupancy
 _atom_site_charge
Co  Co1  1  0.27394000  0.76412000  0.13092000  1.0 0.9517333308
Co  Co2  1  0.43499000  0.86275000  0.23384000  1.0 1.0064848015
Co  Co3  1  0.26009000  0.75968000  0.25066000  1.0 0.9651326338
Co  Co4  1  0.69317000  0.91021000  0.29809000  1.0 1.0772416244
Co  Co5  1  0.70127000  0.08366000  0.29732000  1.0 1.1853187034
Co  Co6  1  0.20990000  0.56470000  0.67640000  1.0 0.6435513
Co  Co7  1  0.72606000  0.26412000  0.36908000  1.0 0.9517333308
Co  Co8  1  0.56501000  0.36275000  0.26616000  1.0 1.0064848015
Co  Co9  1  0.73991000  0.25968000  0.24934000  1.0 0.9651326338
Co  Co10  1  0.30683000  0.41021000  0.20191000  1.0 1.0772416244
Co  Co11  1  0.29873000  0.58366000  0.20268000  1.0 1.1840607673
Co  Co12  1  0.79010000  0.06470000  0.82360000  1.0 0.6435513
Co  Co13  1  0.72606000  0.23588000  0.86908000  1.0 0.9517333308
Co  Co14  1  0.56501000  0.13725000  0.76616000  1.0 1.0064848015
Co  Co15  1  0.73991000  0.24032000  0.74934000  1.0 0.9651326338
Co  Co16  1  0.30683000  0.08979000  0.70191000  1.0 1.0772416244
Co  Co17  1  0.29873000  0.91634000  0.70268000  1.0 1.1840607673
Co  Co18  1  0.79010000  0.43530000  0.32360000  1.0 0.6435513
Co  Co19  1  0.27394000  0.73588000  0.63092000  1.0 0.9517333308
Co  Co20  1  0.43499000  0.63725000  0.73384000  1.0 1.0064848015
Co  Co21  1  0.26009000  0.74032000  0.75066000  1.0 0.9651326338
Co  Co22  1  0.69317000  0.58979000  0.79809000  1.0 1.0772416244
Co  Co23  1  0.70127000  0.41634000  0.79732000  1.0 1.1840607673
Co  Co24  1  0.20990000  0.93530000  0.17640000  1.0 0.6435513
H  H1  1  0.42740000  0.00130000  0.23500000  1.0 0.0938655908
H  H2  1  0.40520000  0.73870000  0.22550000  1.0 0.4000442574
H  H3  1  0.98680000  0.62100000  0.66420000  1.0 0.1203181807
H  H4  1  0.80950000  0.60200000  0.62680000  1.0 0.1388579795
H  H5  1  0.94540000  0.74220000  0.53870000  1.0 0.1388579795
H  H6  1  0.77500000  0.79120000  0.44150000  1.0 0.1294350457
H  H7  1  0.46360000  0.77440000  0.37440000  1.0 0.1294350457
H  H8  1  0.47690000  0.70320000  0.44500000  1.0 0.1203181807
H  H9  1  0.52270000  0.63190000  0.51200000  1.0 0.1133035386
H  H10  1  0.59830000  0.63500000  0.57760000  1.0 0.1133035386
H  H11  1  0.61040000  0.56440000  0.64190000  1.0 0.1203181807
H  H12  1  0.63120000  0.47450000  0.69860000  1.0 0.1203181807
H  H13  1  0.68440000  0.35840000  0.59500000  1.0 0.1203181807
H  H14  1  0.60160000  0.58960000  0.43660000  1.0 0.1203181807
H  H15  1  0.62810000  0.51680000  0.37820000  1.0 0.1203181807
H  H16  1  0.68000000  0.37150000  0.48810000  1.0 0.1294350457
H  H17  1  0.46500000  0.77190000  0.10690000  1.0 0.1203181807
H  H18  1  0.48090000  0.70400000  0.04250000  1.0 0.1294350457
H  H19  1  0.77520000  0.78010000  0.20010000  1.0 0.1294350457
H  H20  1  0.80670000  0.58820000  0.03350000  1.0 0.1203181807
H  H21  1  0.98470000  0.58850000  0.09380000  1.0 0.1294350457
H  H22  1  0.94840000  0.72070000  0.19400000  1.0 0.1203181807
H  H23  1  0.52490000  0.62740000  0.00120000  1.0 0.1203181807
H  H24  1  0.60420000  0.62960000  0.97550000  1.0 0.1203181807
H  H25  1  0.59730000  0.58340000  0.11420000  1.0 0.1294350457
H  H26  1  0.62380000  0.50940000  0.18490000  1.0 0.1203181807
H  H27  1  0.68810000  0.36610000  0.10340000  1.0 0.1388579795
H  H28  1  0.68850000  0.35410000  0.99730000  1.0 0.1203181807
H  H29  1  0.64700000  0.47570000  0.87140000  1.0 0.1203181807
H  H30  1  0.61790000  0.56240000  0.91700000  1.0 0.1294350457
H  H31  1  0.57260000  0.50130000  0.26500000  1.0 0.0938655908
H  H32  1  0.59480000  0.23870000  0.27450000  1.0 0.4000442574
H  H33  1  0.01320000  0.12100000  0.83580000  1.0 0.1203181807
H  H34  1  0.19050000  0.10200000  0.87320000  1.0 0.1388579795
H  H35  1  0.05460000  0.24220000  0.96130000  1.0 0.1388579795
H  H36  1  0.22500000  0.29120000  0.05850000  1.0 0.1294350457
H  H37  1  0.53640000  0.27440000  0.12560000  1.0 0.1294350457
H  H38  1  0.52310000  0.20320000  0.05500000  1.0 0.1294350457
H  H39  1  0.47730000  0.13190000  0.98800000  1.0 0.1133035386
H  H40  1  0.40170000  0.13500000  0.92240000  1.0 0.1133035386
H  H41  1  0.38960000  0.06440000  0.85810000  1.0 0.1203181807
H  H42  1  0.36880000  0.97450000  0.80140000  1.0 0.1203181807
H  H43  1  0.31560000  0.85840000  0.90500000  1.0 0.1203181807
H  H44  1  0.39840000  0.08960000  0.06340000  1.0 0.1203181807
H  H45  1  0.37190000  0.01680000  0.12180000  1.0 0.1203181807
H  H46  1  0.32000000  0.87150000  0.01190000  1.0 0.1294350457
H  H47  1  0.53500000  0.27190000  0.39310000  1.0 0.1203181807
H  H48  1  0.51910000  0.20400000  0.45750000  1.0 0.1294350457
H  H49  1  0.22480000  0.28010000  0.29990000  1.0 0.1294350457
H  H50  1  0.19330000  0.08820000  0.46650000  1.0 0.1203181807
H  H51  1  0.01530000  0.08850000  0.40620000  1.0 0.1294350457
H  H52  1  0.05160000  0.22070000  0.30600000  1.0 0.1203181807
H  H53  1  0.47510000  0.12740000  0.49880000  1.0 0.1203181807
H  H54  1  0.39580000  0.12960000  0.52450000  1.0 0.1133035386
H  H55  1  0.40270000  0.08340000  0.38580000  1.0 0.1294350457
H  H56  1  0.37620000  0.00940000  0.31510000  1.0 0.1203181807
H  H57  1  0.31190000  0.86610000  0.39660000  1.0 0.1388579795
H  H58  1  0.31150000  0.85410000  0.50270000  1.0 0.1203181807
H  H59  1  0.35300000  0.97570000  0.62860000  1.0 0.1203181807
H  H60  1  0.38210000  0.06240000  0.58300000  1.0 0.1294350457
H  H61  1  0.57260000  0.99870000  0.76500000  1.0 0.0938655908
H  H62  1  0.59480000  0.26130000  0.77450000  1.0 0.4000442574
H  H63  1  0.01320000  0.37900000  0.33580000  1.0 0.1203181807
H  H64  1  0.19050000  0.39800000  0.37320000  1.0 0.1388579795
H  H65  1  0.05460000  0.25780000  0.46130000  1.0 0.1388579795
H  H66  1  0.22500000  0.20880000  0.55850000  1.0 0.1294350457
H  H67  1  0.53640000  0.22560000  0.62560000  1.0 0.1294350457
H  H68  1  0.52310000  0.29680000  0.55500000  1.0 0.1203181807
H  H69  1  0.47730000  0.36810000  0.48800000  1.0 0.1133035386
H  H70  1  0.40170000  0.36500000  0.42240000  1.0 0.1133035386
H  H71  1  0.38960000  0.43560000  0.35810000  1.0 0.1203181807
H  H72  1  0.36880000  0.52550000  0.30140000  1.0 0.1203181807
H  H73  1  0.31560000  0.64160000  0.40500000  1.0 0.1203181807
H  H74  1  0.39840000  0.41040000  0.56340000  1.0 0.1203181807
H  H75  1  0.37190000  0.48320000  0.62180000  1.0 0.1203181807
H  H76  1  0.32000000  0.62850000  0.51190000  1.0 0.1294350457
H  H77  1  0.53500000  0.22810000  0.89310000  1.0 0.1203181807
H  H78  1  0.51910000  0.29600000  0.95750000  1.0 0.1294350457
H  H79  1  0.22480000  0.21990000  0.79990000  1.0 0.1294350457
H  H80  1  0.19330000  0.41180000  0.96650000  1.0 0.1203181807
H  H81  1  0.01530000  0.41150000  0.90620000  1.0 0.1294350457
H  H82  1  0.05160000  0.27930000  0.80600000  1.0 0.1203181807
H  H83  1  0.47510000  0.37260000  0.99880000  1.0 0.1203181807
H  H84  1  0.39580000  0.37040000  0.02450000  1.0 0.1133035386
H  H85  1  0.40270000  0.41660000  0.88580000  1.0 0.1294350457
H  H86  1  0.37620000  0.49060000  0.81510000  1.0 0.1203181807
H  H87  1  0.31190000  0.63390000  0.89660000  1.0 0.1388579795
H  H88  1  0.31150000  0.64590000  0.00270000  1.0 0.1203181807
H  H89  1  0.35300000  0.52430000  0.12860000  1.0 0.1203181807
H  H90  1  0.38210000  0.43760000  0.08300000  1.0 0.1294350457
H  H91  1  0.42740000  0.49870000  0.73500000  1.0 0.0938655908
H  H92  1  0.40520000  0.76130000  0.72550000  1.0 0.4000442574
H  H93  1  0.98680000  0.87900000  0.16420000  1.0 0.1203181807
H  H94  1  0.80950000  0.89800000  0.12680000  1.0 0.1388579795
H  H95  1  0.94540000  0.75780000  0.03870000  1.0 0.1388579795
H  H96  1  0.77500000  0.70880000  0.94150000  1.0 0.1294350457
H  H97  1  0.46360000  0.72560000  0.87440000  1.0 0.1294350457
H  H98  1  0.47690000  0.79680000  0.94500000  1.0 0.1294350457
H  H99  1  0.52270000  0.86810000  0.01200000  1.0 0.1133035386
H  H100  1  0.59830000  0.86500000  0.07760000  1.0 0.1133035386
H  H101  1  0.61040000  0.93560000  0.14190000  1.0 0.1203181807
H  H102  1  0.63120000  0.02550000  0.19860000  1.0 0.1203181807
H  H103  1  0.68440000  0.14160000  0.09500000  1.0 0.1203181807
H  H104  1  0.60160000  0.91040000  0.93660000  1.0 0.1203181807
H  H105  1  0.62810000  0.98320000  0.87820000  1.0 0.1203181807
H  H106  1  0.68000000  0.12850000  0.98810000  1.0 0.1294350457
H  H107  1  0.46500000  0.72810000  0.60690000  1.0 0.1203181807
H  H108  1  0.48090000  0.79600000  0.54250000  1.0 0.1294350457
H  H109  1  0.77520000  0.71990000  0.70010000  1.0 0.1294350457
H  H110  1  0.80670000  0.91180000  0.53350000  1.0 0.1203181807
H  H111  1  0.98470000  0.91150000  0.59380000  1.0 0.1294350457
H  H112  1  0.94840000  0.77930000  0.69400000  1.0 0.1203181807
H  H113  1  0.52490000  0.87260000  0.50120000  1.0 0.1203181807
H  H114  1  0.60420000  0.87040000  0.47550000  1.0 0.1133035386
H  H115  1  0.59730000  0.91660000  0.61420000  1.0 0.1294350457
H  H116  1  0.62380000  0.99060000  0.68490000  1.0 0.1203181807
H  H117  1  0.68810000  0.13390000  0.60340000  1.0 0.1388579795
H  H118  1  0.68850000  0.14590000  0.49730000  1.0 0.1203181807
H  H119  1  0.64700000  0.02430000  0.37140000  1.0 0.1203181807
H  H120  1  0.61790000  0.93760000  0.41700000  1.0 0.1294350457
C  C1  1  0.50040000  0.99880000  0.25290000  1.0 0.4833199779
C  C2  1  0.09460000  0.69690000  0.63210000  1.0 0.4833199779
C  C3  1  0.98200000  0.68320000  0.60550000  1.0 -0.0608341605
C  C4  1  0.94110000  0.64220000  0.63070000  1.0 -0.1186368153
C  C5  1  0.83600000  0.63060000  0.60910000  1.0 -0.1887993788
C  C6  1  0.77190000  0.66280000  0.56060000  1.0 0.1388579795
C  C7  1  0.81190000  0.70390000  0.53310000  1.0 -0.022346064
C  C8  1  0.91780000  0.71430000  0.55630000  1.0 -0.1108526571
C  C9  1  0.72390000  0.73030000  0.48550000  1.0 -0.022346064
C  C10  1  0.71590000  0.77300000  0.44210000  1.0 -0.1574968128
C  C11  1  0.61700000  0.78620000  0.40100000  1.0 -0.022346064
C  C12  1  0.60310000  0.82730000  0.35150000  1.0 0.5884513283
C  C13  1  0.52960000  0.76210000  0.40260000  1.0 -0.1108526571
C  C14  1  0.53650000  0.72040000  0.44440000  1.0 -0.2113713076
C  C15  1  0.63400000  0.70520000  0.48510000  1.0 0.1203181807
C  C16  1  0.59400000  0.62360000  0.54100000  1.0 -0.0061038994
C  C17  1  0.63230000  0.51250000  0.58180000  1.0 0.1294350457
C  C18  1  0.62400000  0.52300000  0.63190000  1.0 -0.1992836589
C  C19  1  0.63670000  0.46940000  0.66510000  1.0 -0.0813552964
C  C20  1  0.65720000  0.40870000  0.65150000  1.0 -0.0312521703
C  C21  1  0.66860000  0.35280000  0.68920000  1.0 0.5797113353
C  C22  1  0.66750000  0.39960000  0.60360000  1.0 -0.1490914991
C  C23  1  0.65280000  0.45130000  0.56800000  1.0 -0.0312521703
C  C24  1  0.65150000  0.45860000  0.51450000  1.0 -0.0312521703
C  C25  1  0.62860000  0.52300000  0.49740000  1.0 0.1203181807
C  C26  1  0.61840000  0.54600000  0.44710000  1.0 -0.1763105741
C  C27  1  0.63370000  0.50260000  0.41290000  1.0 -0.1108526571
C  C28  1  0.65760000  0.43810000  0.42840000  1.0 -0.0312521703
C  C29  1  0.66540000  0.41550000  0.47830000  1.0 -0.1574968128
C  C30  1  0.67190000  0.39300000  0.38910000  1.0 0.5884513283
C  C31  1  0.60350000  0.82280000  0.20070000  1.0 0.5962678144
C  C32  1  0.61910000  0.78140000  0.15960000  1.0 -0.0312521703
C  C33  1  0.53140000  0.75880000  0.11260000  1.0 -0.1108526571
C  C34  1  0.53990000  0.71800000  0.07490000  1.0 -0.1992836589
C  C35  1  0.63670000  0.69830000  0.08580000  1.0 0.1133035386
C  C36  1  0.72720000  0.72040000  0.13240000  1.0 -0.022346064
C  C37  1  0.71620000  0.76340000  0.16900000  1.0 -0.1490914991
C  C38  1  0.81380000  0.68970000  0.12990000  1.0 -0.022346064
C  C39  1  0.77300000  0.65070000  0.08210000  1.0 0.1294350457
C  C40  1  0.83500000  0.61340000  0.06650000  1.0 -0.1992836589
C  C41  1  0.94070000  0.61530000  0.10190000  1.0 -0.1003060479
C  C42  1  0.98370000  0.65430000  0.14800000  1.0 -0.0312521703
C  C43  1  0.91940000  0.69310000  0.16250000  1.0 -0.1490914991
C  C44  1  0.09910000  0.65860000  0.18220000  1.0 0.5884513283
C  C45  1  0.59670000  0.61790000  0.00900000  1.0 -0.0061038994
C  C46  1  0.62650000  0.51730000  0.06590000  1.0 0.1388579795
C  C47  1  0.61520000  0.54000000  0.11180000  1.0 -0.1887993788
C  C48  1  0.63170000  0.49590000  0.15350000  1.0 -0.1003060479
C  C49  1  0.66000000  0.43120000  0.15110000  1.0 -0.0398092491
C  C50  1  0.66980000  0.40950000  0.10540000  1.0 -0.1412316388
C  C51  1  0.65290000  0.45160000  0.06300000  1.0 -0.0312521703
C  C52  1  0.67790000  0.38750000  0.19820000  1.0 0.5884513283
C  C53  1  0.65620000  0.44690000  0.00960000  1.0 -0.0312521703
C  C54  1  0.67390000  0.39580000  0.98130000  1.0 -0.1574968128
C  C55  1  0.67000000  0.40690000  0.92960000  1.0 -0.0312521703
C  C56  1  0.64910000  0.46910000  0.90670000  1.0 -0.0813552964
C  C57  1  0.63130000  0.52070000  0.93300000  1.0 -0.1992836589
C  C58  1  0.63430000  0.50860000  0.98460000  1.0 0.1203181807
C  C59  1  0.68700000  0.35260000  0.89820000  1.0 0.5797113353
C  C60  1  0.49960000  0.49880000  0.24710000  1.0 0.4833199779
C  C61  1  0.90540000  0.19690000  0.86790000  1.0 0.4833199779
C  C62  1  0.01800000  0.18320000  0.89450000  1.0 -0.0608341605
C  C63  1  0.05890000  0.14220000  0.86930000  1.0 -0.1186368153
C  C64  1  0.16400000  0.13060000  0.89090000  1.0 -0.1887993788
C  C65  1  0.22810000  0.16280000  0.93940000  1.0 0.1388579795
C  C66  1  0.18810000  0.20390000  0.96690000  1.0 -0.022346064
C  C67  1  0.08220000  0.21430000  0.94370000  1.0 -0.1108526571
C  C68  1  0.27610000  0.23030000  0.01450000  1.0 -0.022346064
C  C69  1  0.28410000  0.27300000  0.05790000  1.0 -0.1574968128
C  C70  1  0.38300000  0.28620000  0.09900000  1.0 -0.022346064
C  C71  1  0.39690000  0.32730000  0.14850000  1.0 0.5884513283
C  C72  1  0.47040000  0.26210000  0.09740000  1.0 -0.1108526571
C  C73  1  0.46350000  0.22040000  0.05560000  1.0 -0.2113713076
C  C74  1  0.36600000  0.20520000  0.01490000  1.0 0.1203181807
C  C75  1  0.40600000  0.12360000  0.95900000  1.0 -0.0061038994
C  C76  1  0.36770000  0.01250000  0.91820000  1.0 0.1294350457
C  C77  1  0.37600000  0.02300000  0.86810000  1.0 -0.1992836589
C  C78  1  0.36330000  0.96940000  0.83490000  1.0 -0.0813552964
C  C79  1  0.34280000  0.90870000  0.84850000  1.0 -0.0312521703
C  C80  1  0.33140000  0.85280000  0.81080000  1.0 0.5797113353
C  C81  1  0.33250000  0.89960000  0.89640000  1.0 -0.1574968128
C  C82  1  0.34720000  0.95130000  0.93200000  1.0 -0.0312521703
C  C83  1  0.34850000  0.95860000  0.98550000  1.0 -0.0312521703
C  C84  1  0.37140000  0.02300000  0.00260000  1.0 0.1203181807
C  C85  1  0.38160000  0.04600000  0.05290000  1.0 -0.1763105741
C  C86  1  0.36630000  0.00260000  0.08710000  1.0 -0.1108526571
C  C87  1  0.34240000  0.93810000  0.07160000  1.0 -0.0312521703
C  C88  1  0.33460000  0.91550000  0.02170000  1.0 -0.1574968128
C  C89  1  0.32810000  0.89300000  0.11090000  1.0 0.5884513283
C  C90  1  0.39650000  0.32280000  0.29930000  1.0 0.5962678144
C  C91  1  0.38090000  0.28140000  0.34040000  1.0 -0.0312521703
C  C92  1  0.46860000  0.25880000  0.38740000  1.0 -0.1108526571
C  C93  1  0.46010000  0.21800000  0.42510000  1.0 -0.1992836589
C  C94  1  0.36330000  0.19830000  0.41420000  1.0 0.1133035386
C  C95  1  0.27280000  0.22040000  0.36760000  1.0 -0.022346064
C  C96  1  0.28380000  0.26340000  0.33100000  1.0 -0.1490914991
C  C97  1  0.18620000  0.18970000  0.37010000  1.0 -0.022346064
C  C98  1  0.22700000  0.15070000  0.41790000  1.0 0.1294350457
C  C99  1  0.16500000  0.11340000  0.43350000  1.0 -0.1992836589
C  C100  1  0.05930000  0.11530000  0.39810000  1.0 -0.1003060479
C  C101  1  0.01630000  0.15430000  0.35200000  1.0 -0.0312521703
C  C102  1  0.08060000  0.19310000  0.33750000  1.0 -0.1490914991
C  C103  1  0.90090000  0.15860000  0.31780000  1.0 0.5884513283
C  C104  1  0.40330000  0.11790000  0.49100000  1.0 -0.0061038994
C  C105  1  0.37350000  0.01730000  0.43410000  1.0 0.1388579795
C  C106  1  0.38480000  0.04000000  0.38820000  1.0 -0.1887993788
C  C107  1  0.36830000  0.99590000  0.34650000  1.0 -0.1003060479
C  C108  1  0.34000000  0.93120000  0.34890000  1.0 -0.0398092491
C  C109  1  0.33020000  0.90950000  0.39460000  1.0 -0.1412316388
C  C110  1  0.34710000  0.95160000  0.43700000  1.0 -0.0312521703
C  C111  1  0.32210000  0.88750000  0.30180000  1.0 0.5884513283
C  C112  1  0.34380000  0.94690000  0.49040000  1.0 -0.0312521703
C  C113  1  0.32610000  0.89580000  0.51870000  1.0 -0.1574968128
C  C114  1  0.33000000  0.90690000  0.57040000  1.0 -0.0312521703
C  C115  1  0.35090000  0.96910000  0.59330000  1.0 -0.0813552964
C  C116  1  0.36870000  0.02070000  0.56700000  1.0 -0.1992836589
C  C117  1  0.36570000  0.00860000  0.51540000  1.0 0.1203181807
C  C118  1  0.31300000  0.85260000  0.60180000  1.0 0.5797113353
C  C119  1  0.49960000  0.00120000  0.74710000  1.0 0.4833199779
C  C120  1  0.90540000  0.30310000  0.36790000  1.0 0.4833199779
C  C121  1  0.01800000  0.31680000  0.39450000  1.0 -0.0608341605
C  C122  1  0.05890000  0.35780000  0.36930000  1.0 -0.1186368153
C  C123  1  0.16400000  0.36940000  0.39090000  1.0 -0.1887993788
C  C124  1  0.22810000  0.33720000  0.43940000  1.0 0.1388579795
C  C125  1  0.18810000  0.29610000  0.46690000  1.0 -0.022346064
C  C126  1  0.08220000  0.28570000  0.44370000  1.0 -0.1108526571
C  C127  1  0.27610000  0.26970000  0.51450000  1.0 -0.022346064
C  C128  1  0.28410000  0.22700000  0.55790000  1.0 -0.1574968128
C  C129  1  0.38300000  0.21380000  0.59900000  1.0 -0.022346064
C  C130  1  0.39690000  0.17270000  0.64850000  1.0 0.5884513283
C  C131  1  0.47040000  0.23790000  0.59740000  1.0 -0.1108526571
C  C132  1  0.46350000  0.27960000  0.55560000  1.0 -0.2113713076
C  C133  1  0.36600000  0.29480000  0.51490000  1.0 0.1203181807
C  C134  1  0.40600000  0.37640000  0.45900000  1.0 -0.0061038994
C  C135  1  0.36770000  0.48750000  0.41820000  1.0 0.1294350457
C  C136  1  0.37600000  0.47700000  0.36810000  1.0 -0.1992836589
C  C137  1  0.36330000  0.53060000  0.33490000  1.0 -0.0813552964
C  C138  1  0.34280000  0.59130000  0.34850000  1.0 -0.0312521703
C  C139  1  0.33140000  0.64720000  0.31080000  1.0 0.5797113353
C  C140  1  0.33250000  0.60040000  0.39640000  1.0 -0.1574968128
C  C141  1  0.34720000  0.54870000  0.43200000  1.0 -0.0312521703
C  C142  1  0.34850000  0.54140000  0.48550000  1.0 -0.0312521703
C  C143  1  0.37140000  0.47700000  0.50260000  1.0 0.1203181807
C  C144  1  0.38160000  0.45400000  0.55290000  1.0 -0.1763105741
C  C145  1  0.36630000  0.49740000  0.58710000  1.0 -0.1108526571
C  C146  1  0.34240000  0.56190000  0.57160000  1.0 -0.0312521703
C  C147  1  0.33460000  0.58450000  0.52170000  1.0 -0.1574968128
C  C148  1  0.32810000  0.60700000  0.61090000  1.0 0.5884513283
C  C149  1  0.39650000  0.17720000  0.79930000  1.0 0.5962678144
C  C150  1  0.38090000  0.21860000  0.84040000  1.0 -0.0312521703
C  C151  1  0.46860000  0.24120000  0.88740000  1.0 -0.1108526571
C  C152  1  0.46010000  0.28200000  0.92510000  1.0 -0.1992836589
C  C153  1  0.36330000  0.30170000  0.91420000  1.0 0.1133035386
C  C154  1  0.27280000  0.27960000  0.86760000  1.0 -0.022346064
C  C155  1  0.28380000  0.23660000  0.83100000  1.0 -0.1490914991
C  C156  1  0.18620000  0.31030000  0.87010000  1.0 -0.022346064
C  C157  1  0.22700000  0.34930000  0.91790000  1.0 0.1294350457
C  C158  1  0.16500000  0.38660000  0.93350000  1.0 -0.1992836589
C  C159  1  0.05930000  0.38470000  0.89810000  1.0 -0.1003060479
C  C160  1  0.01630000  0.34570000  0.85200000  1.0 -0.0312521703
C  C161  1  0.08060000  0.30690000  0.83750000  1.0 -0.1490914991
C  C162  1  0.90090000  0.34140000  0.81780000  1.0 0.5884513283
C  C163  1  0.40330000  0.38210000  0.99100000  1.0 -0.0061038994
C  C164  1  0.37350000  0.48270000  0.93410000  1.0 0.1388579795
C  C165  1  0.38480000  0.46000000  0.88820000  1.0 -0.1887993788
C  C166  1  0.36830000  0.50410000  0.84650000  1.0 -0.1003060479
C  C167  1  0.34000000  0.56880000  0.84890000  1.0 -0.0398092491
C  C168  1  0.33020000  0.59050000  0.89460000  1.0 -0.1412316388
C  C169  1  0.34710000  0.54840000  0.93700000  1.0 -0.0312521703
C  C170  1  0.32210000  0.61250000  0.80180000  1.0 0.5884513283
C  C171  1  0.34380000  0.55310000  0.99040000  1.0 -0.0312521703
C  C172  1  0.32610000  0.60420000  0.01870000  1.0 -0.1574968128
C  C173  1  0.33000000  0.59310000  0.07040000  1.0 -0.0312521703
C  C174  1  0.35090000  0.53090000  0.09330000  1.0 -0.0813552964
C  C175  1  0.36870000  0.47930000  0.06700000  1.0 -0.1992836589
C  C176  1  0.36570000  0.49140000  0.01540000  1.0 0.1203181807
C  C177  1  0.31300000  0.64740000  0.10180000  1.0 0.5797113353
C  C178  1  0.50040000  0.50120000  0.75290000  1.0 0.4833199779
C  C179  1  0.09460000  0.80310000  0.13210000  1.0 0.4833199779
C  C180  1  0.98200000  0.81680000  0.10550000  1.0 -0.0608341605
C  C181  1  0.94110000  0.85780000  0.13070000  1.0 -0.1186368153
C  C182  1  0.83600000  0.86940000  0.10910000  1.0 -0.1887993788
C  C183  1  0.77190000  0.83720000  0.06060000  1.0 0.1388579795
C  C184  1  0.81190000  0.79610000  0.03310000  1.0 -0.022346064
C  C185  1  0.91780000  0.78570000  0.05630000  1.0 -0.1108526571
C  C186  1  0.72390000  0.76970000  0.98550000  1.0 -0.022346064
C  C187  1  0.71590000  0.72700000  0.94210000  1.0 -0.1574968128
C  C188  1  0.61700000  0.71380000  0.90100000  1.0 -0.022346064
C  C189  1  0.60310000  0.67270000  0.85150000  1.0 0.5884513283
C  C190  1  0.52960000  0.73790000  0.90260000  1.0 -0.1108526571
C  C191  1  0.53650000  0.77960000  0.94440000  1.0 -0.2113713076
C  C192  1  0.63400000  0.79480000  0.98510000  1.0 0.1203181807
C  C193  1  0.59400000  0.87640000  0.04100000  1.0 -0.0061038994
C  C194  1  0.63230000  0.98750000  0.08180000  1.0 0.1294350457
C  C195  1  0.62400000  0.97700000  0.13190000  1.0 -0.1992836589
C  C196  1  0.63670000  0.03060000  0.16510000  1.0 -0.0813552964
C  C197  1  0.65720000  0.09130000  0.15150000  1.0 -0.0312521703
C  C198  1  0.66860000  0.14720000  0.18920000  1.0 0.5797113353
C  C199  1  0.66750000  0.10040000  0.10360000  1.0 -0.1490914991
C  C200  1  0.65280000  0.04870000  0.06800000  1.0 -0.0312521703
C  C201  1  0.65150000  0.04140000  0.01450000  1.0 -0.0312521703
C  C202  1  0.62860000  0.97700000  0.99740000  1.0 0.1203181807
C  C203  1  0.61840000  0.95400000  0.94710000  1.0 -0.1763105741
C  C204  1  0.63370000  0.99740000  0.91290000  1.0 -0.1108526571
C  C205  1  0.65760000  0.06190000  0.92840000  1.0 -0.0312521703
C  C206  1  0.66540000  0.08450000  0.97830000  1.0 -0.1574968128
C  C207  1  0.67190000  0.10700000  0.88910000  1.0 0.5884513283
C  C208  1  0.60350000  0.67720000  0.70070000  1.0 0.5962678144
C  C209  1  0.61910000  0.71860000  0.65960000  1.0 -0.0312521703
C  C210  1  0.53140000  0.74120000  0.61260000  1.0 -0.1108526571
C  C211  1  0.53990000  0.78200000  0.57490000  1.0 -0.1992836589
C  C212  1  0.63670000  0.80170000  0.58580000  1.0 0.1133035386
C  C213  1  0.72720000  0.77960000  0.63240000  1.0 -0.022346064
C  C214  1  0.71620000  0.73660000  0.66900000  1.0 -0.1490914991
C  C215  1  0.81380000  0.81030000  0.62990000  1.0 -0.022346064
C  C216  1  0.77300000  0.84930000  0.58210000  1.0 0.1294350457
C  C217  1  0.83500000  0.88660000  0.56650000  1.0 -0.1992836589
C  C218  1  0.94070000  0.88470000  0.60190000  1.0 -0.1003060479
C  C219  1  0.98370000  0.84570000  0.64800000  1.0 -0.0312521703
C  C220  1  0.91940000  0.80690000  0.66250000  1.0 -0.1490914991
C  C221  1  0.09910000  0.84140000  0.68220000  1.0 0.5884513283
C  C222  1  0.59670000  0.88210000  0.50900000  1.0 -0.0061038994
C  C223  1  0.62650000  0.98270000  0.56590000  1.0 0.1388579795
C  C224  1  0.61520000  0.96000000  0.61180000  1.0 -0.1887993788
C  C225  1  0.63170000  0.00410000  0.65350000  1.0 -0.1003060479
C  C226  1  0.66000000  0.06880000  0.65110000  1.0 -0.0398092491
C  C227  1  0.66980000  0.09050000  0.60540000  1.0 -0.1412316388
C  C228  1  0.65290000  0.04840000  0.56300000  1.0 -0.0312521703
C  C229  1  0.67790000  0.11250000  0.69820000  1.0 0.5884513283
C  C230  1  0.65620000  0.05310000  0.50960000  1.0 -0.0312521703
C  C231  1  0.67390000  0.10420000  0.48130000  1.0 -0.1574968128
C  C232  1  0.67000000  0.09310000  0.42960000  1.0 -0.0312521703
C  C233  1  0.64910000  0.03090000  0.40670000  1.0 -0.0813552964
C  C234  1  0.63130000  0.97930000  0.43300000  1.0 -0.1992836589
C  C235  1  0.63430000  0.99140000  0.48460000  1.0 0.1203181807
C  C236  1  0.68700000  0.14740000  0.39820000  1.0 0.5797113353
N  N1  1  0.66550000  0.66370000  0.53040000  1.0 -0.1003060479
N  N2  1  0.61770000  0.55580000  0.54060000  1.0 -0.1108526571
N  N3  1  0.66630000  0.65610000  0.05550000  1.0 -0.1186368153
N  N4  1  0.61600000  0.54940000  0.01960000  1.0 -0.0886524966
N  N5  1  0.33450000  0.16370000  0.96960000  1.0 -0.1003060479
N  N6  1  0.38230000  0.05580000  0.95940000  1.0 -0.1108526571
N  N7  1  0.33370000  0.15610000  0.44450000  1.0 -0.1186368153
N  N8  1  0.38400000  0.04940000  0.48040000  1.0 -0.0886524966
N  N9  1  0.33450000  0.33630000  0.46960000  1.0 -0.1003060479
N  N10  1  0.38230000  0.44420000  0.45940000  1.0 -0.1108526571
N  N11  1  0.33370000  0.34390000  0.94450000  1.0 -0.1186368153
N  N12  1  0.38400000  0.45060000  0.98040000  1.0 -0.0886524966
N  N13  1  0.66550000  0.83630000  0.03040000  1.0 -0.1003060479
N  N14  1  0.61770000  0.94420000  0.04060000  1.0 -0.1108526571
N  N15  1  0.66630000  0.84390000  0.55550000  1.0 -0.1186368153
N  N16  1  0.61600000  0.95060000  0.51960000  1.0 -0.0886524966
O  O1  1  0.54760000  0.05040000  0.26670000  1.0 -0.4830870082
O  O2  1  0.75070000  0.99590000  0.31040000  1.0 -0.8824731311
O  O3  1  0.35190000  0.77120000  0.21400000  1.0 -0.8850022008
O  O4  1  0.53900000  0.94300000  0.26020000  1.0 -0.5602352371
O  O5  1  0.14970000  0.67330000  0.68110000  1.0 -0.1003060479
O  O6  1  0.12580000  0.73500000  0.60580000  1.0 -0.4986582597
O  O7  1  0.67810000  0.86060000  0.35720000  1.0 -0.5740397026
O  O8  1  0.51770000  0.82110000  0.30940000  1.0 -0.5505023723
O  O9  1  0.64850000  0.36080000  0.73010000  1.0 -0.6003276756
O  O10  1  0.69090000  0.29890000  0.67870000  1.0 -0.4986582597
O  O11  1  0.70170000  0.33680000  0.40820000  1.0 -0.5392119637
O  O12  1  0.65450000  0.41140000  0.34140000  1.0 -0.6138732484
O  O13  1  0.51550000  0.82160000  0.19760000  1.0 -0.5602352371
O  O14  1  0.68010000  0.85500000  0.23570000  1.0 -0.593289877
O  O15  1  0.13330000  0.70580000  0.21390000  1.0 -0.5818882336
O  O16  1  0.14940000  0.61370000  0.17470000  1.0 -0.5505023723
O  O17  1  0.65570000  0.40760000  0.23600000  1.0 -0.6295528462
O  O18  1  0.71550000  0.33320000  0.19800000  1.0 -0.5392119637
O  O19  1  0.70060000  0.29650000  0.91910000  1.0 -0.5307130268
O  O20  1  0.68520000  0.36220000  0.85150000  1.0 -0.593289877
O  O21  1  0.16530000  0.65770000  0.66330000  1.0 -0.0484356657
O  O22  1  0.45240000  0.55040000  0.23330000  1.0 -0.4830870082
O  O23  1  0.24930000  0.49590000  0.18960000  1.0 -0.8824731311
O  O24  1  0.64810000  0.27120000  0.28600000  1.0 -0.8850022008
O  O25  1  0.46100000  0.44300000  0.23980000  1.0 -0.5602352371
O  O26  1  0.85030000  0.17330000  0.81890000  1.0 -0.1003060479
O  O27  1  0.87420000  0.23500000  0.89420000  1.0 -0.4986582597
O  O28  1  0.32190000  0.36060000  0.14280000  1.0 -0.5740397026
O  O29  1  0.48230000  0.32110000  0.19060000  1.0 -0.5505023723
O  O30  1  0.35150000  0.86080000  0.76990000  1.0 -0.6003276756
O  O31  1  0.30910000  0.79890000  0.82130000  1.0 -0.4986582597
O  O32  1  0.29830000  0.83680000  0.09180000  1.0 -0.5392119637
O  O33  1  0.34550000  0.91140000  0.15860000  1.0 -0.6138732484
O  O34  1  0.48450000  0.32160000  0.30240000  1.0 -0.5602352371
O  O35  1  0.31990000  0.35500000  0.26430000  1.0 -0.6003276756
O  O36  1  0.86670000  0.20580000  0.28610000  1.0 -0.5818882336
O  O37  1  0.85060000  0.11370000  0.32530000  1.0 -0.5505023723
O  O38  1  0.34430000  0.90760000  0.26400000  1.0 -0.6295528462
O  O39  1  0.28450000  0.83320000  0.30200000  1.0 -0.5392119637
O  O40  1  0.29940000  0.79650000  0.58090000  1.0 -0.5307130268
O  O41  1  0.31480000  0.86220000  0.64850000  1.0 -0.593289877
O  O42  1  0.83470000  0.15770000  0.83670000  1.0 -0.0484356657
O  O43  1  0.45240000  0.94960000  0.73330000  1.0 -0.4830870082
O  O44  1  0.24930000  0.00410000  0.68960000  1.0 -0.8824731311
O  O45  1  0.64810000  0.22880000  0.78600000  1.0 -0.8850022008
O  O46  1  0.46100000  0.05700000  0.73980000  1.0 -0.5602352371
O  O47  1  0.85030000  0.32670000  0.31890000  1.0 -0.1003060479
O  O48  1  0.87420000  0.26500000  0.39420000  1.0 -0.4986582597
O  O49  1  0.32190000  0.13940000  0.64280000  1.0 -0.5740397026
O  O50  1  0.48230000  0.17890000  0.69060000  1.0 -0.5505023723
O  O51  1  0.35150000  0.63920000  0.26990000  1.0 -0.6003276756
O  O52  1  0.30910000  0.70110000  0.32130000  1.0 -0.4986582597
O  O53  1  0.29830000  0.66320000  0.59180000  1.0 -0.5392119637
O  O54  1  0.34550000  0.58860000  0.65860000  1.0 -0.6138732484
O  O55  1  0.48450000  0.17840000  0.80240000  1.0 -0.5602352371
O  O56  1  0.31990000  0.14500000  0.76430000  1.0 -0.593289877
O  O57  1  0.86670000  0.29420000  0.78610000  1.0 -0.5818882336
O  O58  1  0.85060000  0.38630000  0.82530000  1.0 -0.5505023723
O  O59  1  0.34430000  0.59240000  0.76400000  1.0 -0.6295528462
O  O60  1  0.28450000  0.66680000  0.80200000  1.0 -0.5392119637
O  O61  1  0.29940000  0.70350000  0.08090000  1.0 -0.5307130268
O  O62  1  0.31480000  0.63780000  0.14850000  1.0 -0.593289877
O  O63  1  0.83470000  0.34230000  0.33670000  1.0 -0.0398092491
O  O64  1  0.54760000  0.44960000  0.76670000  1.0 -0.4830870082
O  O65  1  0.75070000  0.50410000  0.81040000  1.0 -0.8824731311
O  O66  1  0.35190000  0.72880000  0.71400000  1.0 -0.8850022008
O  O67  1  0.53900000  0.55700000  0.76020000  1.0 -0.5602352371
O  O68  1  0.14970000  0.82670000  0.18110000  1.0 -0.1003060479
O  O69  1  0.12580000  0.76500000  0.10580000  1.0 -0.4986582597
O  O70  1  0.67810000  0.63940000  0.85720000  1.0 -0.5740397026
O  O71  1  0.51770000  0.67890000  0.80940000  1.0 -0.5505023723
O  O72  1  0.64850000  0.13920000  0.23010000  1.0 -0.6003276756
O  O73  1  0.69090000  0.20110000  0.17870000  1.0 -0.4986582597
O  O74  1  0.70170000  0.16320000  0.90820000  1.0 -0.5392119637
O  O75  1  0.65450000  0.08860000  0.84140000  1.0 -0.6138732484
O  O76  1  0.51550000  0.67840000  0.69760000  1.0 -0.5602352371
O  O77  1  0.68010000  0.64500000  0.73570000  1.0 -0.6003276756
O  O78  1  0.13330000  0.79420000  0.71390000  1.0 -0.5818882336
O  O79  1  0.14940000  0.88630000  0.67470000  1.0 -0.5505023723
O  O80  1  0.65570000  0.09240000  0.73600000  1.0 -0.6295528462
O  O81  1  0.71550000  0.16680000  0.69800000  1.0 -0.5392119637
O  O82  1  0.70060000  0.20350000  0.41910000  1.0 -0.5307130268
O  O83  1  0.68520000  0.13780000  0.35150000  1.0 -0.593289877
O  O84  1  0.16530000  0.84230000  0.16330000  1.0 -0.0484356657
