# DDEC6 charges by PACMAN v1.1 (https://github.com/mtap-research/PACMAN-charge/)
data_FIDMIP_ion_pacman
_symmetry_space_group_name_H-M   'P 1'
_cell_length_a   21.92600000
_cell_length_b   21.92600000
_cell_length_c   10.56430000
_cell_angle_alpha   90.00000000
_cell_angle_beta   90.00000000
_cell_angle_gamma   120.00000000
_symmetry_Int_Tables_number   1
_chemical_formula_structural   Zn28H78C9S7N9O70
_chemical_formula_sum   'Zn56 H156 C18 S14 N18 O140'
_cell_volume   4398.35396321
_cell_formula_units_Z   2
loop_
 _symmetry_equiv_pos_site_id
 _symmetry_equiv_pos_as_xyz
  1  'x, y, z'
loop_
 _atom_site_type_symbol
 _atom_site_label
 _atom_site_symmetry_multiplicity
 _atom_site_fract_x
 _atom_site_fract_y
 _atom_site_fract_z
 _atom_site_occupancy
 _atom_site_charge
Zn  Zn1  1  0.00000000  0.00000000  0.83009000  1.0 0.5891526247
Zn  Zn2  1  0.00000000  0.00000000  0.16991000  1.0 0.5891526247
Zn  Zn3  1  0.42898000  0.14121000  0.82714000  1.0 0.9236083889
Zn  Zn4  1  0.85879000  0.28777000  0.82714000  1.0 0.9250327254
Zn  Zn5  1  0.71223000  0.57102000  0.82714000  1.0 0.9236083889
Zn  Zn6  1  0.57102000  0.85879000  0.17286000  1.0 0.9236083889
Zn  Zn7  1  0.14121000  0.71223000  0.17286000  1.0 0.9236083889
Zn  Zn8  1  0.28777000  0.42898000  0.17286000  1.0 0.9236083889
Zn  Zn9  1  0.43050000  0.14595000  0.16682000  1.0 0.9059102142
Zn  Zn10  1  0.85405000  0.28455000  0.16682000  1.0 0.9059102142
Zn  Zn11  1  0.71545000  0.56950000  0.16682000  1.0 0.9059102142
Zn  Zn12  1  0.56950000  0.85405000  0.83318000  1.0 0.9059102142
Zn  Zn13  1  0.14595000  0.71545000  0.83318000  1.0 0.9059102142
Zn  Zn14  1  0.28455000  0.43050000  0.83318000  1.0 0.9059102142
Zn  Zn15  1  0.28788000  0.14027000  0.99372000  1.0 1.0549003387
Zn  Zn16  1  0.85973000  0.14761000  0.99372000  1.0 1.0601137412
Zn  Zn17  1  0.85239000  0.71212000  0.99372000  1.0 1.0601137412
Zn  Zn18  1  0.71212000  0.85973000  0.00628000  1.0 1.0549003387
Zn  Zn19  1  0.14027000  0.85239000  0.00628000  1.0 1.0549003387
Zn  Zn20  1  0.14761000  0.28788000  0.00628000  1.0 1.0549003387
Zn  Zn21  1  0.42503000  0.28093000  0.99324000  1.0 1.066984942
Zn  Zn22  1  0.71907000  0.14410000  0.99324000  1.0 1.066984942
Zn  Zn23  1  0.85590000  0.57497000  0.99324000  1.0 1.066984942
Zn  Zn24  1  0.57497000  0.71907000  0.00676000  1.0 1.066984942
Zn  Zn25  1  0.28093000  0.85590000  0.00676000  1.0 1.0601137412
Zn  Zn26  1  0.14410000  0.42503000  0.00676000  1.0 1.0601137412
Zn  Zn27  1  0.28833000  0.29106000  0.99232000  1.0 1.0601137412
Zn  Zn28  1  0.70894000  0.99727000  0.99232000  1.0 1.066984942
Zn  Zn29  1  0.00273000  0.71167000  0.99232000  1.0 1.0601137412
Zn  Zn30  1  0.71167000  0.70894000  0.00768000  1.0 1.0601137412
Zn  Zn31  1  0.29106000  0.00273000  0.00768000  1.0 1.0601137412
Zn  Zn32  1  0.99727000  0.28833000  0.00768000  1.0 1.0601137412
Zn  Zn33  1  0.42647000  0.43184000  0.00135000  1.0 1.066984942
Zn  Zn34  1  0.56816000  0.99463000  0.00135000  1.0 1.066984942
Zn  Zn35  1  0.00537000  0.57353000  0.00135000  1.0 1.066984942
Zn  Zn36  1  0.57353000  0.56816000  0.99865000  1.0 1.066984942
Zn  Zn37  1  0.43184000  0.00537000  0.99865000  1.0 1.066984942
Zn  Zn38  1  0.99463000  0.42647000  0.99865000  1.0 1.066984942
Zn  Zn39  1  0.13812000  0.14115000  0.99344000  1.0 1.0392084027
Zn  Zn40  1  0.85885000  0.99697000  0.99344000  1.0 1.0392084027
Zn  Zn41  1  0.00303000  0.86188000  0.99344000  1.0 1.0392084027
Zn  Zn42  1  0.86188000  0.85885000  0.00656000  1.0 1.0392084027
Zn  Zn43  1  0.14115000  0.00303000  0.00656000  1.0 1.0392084027
Zn  Zn44  1  0.99697000  0.13812000  0.00656000  1.0 1.0392084027
Zn  Zn45  1  0.57647000  0.42993000  0.00115000  1.0 1.0601137412
Zn  Zn46  1  0.57007000  0.14654000  0.00115000  1.0 1.0601137412
Zn  Zn47  1  0.85346000  0.42353000  0.00115000  1.0 1.0601137412
Zn  Zn48  1  0.42353000  0.57007000  0.99885000  1.0 1.0601137412
Zn  Zn49  1  0.42993000  0.85346000  0.99885000  1.0 1.0601137412
Zn  Zn50  1  0.14654000  0.57647000  0.99885000  1.0 1.0601137412
Zn  Zn51  1  0.56597000  0.28388000  0.98384000  1.0 1.0601137412
Zn  Zn52  1  0.71612000  0.28209000  0.98384000  1.0 1.0601137412
Zn  Zn53  1  0.71791000  0.43403000  0.98384000  1.0 1.0601137412
Zn  Zn54  1  0.43403000  0.71612000  0.01616000  1.0 1.0601137412
Zn  Zn55  1  0.28388000  0.71791000  0.01616000  1.0 1.0601137412
Zn  Zn56  1  0.28209000  0.56597000  0.01616000  1.0 1.0601137412
H  H1  1  0.55000000  0.21100000  0.17700000  1.0 0.3583611528
H  H2  1  0.78900000  0.33900000  0.17700000  1.0 0.3583611528
H  H3  1  0.66100000  0.45000000  0.17700000  1.0 0.3583611528
H  H4  1  0.45000000  0.78900000  0.82300000  1.0 0.3583611528
H  H5  1  0.21100000  0.66100000  0.82300000  1.0 0.3583611528
H  H6  1  0.33900000  0.55000000  0.82300000  1.0 0.3583611528
H  H7  1  0.48300000  0.25800000  0.80600000  1.0 0.3583611528
H  H8  1  0.74200000  0.22500000  0.80600000  1.0 0.3583611528
H  H9  1  0.77500000  0.51700000  0.80600000  1.0 0.3583611528
H  H10  1  0.51700000  0.74200000  0.19400000  1.0 0.3583611528
H  H11  1  0.25800000  0.77500000  0.19400000  1.0 0.3583611528
H  H12  1  0.22500000  0.48300000  0.19400000  1.0 0.3583611528
H  H13  1  0.30700000  0.08100000  0.81600000  1.0 0.3534511605
H  H14  1  0.91900000  0.22600000  0.81600000  1.0 0.3534511605
H  H15  1  0.77400000  0.69300000  0.81600000  1.0 0.3534511605
H  H16  1  0.69300000  0.91900000  0.18400000  1.0 0.3534511605
H  H17  1  0.08100000  0.77400000  0.18400000  1.0 0.3534511605
H  H18  1  0.22600000  0.30700000  0.18400000  1.0 0.3534511605
H  H19  1  0.36800000  0.20200000  0.17900000  1.0 0.3534511605
H  H20  1  0.79800000  0.16600000  0.17900000  1.0 0.3534511605
H  H21  1  0.83400000  0.63200000  0.17900000  1.0 0.3534511605
H  H22  1  0.63200000  0.79800000  0.82100000  1.0 0.3534511605
H  H23  1  0.20200000  0.83400000  0.82100000  1.0 0.3534511605
H  H24  1  0.16600000  0.36800000  0.82100000  1.0 0.3534511605
H  H25  1  0.49670000  0.08130000  0.80830000  1.0 0.3583611528
H  H26  1  0.91870000  0.41540000  0.80830000  1.0 0.3583611528
H  H27  1  0.58460000  0.50330000  0.80830000  1.0 0.3583611528
H  H28  1  0.50330000  0.91870000  0.19170000  1.0 0.3583611528
H  H29  1  0.08130000  0.58460000  0.19170000  1.0 0.3583611528
H  H30  1  0.41540000  0.49670000  0.19170000  1.0 0.3583611528
H  H31  1  0.34600000  0.37300000  0.80900000  1.0 0.3583611528
H  H32  1  0.62700000  0.97300000  0.80900000  1.0 0.3583611528
H  H33  1  0.02700000  0.65400000  0.80900000  1.0 0.3583611528
H  H34  1  0.65400000  0.62700000  0.19100000  1.0 0.3583611528
H  H35  1  0.37300000  0.02700000  0.19100000  1.0 0.3583611528
H  H36  1  0.97300000  0.34600000  0.19100000  1.0 0.3583611528
H  H37  1  0.05200000  0.11900000  0.81700000  1.0 0.3246760273
H  H38  1  0.88100000  0.93300000  0.81700000  1.0 0.3246760273
H  H39  1  0.06700000  0.94800000  0.81700000  1.0 0.3246760273
H  H40  1  0.94800000  0.88100000  0.18300000  1.0 0.3246760273
H  H41  1  0.11900000  0.06700000  0.18300000  1.0 0.3246760273
H  H42  1  0.93300000  0.05200000  0.18300000  1.0 0.3246760273
H  H43  1  0.38220000  0.33470000  0.17920000  1.0 0.3917984073
H  H44  1  0.66530000  0.04750000  0.17920000  1.0 0.3917984073
H  H45  1  0.95250000  0.61780000  0.17920000  1.0 0.3917984073
H  H46  1  0.61780000  0.66530000  0.82080000  1.0 0.3917984073
H  H47  1  0.33470000  0.95250000  0.82080000  1.0 0.3917984073
H  H48  1  0.04750000  0.38220000  0.82080000  1.0 0.3917984073
H  H49  1  0.19100000  0.24010000  0.81460000  1.0 0.3917984073
H  H50  1  0.75990000  0.95090000  0.81460000  1.0 0.3917984073
H  H51  1  0.04910000  0.80900000  0.81460000  1.0 0.3917984073
H  H52  1  0.80900000  0.75990000  0.18540000  1.0 0.3917984073
H  H53  1  0.24010000  0.04910000  0.18540000  1.0 0.3917984073
H  H54  1  0.95090000  0.19100000  0.18540000  1.0 0.3917984073
H  H55  1  0.52030000  0.32980000  0.17330000  1.0 0.3917984073
H  H56  1  0.67020000  0.19050000  0.17330000  1.0 0.3917984073
H  H57  1  0.80950000  0.47970000  0.17330000  1.0 0.3917984073
H  H58  1  0.47970000  0.67020000  0.82670000  1.0 0.3917984073
H  H59  1  0.32980000  0.80950000  0.82670000  1.0 0.3917984073
H  H60  1  0.19050000  0.52030000  0.82670000  1.0 0.3917984073
H  H61  1  0.52440000  0.47360000  0.18410000  1.0 0.3917984073
H  H62  1  0.52640000  0.05080000  0.18410000  1.0 0.3917984073
H  H63  1  0.94920000  0.47560000  0.18410000  1.0 0.3917984073
H  H64  1  0.47560000  0.52640000  0.81590000  1.0 0.3917984073
H  H65  1  0.47360000  0.94920000  0.81590000  1.0 0.3917984073
H  H66  1  0.05080000  0.52440000  0.81590000  1.0 0.3917984073
H  H67  1  0.18800000  0.09420000  0.81350000  1.0 0.3978938365
H  H68  1  0.90580000  0.09380000  0.81350000  1.0 0.3978938365
H  H69  1  0.90620000  0.81200000  0.81350000  1.0 0.3978938365
H  H70  1  0.81200000  0.90580000  0.18650000  1.0 0.3978938365
H  H71  1  0.09420000  0.90620000  0.18650000  1.0 0.3978938365
H  H72  1  0.09380000  0.18800000  0.18650000  1.0 0.3978938365
H  H73  1  0.62040000  0.38350000  0.80630000  1.0 0.3917984073
H  H74  1  0.61650000  0.23690000  0.80630000  1.0 0.3917984073
H  H75  1  0.76310000  0.37960000  0.80630000  1.0 0.3917984073
H  H76  1  0.37960000  0.61650000  0.19370000  1.0 0.3917984073
H  H77  1  0.38350000  0.76310000  0.19370000  1.0 0.3917984073
H  H78  1  0.23690000  0.62040000  0.19370000  1.0 0.3917984073
H  H79  1  0.32960000  0.23460000  0.81160000  1.0 0.3917984073
H  H80  1  0.76540000  0.09500000  0.81160000  1.0 0.3917984073
H  H81  1  0.90500000  0.67040000  0.81160000  1.0 0.3917984073
H  H82  1  0.67040000  0.76540000  0.18840000  1.0 0.3917984073
H  H83  1  0.23460000  0.90500000  0.18840000  1.0 0.3917984073
H  H84  1  0.09500000  0.32960000  0.18840000  1.0 0.3917984073
H  H85  1  0.01810000  0.94110000  0.54850000  1.0 0.0677671052
H  H86  1  0.05890000  0.07700000  0.54850000  1.0 0.0677671052
H  H87  1  0.92300000  0.98190000  0.54850000  1.0 0.0677671052
H  H88  1  0.98190000  0.05890000  0.45150000  1.0 0.0677671052
H  H89  1  0.94110000  0.92300000  0.45150000  1.0 0.0677671052
H  H90  1  0.07700000  0.01810000  0.45150000  1.0 0.0677671052
H  H91  1  0.46810000  0.14000000  0.38420000  1.0 0.2721279764
H  H92  1  0.86000000  0.32810000  0.38420000  1.0 0.2721279764
H  H93  1  0.67190000  0.53190000  0.38420000  1.0 0.2721279764
H  H94  1  0.53190000  0.86000000  0.61580000  1.0 0.2721279764
H  H95  1  0.14000000  0.67190000  0.61580000  1.0 0.2721279764
H  H96  1  0.32810000  0.46810000  0.61580000  1.0 0.2721279764
H  H97  1  0.46730000  0.20700000  0.37250000  1.0 0.2781598986
H  H98  1  0.79300000  0.26030000  0.37250000  1.0 0.2781598986
H  H99  1  0.73970000  0.53270000  0.37250000  1.0 0.2781598986
H  H100  1  0.53270000  0.79300000  0.62750000  1.0 0.2781598986
H  H101  1  0.20700000  0.73970000  0.62750000  1.0 0.2781598986
H  H102  1  0.26030000  0.46730000  0.62750000  1.0 0.2781598986
H  H103  1  0.35660000  0.07820000  0.42550000  1.0 0.1134629008
H  H104  1  0.92180000  0.27840000  0.42550000  1.0 0.1134629008
H  H105  1  0.72160000  0.64340000  0.42550000  1.0 0.1134629008
H  H106  1  0.64340000  0.92180000  0.57450000  1.0 0.1134629008
H  H107  1  0.07820000  0.72160000  0.57450000  1.0 0.1134629008
H  H108  1  0.27840000  0.35660000  0.57450000  1.0 0.1134629008
H  H109  1  0.34600000  0.14260000  0.38520000  1.0 0.1134629008
H  H110  1  0.85740000  0.20340000  0.38520000  1.0 0.1134629008
H  H111  1  0.79660000  0.65400000  0.38520000  1.0 0.1134629008
H  H112  1  0.65400000  0.85740000  0.61480000  1.0 0.1134629008
H  H113  1  0.14260000  0.79660000  0.61480000  1.0 0.1134629008
H  H114  1  0.20340000  0.34600000  0.61480000  1.0 0.1134629008
H  H115  1  0.41500000  0.20830000  0.56930000  1.0 0.1134629008
H  H116  1  0.79170000  0.20670000  0.56930000  1.0 0.1134629008
H  H117  1  0.79330000  0.58500000  0.56930000  1.0 0.1134629008
H  H118  1  0.58500000  0.79170000  0.43070000  1.0 0.1134629008
H  H119  1  0.20830000  0.79330000  0.43070000  1.0 0.1134629008
H  H120  1  0.20670000  0.41500000  0.43070000  1.0 0.1134629008
H  H121  1  0.34400000  0.13840000  0.60920000  1.0 0.1134629008
H  H122  1  0.86160000  0.20560000  0.60920000  1.0 0.1134629008
H  H123  1  0.79440000  0.65600000  0.60920000  1.0 0.1134629008
H  H124  1  0.65600000  0.86160000  0.39080000  1.0 0.1134629008
H  H125  1  0.13840000  0.79440000  0.39080000  1.0 0.1134629008
H  H126  1  0.20560000  0.34400000  0.39080000  1.0 0.1134629008
H  H127  1  0.47740000  0.15730000  0.61090000  1.0 0.2781598986
H  H128  1  0.84270000  0.32010000  0.61090000  1.0 0.2781598986
H  H129  1  0.67990000  0.52260000  0.61090000  1.0 0.2781598986
H  H130  1  0.52260000  0.84270000  0.38910000  1.0 0.2781598986
H  H131  1  0.15730000  0.67990000  0.38910000  1.0 0.2781598986
H  H132  1  0.32010000  0.47740000  0.38910000  1.0 0.2781598986
H  H133  1  0.41490000  0.08550000  0.61790000  1.0 0.2781598986
H  H134  1  0.91450000  0.32940000  0.61790000  1.0 0.2781598986
H  H135  1  0.67060000  0.58510000  0.61790000  1.0 0.2781598986
H  H136  1  0.58510000  0.91450000  0.38210000  1.0 0.2781598986
H  H137  1  0.08550000  0.67060000  0.38210000  1.0 0.2781598986
H  H138  1  0.32940000  0.41490000  0.38210000  1.0 0.2781598986
H  H139  1  0.99360000  0.04600000  0.61710000  1.0 0.0928111205
H  H140  1  0.95400000  0.94760000  0.61710000  1.0 0.0928111205
H  H141  1  0.05240000  0.00640000  0.61710000  1.0 0.0928111205
H  H142  1  0.00640000  0.95400000  0.38290000  1.0 0.0928111205
H  H143  1  0.04600000  0.05240000  0.38290000  1.0 0.0928111205
H  H144  1  0.94760000  0.99360000  0.38290000  1.0 0.0928111205
H  H145  1  0.06110000  0.04540000  0.62290000  1.0 0.0808048234
H  H146  1  0.95460000  0.01570000  0.62290000  1.0 0.0808048234
H  H147  1  0.98430000  0.93890000  0.62290000  1.0 0.0808048234
H  H148  1  0.93890000  0.95460000  0.37710000  1.0 0.0808048234
H  H149  1  0.04540000  0.98430000  0.37710000  1.0 0.0808048234
H  H150  1  0.01570000  0.06110000  0.37710000  1.0 0.0808048234
H  H151  1  0.94280000  0.91680000  0.61230000  1.0 0.0808048234
H  H152  1  0.08320000  0.02600000  0.61230000  1.0 0.0808048234
H  H153  1  0.97400000  0.05720000  0.61230000  1.0 0.0808048234
H  H154  1  0.05720000  0.08320000  0.38770000  1.0 0.0808048234
H  H155  1  0.91680000  0.97400000  0.38770000  1.0 0.0808048234
H  H156  1  0.02600000  0.94280000  0.38770000  1.0 0.0808048234
C  C1  1  0.98270000  0.95540000  0.56610000  1.0 -0.0302474193
C  C2  1  0.04460000  0.02730000  0.56610000  1.0 -0.0302474193
C  C3  1  0.97270000  0.01730000  0.56610000  1.0 -0.0302474193
C  C4  1  0.01730000  0.04460000  0.43390000  1.0 -0.0302474193
C  C5  1  0.95540000  0.97270000  0.43390000  1.0 -0.0302474193
C  C6  1  0.02730000  0.98270000  0.43390000  1.0 -0.0302474193
C  C7  1  0.37890000  0.13020000  0.42650000  1.0 -0.0493825082
C  C8  1  0.86980000  0.24870000  0.42650000  1.0 -0.0493825082
C  C9  1  0.75130000  0.62110000  0.42650000  1.0 -0.0493825082
C  C10  1  0.62110000  0.86980000  0.57350000  1.0 -0.0493825082
C  C11  1  0.13020000  0.75130000  0.57350000  1.0 -0.0425900971
C  C12  1  0.24870000  0.37890000  0.57350000  1.0 -0.0493825082
C  C13  1  0.39040000  0.15620000  0.56770000  1.0 -0.0493825082
C  C14  1  0.84380000  0.23420000  0.56770000  1.0 -0.0493825082
C  C15  1  0.76580000  0.60960000  0.56770000  1.0 -0.0493825082
C  C16  1  0.60960000  0.84380000  0.43230000  1.0 -0.0493825082
C  C17  1  0.15620000  0.76580000  0.43230000  1.0 -0.0493825082
C  C18  1  0.23420000  0.39040000  0.43230000  1.0 -0.0493825082
S  S1  1  0.23785000  0.19104000  0.26495000  1.0 1.3584394757
S  S2  1  0.80896000  0.04681000  0.26495000  1.0 1.3584394757
S  S3  1  0.95319000  0.76215000  0.26495000  1.0 1.3584394757
S  S4  1  0.76215000  0.80896000  0.73505000  1.0 1.3584394757
S  S5  1  0.19104000  0.95319000  0.73505000  1.0 1.3584394757
S  S6  1  0.04681000  0.23785000  0.73505000  1.0 1.3584394757
S  S7  1  0.47421000  0.38230000  0.72372000  1.0 1.4127165779
S  S8  1  0.61770000  0.09191000  0.72372000  1.0 1.4127165779
S  S9  1  0.90809000  0.52579000  0.72372000  1.0 1.4127165779
S  S10  1  0.52579000  0.61770000  0.27628000  1.0 1.4127165779
S  S11  1  0.38230000  0.90809000  0.27628000  1.0 1.4127165779
S  S12  1  0.09191000  0.47421000  0.27628000  1.0 1.4127165779
S  S13  1  0.33333333  0.66666667  0.73367000  1.0 1.402077725
S  S14  1  0.66666667  0.33333333  0.26633000  1.0 1.402077725
N  N1  1  0.01370000  0.01950000  0.64030000  1.0 -0.0425900971
N  N2  1  0.98050000  0.99420000  0.64030000  1.0 -0.0425900971
N  N3  1  0.00580000  0.98630000  0.64030000  1.0 -0.0425900971
N  N4  1  0.98630000  0.98050000  0.35970000  1.0 -0.0425900971
N  N5  1  0.01950000  0.00580000  0.35970000  1.0 -0.0425900971
N  N6  1  0.99420000  0.01370000  0.35970000  1.0 -0.0425900971
N  N7  1  0.44190000  0.15940000  0.35590000  1.0 -0.5227035081
N  N8  1  0.84060000  0.28250000  0.35590000  1.0 -0.5227035081
N  N9  1  0.71750000  0.55810000  0.35590000  1.0 -0.5227035081
N  N10  1  0.55810000  0.84060000  0.64410000  1.0 -0.5227035081
N  N11  1  0.15940000  0.71750000  0.64410000  1.0 -0.5227035081
N  N12  1  0.28250000  0.44190000  0.64410000  1.0 -0.5227035081
N  N13  1  0.43133000  0.13206000  0.63750000  1.0 -0.539622058
N  N14  1  0.86794000  0.29927000  0.63750000  1.0 -0.539622058
N  N15  1  0.70073000  0.56867000  0.63750000  1.0 -0.539622058
N  N16  1  0.56867000  0.86794000  0.36250000  1.0 -0.539622058
N  N17  1  0.13206000  0.70073000  0.36250000  1.0 -0.539622058
N  N18  1  0.29927000  0.43133000  0.36250000  1.0 -0.539622058
O  O1  1  0.23742000  0.19051000  0.12230000  1.0 -0.7213406658
O  O2  1  0.80949000  0.04691000  0.12230000  1.0 -0.7213406658
O  O3  1  0.95309000  0.76258000  0.12230000  1.0 -0.7213406658
O  O4  1  0.76258000  0.80949000  0.87770000  1.0 -0.7213406658
O  O5  1  0.19051000  0.95309000  0.87770000  1.0 -0.7213406658
O  O6  1  0.04691000  0.23742000  0.87770000  1.0 -0.7213406658
O  O7  1  0.47345000  0.38108000  0.86660000  1.0 -0.7495187243
O  O8  1  0.61892000  0.09237000  0.86660000  1.0 -0.7495187243
O  O9  1  0.90763000  0.52655000  0.86660000  1.0 -0.7495187243
O  O10  1  0.52655000  0.61892000  0.13340000  1.0 -0.7495187243
O  O11  1  0.38108000  0.90763000  0.13340000  1.0 -0.7495187243
O  O12  1  0.09237000  0.47345000  0.13340000  1.0 -0.7495187243
O  O13  1  0.31114000  0.22048000  0.30680000  1.0 -0.6305727358
O  O14  1  0.77952000  0.09066000  0.30680000  1.0 -0.6305727358
O  O15  1  0.90934000  0.68886000  0.30680000  1.0 -0.6305727358
O  O16  1  0.68886000  0.77952000  0.69320000  1.0 -0.6305727358
O  O17  1  0.22048000  0.90934000  0.69320000  1.0 -0.6305727358
O  O18  1  0.09066000  0.31114000  0.69320000  1.0 -0.6305727358
O  O19  1  0.49885000  0.33527000  0.67880000  1.0 -0.6733646232
O  O20  1  0.66473000  0.16358000  0.67880000  1.0 -0.6733646232
O  O21  1  0.83642000  0.50115000  0.67880000  1.0 -0.6733646232
O  O22  1  0.50115000  0.66473000  0.32120000  1.0 -0.6733646232
O  O23  1  0.33527000  0.83642000  0.32120000  1.0 -0.6733646232
O  O24  1  0.16358000  0.49885000  0.32120000  1.0 -0.6733646232
O  O25  1  0.40222000  0.35882000  0.67860000  1.0 -0.6793169102
O  O26  1  0.64118000  0.04340000  0.67860000  1.0 -0.6793169102
O  O27  1  0.95660000  0.59778000  0.67860000  1.0 -0.6793169102
O  O28  1  0.59778000  0.64118000  0.32140000  1.0 -0.6793169102
O  O29  1  0.35882000  0.95660000  0.32140000  1.0 -0.6793169102
O  O30  1  0.04340000  0.40222000  0.32140000  1.0 -0.6793169102
O  O31  1  0.19324000  0.11861000  0.30880000  1.0 -0.6733646232
O  O32  1  0.88139000  0.07463000  0.30880000  1.0 -0.6793169102
O  O33  1  0.92537000  0.80676000  0.30880000  1.0 -0.6793169102
O  O34  1  0.80676000  0.88139000  0.69120000  1.0 -0.6793169102
O  O35  1  0.11861000  0.92537000  0.69120000  1.0 -0.6793169102
O  O36  1  0.07463000  0.19324000  0.69120000  1.0 -0.6733646232
O  O37  1  0.52224000  0.45557000  0.68320000  1.0 -0.6793169102
O  O38  1  0.54443000  0.06667000  0.68320000  1.0 -0.6793169102
O  O39  1  0.93333000  0.47776000  0.68320000  1.0 -0.6793169102
O  O40  1  0.47776000  0.54443000  0.31680000  1.0 -0.6793169102
O  O41  1  0.45557000  0.93333000  0.31680000  1.0 -0.6793169102
O  O42  1  0.06667000  0.52224000  0.31680000  1.0 -0.6793169102
O  O43  1  0.20999000  0.23572000  0.30800000  1.0 -0.6594398911
O  O44  1  0.76428000  0.97427000  0.30800000  1.0 -0.6594398911
O  O45  1  0.02573000  0.79001000  0.30800000  1.0 -0.6594398911
O  O46  1  0.79001000  0.76428000  0.69200000  1.0 -0.6594398911
O  O47  1  0.23572000  0.02573000  0.69200000  1.0 -0.6594398911
O  O48  1  0.97427000  0.20999000  0.69200000  1.0 -0.6594398911
O  O49  1  0.52814000  0.19615000  0.10470000  1.0 -0.8570716807
O  O50  1  0.80385000  0.33199000  0.10470000  1.0 -0.8570716807
O  O51  1  0.66801000  0.47186000  0.10470000  1.0 -0.8570716807
O  O52  1  0.47186000  0.80385000  0.89530000  1.0 -0.8570716807
O  O53  1  0.19615000  0.66801000  0.89530000  1.0 -0.8570716807
O  O54  1  0.33199000  0.52814000  0.89530000  1.0 -0.8570716807
O  O55  1  0.47421000  0.24018000  0.87470000  1.0 -0.8317166861
O  O56  1  0.75982000  0.23403000  0.87470000  1.0 -0.8317166861
O  O57  1  0.76597000  0.52579000  0.87470000  1.0 -0.8317166861
O  O58  1  0.52579000  0.75982000  0.12530000  1.0 -0.8317166861
O  O59  1  0.24018000  0.76597000  0.12530000  1.0 -0.8317166861
O  O60  1  0.23403000  0.47421000  0.12530000  1.0 -0.8317166861
O  O61  1  0.33134000  0.09135000  0.88640000  1.0 -0.8570716807
O  O62  1  0.90865000  0.23999000  0.88640000  1.0 -0.8570716807
O  O63  1  0.76001000  0.66866000  0.88640000  1.0 -0.8570716807
O  O64  1  0.66866000  0.90865000  0.11360000  1.0 -0.8570716807
O  O65  1  0.09135000  0.76001000  0.11360000  1.0 -0.8570716807
O  O66  1  0.23999000  0.33134000  0.11360000  1.0 -0.8570716807
O  O67  1  0.37804000  0.19122000  0.10860000  1.0 -0.8570716807
O  O68  1  0.80878000  0.18682000  0.10860000  1.0 -0.8570716807
O  O69  1  0.81318000  0.62196000  0.10860000  1.0 -0.8570716807
O  O70  1  0.62196000  0.80878000  0.89140000  1.0 -0.8570716807
O  O71  1  0.19122000  0.81318000  0.89140000  1.0 -0.8570716807
O  O72  1  0.18682000  0.37804000  0.89140000  1.0 -0.8570716807
O  O73  1  0.48100000  0.09540000  0.88640000  1.0 -0.8785588737
O  O74  1  0.90460000  0.38560000  0.88640000  1.0 -0.8785588737
O  O75  1  0.61440000  0.51900000  0.88640000  1.0 -0.8785588737
O  O76  1  0.51900000  0.90460000  0.11360000  1.0 -0.8785588737
O  O77  1  0.09540000  0.61440000  0.11360000  1.0 -0.8785588737
O  O78  1  0.38560000  0.48100000  0.11360000  1.0 -0.8785588737
O  O79  1  0.33608000  0.38288000  0.88350000  1.0 -0.8522754407
O  O80  1  0.61712000  0.95320000  0.88350000  1.0 -0.8522754407
O  O81  1  0.04680000  0.66392000  0.88350000  1.0 -0.8522754407
O  O82  1  0.66392000  0.61712000  0.11650000  1.0 -0.8522754407
O  O83  1  0.38288000  0.04680000  0.11650000  1.0 -0.8522754407
O  O84  1  0.95320000  0.33608000  0.11650000  1.0 -0.8522754407
O  O85  1  0.04646000  0.09806000  0.88650000  1.0 -0.7758520738
O  O86  1  0.90194000  0.94840000  0.88650000  1.0 -0.7758520738
O  O87  1  0.05160000  0.95354000  0.88650000  1.0 -0.7758520738
O  O88  1  0.95354000  0.90194000  0.11350000  1.0 -0.7758520738
O  O89  1  0.09806000  0.05160000  0.11350000  1.0 -0.7758520738
O  O90  1  0.94840000  0.04646000  0.11350000  1.0 -0.7758520738
O  O91  1  0.38334000  0.33606000  0.08460000  1.0 -0.8967614269
O  O92  1  0.66394000  0.04728000  0.08460000  1.0 -0.8967614269
O  O93  1  0.95272000  0.61666000  0.08460000  1.0 -0.8967614269
O  O94  1  0.61666000  0.66394000  0.91540000  1.0 -0.8967614269
O  O95  1  0.33606000  0.95272000  0.91540000  1.0 -0.8967614269
O  O96  1  0.04728000  0.38334000  0.91540000  1.0 -0.8967614269
O  O97  1  0.19228000  0.23867000  0.90920000  1.0 -0.8917760825
O  O98  1  0.76133000  0.95361000  0.90920000  1.0 -0.8917760825
O  O99  1  0.04639000  0.80772000  0.90920000  1.0 -0.8917760825
O  O100  1  0.80772000  0.76133000  0.09080000  1.0 -0.8917760825
O  O101  1  0.23867000  0.04639000  0.09080000  1.0 -0.8917760825
O  O102  1  0.95361000  0.19228000  0.09080000  1.0 -0.8917760825
O  O103  1  0.52025000  0.33235000  0.07870000  1.0 -0.8917760825
O  O104  1  0.66765000  0.18790000  0.07870000  1.0 -0.8917760825
O  O105  1  0.81210000  0.47975000  0.07870000  1.0 -0.8917760825
O  O106  1  0.47975000  0.66765000  0.92130000  1.0 -0.8917760825
O  O107  1  0.33235000  0.81210000  0.92130000  1.0 -0.8917760825
O  O108  1  0.18790000  0.52025000  0.92130000  1.0 -0.8917760825
O  O109  1  0.52386000  0.47290000  0.08950000  1.0 -0.8917760825
O  O110  1  0.52710000  0.05096000  0.08950000  1.0 -0.8917760825
O  O111  1  0.94904000  0.47614000  0.08950000  1.0 -0.8917760825
O  O112  1  0.47614000  0.52710000  0.91050000  1.0 -0.8917760825
O  O113  1  0.47290000  0.94904000  0.91050000  1.0 -0.8917760825
O  O114  1  0.05096000  0.52386000  0.91050000  1.0 -0.8917760825
O  O115  1  0.18958000  0.09686000  0.90800000  1.0 -0.8785588737
O  O116  1  0.90314000  0.09272000  0.90800000  1.0 -0.8785588737
O  O117  1  0.90728000  0.81042000  0.90800000  1.0 -0.8785588737
O  O118  1  0.81042000  0.90314000  0.09200000  1.0 -0.8785588737
O  O119  1  0.09686000  0.90728000  0.09200000  1.0 -0.8785588737
O  O120  1  0.09272000  0.18958000  0.09200000  1.0 -0.8785588737
O  O121  1  0.62191000  0.38157000  0.90080000  1.0 -0.8917760825
O  O122  1  0.61843000  0.24034000  0.90080000  1.0 -0.8917760825
O  O123  1  0.75966000  0.37809000  0.90080000  1.0 -0.8917760825
O  O124  1  0.37809000  0.61843000  0.09920000  1.0 -0.8917760825
O  O125  1  0.38157000  0.75966000  0.09920000  1.0 -0.8917760825
O  O126  1  0.24034000  0.62191000  0.09920000  1.0 -0.8917760825
O  O127  1  0.32946000  0.23495000  0.90620000  1.0 -0.8917760825
O  O128  1  0.76505000  0.09451000  0.90620000  1.0 -0.8917760825
O  O129  1  0.90549000  0.67054000  0.90620000  1.0 -0.8917760825
O  O130  1  0.67054000  0.76505000  0.09380000  1.0 -0.8917760825
O  O131  1  0.23495000  0.90549000  0.09380000  1.0 -0.8917760825
O  O132  1  0.09451000  0.32946000  0.09380000  1.0 -0.8917760825
O  O133  1  0.33333333  0.66666667  0.87680000  1.0 -0.7495187243
O  O134  1  0.38617000  0.73722000  0.68910000  1.0 -0.6733646232
O  O135  1  0.26278000  0.64895000  0.68910000  1.0 -0.6733646232
O  O136  1  0.35105000  0.61383000  0.68910000  1.0 -0.6733646232
O  O137  1  0.66666667  0.33333333  0.12320000  1.0 -0.7495187243
O  O138  1  0.61383000  0.26278000  0.31090000  1.0 -0.6733646232
O  O139  1  0.73722000  0.35105000  0.31090000  1.0 -0.6733646232
O  O140  1  0.64895000  0.38617000  0.31090000  1.0 -0.6733646232
