# DDEC6 charges by PACMAN v1.1 (https://github.com/mtap-research/PACMAN-charge/)
data_FIFFUX_ASR_pacman
_symmetry_space_group_name_H-M   'P 1'
_cell_length_a   39.38750000
_cell_length_b   39.38750000
_cell_length_c   16.48290000
_cell_angle_alpha   90.00000000
_cell_angle_beta   90.00000000
_cell_angle_gamma   120.00000000
_symmetry_Int_Tables_number   1
_chemical_formula_structural   Zr3H22(C11O4)4
_chemical_formula_sum   'Zr18 H132 C264 O96'
_cell_volume   22145.27551779
_cell_formula_units_Z   6
loop_
 _symmetry_equiv_pos_site_id
 _symmetry_equiv_pos_as_xyz
  1  'x, y, z'
loop_
 _atom_site_type_symbol
 _atom_site_label
 _atom_site_symmetry_multiplicity
 _atom_site_fract_x
 _atom_site_fract_y
 _atom_site_fract_z
 _atom_site_occupancy
 _atom_site_charge
Zr  Zr1  1  0.45526000  0.45526000  0.89335000  1.0 1.8140150121
Zr  Zr2  1  0.00000000  0.45526000  0.89335000  1.0 1.8140150121
Zr  Zr3  1  0.54474000  0.00000000  0.89335000  1.0 1.8154957503
Zr  Zr4  1  0.54474000  0.54474000  0.89335000  1.0 1.8140150121
Zr  Zr5  1  0.00000000  0.54474000  0.89335000  1.0 1.8140150121
Zr  Zr6  1  0.45526000  0.00000000  0.89335000  1.0 1.8154957503
Zr  Zr7  1  0.00000000  0.54474000  0.10665000  1.0 1.8154957503
Zr  Zr8  1  0.54474000  0.00000000  0.10665000  1.0 1.8154957503
Zr  Zr9  1  0.45526000  0.45526000  0.10665000  1.0 1.8140150121
Zr  Zr10  1  0.54474000  0.54474000  0.10665000  1.0 1.8140150121
Zr  Zr11  1  0.00000000  0.45526000  0.10665000  1.0 1.8154957503
Zr  Zr12  1  0.45526000  0.00000000  0.10665000  1.0 1.8154957503
Zr  Zr13  1  0.53598000  0.46402000  0.00000000  1.0 1.9185819636
Zr  Zr14  1  0.07196000  0.53598000  0.00000000  1.0 1.9185819636
Zr  Zr15  1  0.53598000  0.07196000  0.00000000  1.0 1.9185819636
Zr  Zr16  1  0.46402000  0.53598000  0.00000000  1.0 1.9185819636
Zr  Zr17  1  0.92804000  0.46402000  0.00000000  1.0 1.9185819636
Zr  Zr18  1  0.46402000  0.92804000  0.00000000  1.0 1.9185819636
H  H1  1  0.43840000  0.35120000  0.75540000  1.0 0.1012928806
H  H2  1  0.08720000  0.43840000  0.75540000  1.0 0.1012928806
H  H3  1  0.64880000  0.08720000  0.75540000  1.0 0.1012928806
H  H4  1  0.56160000  0.64880000  0.75540000  1.0 0.1012928806
H  H5  1  0.91280000  0.56160000  0.75540000  1.0 0.1012928806
H  H6  1  0.35120000  0.91280000  0.75540000  1.0 0.1012928806
H  H7  1  0.08720000  0.64880000  0.24460000  1.0 0.1012928806
H  H8  1  0.56160000  0.91280000  0.24460000  1.0 0.1012928806
H  H9  1  0.35120000  0.43840000  0.24460000  1.0 0.1012928806
H  H10  1  0.64880000  0.56160000  0.24460000  1.0 0.1012928806
H  H11  1  0.91280000  0.35120000  0.24460000  1.0 0.1012928806
H  H12  1  0.43840000  0.08720000  0.24460000  1.0 0.1012928806
H  H13  1  0.56160000  0.64880000  0.24460000  1.0 0.1012928806
H  H14  1  0.91280000  0.56160000  0.24460000  1.0 0.1012928806
H  H15  1  0.35120000  0.91280000  0.24460000  1.0 0.1012928806
H  H16  1  0.43840000  0.35120000  0.24460000  1.0 0.1012928806
H  H17  1  0.08720000  0.43840000  0.24460000  1.0 0.1012928806
H  H18  1  0.64880000  0.08720000  0.24460000  1.0 0.1012928806
H  H19  1  0.91280000  0.35120000  0.75540000  1.0 0.1012928806
H  H20  1  0.43840000  0.08720000  0.75540000  1.0 0.1012928806
H  H21  1  0.64880000  0.56160000  0.75540000  1.0 0.1012928806
H  H22  1  0.35120000  0.43840000  0.75540000  1.0 0.1012928806
H  H23  1  0.08720000  0.64880000  0.75540000  1.0 0.1012928806
H  H24  1  0.56160000  0.91280000  0.75540000  1.0 0.1012928806
H  H25  1  0.44080000  0.30440000  0.67000000  1.0 0.1012928806
H  H26  1  0.13640000  0.44080000  0.67000000  1.0 0.1012928806
H  H27  1  0.69560000  0.13640000  0.67000000  1.0 0.1012928806
H  H28  1  0.55920000  0.69560000  0.67000000  1.0 0.1012928806
H  H29  1  0.86360000  0.55920000  0.67000000  1.0 0.1012928806
H  H30  1  0.30440000  0.86360000  0.67000000  1.0 0.1012928806
H  H31  1  0.13640000  0.69560000  0.33000000  1.0 0.1012928806
H  H32  1  0.55920000  0.86360000  0.33000000  1.0 0.1012928806
H  H33  1  0.30440000  0.44080000  0.33000000  1.0 0.1012928806
H  H34  1  0.69560000  0.55920000  0.33000000  1.0 0.1012928806
H  H35  1  0.86360000  0.30440000  0.33000000  1.0 0.1012928806
H  H36  1  0.44080000  0.13640000  0.33000000  1.0 0.1012928806
H  H37  1  0.55920000  0.69560000  0.33000000  1.0 0.1012928806
H  H38  1  0.86360000  0.55920000  0.33000000  1.0 0.1012928806
H  H39  1  0.30440000  0.86360000  0.33000000  1.0 0.1012928806
H  H40  1  0.44080000  0.30440000  0.33000000  1.0 0.1012928806
H  H41  1  0.13640000  0.44080000  0.33000000  1.0 0.1012928806
H  H42  1  0.69560000  0.13640000  0.33000000  1.0 0.1012928806
H  H43  1  0.86360000  0.30440000  0.67000000  1.0 0.1012928806
H  H44  1  0.44080000  0.13640000  0.67000000  1.0 0.1012928806
H  H45  1  0.69560000  0.55920000  0.67000000  1.0 0.1012928806
H  H46  1  0.30440000  0.44080000  0.67000000  1.0 0.1012928806
H  H47  1  0.13640000  0.69560000  0.67000000  1.0 0.1012928806
H  H48  1  0.55920000  0.86360000  0.67000000  1.0 0.1012928806
H  H49  1  0.53650000  0.31860000  0.78790000  1.0 0.1012928806
H  H50  1  0.21790000  0.53650000  0.78790000  1.0 0.1012928806
H  H51  1  0.68140000  0.21790000  0.78790000  1.0 0.1012928806
H  H52  1  0.46350000  0.68140000  0.78790000  1.0 0.1012928806
H  H53  1  0.78210000  0.46350000  0.78790000  1.0 0.1012928806
H  H54  1  0.31860000  0.78210000  0.78790000  1.0 0.1012928806
H  H55  1  0.21790000  0.68140000  0.21210000  1.0 0.1012928806
H  H56  1  0.46350000  0.78210000  0.21210000  1.0 0.1012928806
H  H57  1  0.31860000  0.53650000  0.21210000  1.0 0.1012928806
H  H58  1  0.68140000  0.46350000  0.21210000  1.0 0.1012928806
H  H59  1  0.78210000  0.31860000  0.21210000  1.0 0.1012928806
H  H60  1  0.53650000  0.21790000  0.21210000  1.0 0.1012928806
H  H61  1  0.46350000  0.68140000  0.21210000  1.0 0.1012928806
H  H62  1  0.78210000  0.46350000  0.21210000  1.0 0.1012928806
H  H63  1  0.31860000  0.78210000  0.21210000  1.0 0.1012928806
H  H64  1  0.53650000  0.31860000  0.21210000  1.0 0.1012928806
H  H65  1  0.21790000  0.53650000  0.21210000  1.0 0.1012928806
H  H66  1  0.68140000  0.21790000  0.21210000  1.0 0.1012928806
H  H67  1  0.78210000  0.31860000  0.78790000  1.0 0.1012928806
H  H68  1  0.53650000  0.21790000  0.78790000  1.0 0.1012928806
H  H69  1  0.68140000  0.46350000  0.78790000  1.0 0.1012928806
H  H70  1  0.31860000  0.53650000  0.78790000  1.0 0.1012928806
H  H71  1  0.21790000  0.68140000  0.78790000  1.0 0.1012928806
H  H72  1  0.46350000  0.78210000  0.78790000  1.0 0.1012928806
H  H73  1  0.53670000  0.36710000  0.86590000  1.0 0.1098840667
H  H74  1  0.16960000  0.53670000  0.86590000  1.0 0.1098840667
H  H75  1  0.63290000  0.16960000  0.86590000  1.0 0.1098840667
H  H76  1  0.46330000  0.63290000  0.86590000  1.0 0.1098840667
H  H77  1  0.83040000  0.46330000  0.86590000  1.0 0.1098840667
H  H78  1  0.36710000  0.83040000  0.86590000  1.0 0.1098840667
H  H79  1  0.16960000  0.63290000  0.13410000  1.0 0.1098840667
H  H80  1  0.46330000  0.83040000  0.13410000  1.0 0.1098840667
H  H81  1  0.36710000  0.53670000  0.13410000  1.0 0.1098840667
H  H82  1  0.63290000  0.46330000  0.13410000  1.0 0.1098840667
H  H83  1  0.83040000  0.36710000  0.13410000  1.0 0.1098840667
H  H84  1  0.53670000  0.16960000  0.13410000  1.0 0.1098840667
H  H85  1  0.46330000  0.63290000  0.13410000  1.0 0.1098840667
H  H86  1  0.83040000  0.46330000  0.13410000  1.0 0.1098840667
H  H87  1  0.36710000  0.83040000  0.13410000  1.0 0.1098840667
H  H88  1  0.53670000  0.36710000  0.13410000  1.0 0.1098840667
H  H89  1  0.16960000  0.53670000  0.13410000  1.0 0.1098840667
H  H90  1  0.63290000  0.16960000  0.13410000  1.0 0.1098840667
H  H91  1  0.83040000  0.36710000  0.86590000  1.0 0.1098840667
H  H92  1  0.53670000  0.16960000  0.86590000  1.0 0.1098840667
H  H93  1  0.63290000  0.46330000  0.86590000  1.0 0.1098840667
H  H94  1  0.36710000  0.53670000  0.86590000  1.0 0.1098840667
H  H95  1  0.16960000  0.63290000  0.86590000  1.0 0.1098840667
H  H96  1  0.46330000  0.83040000  0.86590000  1.0 0.1098840667
H  H97  1  0.48780000  0.24390000  0.76960000  1.0 0.1098840667
H  H98  1  0.24390000  0.48780000  0.76960000  1.0 0.1098840667
H  H99  1  0.75610000  0.24390000  0.76960000  1.0 0.1098840667
H  H100  1  0.51220000  0.75610000  0.76960000  1.0 0.1012928806
H  H101  1  0.75610000  0.51220000  0.76960000  1.0 0.1012928806
H  H102  1  0.24390000  0.75610000  0.76960000  1.0 0.1098840667
H  H103  1  0.24390000  0.75610000  0.23040000  1.0 0.1098840667
H  H104  1  0.51220000  0.75610000  0.23040000  1.0 0.1098840667
H  H105  1  0.24390000  0.48780000  0.23040000  1.0 0.1098840667
H  H106  1  0.75610000  0.51220000  0.23040000  1.0 0.1098840667
H  H107  1  0.75610000  0.24390000  0.23040000  1.0 0.1098840667
H  H108  1  0.48780000  0.24390000  0.23040000  1.0 0.1098840667
H  H109  1  0.49080000  0.32850000  0.56630000  1.0 0.1012928806
H  H110  1  0.16230000  0.49080000  0.56630000  1.0 0.1012928806
H  H111  1  0.67150000  0.16230000  0.56630000  1.0 0.1012928806
H  H112  1  0.50920000  0.67150000  0.56630000  1.0 0.1012928806
H  H113  1  0.83770000  0.50920000  0.56630000  1.0 0.1012928806
H  H114  1  0.32850000  0.83770000  0.56630000  1.0 0.1012928806
H  H115  1  0.16230000  0.67150000  0.43370000  1.0 0.1012928806
H  H116  1  0.50920000  0.83770000  0.43370000  1.0 0.1012928806
H  H117  1  0.32850000  0.49080000  0.43370000  1.0 0.1012928806
H  H118  1  0.67150000  0.50920000  0.43370000  1.0 0.1012928806
H  H119  1  0.83770000  0.32850000  0.43370000  1.0 0.1012928806
H  H120  1  0.49080000  0.16230000  0.43370000  1.0 0.1012928806
H  H121  1  0.50920000  0.67150000  0.43370000  1.0 0.1012928806
H  H122  1  0.83770000  0.50920000  0.43370000  1.0 0.1012928806
H  H123  1  0.32850000  0.83770000  0.43370000  1.0 0.1012928806
H  H124  1  0.49080000  0.32850000  0.43370000  1.0 0.1012928806
H  H125  1  0.16230000  0.49080000  0.43370000  1.0 0.1012928806
H  H126  1  0.67150000  0.16230000  0.43370000  1.0 0.1012928806
H  H127  1  0.83770000  0.32850000  0.56630000  1.0 0.1012928806
H  H128  1  0.49080000  0.16230000  0.56630000  1.0 0.1012928806
H  H129  1  0.67150000  0.50920000  0.56630000  1.0 0.1012928806
H  H130  1  0.32850000  0.49080000  0.56630000  1.0 0.1012928806
H  H131  1  0.16230000  0.67150000  0.56630000  1.0 0.1012928806
H  H132  1  0.50920000  0.83770000  0.56630000  1.0 0.1012928806
C  C1  1  0.49130000  0.39850000  0.86630000  1.0 0.577162545
C  C2  1  0.09280000  0.49130000  0.86630000  1.0 0.577162545
C  C3  1  0.60150000  0.09280000  0.86630000  1.0 0.577162545
C  C4  1  0.50870000  0.60150000  0.86630000  1.0 0.577162545
C  C5  1  0.90720000  0.50870000  0.86630000  1.0 0.577162545
C  C6  1  0.39850000  0.90720000  0.86630000  1.0 0.577162545
C  C7  1  0.09280000  0.60150000  0.13370000  1.0 0.577162545
C  C8  1  0.50870000  0.90720000  0.13370000  1.0 0.577162545
C  C9  1  0.39850000  0.49130000  0.13370000  1.0 0.577162545
C  C10  1  0.60150000  0.50870000  0.13370000  1.0 0.577162545
C  C11  1  0.90720000  0.39850000  0.13370000  1.0 0.577162545
C  C12  1  0.49130000  0.09280000  0.13370000  1.0 0.577162545
C  C13  1  0.50870000  0.60150000  0.13370000  1.0 0.577162545
C  C14  1  0.90720000  0.50870000  0.13370000  1.0 0.577162545
C  C15  1  0.39850000  0.90720000  0.13370000  1.0 0.577162545
C  C16  1  0.49130000  0.39850000  0.13370000  1.0 0.577162545
C  C17  1  0.09280000  0.49130000  0.13370000  1.0 0.577162545
C  C18  1  0.60150000  0.09280000  0.13370000  1.0 0.577162545
C  C19  1  0.90720000  0.39850000  0.86630000  1.0 0.577162545
C  C20  1  0.49130000  0.09280000  0.86630000  1.0 0.577162545
C  C21  1  0.60150000  0.50870000  0.86630000  1.0 0.577162545
C  C22  1  0.39850000  0.49130000  0.86630000  1.0 0.577162545
C  C23  1  0.09280000  0.60150000  0.86630000  1.0 0.577162545
C  C24  1  0.50870000  0.90720000  0.86630000  1.0 0.577162545
C  C25  1  0.49030000  0.36640000  0.81790000  1.0 -0.0821652954
C  C26  1  0.12390000  0.49030000  0.81790000  1.0 -0.0821652954
C  C27  1  0.63360000  0.12390000  0.81790000  1.0 -0.0821652954
C  C28  1  0.50970000  0.63360000  0.81790000  1.0 -0.0821652954
C  C29  1  0.87610000  0.50970000  0.81790000  1.0 -0.0821652954
C  C30  1  0.36640000  0.87610000  0.81790000  1.0 -0.0821652954
C  C31  1  0.12390000  0.63360000  0.18210000  1.0 -0.0821652954
C  C32  1  0.50970000  0.87610000  0.18210000  1.0 -0.0821652954
C  C33  1  0.36640000  0.49030000  0.18210000  1.0 -0.0821652954
C  C34  1  0.63360000  0.50970000  0.18210000  1.0 -0.0821652954
C  C35  1  0.87610000  0.36640000  0.18210000  1.0 -0.0821652954
C  C36  1  0.49030000  0.12390000  0.18210000  1.0 -0.0821652954
C  C37  1  0.50970000  0.63360000  0.18210000  1.0 -0.0821652954
C  C38  1  0.87610000  0.50970000  0.18210000  1.0 -0.0821652954
C  C39  1  0.36640000  0.87610000  0.18210000  1.0 -0.0821652954
C  C40  1  0.49030000  0.36640000  0.18210000  1.0 -0.0821652954
C  C41  1  0.12390000  0.49030000  0.18210000  1.0 -0.0821652954
C  C42  1  0.63360000  0.12390000  0.18210000  1.0 -0.0821652954
C  C43  1  0.87610000  0.36640000  0.81790000  1.0 -0.0821652954
C  C44  1  0.49030000  0.12390000  0.81790000  1.0 -0.0821652954
C  C45  1  0.63360000  0.50970000  0.81790000  1.0 -0.0821652954
C  C46  1  0.36640000  0.49030000  0.81790000  1.0 -0.0821652954
C  C47  1  0.12390000  0.63360000  0.81790000  1.0 -0.0821652954
C  C48  1  0.50970000  0.87610000  0.81790000  1.0 -0.0821652954
C  C49  1  0.45920000  0.34560000  0.76020000  1.0 -0.0945653731
C  C50  1  0.11360000  0.45920000  0.76020000  1.0 -0.0945653731
C  C51  1  0.65440000  0.11360000  0.76020000  1.0 -0.0945653731
C  C52  1  0.54080000  0.65440000  0.76020000  1.0 -0.0945653731
C  C53  1  0.88640000  0.54080000  0.76020000  1.0 -0.0945653731
C  C54  1  0.34560000  0.88640000  0.76020000  1.0 -0.0945653731
C  C55  1  0.11360000  0.65440000  0.23980000  1.0 -0.0953520725
C  C56  1  0.54080000  0.88640000  0.23980000  1.0 -0.0953520725
C  C57  1  0.34560000  0.45920000  0.23980000  1.0 -0.0953520725
C  C58  1  0.65440000  0.54080000  0.23980000  1.0 -0.0953520725
C  C59  1  0.88640000  0.34560000  0.23980000  1.0 -0.0945653731
C  C60  1  0.45920000  0.11360000  0.23980000  1.0 -0.0953520725
C  C61  1  0.54080000  0.65440000  0.23980000  1.0 -0.0953520725
C  C62  1  0.88640000  0.54080000  0.23980000  1.0 -0.0945653731
C  C63  1  0.34560000  0.88640000  0.23980000  1.0 -0.0953520725
C  C64  1  0.45920000  0.34560000  0.23980000  1.0 -0.0953520725
C  C65  1  0.11360000  0.45920000  0.23980000  1.0 -0.0953520725
C  C66  1  0.65440000  0.11360000  0.23980000  1.0 -0.0945653731
C  C67  1  0.88640000  0.34560000  0.76020000  1.0 -0.0945653731
C  C68  1  0.45920000  0.11360000  0.76020000  1.0 -0.0945653731
C  C69  1  0.65440000  0.54080000  0.76020000  1.0 -0.0945653731
C  C70  1  0.34560000  0.45920000  0.76020000  1.0 -0.0945653731
C  C71  1  0.11360000  0.65440000  0.76020000  1.0 -0.0945653731
C  C72  1  0.54080000  0.88640000  0.76020000  1.0 -0.0945653731
C  C73  1  0.46000000  0.31690000  0.71120000  1.0 -0.1878899847
C  C74  1  0.14310000  0.46000000  0.71120000  1.0 -0.1878899847
C  C75  1  0.68310000  0.14310000  0.71120000  1.0 -0.1878899847
C  C76  1  0.54000000  0.68310000  0.71120000  1.0 -0.1878899847
C  C77  1  0.85690000  0.54000000  0.71120000  1.0 -0.1878899847
C  C78  1  0.31690000  0.85690000  0.71120000  1.0 -0.1878899847
C  C79  1  0.14310000  0.68310000  0.28880000  1.0 -0.1878899847
C  C80  1  0.54000000  0.85690000  0.28880000  1.0 -0.1878899847
C  C81  1  0.31690000  0.46000000  0.28880000  1.0 -0.1878899847
C  C82  1  0.68310000  0.54000000  0.28880000  1.0 -0.1878899847
C  C83  1  0.85690000  0.31690000  0.28880000  1.0 -0.1878899847
C  C84  1  0.46000000  0.14310000  0.28880000  1.0 -0.1878899847
C  C85  1  0.54000000  0.68310000  0.28880000  1.0 -0.1878899847
C  C86  1  0.85690000  0.54000000  0.28880000  1.0 -0.1878899847
C  C87  1  0.31690000  0.85690000  0.28880000  1.0 -0.1878899847
C  C88  1  0.46000000  0.31690000  0.28880000  1.0 -0.1878899847
C  C89  1  0.14310000  0.46000000  0.28880000  1.0 -0.1878899847
C  C90  1  0.68310000  0.14310000  0.28880000  1.0 -0.1878899847
C  C91  1  0.85690000  0.31690000  0.71120000  1.0 -0.1878899847
C  C92  1  0.46000000  0.14310000  0.71120000  1.0 -0.1878899847
C  C93  1  0.68310000  0.54000000  0.71120000  1.0 -0.1878899847
C  C94  1  0.31690000  0.46000000  0.71120000  1.0 -0.1878899847
C  C95  1  0.14310000  0.68310000  0.71120000  1.0 -0.1878899847
C  C96  1  0.54000000  0.85690000  0.71120000  1.0 -0.1878899847
C  C97  1  0.48820000  0.30650000  0.72210000  1.0 0.0691865888
C  C98  1  0.18170000  0.48820000  0.72210000  1.0 0.0691865888
C  C99  1  0.69350000  0.18170000  0.72210000  1.0 0.0691865888
C  C100  1  0.51180000  0.69350000  0.72210000  1.0 0.0691865888
C  C101  1  0.81830000  0.51180000  0.72210000  1.0 0.0691865888
C  C102  1  0.30650000  0.81830000  0.72210000  1.0 0.0691865888
C  C103  1  0.18170000  0.69350000  0.27790000  1.0 0.0691865888
C  C104  1  0.51180000  0.81830000  0.27790000  1.0 0.0691865888
C  C105  1  0.30650000  0.48820000  0.27790000  1.0 0.0691865888
C  C106  1  0.69350000  0.51180000  0.27790000  1.0 0.0691865888
C  C107  1  0.81830000  0.30650000  0.27790000  1.0 0.0691865888
C  C108  1  0.48820000  0.18170000  0.27790000  1.0 0.0691865888
C  C109  1  0.51180000  0.69350000  0.27790000  1.0 0.0691865888
C  C110  1  0.81830000  0.51180000  0.27790000  1.0 0.0691865888
C  C111  1  0.30650000  0.81830000  0.27790000  1.0 0.0691865888
C  C112  1  0.48820000  0.30650000  0.27790000  1.0 0.0691865888
C  C113  1  0.18170000  0.48820000  0.27790000  1.0 0.0691865888
C  C114  1  0.69350000  0.18170000  0.27790000  1.0 0.0691865888
C  C115  1  0.81830000  0.30650000  0.72210000  1.0 0.0691865888
C  C116  1  0.48820000  0.18170000  0.72210000  1.0 0.0691865888
C  C117  1  0.69350000  0.51180000  0.72210000  1.0 0.0691865888
C  C118  1  0.30650000  0.48820000  0.72210000  1.0 0.0691865888
C  C119  1  0.18170000  0.69350000  0.72210000  1.0 0.0691865888
C  C120  1  0.51180000  0.81830000  0.72210000  1.0 0.0691865888
C  C121  1  0.51690000  0.32560000  0.78000000  1.0 -0.1723321268
C  C122  1  0.19130000  0.51690000  0.78000000  1.0 -0.1723321268
C  C123  1  0.67440000  0.19130000  0.78000000  1.0 -0.1723321268
C  C124  1  0.48310000  0.67440000  0.78000000  1.0 -0.1723321268
C  C125  1  0.80870000  0.48310000  0.78000000  1.0 -0.1723321268
C  C126  1  0.32560000  0.80870000  0.78000000  1.0 -0.1723321268
C  C127  1  0.19130000  0.67440000  0.22000000  1.0 -0.1723321268
C  C128  1  0.48310000  0.80870000  0.22000000  1.0 -0.1723321268
C  C129  1  0.32560000  0.51690000  0.22000000  1.0 -0.1723321268
C  C130  1  0.67440000  0.48310000  0.22000000  1.0 -0.1723321268
C  C131  1  0.80870000  0.32560000  0.22000000  1.0 -0.1723321268
C  C132  1  0.51690000  0.19130000  0.22000000  1.0 -0.1723321268
C  C133  1  0.48310000  0.67440000  0.22000000  1.0 -0.1723321268
C  C134  1  0.80870000  0.48310000  0.22000000  1.0 -0.1723321268
C  C135  1  0.32560000  0.80870000  0.22000000  1.0 -0.1723321268
C  C136  1  0.51690000  0.32560000  0.22000000  1.0 -0.1723321268
C  C137  1  0.19130000  0.51690000  0.22000000  1.0 -0.1723321268
C  C138  1  0.67440000  0.19130000  0.22000000  1.0 -0.1723321268
C  C139  1  0.80870000  0.32560000  0.78000000  1.0 -0.1723321268
C  C140  1  0.51690000  0.19130000  0.78000000  1.0 -0.1723321268
C  C141  1  0.67440000  0.48310000  0.78000000  1.0 -0.1723321268
C  C142  1  0.32560000  0.51690000  0.78000000  1.0 -0.1723321268
C  C143  1  0.19130000  0.67440000  0.78000000  1.0 -0.1723321268
C  C144  1  0.48310000  0.80870000  0.78000000  1.0 -0.1723321268
C  C145  1  0.51680000  0.35460000  0.82590000  1.0 -0.1059323681
C  C146  1  0.16220000  0.51680000  0.82590000  1.0 -0.1059323681
C  C147  1  0.64540000  0.16220000  0.82590000  1.0 -0.1059323681
C  C148  1  0.48320000  0.64540000  0.82590000  1.0 -0.1059323681
C  C149  1  0.83780000  0.48320000  0.82590000  1.0 -0.1059323681
C  C150  1  0.35460000  0.83780000  0.82590000  1.0 -0.1059323681
C  C151  1  0.16220000  0.64540000  0.17410000  1.0 -0.1059323681
C  C152  1  0.48320000  0.83780000  0.17410000  1.0 -0.1059323681
C  C153  1  0.35460000  0.51680000  0.17410000  1.0 -0.1059323681
C  C154  1  0.64540000  0.48320000  0.17410000  1.0 -0.1059323681
C  C155  1  0.83780000  0.35460000  0.17410000  1.0 -0.1059323681
C  C156  1  0.51680000  0.16220000  0.17410000  1.0 -0.1059323681
C  C157  1  0.48320000  0.64540000  0.17410000  1.0 -0.1059323681
C  C158  1  0.83780000  0.48320000  0.17410000  1.0 -0.1059323681
C  C159  1  0.35460000  0.83780000  0.17410000  1.0 -0.1059323681
C  C160  1  0.51680000  0.35460000  0.17410000  1.0 -0.1059323681
C  C161  1  0.16220000  0.51680000  0.17410000  1.0 -0.1059323681
C  C162  1  0.64540000  0.16220000  0.17410000  1.0 -0.1059323681
C  C163  1  0.83780000  0.35460000  0.82590000  1.0 -0.1059323681
C  C164  1  0.51680000  0.16220000  0.82590000  1.0 -0.1059323681
C  C165  1  0.64540000  0.48320000  0.82590000  1.0 -0.1059323681
C  C166  1  0.35460000  0.51680000  0.82590000  1.0 -0.1059323681
C  C167  1  0.16220000  0.64540000  0.82590000  1.0 -0.1059323681
C  C168  1  0.48320000  0.83780000  0.82590000  1.0 -0.1059323681
C  C169  1  0.48890000  0.27520000  0.67310000  1.0 0.0062476977
C  C170  1  0.21370000  0.48890000  0.67310000  1.0 0.0062476977
C  C171  1  0.72480000  0.21370000  0.67310000  1.0 0.0062476977
C  C172  1  0.51110000  0.72480000  0.67310000  1.0 0.0062476977
C  C173  1  0.78630000  0.51110000  0.67310000  1.0 0.0062476977
C  C174  1  0.27520000  0.78630000  0.67310000  1.0 0.0062476977
C  C175  1  0.21370000  0.72480000  0.32690000  1.0 0.0062476977
C  C176  1  0.51110000  0.78630000  0.32690000  1.0 0.0062476977
C  C177  1  0.27520000  0.48890000  0.32690000  1.0 0.0062476977
C  C178  1  0.72480000  0.51110000  0.32690000  1.0 0.0062476977
C  C179  1  0.78630000  0.27520000  0.32690000  1.0 0.0062476977
C  C180  1  0.48890000  0.21370000  0.32690000  1.0 0.0062476977
C  C181  1  0.51110000  0.72480000  0.32690000  1.0 0.0062476977
C  C182  1  0.78630000  0.51110000  0.32690000  1.0 0.0062476977
C  C183  1  0.27520000  0.78630000  0.32690000  1.0 0.0062476977
C  C184  1  0.48890000  0.27520000  0.32690000  1.0 0.0062476977
C  C185  1  0.21370000  0.48890000  0.32690000  1.0 0.0062476977
C  C186  1  0.72480000  0.21370000  0.32690000  1.0 0.0062476977
C  C187  1  0.78630000  0.27520000  0.67310000  1.0 0.0062476977
C  C188  1  0.48890000  0.21370000  0.67310000  1.0 0.0062476977
C  C189  1  0.72480000  0.51110000  0.67310000  1.0 0.0062476977
C  C190  1  0.27520000  0.48890000  0.67310000  1.0 0.0062476977
C  C191  1  0.21370000  0.72480000  0.67310000  1.0 0.0062476977
C  C192  1  0.51110000  0.78630000  0.67310000  1.0 0.0062476977
C  C193  1  0.48990000  0.27650000  0.58550000  1.0 0.0062476977
C  C194  1  0.21340000  0.48990000  0.58550000  1.0 0.0046401972
C  C195  1  0.72350000  0.21340000  0.58550000  1.0 0.0062476977
C  C196  1  0.51010000  0.72350000  0.58550000  1.0 0.0062476977
C  C197  1  0.78660000  0.51010000  0.58550000  1.0 0.0062476977
C  C198  1  0.27650000  0.78660000  0.58550000  1.0 0.0046401972
C  C199  1  0.21340000  0.72350000  0.41450000  1.0 0.0046401972
C  C200  1  0.51010000  0.78660000  0.41450000  1.0 0.0046401972
C  C201  1  0.27650000  0.48990000  0.41450000  1.0 0.0046401972
C  C202  1  0.72350000  0.51010000  0.41450000  1.0 0.0046401972
C  C203  1  0.78660000  0.27650000  0.41450000  1.0 0.0062476977
C  C204  1  0.48990000  0.21340000  0.41450000  1.0 0.0046401972
C  C205  1  0.51010000  0.72350000  0.41450000  1.0 0.0046401972
C  C206  1  0.78660000  0.51010000  0.41450000  1.0 0.0046401972
C  C207  1  0.27650000  0.78660000  0.41450000  1.0 0.0046401972
C  C208  1  0.48990000  0.27650000  0.41450000  1.0 0.0046401972
C  C209  1  0.21340000  0.48990000  0.41450000  1.0 0.0046401972
C  C210  1  0.72350000  0.21340000  0.41450000  1.0 0.0046401972
C  C211  1  0.78660000  0.27650000  0.58550000  1.0 0.0062476977
C  C212  1  0.48990000  0.21340000  0.58550000  1.0 0.0062476977
C  C213  1  0.72350000  0.51010000  0.58550000  1.0 0.0062476977
C  C214  1  0.27650000  0.48990000  0.58550000  1.0 0.0046401972
C  C215  1  0.21340000  0.72350000  0.58550000  1.0 0.0046401972
C  C216  1  0.51010000  0.78660000  0.58550000  1.0 0.0062476977
C  C217  1  0.48700000  0.24350000  0.54320000  1.0 -0.0147467784
C  C218  1  0.24350000  0.48700000  0.54320000  1.0 -0.0151946085
C  C219  1  0.75650000  0.24350000  0.54320000  1.0 -0.0147467784
C  C220  1  0.51300000  0.75650000  0.54320000  1.0 -0.0147467784
C  C221  1  0.75650000  0.51300000  0.54320000  1.0 -0.0147467784
C  C222  1  0.24350000  0.75650000  0.54320000  1.0 -0.0151946085
C  C223  1  0.24350000  0.75650000  0.45680000  1.0 -0.0151946085
C  C224  1  0.51300000  0.75650000  0.45680000  1.0 -0.0147467784
C  C225  1  0.24350000  0.48700000  0.45680000  1.0 -0.0151946085
C  C226  1  0.75650000  0.51300000  0.45680000  1.0 -0.0147467784
C  C227  1  0.75650000  0.24350000  0.45680000  1.0 -0.0147467784
C  C228  1  0.48700000  0.24350000  0.45680000  1.0 -0.0147467784
C  C229  1  0.48850000  0.24425000  0.71190000  1.0 -0.2081010194
C  C230  1  0.24425000  0.48850000  0.71190000  1.0 -0.2081010194
C  C231  1  0.75575000  0.24425000  0.71190000  1.0 -0.2081010194
C  C232  1  0.51150000  0.75575000  0.71190000  1.0 -0.2081010194
C  C233  1  0.75575000  0.51150000  0.71190000  1.0 -0.2081010194
C  C234  1  0.24425000  0.75575000  0.71190000  1.0 -0.2081010194
C  C235  1  0.24425000  0.75575000  0.28810000  1.0 -0.2081010194
C  C236  1  0.51150000  0.75575000  0.28810000  1.0 -0.2081010194
C  C237  1  0.24425000  0.48850000  0.28810000  1.0 -0.2081010194
C  C238  1  0.75575000  0.51150000  0.28810000  1.0 -0.2081010194
C  C239  1  0.75575000  0.24425000  0.28810000  1.0 -0.2081010194
C  C240  1  0.48850000  0.24425000  0.28810000  1.0 -0.2081010194
C  C241  1  0.49040000  0.30720000  0.53870000  1.0 -0.1525125841
C  C242  1  0.18320000  0.49040000  0.53870000  1.0 -0.1525125841
C  C243  1  0.69280000  0.18320000  0.53870000  1.0 -0.1525125841
C  C244  1  0.50960000  0.69280000  0.53870000  1.0 -0.1525125841
C  C245  1  0.81680000  0.50960000  0.53870000  1.0 -0.1525125841
C  C246  1  0.30720000  0.81680000  0.53870000  1.0 -0.1525125841
C  C247  1  0.18320000  0.69280000  0.46130000  1.0 -0.1525125841
C  C248  1  0.50960000  0.81680000  0.46130000  1.0 -0.1525125841
C  C249  1  0.30720000  0.49040000  0.46130000  1.0 -0.1525125841
C  C250  1  0.69280000  0.50960000  0.46130000  1.0 -0.1525125841
C  C251  1  0.81680000  0.30720000  0.46130000  1.0 -0.1525125841
C  C252  1  0.49040000  0.18320000  0.46130000  1.0 -0.1525125841
C  C253  1  0.50960000  0.69280000  0.46130000  1.0 -0.1525125841
C  C254  1  0.81680000  0.50960000  0.46130000  1.0 -0.1525125841
C  C255  1  0.30720000  0.81680000  0.46130000  1.0 -0.1525125841
C  C256  1  0.49040000  0.30720000  0.46130000  1.0 -0.1525125841
C  C257  1  0.18320000  0.49040000  0.46130000  1.0 -0.1525125841
C  C258  1  0.69280000  0.18320000  0.46130000  1.0 -0.1525125841
C  C259  1  0.81680000  0.30720000  0.53870000  1.0 -0.1525125841
C  C260  1  0.49040000  0.18320000  0.53870000  1.0 -0.1525125841
C  C261  1  0.69280000  0.50960000  0.53870000  1.0 -0.1525125841
C  C262  1  0.30720000  0.49040000  0.53870000  1.0 -0.1525125841
C  C263  1  0.18320000  0.69280000  0.53870000  1.0 -0.1525125841
C  C264  1  0.50960000  0.81680000  0.53870000  1.0 -0.1525125841
O  O1  1  0.46598000  0.40823000  0.84850000  1.0 -0.4624058593
O  O2  1  0.05775000  0.46598000  0.84850000  1.0 -0.4624058593
O  O3  1  0.59177000  0.05775000  0.84850000  1.0 -0.4624058593
O  O4  1  0.53402000  0.59177000  0.84850000  1.0 -0.4624058593
O  O5  1  0.94225000  0.53402000  0.84850000  1.0 -0.4624058593
O  O6  1  0.40823000  0.94225000  0.84850000  1.0 -0.4624058593
O  O7  1  0.05775000  0.59177000  0.15150000  1.0 -0.4624058593
O  O8  1  0.53402000  0.94225000  0.15150000  1.0 -0.4624058593
O  O9  1  0.40823000  0.46598000  0.15150000  1.0 -0.4624058593
O  O10  1  0.59177000  0.53402000  0.15150000  1.0 -0.4624058593
O  O11  1  0.94225000  0.40823000  0.15150000  1.0 -0.4624058593
O  O12  1  0.46598000  0.05775000  0.15150000  1.0 -0.4624058593
O  O13  1  0.53402000  0.59177000  0.15150000  1.0 -0.4624058593
O  O14  1  0.94225000  0.53402000  0.15150000  1.0 -0.4624058593
O  O15  1  0.40823000  0.94225000  0.15150000  1.0 -0.4624058593
O  O16  1  0.46598000  0.40823000  0.15150000  1.0 -0.4624058593
O  O17  1  0.05775000  0.46598000  0.15150000  1.0 -0.4624058593
O  O18  1  0.59177000  0.05775000  0.15150000  1.0 -0.4624058593
O  O19  1  0.94225000  0.40823000  0.84850000  1.0 -0.4624058593
O  O20  1  0.46598000  0.05775000  0.84850000  1.0 -0.4624058593
O  O21  1  0.59177000  0.53402000  0.84850000  1.0 -0.4624058593
O  O22  1  0.40823000  0.46598000  0.84850000  1.0 -0.4624058593
O  O23  1  0.05775000  0.59177000  0.84850000  1.0 -0.4624058593
O  O24  1  0.53402000  0.94225000  0.84850000  1.0 -0.4624058593
O  O25  1  0.51744000  0.41297000  0.91590000  1.0 -0.5218566497
O  O26  1  0.10447000  0.51744000  0.91590000  1.0 -0.5218566497
O  O27  1  0.58703000  0.10447000  0.91590000  1.0 -0.5218566497
O  O28  1  0.48256000  0.58703000  0.91590000  1.0 -0.5218566497
O  O29  1  0.89553000  0.48256000  0.91590000  1.0 -0.5218566497
O  O30  1  0.41297000  0.89553000  0.91590000  1.0 -0.5218566497
O  O31  1  0.10447000  0.58703000  0.08410000  1.0 -0.5218566497
O  O32  1  0.48256000  0.89553000  0.08410000  1.0 -0.5218566497
O  O33  1  0.41297000  0.51744000  0.08410000  1.0 -0.5218566497
O  O34  1  0.58703000  0.48256000  0.08410000  1.0 -0.5218566497
O  O35  1  0.89553000  0.41297000  0.08410000  1.0 -0.5218566497
O  O36  1  0.51744000  0.10447000  0.08410000  1.0 -0.5218566497
O  O37  1  0.48256000  0.58703000  0.08410000  1.0 -0.5218566497
O  O38  1  0.89553000  0.48256000  0.08410000  1.0 -0.5218566497
O  O39  1  0.41297000  0.89553000  0.08410000  1.0 -0.5218566497
O  O40  1  0.51744000  0.41297000  0.08410000  1.0 -0.5218566497
O  O41  1  0.10447000  0.51744000  0.08410000  1.0 -0.5218566497
O  O42  1  0.58703000  0.10447000  0.08410000  1.0 -0.5218566497
O  O43  1  0.89553000  0.41297000  0.91590000  1.0 -0.5218566497
O  O44  1  0.51744000  0.10447000  0.91590000  1.0 -0.5218566497
O  O45  1  0.58703000  0.48256000  0.91590000  1.0 -0.5218566497
O  O46  1  0.41297000  0.51744000  0.91590000  1.0 -0.5218566497
O  O47  1  0.10447000  0.58703000  0.91590000  1.0 -0.5218566497
O  O48  1  0.48256000  0.89553000  0.91590000  1.0 -0.5218566497
O  O49  1  0.43140000  0.46799000  0.00000000  1.0 -0.9738652746
O  O50  1  0.96341000  0.43140000  0.00000000  1.0 -0.9738652746
O  O51  1  0.53201000  0.96341000  0.00000000  1.0 -0.9738652746
O  O52  1  0.56860000  0.53201000  0.00000000  1.0 -0.9738652746
O  O53  1  0.03659000  0.56860000  0.00000000  1.0 -0.9738652746
O  O54  1  0.46799000  0.03659000  0.00000000  1.0 -0.9738652746
O  O55  1  0.96341000  0.53201000  0.00000000  1.0 -0.9738652746
O  O56  1  0.56860000  0.03659000  0.00000000  1.0 -0.9738652746
O  O57  1  0.46799000  0.43140000  0.00000000  1.0 -0.9738652746
O  O58  1  0.53201000  0.56860000  0.00000000  1.0 -0.9738652746
O  O59  1  0.03659000  0.46799000  0.00000000  1.0 -0.9738652746
O  O60  1  0.43140000  0.96341000  0.00000000  1.0 -0.9738652746
O  O61  1  0.51752000  0.48248000  0.89520000  1.0 -0.2204831878
O  O62  1  0.03504000  0.51752000  0.89520000  1.0 -0.2204831878
O  O63  1  0.51752000  0.03504000  0.89520000  1.0 -0.2204831878
O  O64  1  0.48248000  0.51752000  0.89520000  1.0 -0.2204831878
O  O65  1  0.96496000  0.48248000  0.89520000  1.0 -0.2204831878
O  O66  1  0.48248000  0.96496000  0.89520000  1.0 -0.2204831878
O  O67  1  0.03504000  0.51752000  0.10480000  1.0 -0.2204831878
O  O68  1  0.48248000  0.96496000  0.10480000  1.0 -0.2204831878
O  O69  1  0.48248000  0.51752000  0.10480000  1.0 -0.2204831878
O  O70  1  0.51752000  0.48248000  0.10480000  1.0 -0.2204831878
O  O71  1  0.96496000  0.48248000  0.10480000  1.0 -0.2204831878
O  O72  1  0.51752000  0.03504000  0.10480000  1.0 -0.2204831878
O  O73  1  0.50090000  0.45770000  0.89160000  1.0 -0.1249037722
O  O74  1  0.04320000  0.50090000  0.89160000  1.0 -0.1249037722
O  O75  1  0.54230000  0.04320000  0.89160000  1.0 -0.1249037722
O  O76  1  0.49910000  0.54230000  0.89160000  1.0 -0.1258231506
O  O77  1  0.95680000  0.49910000  0.89160000  1.0 -0.1249037722
O  O78  1  0.45770000  0.95680000  0.89160000  1.0 -0.1258231506
O  O79  1  0.04320000  0.54230000  0.10840000  1.0 -0.1258231506
O  O80  1  0.49910000  0.95680000  0.10840000  1.0 -0.1258231506
O  O81  1  0.45770000  0.50090000  0.10840000  1.0 -0.1258231506
O  O82  1  0.54230000  0.49910000  0.10840000  1.0 -0.1258231506
O  O83  1  0.95680000  0.45770000  0.10840000  1.0 -0.1258231506
O  O84  1  0.50090000  0.04320000  0.10840000  1.0 -0.1258231506
O  O85  1  0.49910000  0.54230000  0.10840000  1.0 -0.1258231506
O  O86  1  0.95680000  0.49910000  0.10840000  1.0 -0.1258231506
O  O87  1  0.45770000  0.95680000  0.10840000  1.0 -0.1258231506
O  O88  1  0.50090000  0.45770000  0.10840000  1.0 -0.1258231506
O  O89  1  0.04320000  0.50090000  0.10840000  1.0 -0.1258231506
O  O90  1  0.54230000  0.04320000  0.10840000  1.0 -0.1258231506
O  O91  1  0.95680000  0.45770000  0.89160000  1.0 -0.1249037722
O  O92  1  0.50090000  0.04320000  0.89160000  1.0 -0.1249037722
O  O93  1  0.54230000  0.49910000  0.89160000  1.0 -0.1249037722
O  O94  1  0.45770000  0.50090000  0.89160000  1.0 -0.1249037722
O  O95  1  0.04320000  0.54230000  0.89160000  1.0 -0.1258231506
O  O96  1  0.49910000  0.95680000  0.89160000  1.0 -0.1258231506
