# DDEC6 charges by PACMAN v1.1 (https://github.com/mtap-research/PACMAN-charge/)
data_FIFGAE_ASR_pacman
_symmetry_space_group_name_H-M   'P 1'
_cell_length_a   18.19970000
_cell_length_b   18.19970000
_cell_length_c   20.02040000
_cell_angle_alpha   90.00000000
_cell_angle_beta   90.00000000
_cell_angle_gamma   120.00000000
_symmetry_Int_Tables_number   1
_chemical_formula_structural   In3Co2H9(C3O2)15
_chemical_formula_sum   'In6 Co4 H18 C90 O60'
_cell_volume   5742.90775368
_cell_formula_units_Z   2
loop_
 _symmetry_equiv_pos_site_id
 _symmetry_equiv_pos_as_xyz
  1  'x, y, z'
loop_
 _atom_site_type_symbol
 _atom_site_label
 _atom_site_symmetry_multiplicity
 _atom_site_fract_x
 _atom_site_fract_y
 _atom_site_fract_z
 _atom_site_occupancy
 _atom_site_charge
In  In1  1  0.40891000  0.40891000  0.00000000  1.0 1.3471469238
In  In2  1  0.00000000  0.59109000  0.50000000  1.0 1.3471469238
In  In3  1  0.59109000  0.00000000  0.00000000  1.0 1.3471469238
In  In4  1  0.40891000  0.40891000  0.50000000  1.0 1.3471469238
In  In5  1  0.00000000  0.59109000  0.00000000  1.0 1.3471469238
In  In6  1  0.59109000  0.00000000  0.50000000  1.0 1.3471469238
Co  Co1  1  0.00000000  0.00000000  0.14704000  1.0 1.0825827077
Co  Co2  1  0.00000000  0.00000000  0.35296000  1.0 1.0825827077
Co  Co3  1  0.00000000  0.00000000  0.64704000  1.0 1.0825827077
Co  Co4  1  0.00000000  0.00000000  0.85296000  1.0 1.0825827077
H  H1  1  0.20540000  0.23370000  0.15110000  1.0 0.1387669362
H  H2  1  0.02830000  0.79460000  0.34890000  1.0 0.1387669362
H  H3  1  0.76630000  0.97170000  0.15110000  1.0 0.1387669362
H  H4  1  0.20540000  0.23370000  0.34890000  1.0 0.1387669362
H  H5  1  0.02830000  0.79460000  0.15110000  1.0 0.1387669362
H  H6  1  0.76630000  0.97170000  0.34890000  1.0 0.1387669362
H  H7  1  0.23370000  0.20540000  0.65110000  1.0 0.1387669362
H  H8  1  0.97170000  0.76630000  0.84890000  1.0 0.1387669362
H  H9  1  0.79460000  0.02830000  0.65110000  1.0 0.1387669362
H  H10  1  0.23370000  0.20540000  0.84890000  1.0 0.1387669362
H  H11  1  0.97170000  0.76630000  0.65110000  1.0 0.1387669362
H  H12  1  0.79460000  0.02830000  0.84890000  1.0 0.1387669362
H  H13  1  0.40450000  0.41080000  0.25000000  1.0 0.1472466916
H  H14  1  0.00630000  0.59550000  0.25000000  1.0 0.1472466916
H  H15  1  0.58920000  0.99370000  0.25000000  1.0 0.1472466916
H  H16  1  0.41080000  0.40450000  0.75000000  1.0 0.1472466916
H  H17  1  0.99370000  0.58920000  0.75000000  1.0 0.1472466916
H  H18  1  0.59550000  0.00630000  0.75000000  1.0 0.1472466916
C  C1  1  0.31040000  0.32860000  0.18910000  1.0 -0.013461425
C  C2  1  0.01820000  0.68960000  0.31090000  1.0 -0.013461425
C  C3  1  0.67140000  0.98180000  0.18910000  1.0 -0.013461425
C  C4  1  0.31040000  0.32860000  0.31090000  1.0 -0.013461425
C  C5  1  0.01820000  0.68960000  0.18910000  1.0 -0.013461425
C  C6  1  0.67140000  0.98180000  0.31090000  1.0 -0.013461425
C  C7  1  0.32860000  0.31040000  0.68910000  1.0 -0.013461425
C  C8  1  0.98180000  0.67140000  0.81090000  1.0 -0.013461425
C  C9  1  0.68960000  0.01820000  0.68910000  1.0 -0.013461425
C  C10  1  0.32860000  0.31040000  0.81090000  1.0 -0.013461425
C  C11  1  0.98180000  0.67140000  0.68910000  1.0 -0.013461425
C  C12  1  0.68960000  0.01820000  0.81090000  1.0 -0.013461425
C  C13  1  0.35200000  0.36360000  0.12450000  1.0 0.5569036757
C  C14  1  0.01160000  0.64800000  0.37550000  1.0 0.5569036757
C  C15  1  0.63640000  0.98840000  0.12450000  1.0 0.5569036757
C  C16  1  0.35200000  0.36360000  0.37550000  1.0 0.5569036757
C  C17  1  0.01160000  0.64800000  0.12450000  1.0 0.5569036757
C  C18  1  0.63640000  0.98840000  0.37550000  1.0 0.5569036757
C  C19  1  0.36360000  0.35200000  0.62450000  1.0 0.5569036757
C  C20  1  0.98840000  0.63640000  0.87550000  1.0 0.5569036757
C  C21  1  0.64800000  0.01160000  0.62450000  1.0 0.5569036757
C  C22  1  0.36360000  0.35200000  0.87550000  1.0 0.5569036757
C  C23  1  0.98840000  0.63640000  0.62450000  1.0 0.5569036757
C  C24  1  0.64800000  0.01160000  0.87550000  1.0 0.5569036757
C  C25  1  0.10310000  0.14060000  0.25000000  1.0 0.6094789062
C  C26  1  0.03750000  0.89690000  0.25000000  1.0 0.6094789062
C  C27  1  0.85940000  0.96250000  0.25000000  1.0 0.6094789062
C  C28  1  0.14060000  0.10310000  0.75000000  1.0 0.6094789062
C  C29  1  0.96250000  0.85940000  0.75000000  1.0 0.6094789062
C  C30  1  0.89690000  0.03750000  0.75000000  1.0 0.6094789062
C  C31  1  0.23200000  0.25800000  0.19130000  1.0 -0.0672397708
C  C32  1  0.02600000  0.76800000  0.30870000  1.0 -0.0672397708
C  C33  1  0.74200000  0.97400000  0.19130000  1.0 -0.0672397708
C  C34  1  0.23200000  0.25800000  0.30870000  1.0 -0.0672397708
C  C35  1  0.02600000  0.76800000  0.19130000  1.0 -0.0672397708
C  C36  1  0.74200000  0.97400000  0.30870000  1.0 -0.0672397708
C  C37  1  0.25800000  0.23200000  0.69130000  1.0 -0.0672397708
C  C38  1  0.97400000  0.74200000  0.80870000  1.0 -0.0672397708
C  C39  1  0.76800000  0.02600000  0.69130000  1.0 -0.0672397708
C  C40  1  0.25800000  0.23200000  0.80870000  1.0 -0.0672397708
C  C41  1  0.97400000  0.74200000  0.69130000  1.0 -0.0672397708
C  C42  1  0.76800000  0.02600000  0.80870000  1.0 -0.0672397708
C  C43  1  0.58150000  0.26780000  0.01070000  1.0 0.0672852991
C  C44  1  0.68630000  0.41850000  0.48930000  1.0 0.0672852991
C  C45  1  0.73220000  0.31370000  0.01070000  1.0 0.0672852991
C  C46  1  0.58150000  0.26780000  0.48930000  1.0 0.0672852991
C  C47  1  0.68630000  0.41850000  0.01070000  1.0 0.0672852991
C  C48  1  0.73220000  0.31370000  0.48930000  1.0 0.0672852991
C  C49  1  0.26780000  0.58150000  0.51070000  1.0 0.0672852991
C  C50  1  0.31370000  0.73220000  0.98930000  1.0 0.0672852991
C  C51  1  0.41850000  0.68630000  0.51070000  1.0 0.0672852991
C  C52  1  0.26780000  0.58150000  0.98930000  1.0 0.0672852991
C  C53  1  0.31370000  0.73220000  0.51070000  1.0 0.0672852991
C  C54  1  0.41850000  0.68630000  0.98930000  1.0 0.0672852991
C  C55  1  0.18980000  0.22040000  0.25000000  1.0 -0.0167989366
C  C56  1  0.03060000  0.81020000  0.25000000  1.0 -0.0167989366
C  C57  1  0.77960000  0.96940000  0.25000000  1.0 -0.0167989366
C  C58  1  0.22040000  0.18980000  0.75000000  1.0 -0.0167989366
C  C59  1  0.96940000  0.77960000  0.75000000  1.0 -0.0167989366
C  C60  1  0.81020000  0.03060000  0.75000000  1.0 -0.0167989366
C  C61  1  0.60360000  0.35420000  0.01160000  1.0 -0.049664458
C  C62  1  0.75060000  0.39640000  0.48840000  1.0 -0.049664458
C  C63  1  0.64580000  0.24940000  0.01160000  1.0 -0.049664458
C  C64  1  0.60360000  0.35420000  0.48840000  1.0 -0.049664458
C  C65  1  0.75060000  0.39640000  0.01160000  1.0 -0.049664458
C  C66  1  0.64580000  0.24940000  0.48840000  1.0 -0.049664458
C  C67  1  0.35420000  0.60360000  0.51160000  1.0 -0.049664458
C  C68  1  0.24940000  0.64580000  0.98840000  1.0 -0.049664458
C  C69  1  0.39640000  0.75060000  0.51160000  1.0 -0.049664458
C  C70  1  0.35420000  0.60360000  0.98840000  1.0 -0.049664458
C  C71  1  0.24940000  0.64580000  0.51160000  1.0 -0.049664458
C  C72  1  0.39640000  0.75060000  0.98840000  1.0 -0.049664458
C  C73  1  0.35040000  0.36350000  0.25000000  1.0 -0.049664458
C  C74  1  0.01310000  0.64960000  0.25000000  1.0 -0.049664458
C  C75  1  0.63650000  0.98690000  0.25000000  1.0 -0.055400852
C  C76  1  0.36350000  0.35040000  0.75000000  1.0 -0.055400852
C  C77  1  0.98690000  0.63650000  0.75000000  1.0 -0.055400852
C  C78  1  0.64960000  0.01310000  0.75000000  1.0 -0.055400852
C  C79  1  0.53110000  0.37400000  0.00800000  1.0 0.5839574292
C  C80  1  0.84290000  0.46890000  0.49200000  1.0 0.5839574292
C  C81  1  0.62600000  0.15710000  0.00800000  1.0 0.5839574292
C  C82  1  0.53110000  0.37400000  0.49200000  1.0 0.5839574292
C  C83  1  0.84290000  0.46890000  0.00800000  1.0 0.5839574292
C  C84  1  0.62600000  0.15710000  0.49200000  1.0 0.5839574292
C  C85  1  0.37400000  0.53110000  0.50800000  1.0 0.5862017527
C  C86  1  0.15710000  0.62600000  0.99200000  1.0 0.5862017527
C  C87  1  0.46890000  0.84290000  0.50800000  1.0 0.5862017527
C  C88  1  0.37400000  0.53110000  0.99200000  1.0 0.5862017527
C  C89  1  0.15710000  0.62600000  0.50800000  1.0 0.5862017527
C  C90  1  0.46890000  0.84290000  0.99200000  1.0 0.5862017527
O  O1  1  0.07260000  0.11190000  0.19530000  1.0 -0.555232291
O  O2  1  0.03930000  0.92740000  0.30470000  1.0 -0.5545439765
O  O3  1  0.88810000  0.96070000  0.19530000  1.0 -0.555232291
O  O4  1  0.07260000  0.11190000  0.30470000  1.0 -0.555232291
O  O5  1  0.03930000  0.92740000  0.19530000  1.0 -0.5545439765
O  O6  1  0.88810000  0.96070000  0.30470000  1.0 -0.555232291
O  O7  1  0.11190000  0.07260000  0.69530000  1.0 -0.555232291
O  O8  1  0.96070000  0.88810000  0.80470000  1.0 -0.555232291
O  O9  1  0.92740000  0.03930000  0.69530000  1.0 -0.555232291
O  O10  1  0.11190000  0.07260000  0.80470000  1.0 -0.555232291
O  O11  1  0.96070000  0.88810000  0.69530000  1.0 -0.555232291
O  O12  1  0.92740000  0.03930000  0.80470000  1.0 -0.555232291
O  O13  1  0.31380000  0.32050000  0.07260000  1.0 -0.511734808
O  O14  1  0.00670000  0.68620000  0.42740000  1.0 -0.511734808
O  O15  1  0.67950000  0.99330000  0.07260000  1.0 -0.511734808
O  O16  1  0.31380000  0.32050000  0.42740000  1.0 -0.511734808
O  O17  1  0.00670000  0.68620000  0.07260000  1.0 -0.511734808
O  O18  1  0.67950000  0.99330000  0.42740000  1.0 -0.511734808
O  O19  1  0.32050000  0.31380000  0.57260000  1.0 -0.511734808
O  O20  1  0.99330000  0.67950000  0.92740000  1.0 -0.511734808
O  O21  1  0.68620000  0.00670000  0.57260000  1.0 -0.511734808
O  O22  1  0.32050000  0.31380000  0.92740000  1.0 -0.511734808
O  O23  1  0.99330000  0.67950000  0.57260000  1.0 -0.511734808
O  O24  1  0.68620000  0.00670000  0.92740000  1.0 -0.511734808
O  O25  1  0.41900000  0.43060000  0.11940000  1.0 -0.4995988156
O  O26  1  0.01160000  0.58100000  0.38060000  1.0 -0.4995988156
O  O27  1  0.56940000  0.98840000  0.11940000  1.0 -0.4995988156
O  O28  1  0.41900000  0.43060000  0.38060000  1.0 -0.4995988156
O  O29  1  0.01160000  0.58100000  0.11940000  1.0 -0.4995988156
O  O30  1  0.56940000  0.98840000  0.38060000  1.0 -0.4995988156
O  O31  1  0.43060000  0.41900000  0.61940000  1.0 -0.4995988156
O  O32  1  0.98840000  0.56940000  0.88060000  1.0 -0.4995988156
O  O33  1  0.58100000  0.01160000  0.61940000  1.0 -0.4995988156
O  O34  1  0.43060000  0.41900000  0.88060000  1.0 -0.4995988156
O  O35  1  0.98840000  0.56940000  0.61940000  1.0 -0.4995988156
O  O36  1  0.58100000  0.01160000  0.88060000  1.0 -0.4995988156
O  O37  1  0.54840000  0.44900000  0.00607000  1.0 -0.511734808
O  O38  1  0.90060000  0.45160000  0.49393000  1.0 -0.511734808
O  O39  1  0.55100000  0.09940000  0.00607000  1.0 -0.511734808
O  O40  1  0.54840000  0.44900000  0.49393000  1.0 -0.511734808
O  O41  1  0.90060000  0.45160000  0.00607000  1.0 -0.511734808
O  O42  1  0.55100000  0.09940000  0.49393000  1.0 -0.511734808
O  O43  1  0.44900000  0.54840000  0.50607000  1.0 -0.511734808
O  O44  1  0.09940000  0.55100000  0.99393000  1.0 -0.511734808
O  O45  1  0.45160000  0.90060000  0.50607000  1.0 -0.511734808
O  O46  1  0.44900000  0.54840000  0.99393000  1.0 -0.511734808
O  O47  1  0.09940000  0.55100000  0.50607000  1.0 -0.511734808
O  O48  1  0.45160000  0.90060000  0.99393000  1.0 -0.511734808
O  O49  1  0.45710000  0.31400000  0.00700000  1.0 -0.5171371793
O  O50  1  0.85690000  0.54290000  0.49300000  1.0 -0.5171371793
O  O51  1  0.68600000  0.14310000  0.00700000  1.0 -0.5171371793
O  O52  1  0.45710000  0.31400000  0.49300000  1.0 -0.5171371793
O  O53  1  0.85690000  0.54290000  0.00700000  1.0 -0.5171371793
O  O54  1  0.68600000  0.14310000  0.49300000  1.0 -0.5171371793
O  O55  1  0.31400000  0.45710000  0.50700000  1.0 -0.5171371793
O  O56  1  0.14310000  0.68600000  0.99300000  1.0 -0.5171371793
O  O57  1  0.54290000  0.85690000  0.50700000  1.0 -0.5171371793
O  O58  1  0.31400000  0.45710000  0.99300000  1.0 -0.5171371793
O  O59  1  0.14310000  0.68600000  0.50700000  1.0 -0.5171371793
O  O60  1  0.54290000  0.85690000  0.99300000  1.0 -0.5171371793
