# DDEC6 charges by PACMAN v1.1 (https://github.com/mtap-research/PACMAN-charge/)
data_FIFPAM01_ASR_pacman
_symmetry_space_group_name_H-M   'P 1'
_cell_length_a   11.33360000
_cell_length_b   11.33360000
_cell_length_c   8.14050000
_cell_angle_alpha   84.17320000
_cell_angle_beta   95.82680000
_cell_angle_gamma   55.20880000
_symmetry_Int_Tables_number   1
_chemical_formula_structural   NiH11C11N2O3
_chemical_formula_sum   'Ni2 H22 C22 N4 O6'
_cell_volume   837.86289778
_cell_formula_units_Z   2
loop_
 _symmetry_equiv_pos_site_id
 _symmetry_equiv_pos_as_xyz
  1  'x, y, z'
loop_
 _atom_site_type_symbol
 _atom_site_label
 _atom_site_symmetry_multiplicity
 _atom_site_fract_x
 _atom_site_fract_y
 _atom_site_fract_z
 _atom_site_occupancy
 _atom_site_charge
Ni  Ni1  1  0.54526000  0.94826000  0.81820000  1.0 0.5500093752
Ni  Ni2  1  0.05174000  0.45474000  0.31820000  1.0 0.5500093752
H  H1  1  0.87800000  0.74600000  0.73600000  1.0 0.0814577692
H  H2  1  0.25400000  0.12200000  0.23600000  1.0 0.0814577692
H  H3  1  0.80300000  0.75700000  0.09800000  1.0 0.0524792917
H  H4  1  0.24300000  0.19700000  0.59800000  1.0 0.0524792917
H  H5  1  0.07100000  0.73900000  0.76200000  1.0 0.1215128356
H  H6  1  0.26100000  0.92900000  0.26200000  1.0 0.1215128356
H  H7  1  0.23600000  0.79800000  0.72700000  1.0 0.1310209089
H  H8  1  0.20200000  0.76400000  0.22700000  1.0 0.1310209089
H  H9  1  0.63300000  0.15100000  0.91500000  1.0 0.0302018278
H  H10  1  0.84900000  0.36700000  0.41500000  1.0 0.0302018278
H  H11  1  0.41000000  0.81000000  0.73900000  1.0 0.1540446186
H  H12  1  0.19000000  0.59000000  0.23900000  1.0 0.1540446186
H  H13  1  0.83200000  0.17000000  0.86800000  1.0 0.1077627258
H  H14  1  0.83000000  0.16800000  0.36800000  1.0 0.1077627258
H  H15  1  0.25000000  0.12800000  0.86200000  1.0 0.1077627258
H  H16  1  0.87200000  0.75000000  0.36200000  1.0 0.1077627258
H  H17  1  0.47300000  0.00500000  0.02300000  1.0 0.2757896685
H  H18  1  0.99500000  0.52700000  0.52300000  1.0 0.2757896685
H  H19  1  0.50300000  0.10300000  0.06300000  1.0 0.3117593431
H  H20  1  0.89700000  0.49700000  0.56300000  1.0 0.3117593431
H  H21  1  0.07900000  0.10300000  0.90500000  1.0 0.1358643675
H  H22  1  0.89700000  0.92100000  0.40500000  1.0 0.1358643675
C  C1  1  0.10830000  0.95110000  0.81620000  1.0 0.0524792917
C  C2  1  0.04890000  0.89170000  0.31620000  1.0 0.0524792917
C  C3  1  0.97950000  0.94690000  0.82110000  1.0 0.100126704
C  C4  1  0.05310000  0.02050000  0.32110000  1.0 0.100126704
C  C5  1  0.85520000  0.83540000  0.78970000  1.0 0.0524792917
C  C6  1  0.16460000  0.14480000  0.28970000  1.0 0.0524792917
C  C7  1  0.98410000  0.82590000  0.78620000  1.0 -0.2142813153
C  C8  1  0.17410000  0.01590000  0.28620000  1.0 -0.2142813153
C  C9  1  0.85040000  0.06480000  0.86120000  1.0 -0.1896762497
C  C10  1  0.93520000  0.14960000  0.36120000  1.0 -0.1896762497
C  C11  1  0.22950000  0.84550000  0.76400000  1.0 -0.1694560743
C  C12  1  0.15450000  0.77050000  0.26400000  1.0 -0.1694560743
C  C13  1  0.73390000  0.05670000  0.86150000  1.0 0.100126704
C  C14  1  0.94330000  0.26610000  0.36150000  1.0 0.100126704
C  C15  1  0.76830000  0.68990000  0.07980000  1.0 0.4292469078
C  C16  1  0.31010000  0.23170000  0.57980000  1.0 0.4292469078
C  C17  1  0.11640000  0.05980000  0.86400000  1.0 -0.1789037532
C  C18  1  0.94020000  0.88360000  0.36400000  1.0 -0.1789037532
C  C19  1  0.34850000  0.84750000  0.75900000  1.0 0.0184002404
C  C20  1  0.15250000  0.65150000  0.25900000  1.0 0.0184002404
C  C21  1  0.23490000  0.06010000  0.86230000  1.0 -0.0286409094
C  C22  1  0.93990000  0.76510000  0.36230000  1.0 -0.0286409094
N  N1  1  0.73070000  0.94550000  0.82460000  1.0 -0.2711766011
N  N2  1  0.05450000  0.26930000  0.32460000  1.0 -0.2711766011
N  N3  1  0.35410000  0.95370000  0.81190000  1.0 -0.2804984993
N  N4  1  0.04630000  0.64590000  0.31190000  1.0 -0.2804984993
O  O1  1  0.66140000  0.73800000  0.96360000  1.0 -0.4694558329
O  O2  1  0.26200000  0.33860000  0.46360000  1.0 -0.4694558329
O  O3  1  0.84210000  0.56430000  0.16750000  1.0 -0.4641308135
O  O4  1  0.43570000  0.15790000  0.66750000  1.0 -0.4694558329
O  O5  1  0.50680000  0.03200000  0.03740000  1.0 -0.5436420387
O  O6  1  0.96800000  0.49320000  0.53740000  1.0 -0.5436420387
