# DDEC6 charges by PACMAN v1.1 (https://github.com/mtap-research/PACMAN-charge/)
data_FIGFOR_ASR_pacman
_symmetry_space_group_name_H-M   'P 1'
_cell_length_a   9.66850000
_cell_length_b   9.66850000
_cell_length_c   14.88790000
_cell_angle_alpha   90.00000000
_cell_angle_beta   90.00000000
_cell_angle_gamma   120.00000000
_symmetry_Int_Tables_number   1
_chemical_formula_structural   ZnB(PO4)2
_chemical_formula_sum   'Zn6 B6 P12 O48'
_cell_volume   1205.26425820
_cell_formula_units_Z   6
loop_
 _symmetry_equiv_pos_site_id
 _symmetry_equiv_pos_as_xyz
  1  'x, y, z'
loop_
 _atom_site_type_symbol
 _atom_site_label
 _atom_site_symmetry_multiplicity
 _atom_site_fract_x
 _atom_site_fract_y
 _atom_site_fract_z
 _atom_site_occupancy
 _atom_site_charge
Zn  Zn1  1  0.51002000  0.48998000  0.08333000  1.0 1.1757349438
Zn  Zn2  1  0.48998000  0.51002000  0.58333000  1.0 1.1757349438
Zn  Zn3  1  0.02004000  0.51002000  0.91667000  1.0 1.1757349438
Zn  Zn4  1  0.97996000  0.48998000  0.41667000  1.0 1.1757349438
Zn  Zn5  1  0.51002000  0.02004000  0.75000000  1.0 1.1757349438
Zn  Zn6  1  0.48998000  0.97996000  0.25000000  1.0 1.1757349438
B  B1  1  0.67050000  0.83525000  0.91667000  1.0 0.9413640566
B  B2  1  0.32950000  0.16475000  0.41667000  1.0 0.9413640566
B  B3  1  0.16475000  0.32950000  0.25000000  1.0 0.9413640566
B  B4  1  0.83525000  0.67050000  0.75000000  1.0 0.9413640566
B  B5  1  0.83525000  0.16475000  0.08333000  1.0 0.9413640566
B  B6  1  0.16475000  0.83525000  0.58333000  1.0 0.9413640566
P  P1  1  0.76137000  0.60660000  0.92644000  1.0 1.5333229171
P  P2  1  0.23863000  0.39340000  0.42644000  1.0 1.5333229171
P  P3  1  0.39340000  0.23863000  0.24023000  1.0 1.5333229171
P  P4  1  0.60660000  0.76137000  0.74023000  1.0 1.5333229171
P  P5  1  0.15477000  0.39340000  0.07356000  1.0 1.5333229171
P  P6  1  0.84523000  0.60660000  0.57356000  1.0 1.5333229171
P  P7  1  0.76137000  0.15477000  0.90689000  1.0 1.5333229171
P  P8  1  0.23863000  0.84523000  0.40689000  1.0 1.5333229171
P  P9  1  0.39340000  0.15477000  0.59311000  1.0 1.5333229171
P  P10  1  0.60660000  0.84523000  0.09311000  1.0 1.5333229171
P  P11  1  0.15477000  0.76137000  0.75977000  1.0 1.5333229171
P  P12  1  0.84523000  0.23863000  0.25977000  1.0 1.5333229171
O  O1  1  0.61420000  0.47960000  0.97310000  1.0 -0.689180591
O  O2  1  0.38580000  0.52040000  0.47310000  1.0 -0.689180591
O  O3  1  0.52040000  0.38580000  0.19357000  1.0 -0.689180591
O  O4  1  0.47960000  0.61420000  0.69357000  1.0 -0.689180591
O  O5  1  0.13460000  0.52040000  0.02690000  1.0 -0.689180591
O  O6  1  0.86540000  0.47960000  0.52690000  1.0 -0.689180591
O  O7  1  0.61420000  0.13460000  0.86023000  1.0 -0.689180591
O  O8  1  0.38580000  0.86540000  0.36023000  1.0 -0.689180591
O  O9  1  0.52040000  0.13460000  0.63977000  1.0 -0.689180591
O  O10  1  0.47960000  0.86540000  0.13977000  1.0 -0.689180591
O  O11  1  0.13460000  0.61420000  0.80643000  1.0 -0.689180591
O  O12  1  0.86540000  0.38580000  0.30643000  1.0 -0.689180591
O  O13  1  0.77900000  0.77490000  0.93960000  1.0 -0.5992660307
O  O14  1  0.22100000  0.22510000  0.43960000  1.0 -0.5992660307
O  O15  1  0.22510000  0.22100000  0.22707000  1.0 -0.5992660307
O  O16  1  0.77490000  0.77900000  0.72707000  1.0 -0.5992660307
O  O17  1  0.00410000  0.22510000  0.06040000  1.0 -0.5992660307
O  O18  1  0.99590000  0.77490000  0.56040000  1.0 -0.5992660307
O  O19  1  0.77900000  0.00410000  0.89373000  1.0 -0.5992660307
O  O20  1  0.22100000  0.99590000  0.39373000  1.0 -0.5992660307
O  O21  1  0.22510000  0.00410000  0.60627000  1.0 -0.5992660307
O  O22  1  0.77490000  0.99590000  0.10627000  1.0 -0.5992660307
O  O23  1  0.00410000  0.77900000  0.77293000  1.0 -0.5992660307
O  O24  1  0.99590000  0.22100000  0.27293000  1.0 -0.5992660307
O  O25  1  0.91390000  0.62140000  0.96160000  1.0 -0.7098147902
O  O26  1  0.08610000  0.37860000  0.46160000  1.0 -0.7098147902
O  O27  1  0.37860000  0.08610000  0.20507000  1.0 -0.7098147902
O  O28  1  0.62140000  0.91390000  0.70507000  1.0 -0.7098147902
O  O29  1  0.29250000  0.37860000  0.03840000  1.0 -0.7098147902
O  O30  1  0.70750000  0.62140000  0.53840000  1.0 -0.7098147902
O  O31  1  0.91390000  0.29250000  0.87173000  1.0 -0.7098147902
O  O32  1  0.08610000  0.70750000  0.37173000  1.0 -0.7098147902
O  O33  1  0.37860000  0.29250000  0.62827000  1.0 -0.7098147902
O  O34  1  0.62140000  0.70750000  0.12827000  1.0 -0.7098147902
O  O35  1  0.29250000  0.91390000  0.79493000  1.0 -0.7098147902
O  O36  1  0.70750000  0.08610000  0.29493000  1.0 -0.7098147902
O  O37  1  0.74420000  0.56480000  0.82480000  1.0 -0.5936110053
O  O38  1  0.25580000  0.43520000  0.32480000  1.0 -0.5936110053
O  O39  1  0.43520000  0.25580000  0.34187000  1.0 -0.5936110053
O  O40  1  0.56480000  0.74420000  0.84187000  1.0 -0.5936110053
O  O41  1  0.17940000  0.43520000  0.17520000  1.0 -0.5936110053
O  O42  1  0.82060000  0.56480000  0.67520000  1.0 -0.5936110053
O  O43  1  0.74420000  0.17940000  0.00853000  1.0 -0.5936110053
O  O44  1  0.25580000  0.82060000  0.50853000  1.0 -0.5936110053
O  O45  1  0.43520000  0.17940000  0.49147000  1.0 -0.5936110053
O  O46  1  0.56480000  0.82060000  0.99147000  1.0 -0.5936110053
O  O47  1  0.17940000  0.74420000  0.65813000  1.0 -0.5936110053
O  O48  1  0.82060000  0.25580000  0.15813000  1.0 -0.5936110053
