# DDEC6 charges by PACMAN v1.1 (https://github.com/mtap-research/PACMAN-charge/)
data_FIGLAK_ASR_pacman
_symmetry_space_group_name_H-M   'P 1'
_cell_length_a   53.96500000
_cell_length_b   12.99680000
_cell_length_c   21.60700000
_cell_angle_alpha   90.00000000
_cell_angle_beta   107.36600000
_cell_angle_gamma   90.00000000
_symmetry_Int_Tables_number   1
_chemical_formula_structural   Cd3H60C74N8O15
_chemical_formula_sum   'Cd24 H480 C592 N64 O120'
_cell_volume   14463.77094040
_cell_formula_units_Z   8
loop_
 _symmetry_equiv_pos_site_id
 _symmetry_equiv_pos_as_xyz
  1  'x, y, z'
loop_
 _atom_site_type_symbol
 _atom_site_label
 _atom_site_symmetry_multiplicity
 _atom_site_fract_x
 _atom_site_fract_y
 _atom_site_fract_z
 _atom_site_occupancy
 _atom_site_charge
Cd  Cd1  1  0.12488000  0.46573000  0.30927000  1.0 1.0062866371
Cd  Cd2  1  0.87512000  0.53427000  0.69073000  1.0 1.0044998091
Cd  Cd3  1  0.87512000  0.46573000  0.19073000  1.0 1.0062866371
Cd  Cd4  1  0.12488000  0.53427000  0.80927000  1.0 1.0044998091
Cd  Cd5  1  0.62488000  0.96573000  0.30927000  1.0 1.0062866371
Cd  Cd6  1  0.37512000  0.03427000  0.69073000  1.0 1.0044998091
Cd  Cd7  1  0.37512000  0.96573000  0.19073000  1.0 1.0044998091
Cd  Cd8  1  0.62488000  0.03427000  0.80927000  1.0 1.0062866371
Cd  Cd9  1  0.17373000  0.29722000  0.45061000  1.0 0.9585792172
Cd  Cd10  1  0.82627000  0.70278000  0.54939000  1.0 0.9585792172
Cd  Cd11  1  0.82627000  0.29722000  0.04939000  1.0 0.9585792172
Cd  Cd12  1  0.17373000  0.70278000  0.95061000  1.0 0.9585792172
Cd  Cd13  1  0.67373000  0.79722000  0.45061000  1.0 0.9585792172
Cd  Cd14  1  0.32627000  0.20278000  0.54939000  1.0 0.9585792172
Cd  Cd15  1  0.32627000  0.79722000  0.04939000  1.0 0.9585792172
Cd  Cd16  1  0.67373000  0.20278000  0.95061000  1.0 0.9585792172
Cd  Cd17  1  0.07493000  0.60524000  0.15678000  1.0 0.9585792172
Cd  Cd18  1  0.92507000  0.39476000  0.84322000  1.0 0.9585792172
Cd  Cd19  1  0.92507000  0.60524000  0.34322000  1.0 0.9585792172
Cd  Cd20  1  0.07493000  0.39476000  0.65678000  1.0 0.9585792172
Cd  Cd21  1  0.57493000  0.10524000  0.15678000  1.0 0.9585792172
Cd  Cd22  1  0.42507000  0.89476000  0.84322000  1.0 0.9585792172
Cd  Cd23  1  0.42507000  0.10524000  0.34322000  1.0 0.9585792172
Cd  Cd24  1  0.57493000  0.89476000  0.65678000  1.0 0.9585792172
H  H1  1  0.03501000  0.24096000  0.26825000  1.0 0.0413991168
H  H2  1  0.96499000  0.75904000  0.73175000  1.0 0.0413991168
H  H3  1  0.96499000  0.24096000  0.23175000  1.0 0.0413991168
H  H4  1  0.03501000  0.75904000  0.76825000  1.0 0.0413991168
H  H5  1  0.53501000  0.74096000  0.26825000  1.0 0.0413991168
H  H6  1  0.46499000  0.25904000  0.73175000  1.0 0.0413991168
H  H7  1  0.46499000  0.74096000  0.23175000  1.0 0.0413991168
H  H8  1  0.53501000  0.25904000  0.76825000  1.0 0.0413991168
H  H9  1  0.06706000  0.38248000  0.21840000  1.0 0.202981471
H  H10  1  0.93294000  0.61752000  0.78160000  1.0 0.2102081787
H  H11  1  0.93294000  0.38248000  0.28160000  1.0 0.2102081787
H  H12  1  0.06706000  0.61752000  0.71840000  1.0 0.202981471
H  H13  1  0.56706000  0.88248000  0.21840000  1.0 0.2102081787
H  H14  1  0.43294000  0.11752000  0.78160000  1.0 0.202981471
H  H15  1  0.43294000  0.88248000  0.28160000  1.0 0.202981471
H  H16  1  0.56706000  0.11752000  0.71840000  1.0 0.202981471
H  H17  1  0.11276000  0.27917000  0.47842000  1.0 0.1899110183
H  H18  1  0.88724000  0.72083000  0.52158000  1.0 0.1899110183
H  H19  1  0.88724000  0.27917000  0.02158000  1.0 0.1899110183
H  H20  1  0.11276000  0.72083000  0.97842000  1.0 0.1899110183
H  H21  1  0.61276000  0.77917000  0.47842000  1.0 0.1899110183
H  H22  1  0.38724000  0.22083000  0.52158000  1.0 0.1899110183
H  H23  1  0.38724000  0.77917000  0.02158000  1.0 0.1899110183
H  H24  1  0.61276000  0.22083000  0.97842000  1.0 0.1899110183
H  H25  1  0.09134000  0.40979000  0.48526000  1.0 0.1899110183
H  H26  1  0.90866000  0.59021000  0.51474000  1.0 0.1899110183
H  H27  1  0.90866000  0.40979000  0.01474000  1.0 0.1899110183
H  H28  1  0.09134000  0.59021000  0.98526000  1.0 0.1899110183
H  H29  1  0.59134000  0.90979000  0.48526000  1.0 0.1899110183
H  H30  1  0.40866000  0.09021000  0.51474000  1.0 0.1899110183
H  H31  1  0.40866000  0.90979000  0.01474000  1.0 0.1899110183
H  H32  1  0.59134000  0.09021000  0.98526000  1.0 0.1899110183
H  H33  1  0.12400000  0.42248000  0.45314000  1.0 0.2176289543
H  H34  1  0.87600000  0.57752000  0.54686000  1.0 0.2176289543
H  H35  1  0.87600000  0.42248000  0.04686000  1.0 0.2176289543
H  H36  1  0.12400000  0.57752000  0.95314000  1.0 0.2176289543
H  H37  1  0.62400000  0.92248000  0.45314000  1.0 0.2176289543
H  H38  1  0.37600000  0.07752000  0.54686000  1.0 0.2176289543
H  H39  1  0.37600000  0.92248000  0.04686000  1.0 0.2176289543
H  H40  1  0.62400000  0.07752000  0.95314000  1.0 0.2176289543
H  H41  1  0.06330000  0.26066000  0.46668000  1.0 0.0777102302
H  H42  1  0.93670000  0.73934000  0.53332000  1.0 0.0777102302
H  H43  1  0.93670000  0.26066000  0.03332000  1.0 0.0777102302
H  H44  1  0.06330000  0.73934000  0.96668000  1.0 0.0777102302
H  H45  1  0.56330000  0.76066000  0.46668000  1.0 0.0777102302
H  H46  1  0.43670000  0.23934000  0.53332000  1.0 0.0777102302
H  H47  1  0.43670000  0.76066000  0.03332000  1.0 0.0777102302
H  H48  1  0.56330000  0.23934000  0.96668000  1.0 0.0692448825
H  H49  1  0.07446000  0.13889000  0.42171000  1.0 -0.0023466187
H  H50  1  0.92554000  0.86111000  0.57829000  1.0 -0.0023466187
H  H51  1  0.92554000  0.13889000  0.07829000  1.0 -0.0023466187
H  H52  1  0.07446000  0.86111000  0.92171000  1.0 -0.0023466187
H  H53  1  0.57446000  0.63889000  0.42171000  1.0 -0.0023466187
H  H54  1  0.42554000  0.36111000  0.57829000  1.0 -0.0023466187
H  H55  1  0.42554000  0.63889000  0.07829000  1.0 -0.0023466187
H  H56  1  0.57446000  0.36111000  0.92171000  1.0 -0.0023466187
H  H57  1  0.04615000  0.02303000  0.35606000  1.0 0.0605353594
H  H58  1  0.95385000  0.97697000  0.64394000  1.0 0.0605353594
H  H59  1  0.95385000  0.02303000  0.14394000  1.0 0.0605353594
H  H60  1  0.04615000  0.97697000  0.85606000  1.0 0.0605353594
H  H61  1  0.54615000  0.52303000  0.35606000  1.0 0.0605353594
H  H62  1  0.45385000  0.47697000  0.64394000  1.0 0.0605353594
H  H63  1  0.45385000  0.52303000  0.14394000  1.0 0.0605353594
H  H64  1  0.54615000  0.47697000  0.85606000  1.0 0.0605353594
H  H65  1  0.99686000  0.96041000  0.30487000  1.0 0.0777102302
H  H66  1  0.00314000  0.03959000  0.69513000  1.0 0.0692448825
H  H67  1  0.00314000  0.96041000  0.19513000  1.0 0.0692448825
H  H68  1  0.99686000  0.03959000  0.80487000  1.0 0.0777102302
H  H69  1  0.49686000  0.46041000  0.30487000  1.0 0.0777102302
H  H70  1  0.50314000  0.53959000  0.69513000  1.0 0.0777102302
H  H71  1  0.50314000  0.46041000  0.19513000  1.0 0.0777102302
H  H72  1  0.49686000  0.53959000  0.80487000  1.0 0.0777102302
H  H73  1  0.95710000  0.08181000  0.30910000  1.0 0.0692448825
H  H74  1  0.04290000  0.91819000  0.69090000  1.0 0.0605353594
H  H75  1  0.04290000  0.08181000  0.19090000  1.0 0.0605353594
H  H76  1  0.95710000  0.91819000  0.80910000  1.0 0.0692448825
H  H77  1  0.45710000  0.58181000  0.30910000  1.0 0.0692448825
H  H78  1  0.54290000  0.41819000  0.69090000  1.0 0.0692448825
H  H79  1  0.54290000  0.58181000  0.19090000  1.0 0.0692448825
H  H80  1  0.45710000  0.41819000  0.80910000  1.0 0.0605353594
H  H81  1  0.96652000  0.26978000  0.36814000  1.0 0.0692448825
H  H82  1  0.03348000  0.73022000  0.63186000  1.0 0.0692448825
H  H83  1  0.03348000  0.26978000  0.13186000  1.0 0.0692448825
H  H84  1  0.96652000  0.73022000  0.86814000  1.0 0.0692448825
H  H85  1  0.46652000  0.76978000  0.36814000  1.0 0.0692448825
H  H86  1  0.53348000  0.23022000  0.63186000  1.0 0.0692448825
H  H87  1  0.53348000  0.76978000  0.13186000  1.0 0.0692448825
H  H88  1  0.46652000  0.23022000  0.86814000  1.0 0.0692448825
H  H89  1  0.03216000  0.33766000  0.47979000  1.0 0.0777102302
H  H90  1  0.96784000  0.66234000  0.52021000  1.0 0.0777102302
H  H91  1  0.96784000  0.33766000  0.02021000  1.0 0.0777102302
H  H92  1  0.03216000  0.66234000  0.97979000  1.0 0.0777102302
H  H93  1  0.53216000  0.83766000  0.47979000  1.0 0.0777102302
H  H94  1  0.46784000  0.16234000  0.52021000  1.0 0.0777102302
H  H95  1  0.46784000  0.83766000  0.02021000  1.0 0.0777102302
H  H96  1  0.53216000  0.16234000  0.97979000  1.0 0.0777102302
H  H97  1  0.03031000  0.40234000  0.39237000  1.0 -0.030572399
H  H98  1  0.96969000  0.59766000  0.60763000  1.0 -0.030572399
H  H99  1  0.96969000  0.40234000  0.10763000  1.0 -0.030572399
H  H100  1  0.03031000  0.59766000  0.89237000  1.0 -0.030572399
H  H101  1  0.53031000  0.90234000  0.39237000  1.0 -0.030572399
H  H102  1  0.46969000  0.09766000  0.60763000  1.0 -0.030572399
H  H103  1  0.46969000  0.90234000  0.10763000  1.0 -0.030572399
H  H104  1  0.53031000  0.09766000  0.89237000  1.0 -0.030572399
H  H105  1  0.94281000  0.47228000  0.47892000  1.0 0.111459787
H  H106  1  0.05719000  0.52772000  0.52108000  1.0 0.111459787
H  H107  1  0.05719000  0.47228000  0.02108000  1.0 0.111459787
H  H108  1  0.94281000  0.52772000  0.97892000  1.0 0.111459787
H  H109  1  0.44281000  0.97228000  0.47892000  1.0 0.111459787
H  H110  1  0.55719000  0.02772000  0.52108000  1.0 0.111459787
H  H111  1  0.55719000  0.97228000  0.02108000  1.0 0.111459787
H  H112  1  0.44281000  0.02772000  0.97892000  1.0 0.111459787
H  H113  1  0.98901000  0.33770000  0.52214000  1.0 -0.0985227489
H  H114  1  0.01099000  0.66230000  0.47786000  1.0 -0.0985227489
H  H115  1  0.01099000  0.33770000  0.97786000  1.0 -0.0985227489
H  H116  1  0.98901000  0.66230000  0.02214000  1.0 -0.0985227489
H  H117  1  0.48901000  0.83770000  0.52214000  1.0 -0.0985227489
H  H118  1  0.51099000  0.16230000  0.47786000  1.0 -0.0985227489
H  H119  1  0.51099000  0.83770000  0.97786000  1.0 -0.0985227489
H  H120  1  0.48901000  0.16230000  0.02214000  1.0 -0.0985227489
H  H121  1  0.97339000  0.57560000  0.28926000  1.0 0.1617891165
H  H122  1  0.02661000  0.42440000  0.71074000  1.0 0.1617891165
H  H123  1  0.02661000  0.57560000  0.21074000  1.0 0.1617891165
H  H124  1  0.97339000  0.42440000  0.78926000  1.0 0.1617891165
H  H125  1  0.47339000  0.07560000  0.28926000  1.0 0.1617891165
H  H126  1  0.52661000  0.92440000  0.71074000  1.0 0.1617891165
H  H127  1  0.52661000  0.07560000  0.21074000  1.0 0.1617891165
H  H128  1  0.47339000  0.92440000  0.78926000  1.0 0.1617891165
H  H129  1  0.98702000  0.42733000  0.28226000  1.0 0.0920050523
H  H130  1  0.01298000  0.57267000  0.71774000  1.0 0.0920050523
H  H131  1  0.01298000  0.42733000  0.21774000  1.0 0.0920050523
H  H132  1  0.98702000  0.57267000  0.78226000  1.0 0.0920050523
H  H133  1  0.48702000  0.92733000  0.28226000  1.0 0.0920050523
H  H134  1  0.51298000  0.07267000  0.71774000  1.0 0.0920050523
H  H135  1  0.51298000  0.92733000  0.21774000  1.0 0.0920050523
H  H136  1  0.48702000  0.07267000  0.78226000  1.0 0.0920050523
H  H137  1  0.01214000  0.53856000  0.33678000  1.0 0.1009794731
H  H138  1  0.98786000  0.46144000  0.66322000  1.0 0.1009794731
H  H139  1  0.98786000  0.53856000  0.16322000  1.0 0.1009794731
H  H140  1  0.01214000  0.46144000  0.83678000  1.0 0.1009794731
H  H141  1  0.51214000  0.03856000  0.33678000  1.0 0.1009794731
H  H142  1  0.48786000  0.96144000  0.66322000  1.0 0.1009794731
H  H143  1  0.48786000  0.03856000  0.16322000  1.0 0.1009794731
H  H144  1  0.51214000  0.96144000  0.83678000  1.0 0.1009794731
H  H145  1  0.16444000  0.71960000  0.15012000  1.0 0.3265247406
H  H146  1  0.83556000  0.28040000  0.84988000  1.0 0.3265247406
H  H147  1  0.83556000  0.71960000  0.34988000  1.0 0.3265247406
H  H148  1  0.16444000  0.28040000  0.65012000  1.0 0.3221638452
H  H149  1  0.66444000  0.21960000  0.15012000  1.0 0.3221638452
H  H150  1  0.33556000  0.78040000  0.84988000  1.0 0.3265247406
H  H151  1  0.33556000  0.21960000  0.34988000  1.0 0.3265247406
H  H152  1  0.66444000  0.78040000  0.65012000  1.0 0.3265247406
H  H153  1  0.12828000  0.70182000  0.23423000  1.0 0.4063094195
H  H154  1  0.87172000  0.29818000  0.76577000  1.0 0.4063094195
H  H155  1  0.87172000  0.70182000  0.26577000  1.0 0.4063094195
H  H156  1  0.12828000  0.29818000  0.73423000  1.0 0.4063094195
H  H157  1  0.62828000  0.20182000  0.23423000  1.0 0.4063094195
H  H158  1  0.37172000  0.79818000  0.76577000  1.0 0.4063094195
H  H159  1  0.37172000  0.20182000  0.26577000  1.0 0.4063094195
H  H160  1  0.62828000  0.79818000  0.73423000  1.0 0.4063094195
H  H161  1  0.20687000  0.39211000  0.25497000  1.0 0.0692448825
H  H162  1  0.79313000  0.60789000  0.74503000  1.0 0.0692448825
H  H163  1  0.79313000  0.39211000  0.24503000  1.0 0.0692448825
H  H164  1  0.20687000  0.60789000  0.75497000  1.0 0.0692448825
H  H165  1  0.70687000  0.89211000  0.25497000  1.0 0.0692448825
H  H166  1  0.29313000  0.10789000  0.74503000  1.0 0.0692448825
H  H167  1  0.29313000  0.89211000  0.24503000  1.0 0.0692448825
H  H168  1  0.70687000  0.10789000  0.75497000  1.0 0.0692448825
H  H169  1  0.19747000  0.41611000  0.34040000  1.0 0.1009794731
H  H170  1  0.80253000  0.58389000  0.65960000  1.0 0.1009794731
H  H171  1  0.80253000  0.41611000  0.15960000  1.0 0.1009794731
H  H172  1  0.19747000  0.58389000  0.84040000  1.0 0.1009794731
H  H173  1  0.69747000  0.91611000  0.34040000  1.0 0.1009794731
H  H174  1  0.30253000  0.08389000  0.65960000  1.0 0.1009794731
H  H175  1  0.30253000  0.91611000  0.15960000  1.0 0.1009794731
H  H176  1  0.69747000  0.08389000  0.84040000  1.0 0.1009794731
H  H177  1  0.17230000  0.33298000  0.26522000  1.0 0.3221638452
H  H178  1  0.82770000  0.66702000  0.73478000  1.0 0.3221638452
H  H179  1  0.82770000  0.33298000  0.23478000  1.0 0.3221638452
H  H180  1  0.17230000  0.66702000  0.76522000  1.0 0.3221638452
H  H181  1  0.67230000  0.83298000  0.26522000  1.0 0.3221638452
H  H182  1  0.32770000  0.16702000  0.73478000  1.0 0.3221638452
H  H183  1  0.32770000  0.83298000  0.23478000  1.0 0.3221638452
H  H184  1  0.67230000  0.16702000  0.76522000  1.0 0.3221638452
H  H185  1  0.19170000  0.61593000  0.12646000  1.0 0.1290464629
H  H186  1  0.80830000  0.38407000  0.87354000  1.0 0.1290464629
H  H187  1  0.80830000  0.61593000  0.37354000  1.0 0.1290464629
H  H188  1  0.19170000  0.38407000  0.62646000  1.0 0.1290464629
H  H189  1  0.69170000  0.11593000  0.12646000  1.0 0.1290464629
H  H190  1  0.30830000  0.88407000  0.87354000  1.0 0.1290464629
H  H191  1  0.30830000  0.11593000  0.37354000  1.0 0.1290464629
H  H192  1  0.69170000  0.88407000  0.62646000  1.0 0.1290464629
H  H193  1  0.20808000  0.48127000  0.17191000  1.0 0.0605353594
H  H194  1  0.79192000  0.51873000  0.82809000  1.0 0.0605353594
H  H195  1  0.79192000  0.48127000  0.32809000  1.0 0.0605353594
H  H196  1  0.20808000  0.51873000  0.67191000  1.0 0.0605353594
H  H197  1  0.70808000  0.98127000  0.17191000  1.0 0.0605353594
H  H198  1  0.29192000  0.01873000  0.82809000  1.0 0.0605353594
H  H199  1  0.29192000  0.98127000  0.32809000  1.0 0.0605353594
H  H200  1  0.70808000  0.01873000  0.67191000  1.0 0.0605353594
H  H201  1  0.20814000  0.62915000  0.31243000  1.0 0.1749317806
H  H202  1  0.79186000  0.37085000  0.68757000  1.0 0.180502348
H  H203  1  0.79186000  0.62915000  0.18757000  1.0 0.180502348
H  H204  1  0.20814000  0.37085000  0.81243000  1.0 0.1749317806
H  H205  1  0.70814000  0.12915000  0.31243000  1.0 0.180502348
H  H206  1  0.29186000  0.87085000  0.68757000  1.0 0.180502348
H  H207  1  0.29186000  0.12915000  0.18757000  1.0 0.180502348
H  H208  1  0.70814000  0.87085000  0.81243000  1.0 0.180502348
H  H209  1  0.24847000  0.73664000  0.38169000  1.0 0.1194882065
H  H210  1  0.75153000  0.26336000  0.61831000  1.0 0.1194882065
H  H211  1  0.75153000  0.73664000  0.11831000  1.0 0.1194882065
H  H212  1  0.24847000  0.26336000  0.88169000  1.0 0.1194882065
H  H213  1  0.74847000  0.23664000  0.38169000  1.0 0.1194882065
H  H214  1  0.25153000  0.76336000  0.61831000  1.0 0.1194882065
H  H215  1  0.25153000  0.23664000  0.11831000  1.0 0.1194882065
H  H216  1  0.74847000  0.76336000  0.88169000  1.0 0.1194882065
H  H217  1  0.28810000  0.78700000  0.33306000  1.0 0.0183446124
H  H218  1  0.71190000  0.21300000  0.66694000  1.0 0.0183446124
H  H219  1  0.71190000  0.78700000  0.16694000  1.0 0.0183446124
H  H220  1  0.28810000  0.21300000  0.83306000  1.0 0.0183446124
H  H221  1  0.78810000  0.28700000  0.33306000  1.0 0.0183446124
H  H222  1  0.21190000  0.71300000  0.66694000  1.0 0.0183446124
H  H223  1  0.21190000  0.28700000  0.16694000  1.0 0.0183446124
H  H224  1  0.78810000  0.71300000  0.83306000  1.0 0.0183446124
H  H225  1  0.28213000  0.75088000  0.20583000  1.0 0.1509660081
H  H226  1  0.71787000  0.24912000  0.79417000  1.0 0.1509660081
H  H227  1  0.71787000  0.75088000  0.29417000  1.0 0.1509660081
H  H228  1  0.28213000  0.24912000  0.70583000  1.0 0.1509660081
H  H229  1  0.78213000  0.25088000  0.20583000  1.0 0.1509660081
H  H230  1  0.21787000  0.74912000  0.79417000  1.0 0.1509660081
H  H231  1  0.21787000  0.25088000  0.29417000  1.0 0.1509660081
H  H232  1  0.78213000  0.74912000  0.70583000  1.0 0.1509660081
H  H233  1  0.24463000  0.55498000  0.11567000  1.0 -0.0023466187
H  H234  1  0.75537000  0.44502000  0.88433000  1.0 -0.0023466187
H  H235  1  0.75537000  0.55498000  0.38433000  1.0 -0.0023466187
H  H236  1  0.24463000  0.44502000  0.61567000  1.0 -0.0023466187
H  H237  1  0.74463000  0.05498000  0.11567000  1.0 -0.0023466187
H  H238  1  0.25537000  0.94502000  0.88433000  1.0 -0.0023466187
H  H239  1  0.25537000  0.05498000  0.38433000  1.0 -0.0023466187
H  H240  1  0.74463000  0.94502000  0.61567000  1.0 -0.0023466187
H  H241  1  0.21623000  0.66332000  0.09053000  1.0 0.0331597227
H  H242  1  0.78377000  0.33668000  0.90947000  1.0 0.0331597227
H  H243  1  0.78377000  0.66332000  0.40947000  1.0 0.0331597227
H  H244  1  0.21623000  0.33668000  0.59053000  1.0 0.0331597227
H  H245  1  0.71623000  0.16332000  0.09053000  1.0 0.0331597227
H  H246  1  0.28377000  0.83668000  0.90947000  1.0 0.0331597227
H  H247  1  0.28377000  0.16332000  0.40947000  1.0 0.0331597227
H  H248  1  0.71623000  0.83668000  0.59053000  1.0 0.0331597227
H  H249  1  0.27091000  0.94664000  0.03661000  1.0 0.111459787
H  H250  1  0.72909000  0.05336000  0.96339000  1.0 0.1194882065
H  H251  1  0.72909000  0.94664000  0.46339000  1.0 0.1194882065
H  H252  1  0.27091000  0.05336000  0.53661000  1.0 0.1194882065
H  H253  1  0.77091000  0.44664000  0.03661000  1.0 0.1194882065
H  H254  1  0.22909000  0.55336000  0.96339000  1.0 0.111459787
H  H255  1  0.22909000  0.44664000  0.46339000  1.0 0.1194882065
H  H256  1  0.77091000  0.55336000  0.53661000  1.0 0.1194882065
H  H257  1  0.22701000  0.86064000  0.07277000  1.0 0.0777102302
H  H258  1  0.77299000  0.13936000  0.92723000  1.0 0.0777102302
H  H259  1  0.77299000  0.86064000  0.42723000  1.0 0.0777102302
H  H260  1  0.22701000  0.13936000  0.57277000  1.0 0.0777102302
H  H261  1  0.72701000  0.36064000  0.07277000  1.0 0.0920050523
H  H262  1  0.27299000  0.63936000  0.92723000  1.0 0.0777102302
H  H263  1  0.27299000  0.36064000  0.42723000  1.0 0.0777102302
H  H264  1  0.72701000  0.63936000  0.57277000  1.0 0.0777102302
H  H265  1  0.30247000  0.57176000  0.06334000  1.0 0.3031671692
H  H266  1  0.69753000  0.42824000  0.93666000  1.0 0.3031671692
H  H267  1  0.69753000  0.57176000  0.43666000  1.0 0.3031671692
H  H268  1  0.30247000  0.42824000  0.56334000  1.0 0.3031671692
H  H269  1  0.80247000  0.07176000  0.06334000  1.0 0.3031671692
H  H270  1  0.19753000  0.92824000  0.93666000  1.0 0.3031671692
H  H271  1  0.19753000  0.07176000  0.43666000  1.0 0.3031671692
H  H272  1  0.80247000  0.92824000  0.56334000  1.0 0.3031671692
H  H273  1  0.27948000  0.52985000  0.12162000  1.0 0.0605353594
H  H274  1  0.72052000  0.47015000  0.87838000  1.0 0.0605353594
H  H275  1  0.72052000  0.52985000  0.37838000  1.0 0.0605353594
H  H276  1  0.27948000  0.47015000  0.62162000  1.0 0.0605353594
H  H277  1  0.77948000  0.02985000  0.12162000  1.0 0.0605353594
H  H278  1  0.22052000  0.97015000  0.87838000  1.0 0.0605353594
H  H279  1  0.22052000  0.02985000  0.37838000  1.0 0.0605353594
H  H280  1  0.77948000  0.97015000  0.62162000  1.0 0.0605353594
H  H281  1  0.31355000  0.61210000  0.16092000  1.0 0.0692448825
H  H282  1  0.68645000  0.38790000  0.83908000  1.0 0.0692448825
H  H283  1  0.68645000  0.61210000  0.33908000  1.0 0.0692448825
H  H284  1  0.31355000  0.38790000  0.66092000  1.0 0.0692448825
H  H285  1  0.81355000  0.11210000  0.16092000  1.0 0.0692448825
H  H286  1  0.18645000  0.88790000  0.83908000  1.0 0.0692448825
H  H287  1  0.18645000  0.11210000  0.33908000  1.0 0.0692448825
H  H288  1  0.81355000  0.88790000  0.66092000  1.0 0.0692448825
H  H289  1  0.21342000  0.64851000  0.48213000  1.0 0.1899110183
H  H290  1  0.78658000  0.35149000  0.51787000  1.0 0.1899110183
H  H291  1  0.78658000  0.64851000  0.01787000  1.0 0.1899110183
H  H292  1  0.21342000  0.35149000  0.98213000  1.0 0.1899110183
H  H293  1  0.71342000  0.14851000  0.48213000  1.0 0.1899110183
H  H294  1  0.28658000  0.85149000  0.51787000  1.0 0.1899110183
H  H295  1  0.28658000  0.14851000  0.01787000  1.0 0.1899110183
H  H296  1  0.71342000  0.85149000  0.98213000  1.0 0.1899110183
H  H297  1  0.20767000  0.86474000  0.48045000  1.0 -0.0023466187
H  H298  1  0.79233000  0.13526000  0.51955000  1.0 0.0029928692
H  H299  1  0.79233000  0.86474000  0.01955000  1.0 0.0029928692
H  H300  1  0.20767000  0.13526000  0.98045000  1.0 -0.0023466187
H  H301  1  0.70767000  0.36474000  0.48045000  1.0 -0.0023466187
H  H302  1  0.29233000  0.63526000  0.51955000  1.0 -0.0023466187
H  H303  1  0.29233000  0.36474000  0.01955000  1.0 -0.0023466187
H  H304  1  0.70767000  0.63526000  0.98045000  1.0 -0.0023466187
H  H305  1  0.15952000  0.94336000  0.42954000  1.0 0.1390449167
H  H306  1  0.84048000  0.05664000  0.57046000  1.0 0.1390449167
H  H307  1  0.84048000  0.94336000  0.07046000  1.0 0.1390449167
H  H308  1  0.15952000  0.05664000  0.92954000  1.0 0.1290464629
H  H309  1  0.65952000  0.44336000  0.42954000  1.0 0.1390449167
H  H310  1  0.34048000  0.55664000  0.57046000  1.0 0.1390449167
H  H311  1  0.34048000  0.44336000  0.07046000  1.0 0.1390449167
H  H312  1  0.65952000  0.55664000  0.92954000  1.0 0.1390449167
H  H313  1  0.11723000  0.82461000  0.39118000  1.0 0.0692448825
H  H314  1  0.88277000  0.17539000  0.60882000  1.0 0.0692448825
H  H315  1  0.88277000  0.82461000  0.10882000  1.0 0.0692448825
H  H316  1  0.11723000  0.17539000  0.89118000  1.0 0.0605353594
H  H317  1  0.61723000  0.32461000  0.39118000  1.0 0.0692448825
H  H318  1  0.38277000  0.67539000  0.60882000  1.0 0.0692448825
H  H319  1  0.38277000  0.32461000  0.10882000  1.0 0.0692448825
H  H320  1  0.61723000  0.67539000  0.89118000  1.0 0.0692448825
H  H321  1  0.11561000  0.64422000  0.52132000  1.0 0.1899110183
H  H322  1  0.88439000  0.35578000  0.47868000  1.0 0.1899110183
H  H323  1  0.88439000  0.64422000  0.97868000  1.0 0.1899110183
H  H324  1  0.11561000  0.35578000  0.02132000  1.0 0.1899110183
H  H325  1  0.61561000  0.14422000  0.52132000  1.0 0.1899110183
H  H326  1  0.38439000  0.85578000  0.47868000  1.0 0.1899110183
H  H327  1  0.38439000  0.14422000  0.97868000  1.0 0.1899110183
H  H328  1  0.61561000  0.85578000  0.02132000  1.0 0.1899110183
H  H329  1  0.07032000  0.70771000  0.53575000  1.0 0.0692448825
H  H330  1  0.92968000  0.29229000  0.46425000  1.0 0.0777102302
H  H331  1  0.92968000  0.70771000  0.96425000  1.0 0.0777102302
H  H332  1  0.07032000  0.29229000  0.03575000  1.0 0.0777102302
H  H333  1  0.57032000  0.20771000  0.53575000  1.0 0.0777102302
H  H334  1  0.42968000  0.79229000  0.46425000  1.0 0.0777102302
H  H335  1  0.42968000  0.20771000  0.96425000  1.0 0.0777102302
H  H336  1  0.57032000  0.79229000  0.03575000  1.0 0.0777102302
H  H337  1  0.02883000  0.74381000  0.42928000  1.0 -0.0784026443
H  H338  1  0.97117000  0.25619000  0.57072000  1.0 -0.0784026443
H  H339  1  0.97117000  0.74381000  0.07072000  1.0 -0.0784026443
H  H340  1  0.02883000  0.25619000  0.92928000  1.0 -0.0784026443
H  H341  1  0.52883000  0.24381000  0.42928000  1.0 -0.0784026443
H  H342  1  0.47117000  0.75619000  0.57072000  1.0 -0.0784026443
H  H343  1  0.47117000  0.24381000  0.07072000  1.0 -0.0784026443
H  H344  1  0.52883000  0.75619000  0.92928000  1.0 -0.0784026443
H  H345  1  0.03389000  0.70870000  0.30929000  1.0 0.230004567
H  H346  1  0.96611000  0.29130000  0.69071000  1.0 0.230004567
H  H347  1  0.96611000  0.70870000  0.19071000  1.0 0.230004567
H  H348  1  0.03389000  0.29130000  0.80929000  1.0 0.2176289543
H  H349  1  0.53389000  0.20870000  0.30929000  1.0 0.230004567
H  H350  1  0.46611000  0.79130000  0.69071000  1.0 0.230004567
H  H351  1  0.46611000  0.20870000  0.19071000  1.0 0.230004567
H  H352  1  0.53389000  0.79130000  0.80929000  1.0 0.230004567
H  H353  1  0.12133000  0.03175000  0.38296000  1.0 0.202981471
H  H354  1  0.87867000  0.96825000  0.61704000  1.0 0.2102081787
H  H355  1  0.87867000  0.03175000  0.11704000  1.0 0.2102081787
H  H356  1  0.12133000  0.96825000  0.88296000  1.0 0.2102081787
H  H357  1  0.62133000  0.53175000  0.38296000  1.0 0.2102081787
H  H358  1  0.37867000  0.46825000  0.61704000  1.0 0.2102081787
H  H359  1  0.37867000  0.53175000  0.11704000  1.0 0.2102081787
H  H360  1  0.62133000  0.46825000  0.88296000  1.0 0.2102081787
H  H361  1  0.08916000  0.88815000  0.30916000  1.0 0.0777102302
H  H362  1  0.91084000  0.11185000  0.69084000  1.0 0.0777102302
H  H363  1  0.91084000  0.88815000  0.19084000  1.0 0.0777102302
H  H364  1  0.08916000  0.11185000  0.80916000  1.0 0.0692448825
H  H365  1  0.58916000  0.38815000  0.30916000  1.0 0.0777102302
H  H366  1  0.41084000  0.61185000  0.69084000  1.0 0.0777102302
H  H367  1  0.41084000  0.38815000  0.19084000  1.0 0.0777102302
H  H368  1  0.58916000  0.61185000  0.80916000  1.0 0.0777102302
H  H369  1  0.06829000  0.91865000  0.18160000  1.0 0.1617891165
H  H370  1  0.93171000  0.08135000  0.81840000  1.0 0.1617891165
H  H371  1  0.93171000  0.91865000  0.31840000  1.0 0.1617891165
H  H372  1  0.06829000  0.08135000  0.68160000  1.0 0.1509660081
H  H373  1  0.56829000  0.41865000  0.18160000  1.0 0.1617891165
H  H374  1  0.43171000  0.58135000  0.81840000  1.0 0.1617891165
H  H375  1  0.43171000  0.41865000  0.31840000  1.0 0.1617891165
H  H376  1  0.56829000  0.58135000  0.68160000  1.0 0.1617891165
H  H377  1  0.07807000  0.09688000  0.12531000  1.0 0.1390449167
H  H378  1  0.92193000  0.90312000  0.87469000  1.0 0.1390449167
H  H379  1  0.92193000  0.09688000  0.37469000  1.0 0.1390449167
H  H380  1  0.07807000  0.90312000  0.62531000  1.0 0.1390449167
H  H381  1  0.57807000  0.59688000  0.12531000  1.0 0.1390449167
H  H382  1  0.42193000  0.40312000  0.87469000  1.0 0.1390449167
H  H383  1  0.42193000  0.59688000  0.37469000  1.0 0.1390449167
H  H384  1  0.57807000  0.40312000  0.62531000  1.0 0.1390449167
H  H385  1  0.14209000  0.09721000  0.19012000  1.0 0.1899110183
H  H386  1  0.85791000  0.90279000  0.80988000  1.0 0.1899110183
H  H387  1  0.85791000  0.09721000  0.30988000  1.0 0.1899110183
H  H388  1  0.14209000  0.90279000  0.69012000  1.0 0.1899110183
H  H389  1  0.64209000  0.59721000  0.19012000  1.0 0.1899110183
H  H390  1  0.35791000  0.40279000  0.80988000  1.0 0.1899110183
H  H391  1  0.35791000  0.59721000  0.30988000  1.0 0.1899110183
H  H392  1  0.64209000  0.40279000  0.69012000  1.0 0.1899110183
H  H393  1  0.17760000  0.13659000  0.12793000  1.0 0.1390449167
H  H394  1  0.82240000  0.86341000  0.87207000  1.0 0.1390449167
H  H395  1  0.82240000  0.13659000  0.37207000  1.0 0.1390449167
H  H396  1  0.17760000  0.86341000  0.62793000  1.0 0.1390449167
H  H397  1  0.67760000  0.63659000  0.12793000  1.0 0.1390449167
H  H398  1  0.32240000  0.36341000  0.87207000  1.0 0.1390449167
H  H399  1  0.32240000  0.63659000  0.37207000  1.0 0.1390449167
H  H400  1  0.67760000  0.36341000  0.62793000  1.0 0.1390449167
H  H401  1  0.18119000  0.32690000  0.08008000  1.0 0.0527762302
H  H402  1  0.81881000  0.67310000  0.91992000  1.0 0.0527762302
H  H403  1  0.81881000  0.32690000  0.41992000  1.0 0.0527762302
H  H404  1  0.18119000  0.67310000  0.58008000  1.0 0.0527762302
H  H405  1  0.68119000  0.82690000  0.08008000  1.0 0.0527762302
H  H406  1  0.31881000  0.17310000  0.91992000  1.0 0.0527762302
H  H407  1  0.31881000  0.82690000  0.41992000  1.0 0.0527762302
H  H408  1  0.68119000  0.17310000  0.58008000  1.0 0.0527762302
H  H409  1  0.14505000  0.47316000  0.08320000  1.0 0.230004567
H  H410  1  0.85495000  0.52684000  0.91680000  1.0 0.230004567
H  H411  1  0.85495000  0.47316000  0.41680000  1.0 0.230004567
H  H412  1  0.14505000  0.52684000  0.58320000  1.0 0.230004567
H  H413  1  0.64505000  0.97316000  0.08320000  1.0 0.230004567
H  H414  1  0.35495000  0.02684000  0.91680000  1.0 0.230004567
H  H415  1  0.35495000  0.97316000  0.41680000  1.0 0.230004567
H  H416  1  0.64505000  0.02684000  0.58320000  1.0 0.230004567
H  H417  1  0.22032000  0.09358000  0.65866000  1.0 0.1290464629
H  H418  1  0.77968000  0.90642000  0.34134000  1.0 0.1290464629
H  H419  1  0.77968000  0.09358000  0.84134000  1.0 0.1290464629
H  H420  1  0.22032000  0.90642000  0.15866000  1.0 0.1290464629
H  H421  1  0.72032000  0.59358000  0.65866000  1.0 0.1290464629
H  H422  1  0.27968000  0.40642000  0.34134000  1.0 0.1290464629
H  H423  1  0.27968000  0.59358000  0.84134000  1.0 0.1290464629
H  H424  1  0.72032000  0.40642000  0.15866000  1.0 0.1290464629
H  H425  1  0.21536000  0.02092000  0.77188000  1.0 0.1390449167
H  H426  1  0.78464000  0.97908000  0.22812000  1.0 0.1390449167
H  H427  1  0.78464000  0.02092000  0.72812000  1.0 0.1390449167
H  H428  1  0.21536000  0.97908000  0.27188000  1.0 0.1390449167
H  H429  1  0.71536000  0.52092000  0.77188000  1.0 0.1390449167
H  H430  1  0.28464000  0.47908000  0.22812000  1.0 0.1390449167
H  H431  1  0.28464000  0.52092000  0.72812000  1.0 0.1390449167
H  H432  1  0.71536000  0.47908000  0.27188000  1.0 0.1390449167
H  H433  1  0.16873000  0.02318000  0.79493000  1.0 0.0777102302
H  H434  1  0.83127000  0.97682000  0.20507000  1.0 0.0777102302
H  H435  1  0.83127000  0.02318000  0.70507000  1.0 0.0777102302
H  H436  1  0.16873000  0.97682000  0.29493000  1.0 0.0777102302
H  H437  1  0.66873000  0.52318000  0.79493000  1.0 0.0777102302
H  H438  1  0.33127000  0.47682000  0.20507000  1.0 0.0777102302
H  H439  1  0.33127000  0.52318000  0.70507000  1.0 0.0777102302
H  H440  1  0.66873000  0.47682000  0.29493000  1.0 0.0777102302
H  H441  1  0.12534000  0.08567000  0.69936000  1.0 0.2593257513
H  H442  1  0.87466000  0.91433000  0.30064000  1.0 0.2593257513
H  H443  1  0.87466000  0.08567000  0.80064000  1.0 0.2593257513
H  H444  1  0.12534000  0.91433000  0.19936000  1.0 0.2593257513
H  H445  1  0.62534000  0.58567000  0.69936000  1.0 0.2593257513
H  H446  1  0.37466000  0.41433000  0.30064000  1.0 0.2593257513
H  H447  1  0.37466000  0.58567000  0.80064000  1.0 0.2593257513
H  H448  1  0.62534000  0.41433000  0.19936000  1.0 0.2593257513
H  H449  1  0.13837000  0.98225000  0.53005000  1.0 0.2102081787
H  H450  1  0.86163000  0.01775000  0.46995000  1.0 0.2102081787
H  H451  1  0.86163000  0.98225000  0.96995000  1.0 0.2102081787
H  H452  1  0.13837000  0.01775000  0.03005000  1.0 0.2102081787
H  H453  1  0.63837000  0.48225000  0.53005000  1.0 0.2102081787
H  H454  1  0.36163000  0.51775000  0.46995000  1.0 0.2102081787
H  H455  1  0.36163000  0.48225000  0.96995000  1.0 0.2102081787
H  H456  1  0.63837000  0.51775000  0.03005000  1.0 0.2102081787
H  H457  1  0.09759000  0.85585000  0.47279000  1.0 0.0692448825
H  H458  1  0.90241000  0.14415000  0.52721000  1.0 0.0777102302
H  H459  1  0.90241000  0.85585000  0.02721000  1.0 0.0777102302
H  H460  1  0.09759000  0.14415000  0.97279000  1.0 0.0692448825
H  H461  1  0.59759000  0.35585000  0.47279000  1.0 0.0777102302
H  H462  1  0.40241000  0.64415000  0.52721000  1.0 0.0777102302
H  H463  1  0.40241000  0.35585000  0.02721000  1.0 0.0777102302
H  H464  1  0.59759000  0.64415000  0.97279000  1.0 0.0777102302
H  H465  1  0.04933000  0.90244000  0.47864000  1.0 0.0692448825
H  H466  1  0.95067000  0.09756000  0.52136000  1.0 0.0692448825
H  H467  1  0.95067000  0.90244000  0.02136000  1.0 0.0692448825
H  H468  1  0.04933000  0.09756000  0.97864000  1.0 0.0692448825
H  H469  1  0.54933000  0.40244000  0.47864000  1.0 0.0692448825
H  H470  1  0.45067000  0.59756000  0.52136000  1.0 0.0692448825
H  H471  1  0.45067000  0.40244000  0.02136000  1.0 0.0692448825
H  H472  1  0.54933000  0.59756000  0.97864000  1.0 0.0692448825
H  H473  1  0.04122000  0.07790000  0.53602000  1.0 0.1899110183
H  H474  1  0.95878000  0.92210000  0.46398000  1.0 0.1899110183
H  H475  1  0.95878000  0.07790000  0.96398000  1.0 0.1899110183
H  H476  1  0.04122000  0.92210000  0.03602000  1.0 0.1899110183
H  H477  1  0.54122000  0.57790000  0.53602000  1.0 0.1899110183
H  H478  1  0.45878000  0.42210000  0.46398000  1.0 0.1899110183
H  H479  1  0.45878000  0.57790000  0.96398000  1.0 0.1899110183
H  H480  1  0.54122000  0.42210000  0.03602000  1.0 0.1899110183
C  C1  1  0.08820000  0.34935000  0.38542000  1.0 0.1899110183
C  C2  1  0.91180000  0.65065000  0.61458000  1.0 0.180502348
C  C3  1  0.91180000  0.34935000  0.11458000  1.0 0.1899110183
C  C4  1  0.08820000  0.65065000  0.88542000  1.0 0.180502348
C  C5  1  0.58820000  0.84935000  0.38542000  1.0 0.1899110183
C  C6  1  0.41180000  0.15065000  0.61458000  1.0 0.1899110183
C  C7  1  0.41180000  0.84935000  0.11458000  1.0 0.180502348
C  C8  1  0.58820000  0.15065000  0.88542000  1.0 0.1899110183
C  C9  1  0.06132000  0.30302000  0.31248000  1.0 0.0183446124
C  C10  1  0.93868000  0.69698000  0.68752000  1.0 0.0183446124
C  C11  1  0.93868000  0.30302000  0.18752000  1.0 0.0183446124
C  C12  1  0.06132000  0.69698000  0.81248000  1.0 0.0183446124
C  C13  1  0.56132000  0.80302000  0.31248000  1.0 0.0183446124
C  C14  1  0.43868000  0.19698000  0.68752000  1.0 0.0183446124
C  C15  1  0.43868000  0.80302000  0.18752000  1.0 0.0183446124
C  C16  1  0.56132000  0.19698000  0.81248000  1.0 0.0183446124
C  C17  1  0.07203000  0.35149000  0.29557000  1.0 0.0692448825
C  C18  1  0.92797000  0.64851000  0.70443000  1.0 0.0692448825
C  C19  1  0.92797000  0.35149000  0.20443000  1.0 0.0692448825
C  C20  1  0.07203000  0.64851000  0.79557000  1.0 0.0692448825
C  C21  1  0.57203000  0.85149000  0.29557000  1.0 0.0692448825
C  C22  1  0.42797000  0.14851000  0.70443000  1.0 0.0692448825
C  C23  1  0.42797000  0.85149000  0.20443000  1.0 0.0692448825
C  C24  1  0.57203000  0.14851000  0.79557000  1.0 0.0692448825
C  C25  1  0.10141000  0.36235000  0.43888000  1.0 -0.4885628175
C  C26  1  0.89859000  0.63765000  0.56112000  1.0 -0.4885628175
C  C27  1  0.89859000  0.36235000  0.06112000  1.0 -0.4885628175
C  C28  1  0.10141000  0.63765000  0.93888000  1.0 -0.4885628175
C  C29  1  0.60141000  0.86235000  0.43888000  1.0 -0.4885628175
C  C30  1  0.39859000  0.13765000  0.56112000  1.0 -0.4885628175
C  C31  1  0.39859000  0.86235000  0.06112000  1.0 -0.4885628175
C  C32  1  0.60141000  0.13765000  0.93888000  1.0 -0.4885628175
C  C33  1  0.05634000  0.22258000  0.40146000  1.0 -0.1096817635
C  C34  1  0.94366000  0.77742000  0.59854000  1.0 -0.1096817635
C  C35  1  0.94366000  0.22258000  0.09854000  1.0 -0.1096817635
C  C36  1  0.05634000  0.77742000  0.90146000  1.0 -0.1096817635
C  C37  1  0.55634000  0.72258000  0.40146000  1.0 -0.1096817635
C  C38  1  0.44366000  0.27742000  0.59854000  1.0 -0.1096817635
C  C39  1  0.44366000  0.72258000  0.09854000  1.0 -0.1096817635
C  C40  1  0.55634000  0.27742000  0.90146000  1.0 -0.1096817635
C  C41  1  0.03181000  0.18135000  0.38649000  1.0 -0.030572399
C  C42  1  0.96819000  0.81865000  0.61351000  1.0 -0.030572399
C  C43  1  0.96819000  0.18135000  0.11351000  1.0 -0.030572399
C  C44  1  0.03181000  0.81865000  0.88649000  1.0 -0.030572399
C  C45  1  0.53181000  0.68135000  0.38649000  1.0 -0.030572399
C  C46  1  0.46819000  0.31865000  0.61351000  1.0 -0.030572399
C  C47  1  0.46819000  0.68135000  0.11351000  1.0 -0.030572399
C  C48  1  0.53181000  0.31865000  0.88649000  1.0 -0.030572399
C  C49  1  0.02259000  0.10595000  0.36122000  1.0 -0.030572399
C  C50  1  0.97741000  0.89405000  0.63878000  1.0 -0.030572399
C  C51  1  0.97741000  0.10595000  0.13878000  1.0 -0.036300934
C  C52  1  0.02259000  0.89405000  0.86122000  1.0 -0.030572399
C  C53  1  0.52259000  0.60595000  0.36122000  1.0 -0.030572399
C  C54  1  0.47741000  0.39405000  0.63878000  1.0 -0.030572399
C  C55  1  0.47741000  0.60595000  0.13878000  1.0 -0.030572399
C  C56  1  0.52259000  0.39405000  0.86122000  1.0 -0.030572399
C  C57  1  0.00322000  0.07347000  0.33937000  1.0 -0.060608254
C  C58  1  0.99678000  0.92653000  0.66063000  1.0 -0.060608254
C  C59  1  0.99678000  0.07347000  0.16063000  1.0 -0.060608254
C  C60  1  0.00322000  0.92653000  0.83937000  1.0 -0.060608254
C  C61  1  0.50322000  0.57347000  0.33937000  1.0 -0.060608254
C  C62  1  0.49678000  0.42653000  0.66063000  1.0 -0.060608254
C  C63  1  0.49678000  0.57347000  0.16063000  1.0 -0.060608254
C  C64  1  0.50322000  0.42653000  0.83937000  1.0 -0.060608254
C  C65  1  0.98702000  0.12926000  0.34307000  1.0 -0.060608254
C  C66  1  0.01298000  0.87074000  0.65693000  1.0 -0.060608254
C  C67  1  0.01298000  0.12926000  0.15693000  1.0 -0.060608254
C  C68  1  0.98702000  0.87074000  0.84307000  1.0 -0.060608254
C  C69  1  0.48702000  0.62926000  0.34307000  1.0 -0.060608254
C  C70  1  0.51298000  0.37074000  0.65693000  1.0 -0.060608254
C  C71  1  0.51298000  0.62926000  0.15693000  1.0 -0.060608254
C  C72  1  0.48702000  0.37074000  0.84307000  1.0 -0.0701611778
C  C73  1  0.99224000  0.19457000  0.36360000  1.0 -0.030572399
C  C74  1  0.00776000  0.80543000  0.63640000  1.0 -0.030572399
C  C75  1  0.00776000  0.19457000  0.13640000  1.0 -0.030572399
C  C76  1  0.99224000  0.80543000  0.86360000  1.0 -0.030572399
C  C77  1  0.49224000  0.69457000  0.36360000  1.0 -0.030572399
C  C78  1  0.50776000  0.30543000  0.63640000  1.0 -0.030572399
C  C79  1  0.50776000  0.69457000  0.13640000  1.0 -0.030572399
C  C80  1  0.49224000  0.30543000  0.86360000  1.0 -0.030572399
C  C81  1  0.01143000  0.24610000  0.39034000  1.0 -0.0701611778
C  C82  1  0.98857000  0.75390000  0.60966000  1.0 -0.0701611778
C  C83  1  0.98857000  0.24610000  0.10966000  1.0 -0.0701611778
C  C84  1  0.01143000  0.75390000  0.89034000  1.0 -0.0701611778
C  C85  1  0.51143000  0.74610000  0.39034000  1.0 -0.0701611778
C  C86  1  0.48857000  0.25390000  0.60966000  1.0 -0.0701611778
C  C87  1  0.48857000  0.74610000  0.10966000  1.0 -0.0701611778
C  C88  1  0.51143000  0.25390000  0.89034000  1.0 -0.0701611778
C  C89  1  0.01243000  0.34165000  0.41607000  1.0 -0.0985227489
C  C90  1  0.98757000  0.65835000  0.58393000  1.0 -0.0985227489
C  C91  1  0.98757000  0.34165000  0.08393000  1.0 -0.0985227489
C  C92  1  0.01243000  0.65835000  0.91607000  1.0 -0.0985227489
C  C93  1  0.51243000  0.84165000  0.41607000  1.0 -0.0985227489
C  C94  1  0.48757000  0.15835000  0.58393000  1.0 -0.0985227489
C  C95  1  0.48757000  0.84165000  0.08393000  1.0 -0.0985227489
C  C96  1  0.51243000  0.15835000  0.91607000  1.0 -0.0985227489
C  C97  1  0.98161000  0.47623000  0.37528000  1.0 0.202981471
C  C98  1  0.01839000  0.52377000  0.62472000  1.0 0.202981471
C  C99  1  0.01839000  0.47623000  0.12472000  1.0 0.202981471
C  C100  1  0.98161000  0.52377000  0.87528000  1.0 0.202981471
C  C101  1  0.48161000  0.97623000  0.37528000  1.0 0.202981471
C  C102  1  0.51839000  0.02377000  0.62472000  1.0 0.202981471
C  C103  1  0.51839000  0.97623000  0.12472000  1.0 0.202981471
C  C104  1  0.48161000  0.02377000  0.87528000  1.0 0.202981471
C  C105  1  0.96545000  0.45596000  0.44219000  1.0 0.0777102302
C  C106  1  0.03455000  0.54404000  0.55781000  1.0 0.0777102302
C  C107  1  0.03455000  0.45596000  0.05781000  1.0 0.0777102302
C  C108  1  0.96545000  0.54404000  0.94219000  1.0 0.0777102302
C  C109  1  0.46545000  0.95596000  0.44219000  1.0 0.0777102302
C  C110  1  0.53455000  0.04404000  0.55781000  1.0 0.0777102302
C  C111  1  0.53455000  0.95596000  0.05781000  1.0 0.0777102302
C  C112  1  0.46545000  0.04404000  0.94219000  1.0 0.0777102302
C  C113  1  0.98019000  0.41301000  0.45442000  1.0 0.0527762302
C  C114  1  0.01981000  0.58699000  0.54558000  1.0 0.0527762302
C  C115  1  0.01981000  0.41301000  0.04558000  1.0 0.0527762302
C  C116  1  0.98019000  0.58699000  0.95442000  1.0 0.0527762302
C  C117  1  0.48019000  0.91301000  0.45442000  1.0 0.0527762302
C  C118  1  0.51981000  0.08699000  0.54558000  1.0 0.0527762302
C  C119  1  0.51981000  0.91301000  0.04558000  1.0 0.0527762302
C  C120  1  0.48019000  0.08699000  0.95442000  1.0 0.0527762302
C  C121  1  0.98718000  0.49848000  0.33139000  1.0 -0.4401974369
C  C122  1  0.01282000  0.50152000  0.66861000  1.0 -0.4401974369
C  C123  1  0.01282000  0.49848000  0.16861000  1.0 -0.4401974369
C  C124  1  0.98718000  0.50152000  0.83139000  1.0 -0.4401974369
C  C125  1  0.48718000  0.99848000  0.33139000  1.0 -0.4401974369
C  C126  1  0.51282000  0.00152000  0.66861000  1.0 -0.4401974369
C  C127  1  0.51282000  0.99848000  0.16861000  1.0 -0.4401974369
C  C128  1  0.48718000  0.00152000  0.83139000  1.0 -0.4401974369
C  C129  1  0.17336000  0.51489000  0.25112000  1.0 0.2102081787
C  C130  1  0.82664000  0.48511000  0.74888000  1.0 0.2102081787
C  C131  1  0.82664000  0.51489000  0.24888000  1.0 0.2102081787
C  C132  1  0.17336000  0.48511000  0.75112000  1.0 0.2102081787
C  C133  1  0.67336000  0.01489000  0.25112000  1.0 0.2102081787
C  C134  1  0.32664000  0.98511000  0.74888000  1.0 0.2102081787
C  C135  1  0.32664000  0.01489000  0.24888000  1.0 0.2102081787
C  C136  1  0.67336000  0.98511000  0.75112000  1.0 0.2102081787
C  C137  1  0.16212000  0.62633000  0.21230000  1.0 0.1617891165
C  C138  1  0.83788000  0.37367000  0.78770000  1.0 0.1617891165
C  C139  1  0.83788000  0.62633000  0.28770000  1.0 0.1617891165
C  C140  1  0.16212000  0.37367000  0.71230000  1.0 0.1617891165
C  C141  1  0.66212000  0.12633000  0.21230000  1.0 0.1617891165
C  C142  1  0.33788000  0.87367000  0.78770000  1.0 0.1617891165
C  C143  1  0.33788000  0.12633000  0.28770000  1.0 0.1617891165
C  C144  1  0.66212000  0.87367000  0.71230000  1.0 0.1617891165
C  C145  1  0.15319000  0.62822000  0.22815000  1.0 0.0920050523
C  C146  1  0.84681000  0.37178000  0.77185000  1.0 0.0920050523
C  C147  1  0.84681000  0.62822000  0.27185000  1.0 0.0920050523
C  C148  1  0.15319000  0.37178000  0.72815000  1.0 0.0920050523
C  C149  1  0.65319000  0.12822000  0.22815000  1.0 0.0920050523
C  C150  1  0.34681000  0.87178000  0.77185000  1.0 0.0920050523
C  C151  1  0.34681000  0.12822000  0.27185000  1.0 0.0920050523
C  C152  1  0.65319000  0.87178000  0.72815000  1.0 0.0920050523
C  C153  1  0.18545000  0.42750000  0.27474000  1.0 -0.630264825
C  C154  1  0.81455000  0.57250000  0.72526000  1.0 -0.630264825
C  C155  1  0.81455000  0.42750000  0.22526000  1.0 -0.630264825
C  C156  1  0.18545000  0.57250000  0.77474000  1.0 -0.630264825
C  C157  1  0.68545000  0.92750000  0.27474000  1.0 -0.630264825
C  C158  1  0.31455000  0.07250000  0.72526000  1.0 -0.630264825
C  C159  1  0.31455000  0.92750000  0.22526000  1.0 -0.630264825
C  C160  1  0.68545000  0.07250000  0.77474000  1.0 -0.630264825
C  C161  1  0.20439000  0.57917000  0.19370000  1.0 -0.218601032
C  C162  1  0.79561000  0.42083000  0.80630000  1.0 -0.218601032
C  C163  1  0.79561000  0.57917000  0.30630000  1.0 -0.218601032
C  C164  1  0.20439000  0.42083000  0.69370000  1.0 -0.218601032
C  C165  1  0.70439000  0.07917000  0.19370000  1.0 -0.218601032
C  C166  1  0.29561000  0.92083000  0.80630000  1.0 -0.218601032
C  C167  1  0.29561000  0.07917000  0.30630000  1.0 -0.218601032
C  C168  1  0.70439000  0.92083000  0.69370000  1.0 -0.218601032
C  C169  1  0.22357000  0.63227000  0.22209000  1.0 0.0183446124
C  C170  1  0.77643000  0.36773000  0.77791000  1.0 0.0183446124
C  C171  1  0.77643000  0.63227000  0.27791000  1.0 0.0183446124
C  C172  1  0.22357000  0.36773000  0.72209000  1.0 0.0183446124
C  C173  1  0.72357000  0.13227000  0.22209000  1.0 0.0183446124
C  C174  1  0.27643000  0.86773000  0.77791000  1.0 0.0183446124
C  C175  1  0.27643000  0.13227000  0.27791000  1.0 0.0183446124
C  C176  1  0.72357000  0.86773000  0.72209000  1.0 0.0183446124
C  C177  1  0.22927000  0.65903000  0.27371000  1.0 -0.1096817635
C  C178  1  0.77073000  0.34097000  0.72629000  1.0 -0.1096817635
C  C179  1  0.77073000  0.65903000  0.22629000  1.0 -0.1096817635
C  C180  1  0.22927000  0.34097000  0.77371000  1.0 -0.1096817635
C  C181  1  0.72927000  0.15903000  0.27371000  1.0 -0.1096817635
C  C182  1  0.27073000  0.84097000  0.72629000  1.0 -0.1096817635
C  C183  1  0.27073000  0.15903000  0.22629000  1.0 -0.1096817635
C  C184  1  0.72927000  0.84097000  0.77371000  1.0 -0.1096817635
C  C185  1  0.24882000  0.70969000  0.30919000  1.0 -0.0221408118
C  C186  1  0.75118000  0.29031000  0.69081000  1.0 -0.0221408118
C  C187  1  0.75118000  0.70969000  0.19081000  1.0 -0.0221408118
C  C188  1  0.24882000  0.29031000  0.80919000  1.0 -0.030572399
C  C189  1  0.74882000  0.20969000  0.30919000  1.0 -0.0221408118
C  C190  1  0.25118000  0.79031000  0.69081000  1.0 -0.0221408118
C  C191  1  0.25118000  0.20969000  0.19081000  1.0 -0.0221408118
C  C192  1  0.74882000  0.79031000  0.80919000  1.0 -0.0221408118
C  C193  1  0.26089000  0.72775000  0.28710000  1.0 -0.0221408118
C  C194  1  0.73911000  0.27225000  0.71290000  1.0 -0.0221408118
C  C195  1  0.73911000  0.72775000  0.21290000  1.0 -0.0221408118
C  C196  1  0.26089000  0.27225000  0.78710000  1.0 -0.0221408118
C  C197  1  0.76089000  0.22775000  0.28710000  1.0 -0.0221408118
C  C198  1  0.23911000  0.77225000  0.71290000  1.0 -0.0221408118
C  C199  1  0.23911000  0.22775000  0.21290000  1.0 -0.0221408118
C  C200  1  0.76089000  0.77225000  0.78710000  1.0 -0.0221408118
C  C201  1  0.25965000  0.71216000  0.23795000  1.0 -0.060608254
C  C202  1  0.74035000  0.28784000  0.76205000  1.0 -0.060608254
C  C203  1  0.74035000  0.71216000  0.26205000  1.0 -0.060608254
C  C204  1  0.25965000  0.28784000  0.73795000  1.0 -0.060608254
C  C205  1  0.75965000  0.21216000  0.23795000  1.0 -0.060608254
C  C206  1  0.24035000  0.78784000  0.76205000  1.0 -0.060608254
C  C207  1  0.24035000  0.21216000  0.26205000  1.0 -0.060608254
C  C208  1  0.75965000  0.78784000  0.73795000  1.0 -0.060608254
C  C209  1  0.24200000  0.66595000  0.19130000  1.0 -0.0701611778
C  C210  1  0.75800000  0.33405000  0.80870000  1.0 -0.0701611778
C  C211  1  0.75800000  0.66595000  0.30870000  1.0 -0.0701611778
C  C212  1  0.24200000  0.33405000  0.69130000  1.0 -0.0701611778
C  C213  1  0.74200000  0.16595000  0.19130000  1.0 -0.0701611778
C  C214  1  0.25800000  0.83405000  0.80870000  1.0 -0.0701611778
C  C215  1  0.25800000  0.16595000  0.30870000  1.0 -0.0701611778
C  C216  1  0.74200000  0.83405000  0.69130000  1.0 -0.0701611778
C  C217  1  0.24309000  0.66332000  0.13217000  1.0 -0.0501860762
C  C218  1  0.75691000  0.33668000  0.86783000  1.0 -0.0501860762
C  C219  1  0.75691000  0.66332000  0.36783000  1.0 -0.0501860762
C  C220  1  0.24309000  0.33668000  0.63217000  1.0 -0.0501860762
C  C221  1  0.74309000  0.16332000  0.13217000  1.0 -0.0501860762
C  C222  1  0.25691000  0.83668000  0.86783000  1.0 -0.0501860762
C  C223  1  0.25691000  0.16332000  0.36783000  1.0 -0.0501860762
C  C224  1  0.74309000  0.83668000  0.63217000  1.0 -0.0501860762
C  C225  1  0.28159000  0.69038000  0.09439000  1.0 0.2176289543
C  C226  1  0.71841000  0.30962000  0.90561000  1.0 0.2176289543
C  C227  1  0.71841000  0.69038000  0.40561000  1.0 0.2176289543
C  C228  1  0.28159000  0.30962000  0.59439000  1.0 0.2176289543
C  C229  1  0.78159000  0.19038000  0.09439000  1.0 0.2176289543
C  C230  1  0.21841000  0.80962000  0.90561000  1.0 0.2176289543
C  C231  1  0.21841000  0.19038000  0.40561000  1.0 0.2176289543
C  C232  1  0.78159000  0.80962000  0.59439000  1.0 0.2176289543
C  C233  1  0.27058000  0.82784000  0.06573000  1.0 0.0605353594
C  C234  1  0.72942000  0.17216000  0.93427000  1.0 0.0605353594
C  C235  1  0.72942000  0.82784000  0.43427000  1.0 0.0605353594
C  C236  1  0.27058000  0.17216000  0.56573000  1.0 0.0605353594
C  C237  1  0.77058000  0.32784000  0.06573000  1.0 0.0605353594
C  C238  1  0.22942000  0.67216000  0.93427000  1.0 0.0605353594
C  C239  1  0.22942000  0.32784000  0.43427000  1.0 0.0605353594
C  C240  1  0.77058000  0.67216000  0.56573000  1.0 0.0605353594
C  C241  1  0.25397000  0.79834000  0.07795000  1.0 0.0413991168
C  C242  1  0.74603000  0.20166000  0.92205000  1.0 0.0413991168
C  C243  1  0.74603000  0.79834000  0.42205000  1.0 0.0413991168
C  C244  1  0.25397000  0.20166000  0.57795000  1.0 0.0413991168
C  C245  1  0.75397000  0.29834000  0.07795000  1.0 0.0413991168
C  C246  1  0.24603000  0.70166000  0.92205000  1.0 0.0413991168
C  C247  1  0.24603000  0.29834000  0.42205000  1.0 0.0413991168
C  C248  1  0.75397000  0.70166000  0.57795000  1.0 0.0413991168
C  C249  1  0.29113000  0.61786000  0.10775000  1.0 -0.4188899312
C  C250  1  0.70887000  0.38214000  0.89225000  1.0 -0.4188899312
C  C251  1  0.70887000  0.61786000  0.39225000  1.0 -0.4188899312
C  C252  1  0.29113000  0.38214000  0.60775000  1.0 -0.4188899312
C  C253  1  0.79113000  0.11786000  0.10775000  1.0 -0.4188899312
C  C254  1  0.20887000  0.88214000  0.89225000  1.0 -0.4188899312
C  C255  1  0.20887000  0.11786000  0.39225000  1.0 -0.4188899312
C  C256  1  0.79113000  0.88214000  0.60775000  1.0 -0.4188899312
C  C257  1  0.17120000  0.51704000  0.44929000  1.0 0.5818544451
C  C258  1  0.82880000  0.48296000  0.55071000  1.0 0.5818544451
C  C259  1  0.82880000  0.51704000  0.05071000  1.0 0.5818544451
C  C260  1  0.17120000  0.48296000  0.94929000  1.0 0.5818544451
C  C261  1  0.67120000  0.01704000  0.44929000  1.0 0.5818544451
C  C262  1  0.32880000  0.98296000  0.55071000  1.0 0.5818544451
C  C263  1  0.32880000  0.01704000  0.05071000  1.0 0.5818544451
C  C264  1  0.67120000  0.98296000  0.94929000  1.0 0.5818544451
C  C265  1  0.16838000  0.63074000  0.44259000  1.0 -0.2002420489
C  C266  1  0.83162000  0.36926000  0.55741000  1.0 -0.2002420489
C  C267  1  0.83162000  0.63074000  0.05741000  1.0 -0.2002420489
C  C268  1  0.16838000  0.36926000  0.94259000  1.0 -0.2002420489
C  C269  1  0.66838000  0.13074000  0.44259000  1.0 -0.2002420489
C  C270  1  0.33162000  0.86926000  0.55741000  1.0 -0.2002420489
C  C271  1  0.33162000  0.13074000  0.05741000  1.0 -0.2002420489
C  C272  1  0.66838000  0.86926000  0.94259000  1.0 -0.2002420489
C  C273  1  0.18236000  0.71074000  0.45490000  1.0 0.0084296692
C  C274  1  0.81764000  0.28926000  0.54510000  1.0 0.0084296692
C  C275  1  0.81764000  0.71074000  0.04510000  1.0 0.0084296692
C  C276  1  0.18236000  0.28926000  0.95490000  1.0 0.0084296692
C  C277  1  0.68236000  0.21074000  0.45490000  1.0 0.0084296692
C  C278  1  0.31764000  0.78926000  0.54510000  1.0 0.0084296692
C  C279  1  0.31764000  0.21074000  0.04510000  1.0 0.0084296692
C  C280  1  0.68236000  0.78926000  0.95490000  1.0 0.0084296692
C  C281  1  0.18228000  0.77270000  0.45412000  1.0 -0.0221408118
C  C282  1  0.81772000  0.22730000  0.54588000  1.0 -0.0221408118
C  C283  1  0.81772000  0.77270000  0.04588000  1.0 -0.0221408118
C  C284  1  0.18228000  0.22730000  0.95412000  1.0 -0.0221408118
C  C285  1  0.68228000  0.27270000  0.45412000  1.0 -0.0221408118
C  C286  1  0.31772000  0.72730000  0.54588000  1.0 -0.0221408118
C  C287  1  0.31772000  0.27270000  0.04588000  1.0 -0.0221408118
C  C288  1  0.68228000  0.72730000  0.95412000  1.0 -0.0221408118
C  C289  1  0.16304000  0.81870000  0.43580000  1.0 -0.0501860762
C  C290  1  0.83696000  0.18130000  0.56420000  1.0 -0.0501860762
C  C291  1  0.83696000  0.81870000  0.06420000  1.0 -0.0501860762
C  C292  1  0.16304000  0.18130000  0.93580000  1.0 -0.0501860762
C  C293  1  0.66304000  0.31870000  0.43580000  1.0 -0.0501860762
C  C294  1  0.33696000  0.68130000  0.56420000  1.0 -0.0501860762
C  C295  1  0.33696000  0.31870000  0.06420000  1.0 -0.0501860762
C  C296  1  0.66304000  0.68130000  0.93580000  1.0 -0.0501860762
C  C297  1  0.14675000  0.76541000  0.42164000  1.0 -0.1096817635
C  C298  1  0.85325000  0.23459000  0.57836000  1.0 -0.1096817635
C  C299  1  0.85325000  0.76541000  0.07836000  1.0 -0.1096817635
C  C300  1  0.14675000  0.23459000  0.92164000  1.0 -0.1096817635
C  C301  1  0.64675000  0.26541000  0.42164000  1.0 -0.1096817635
C  C302  1  0.35325000  0.73459000  0.57836000  1.0 -0.1096817635
C  C303  1  0.35325000  0.26541000  0.07836000  1.0 -0.1096817635
C  C304  1  0.64675000  0.73459000  0.92164000  1.0 -0.1096817635
C  C305  1  0.14265000  0.67306000  0.42035000  1.0 0.1290464629
C  C306  1  0.85735000  0.32694000  0.57965000  1.0 0.1290464629
C  C307  1  0.85735000  0.67306000  0.07965000  1.0 0.1290464629
C  C308  1  0.14265000  0.32694000  0.92035000  1.0 0.1290464629
C  C309  1  0.64265000  0.17306000  0.42035000  1.0 0.1290464629
C  C310  1  0.35735000  0.82694000  0.57965000  1.0 0.1290464629
C  C311  1  0.35735000  0.17306000  0.07965000  1.0 0.1290464629
C  C312  1  0.64265000  0.82694000  0.92035000  1.0 0.1290464629
C  C313  1  0.09876000  0.64842000  0.40782000  1.0 0.1194882065
C  C314  1  0.90124000  0.35158000  0.59218000  1.0 0.1194882065
C  C315  1  0.90124000  0.64842000  0.09218000  1.0 0.1194882065
C  C316  1  0.09876000  0.35158000  0.90782000  1.0 0.1194882065
C  C317  1  0.59876000  0.14842000  0.40782000  1.0 0.1194882065
C  C318  1  0.40124000  0.85158000  0.59218000  1.0 0.1194882065
C  C319  1  0.40124000  0.14842000  0.09218000  1.0 0.1194882065
C  C320  1  0.59876000  0.85158000  0.90782000  1.0 0.1194882065
C  C321  1  0.09096000  0.66675000  0.45660000  1.0 -0.1096817635
C  C322  1  0.90904000  0.33325000  0.54340000  1.0 -0.1096817635
C  C323  1  0.90904000  0.66675000  0.04340000  1.0 -0.1096817635
C  C324  1  0.09096000  0.33325000  0.95660000  1.0 -0.1096817635
C  C325  1  0.59096000  0.16675000  0.45660000  1.0 -0.1096817635
C  C326  1  0.40904000  0.83325000  0.54340000  1.0 -0.1096817635
C  C327  1  0.40904000  0.16675000  0.04340000  1.0 -0.1096817635
C  C328  1  0.59096000  0.83325000  0.95660000  1.0 -0.1096817635
C  C329  1  0.07283000  0.69122000  0.46218000  1.0 -0.0121764274
C  C330  1  0.92717000  0.30878000  0.53782000  1.0 -0.0121764274
C  C331  1  0.92717000  0.69122000  0.03782000  1.0 -0.0121764274
C  C332  1  0.07283000  0.30878000  0.96218000  1.0 -0.0121764274
C  C333  1  0.57283000  0.19122000  0.46218000  1.0 -0.0121764274
C  C334  1  0.42717000  0.80878000  0.53782000  1.0 -0.0121764274
C  C335  1  0.42717000  0.19122000  0.03782000  1.0 -0.0221408118
C  C336  1  0.57283000  0.80878000  0.96218000  1.0 -0.0121764274
C  C337  1  0.05725000  0.70282000  0.41891000  1.0 -0.0023466187
C  C338  1  0.94275000  0.29718000  0.58109000  1.0 -0.0023466187
C  C339  1  0.94275000  0.70282000  0.08109000  1.0 -0.0023466187
C  C340  1  0.05725000  0.29718000  0.91891000  1.0 -0.0023466187
C  C341  1  0.55725000  0.20282000  0.41891000  1.0 -0.0023466187
C  C342  1  0.44275000  0.79718000  0.58109000  1.0 -0.0023466187
C  C343  1  0.44275000  0.20282000  0.08109000  1.0 -0.0023466187
C  C344  1  0.55725000  0.79718000  0.91891000  1.0 -0.0023466187
C  C345  1  0.05949000  0.69171000  0.37574000  1.0 0.0029928692
C  C346  1  0.94051000  0.30829000  0.62426000  1.0 0.0029928692
C  C347  1  0.94051000  0.69171000  0.12426000  1.0 0.0029928692
C  C348  1  0.05949000  0.30829000  0.87574000  1.0 0.0029928692
C  C349  1  0.55949000  0.19171000  0.37574000  1.0 0.0029928692
C  C350  1  0.44051000  0.80829000  0.62426000  1.0 0.0029928692
C  C351  1  0.44051000  0.19171000  0.12426000  1.0 0.0029928692
C  C352  1  0.55949000  0.80829000  0.87574000  1.0 0.0029928692
C  C353  1  0.07728000  0.66451000  0.35194000  1.0 -0.2513978273
C  C354  1  0.92272000  0.33549000  0.64806000  1.0 -0.2513978273
C  C355  1  0.92272000  0.66451000  0.14806000  1.0 -0.2513978273
C  C356  1  0.07728000  0.33549000  0.85194000  1.0 -0.2513978273
C  C357  1  0.57728000  0.16451000  0.35194000  1.0 -0.2513978273
C  C358  1  0.42272000  0.83549000  0.64806000  1.0 -0.2513978273
C  C359  1  0.42272000  0.16451000  0.14806000  1.0 -0.2513978273
C  C360  1  0.57728000  0.83549000  0.85194000  1.0 -0.2513978273
C  C361  1  0.07824000  0.65045000  0.28655000  1.0 0.5818544451
C  C362  1  0.92176000  0.34955000  0.71345000  1.0 0.5818544451
C  C363  1  0.92176000  0.65045000  0.21345000  1.0 0.5818544451
C  C364  1  0.07824000  0.34955000  0.78655000  1.0 0.5818544451
C  C365  1  0.57824000  0.15045000  0.28655000  1.0 0.5818544451
C  C366  1  0.42176000  0.84955000  0.71345000  1.0 0.5818544451
C  C367  1  0.42176000  0.15045000  0.21345000  1.0 0.5818544451
C  C368  1  0.57824000  0.84955000  0.78655000  1.0 0.5818544451
C  C369  1  0.13384000  0.20817000  0.33575000  1.0 0.5202809509
C  C370  1  0.86616000  0.79183000  0.66425000  1.0 0.5202809509
C  C371  1  0.86616000  0.20817000  0.16425000  1.0 0.5202809509
C  C372  1  0.13384000  0.79183000  0.83575000  1.0 0.5202809509
C  C373  1  0.63384000  0.70817000  0.33575000  1.0 0.5202809509
C  C374  1  0.36616000  0.29183000  0.66425000  1.0 0.5202809509
C  C375  1  0.36616000  0.70817000  0.16425000  1.0 0.5202809509
C  C376  1  0.63384000  0.29183000  0.83575000  1.0 0.5202809509
C  C377  1  0.11726000  0.14004000  0.29572000  1.0 -0.2513978273
C  C378  1  0.88274000  0.85996000  0.70428000  1.0 -0.2513978273
C  C379  1  0.88274000  0.14004000  0.20428000  1.0 -0.2513978273
C  C380  1  0.11726000  0.85996000  0.79572000  1.0 -0.2513978273
C  C381  1  0.61726000  0.64004000  0.29572000  1.0 -0.2513978273
C  C382  1  0.38274000  0.35996000  0.70428000  1.0 -0.2513978273
C  C383  1  0.38274000  0.64004000  0.20428000  1.0 -0.2513978273
C  C384  1  0.61726000  0.35996000  0.79572000  1.0 -0.2513978273
C  C385  1  0.10801000  0.05345000  0.30234000  1.0 0.0084296692
C  C386  1  0.89199000  0.94655000  0.69766000  1.0 0.0084296692
C  C387  1  0.89199000  0.05345000  0.19766000  1.0 0.0084296692
C  C388  1  0.10801000  0.94655000  0.80234000  1.0 0.0084296692
C  C389  1  0.60801000  0.55345000  0.30234000  1.0 0.0084296692
C  C390  1  0.39199000  0.44655000  0.69766000  1.0 0.0084296692
C  C391  1  0.39199000  0.55345000  0.19766000  1.0 0.0084296692
C  C392  1  0.60801000  0.44655000  0.80234000  1.0 0.0084296692
C  C393  1  0.09682000  0.99780000  0.28025000  1.0 -0.0501860762
C  C394  1  0.90318000  0.00220000  0.71975000  1.0 -0.0501860762
C  C395  1  0.90318000  0.99780000  0.21975000  1.0 -0.0501860762
C  C396  1  0.09682000  0.00220000  0.78025000  1.0 -0.0501860762
C  C397  1  0.59682000  0.49780000  0.28025000  1.0 -0.0501860762
C  C398  1  0.40318000  0.50220000  0.71975000  1.0 -0.0501860762
C  C399  1  0.40318000  0.49780000  0.21975000  1.0 -0.0501860762
C  C400  1  0.59682000  0.50220000  0.78025000  1.0 -0.0501860762
C  C401  1  0.08699000  0.01235000  0.22130000  1.0 -0.060608254
C  C402  1  0.91301000  0.98765000  0.77870000  1.0 -0.0701611778
C  C403  1  0.91301000  0.01235000  0.27870000  1.0 -0.060608254
C  C404  1  0.08699000  0.98765000  0.72130000  1.0 -0.060608254
C  C405  1  0.58699000  0.51235000  0.22130000  1.0 -0.060608254
C  C406  1  0.41301000  0.48765000  0.77870000  1.0 -0.060608254
C  C407  1  0.41301000  0.51235000  0.27870000  1.0 -0.060608254
C  C408  1  0.58699000  0.48765000  0.72130000  1.0 -0.060608254
C  C409  1  0.09189000  0.07597000  0.20784000  1.0 -0.0985227489
C  C410  1  0.90811000  0.92403000  0.79216000  1.0 -0.0985227489
C  C411  1  0.90811000  0.07597000  0.29216000  1.0 -0.0985227489
C  C412  1  0.09189000  0.92403000  0.70784000  1.0 -0.0985227489
C  C413  1  0.59189000  0.57597000  0.20784000  1.0 -0.0985227489
C  C414  1  0.40811000  0.42403000  0.79216000  1.0 -0.0985227489
C  C415  1  0.40811000  0.57597000  0.29216000  1.0 -0.0985227489
C  C416  1  0.59189000  0.42403000  0.70784000  1.0 -0.0985227489
C  C417  1  0.10410000  0.15530000  0.22330000  1.0 0.1509660081
C  C418  1  0.89590000  0.84470000  0.77670000  1.0 0.1509660081
C  C419  1  0.89590000  0.15530000  0.27670000  1.0 0.1509660081
C  C420  1  0.10410000  0.84470000  0.72330000  1.0 0.1509660081
C  C421  1  0.60410000  0.65530000  0.22330000  1.0 0.1509660081
C  C422  1  0.39590000  0.34470000  0.77670000  1.0 0.1509660081
C  C423  1  0.39590000  0.65530000  0.27670000  1.0 0.1509660081
C  C424  1  0.60410000  0.34470000  0.72330000  1.0 0.1509660081
C  C425  1  0.12544000  0.26717000  0.16942000  1.0 0.1290464629
C  C426  1  0.87456000  0.73283000  0.83058000  1.0 0.1290464629
C  C427  1  0.87456000  0.26717000  0.33058000  1.0 0.1290464629
C  C428  1  0.12544000  0.73283000  0.66942000  1.0 0.1290464629
C  C429  1  0.62544000  0.76717000  0.16942000  1.0 0.1290464629
C  C430  1  0.37456000  0.23283000  0.83058000  1.0 0.1290464629
C  C431  1  0.37456000  0.76717000  0.33058000  1.0 0.1290464629
C  C432  1  0.62544000  0.23283000  0.66942000  1.0 0.1290464629
C  C433  1  0.14265000  0.21524000  0.15864000  1.0 -0.0985227489
C  C434  1  0.85735000  0.78476000  0.84136000  1.0 -0.0985227489
C  C435  1  0.85735000  0.21524000  0.34136000  1.0 -0.0985227489
C  C436  1  0.14265000  0.78476000  0.65864000  1.0 -0.0985227489
C  C437  1  0.64265000  0.71524000  0.15864000  1.0 -0.0985227489
C  C438  1  0.35735000  0.28476000  0.84136000  1.0 -0.0985227489
C  C439  1  0.35735000  0.71524000  0.34136000  1.0 -0.0985227489
C  C440  1  0.64265000  0.28476000  0.65864000  1.0 -0.0985227489
C  C441  1  0.15697000  0.22788000  0.13583000  1.0 -0.0121764274
C  C442  1  0.84303000  0.77212000  0.86417000  1.0 -0.0121764274
C  C443  1  0.84303000  0.22788000  0.36417000  1.0 -0.0121764274
C  C444  1  0.15697000  0.77212000  0.63583000  1.0 -0.0121764274
C  C445  1  0.65697000  0.72788000  0.13583000  1.0 -0.0121764274
C  C446  1  0.34303000  0.27212000  0.86417000  1.0 -0.0121764274
C  C447  1  0.34303000  0.72788000  0.36417000  1.0 -0.0121764274
C  C448  1  0.65697000  0.27212000  0.63583000  1.0 -0.0121764274
C  C449  1  0.15728000  0.30661000  0.11445000  1.0 -0.0501860762
C  C450  1  0.84272000  0.69339000  0.88555000  1.0 -0.0501860762
C  C451  1  0.84272000  0.30661000  0.38555000  1.0 -0.0501860762
C  C452  1  0.15728000  0.69339000  0.61445000  1.0 -0.0501860762
C  C453  1  0.65728000  0.80661000  0.11445000  1.0 -0.0501860762
C  C454  1  0.34272000  0.19339000  0.88555000  1.0 -0.0501860762
C  C455  1  0.34272000  0.80661000  0.38555000  1.0 -0.0501860762
C  C456  1  0.65728000  0.19339000  0.61445000  1.0 -0.0501860762
C  C457  1  0.14549000  0.35613000  0.11785000  1.0 -0.0121764274
C  C458  1  0.85451000  0.64387000  0.88215000  1.0 -0.0121764274
C  C459  1  0.85451000  0.35613000  0.38215000  1.0 -0.0121764274
C  C460  1  0.14549000  0.64387000  0.61785000  1.0 -0.0121764274
C  C461  1  0.64549000  0.85613000  0.11785000  1.0 -0.0121764274
C  C462  1  0.35451000  0.14387000  0.88215000  1.0 -0.0121764274
C  C463  1  0.35451000  0.85613000  0.38215000  1.0 -0.0121764274
C  C464  1  0.64549000  0.14387000  0.61785000  1.0 -0.0121764274
C  C465  1  0.12524000  0.36195000  0.14409000  1.0 -0.2513978273
C  C466  1  0.87476000  0.63805000  0.85591000  1.0 -0.2513978273
C  C467  1  0.87476000  0.36195000  0.35591000  1.0 -0.2513978273
C  C468  1  0.12524000  0.63805000  0.64409000  1.0 -0.2513978273
C  C469  1  0.62524000  0.86195000  0.14409000  1.0 -0.2513978273
C  C470  1  0.37476000  0.13805000  0.85591000  1.0 -0.2513978273
C  C471  1  0.37476000  0.86195000  0.35591000  1.0 -0.2513978273
C  C472  1  0.62524000  0.13805000  0.64409000  1.0 -0.2513978273
C  C473  1  0.10796000  0.44553000  0.14418000  1.0 0.5552645188
C  C474  1  0.89204000  0.55447000  0.85582000  1.0 0.5552645188
C  C475  1  0.89204000  0.44553000  0.35582000  1.0 0.5552645188
C  C476  1  0.10796000  0.55447000  0.64418000  1.0 0.5552645188
C  C477  1  0.60796000  0.94553000  0.14418000  1.0 0.5552645188
C  C478  1  0.39204000  0.05447000  0.85582000  1.0 0.5552645188
C  C479  1  0.39204000  0.94553000  0.35582000  1.0 0.5552645188
C  C480  1  0.60796000  0.05447000  0.64418000  1.0 0.5552645188
C  C481  1  0.17791000  0.17224000  0.56355000  1.0 0.4942844968
C  C482  1  0.82209000  0.82776000  0.43645000  1.0 0.4942844968
C  C483  1  0.82209000  0.17224000  0.93645000  1.0 0.4942844968
C  C484  1  0.17791000  0.82776000  0.06355000  1.0 0.4942844968
C  C485  1  0.67791000  0.67224000  0.56355000  1.0 0.4942844968
C  C486  1  0.32209000  0.32776000  0.43645000  1.0 0.4942844968
C  C487  1  0.32209000  0.67224000  0.93645000  1.0 0.4942844968
C  C488  1  0.67791000  0.32776000  0.06355000  1.0 0.4942844968
C  C489  1  0.17521000  0.12975000  0.61883000  1.0 -0.2664738901
C  C490  1  0.82479000  0.87025000  0.38117000  1.0 -0.2664738901
C  C491  1  0.82479000  0.12975000  0.88117000  1.0 -0.2664738901
C  C492  1  0.17521000  0.87025000  0.11883000  1.0 -0.2664738901
C  C493  1  0.67521000  0.62975000  0.61883000  1.0 -0.2664738901
C  C494  1  0.32479000  0.37025000  0.38117000  1.0 -0.2664738901
C  C495  1  0.32479000  0.62975000  0.88117000  1.0 -0.2664738901
C  C496  1  0.67521000  0.37025000  0.11883000  1.0 -0.2664738901
C  C497  1  0.19126000  0.09151000  0.67204000  1.0 -0.0121764274
C  C498  1  0.80874000  0.90849000  0.32796000  1.0 -0.0121764274
C  C499  1  0.80874000  0.09151000  0.82796000  1.0 -0.0121764274
C  C500  1  0.19126000  0.90849000  0.17204000  1.0 -0.0121764274
C  C501  1  0.69126000  0.59151000  0.67204000  1.0 -0.0121764274
C  C502  1  0.30874000  0.40849000  0.32796000  1.0 -0.0121764274
C  C503  1  0.30874000  0.59151000  0.82796000  1.0 -0.0121764274
C  C504  1  0.69126000  0.40849000  0.17204000  1.0 -0.0121764274
C  C505  1  0.18946000  0.06527000  0.71458000  1.0 -0.030572399
C  C506  1  0.81054000  0.93473000  0.28542000  1.0 -0.0221408118
C  C507  1  0.81054000  0.06527000  0.78542000  1.0 -0.030572399
C  C508  1  0.18946000  0.93473000  0.21458000  1.0 -0.0221408118
C  C509  1  0.68946000  0.56527000  0.71458000  1.0 -0.030572399
C  C510  1  0.31054000  0.43473000  0.28542000  1.0 -0.0221408118
C  C511  1  0.31054000  0.56527000  0.78542000  1.0 -0.030572399
C  C512  1  0.68946000  0.43473000  0.21458000  1.0 -0.030572399
C  C513  1  0.17076000  0.06396000  0.72224000  1.0 -0.030572399
C  C514  1  0.82924000  0.93604000  0.27776000  1.0 -0.030572399
C  C515  1  0.82924000  0.06396000  0.77776000  1.0 -0.030572399
C  C516  1  0.17076000  0.93604000  0.22224000  1.0 -0.030572399
C  C517  1  0.67076000  0.56396000  0.72224000  1.0 -0.030572399
C  C518  1  0.32924000  0.43604000  0.27776000  1.0 -0.030572399
C  C519  1  0.32924000  0.56396000  0.77776000  1.0 -0.030572399
C  C520  1  0.67076000  0.43604000  0.22224000  1.0 -0.030572399
C  C521  1  0.15516000  0.08810000  0.68781000  1.0 -0.1096817635
C  C522  1  0.84484000  0.91190000  0.31219000  1.0 -0.1096817635
C  C523  1  0.84484000  0.08810000  0.81219000  1.0 -0.1096817635
C  C524  1  0.15516000  0.91190000  0.18781000  1.0 -0.1096817635
C  C525  1  0.65516000  0.58810000  0.68781000  1.0 -0.1096817635
C  C526  1  0.34484000  0.41190000  0.31219000  1.0 -0.1096817635
C  C527  1  0.34484000  0.58810000  0.81219000  1.0 -0.1096817635
C  C528  1  0.65516000  0.41190000  0.18781000  1.0 -0.1096817635
C  C529  1  0.15112000  0.12424000  0.63127000  1.0 0.111459787
C  C530  1  0.84888000  0.87576000  0.36873000  1.0 0.111459787
C  C531  1  0.84888000  0.12424000  0.86873000  1.0 0.111459787
C  C532  1  0.15112000  0.87576000  0.13127000  1.0 0.111459787
C  C533  1  0.65112000  0.62424000  0.63127000  1.0 0.111459787
C  C534  1  0.34888000  0.37576000  0.36873000  1.0 0.111459787
C  C535  1  0.34888000  0.62424000  0.86873000  1.0 0.111459787
C  C536  1  0.65112000  0.37576000  0.13127000  1.0 0.111459787
C  C537  1  0.11028000  0.09715000  0.56226000  1.0 0.1390449167
C  C538  1  0.88972000  0.90285000  0.43774000  1.0 0.1390449167
C  C539  1  0.88972000  0.09715000  0.93774000  1.0 0.1390449167
C  C540  1  0.11028000  0.90285000  0.06226000  1.0 0.1390449167
C  C541  1  0.61028000  0.59715000  0.56226000  1.0 0.1390449167
C  C542  1  0.38972000  0.40285000  0.43774000  1.0 0.1390449167
C  C543  1  0.38972000  0.59715000  0.93774000  1.0 0.1390449167
C  C544  1  0.61028000  0.40285000  0.06226000  1.0 0.1390449167
C  C545  1  0.10784000  0.01085000  0.53104000  1.0 -0.1096817635
C  C546  1  0.89216000  0.98915000  0.46896000  1.0 -0.1096817635
C  C547  1  0.89216000  0.01085000  0.96896000  1.0 -0.1096817635
C  C548  1  0.10784000  0.98915000  0.03104000  1.0 -0.1096817635
C  C549  1  0.60784000  0.51085000  0.53104000  1.0 -0.1096817635
C  C550  1  0.39216000  0.48915000  0.46896000  1.0 -0.1096817635
C  C551  1  0.39216000  0.51085000  0.96896000  1.0 -0.1096817635
C  C552  1  0.60784000  0.48915000  0.03104000  1.0 -0.1096817635
C  C553  1  0.09321000  0.96391000  0.51069000  1.0 -0.0221408118
C  C554  1  0.90679000  0.03609000  0.48931000  1.0 -0.0221408118
C  C555  1  0.90679000  0.96391000  0.98931000  1.0 -0.0221408118
C  C556  1  0.09321000  0.03609000  0.01069000  1.0 -0.0221408118
C  C557  1  0.59321000  0.46391000  0.51069000  1.0 -0.0221408118
C  C558  1  0.40679000  0.53609000  0.48931000  1.0 -0.0221408118
C  C559  1  0.40679000  0.46391000  0.98931000  1.0 -0.0221408118
C  C560  1  0.59321000  0.53609000  0.01069000  1.0 -0.0221408118
C  C561  1  0.07400000  0.98116000  0.51165000  1.0 -0.0221408118
C  C562  1  0.92600000  0.01884000  0.48835000  1.0 -0.0221408118
C  C563  1  0.92600000  0.98116000  0.98835000  1.0 -0.0221408118
C  C564  1  0.07400000  0.01884000  0.01165000  1.0 -0.0221408118
C  C565  1  0.57400000  0.48116000  0.51165000  1.0 -0.0221408118
C  C566  1  0.42600000  0.51884000  0.48835000  1.0 -0.0221408118
C  C567  1  0.42600000  0.48116000  0.98835000  1.0 -0.0221408118
C  C568  1  0.57400000  0.51884000  0.01165000  1.0 -0.030572399
C  C569  1  0.07104000  0.05059000  0.53494000  1.0 -0.0221408118
C  C570  1  0.92896000  0.94941000  0.46506000  1.0 -0.0221408118
C  C571  1  0.92896000  0.05059000  0.96506000  1.0 -0.0221408118
C  C572  1  0.07104000  0.94941000  0.03494000  1.0 -0.0221408118
C  C573  1  0.57104000  0.55059000  0.53494000  1.0 -0.0221408118
C  C574  1  0.42896000  0.44941000  0.46506000  1.0 -0.0221408118
C  C575  1  0.42896000  0.55059000  0.96506000  1.0 -0.0221408118
C  C576  1  0.57104000  0.44941000  0.03494000  1.0 -0.0221408118
C  C577  1  0.08527000  0.12455000  0.56451000  1.0 -0.2576371884
C  C578  1  0.91473000  0.87545000  0.43549000  1.0 -0.2576371884
C  C579  1  0.91473000  0.12455000  0.93549000  1.0 -0.2576371884
C  C580  1  0.08527000  0.87545000  0.06451000  1.0 -0.2576371884
C  C581  1  0.58527000  0.62455000  0.56451000  1.0 -0.2576371884
C  C582  1  0.41473000  0.37545000  0.43549000  1.0 -0.2576371884
C  C583  1  0.41473000  0.62455000  0.93549000  1.0 -0.2576371884
C  C584  1  0.58527000  0.37545000  0.06451000  1.0 -0.2576371884
C  C585  1  0.07882000  0.21218000  0.59042000  1.0 0.511603282
C  C586  1  0.92118000  0.78782000  0.40958000  1.0 0.511603282
C  C587  1  0.92118000  0.21218000  0.90958000  1.0 0.511603282
C  C588  1  0.07882000  0.78782000  0.09042000  1.0 0.511603282
C  C589  1  0.57882000  0.71218000  0.59042000  1.0 0.511603282
C  C590  1  0.42118000  0.28782000  0.40958000  1.0 0.511603282
C  C591  1  0.42118000  0.71218000  0.90958000  1.0 0.511603282
C  C592  1  0.57882000  0.28782000  0.09042000  1.0 0.511603282
N  N1  1  0.09158000  0.39573000  0.33115000  1.0 -0.3008434696
N  N2  1  0.90842000  0.60427000  0.66885000  1.0 -0.3008434696
N  N3  1  0.90842000  0.39573000  0.16885000  1.0 -0.3008434696
N  N4  1  0.09158000  0.60427000  0.83115000  1.0 -0.3008434696
N  N5  1  0.59158000  0.89573000  0.33115000  1.0 -0.3008434696
N  N6  1  0.40842000  0.10427000  0.66885000  1.0 -0.3008434696
N  N7  1  0.40842000  0.89573000  0.16885000  1.0 -0.3008434696
N  N8  1  0.59158000  0.10427000  0.83115000  1.0 -0.3008434696
N  N9  1  0.06704000  0.28804000  0.36819000  1.0 -0.0023466187
N  N10  1  0.93296000  0.71196000  0.63181000  1.0 -0.0023466187
N  N11  1  0.93296000  0.28804000  0.13181000  1.0 -0.0023466187
N  N12  1  0.06704000  0.71196000  0.86819000  1.0 -0.0023466187
N  N13  1  0.56704000  0.78804000  0.36819000  1.0 -0.0023466187
N  N14  1  0.43296000  0.21196000  0.63181000  1.0 -0.0023466187
N  N15  1  0.43296000  0.78804000  0.13181000  1.0 -0.0023466187
N  N16  1  0.56704000  0.21196000  0.86819000  1.0 -0.0023466187
N  N17  1  0.99523000  0.40599000  0.42475000  1.0 -0.0221408118
N  N18  1  0.00477000  0.59401000  0.57525000  1.0 -0.0221408118
N  N19  1  0.00477000  0.40599000  0.07525000  1.0 -0.0221408118
N  N20  1  0.99523000  0.59401000  0.92475000  1.0 -0.0221408118
N  N21  1  0.49523000  0.90599000  0.42475000  1.0 -0.0221408118
N  N22  1  0.50477000  0.09401000  0.57525000  1.0 -0.0221408118
N  N23  1  0.50477000  0.90599000  0.07525000  1.0 -0.0221408118
N  N24  1  0.49523000  0.09401000  0.92475000  1.0 -0.0221408118
N  N25  1  0.95983000  0.50971000  0.39195000  1.0 -0.3008434696
N  N26  1  0.04017000  0.49029000  0.60805000  1.0 -0.3008434696
N  N27  1  0.04017000  0.50971000  0.10805000  1.0 -0.3008434696
N  N28  1  0.95983000  0.49029000  0.89195000  1.0 -0.3008434696
N  N29  1  0.45983000  0.00971000  0.39195000  1.0 -0.3008434696
N  N30  1  0.54017000  0.99029000  0.60805000  1.0 -0.3008434696
N  N31  1  0.54017000  0.00971000  0.10805000  1.0 -0.3008434696
N  N32  1  0.45983000  0.99029000  0.89195000  1.0 -0.3008434696
N  N33  1  0.25405000  0.71726000  0.09682000  1.0 -0.0023466187
N  N34  1  0.74595000  0.28274000  0.90318000  1.0 -0.0121764274
N  N35  1  0.74595000  0.71726000  0.40318000  1.0 -0.0121764274
N  N36  1  0.25405000  0.28274000  0.59682000  1.0 -0.0023466187
N  N37  1  0.75405000  0.21726000  0.09682000  1.0 -0.0121764274
N  N38  1  0.24595000  0.78274000  0.90318000  1.0 -0.0023466187
N  N39  1  0.24595000  0.21726000  0.40318000  1.0 -0.0023466187
N  N40  1  0.75405000  0.78274000  0.59682000  1.0 -0.0023466187
N  N41  1  0.28910000  0.78271000  0.07038000  1.0 -0.2664738901
N  N42  1  0.71090000  0.21729000  0.92962000  1.0 -0.2664738901
N  N43  1  0.71090000  0.78271000  0.42962000  1.0 -0.2664738901
N  N44  1  0.28910000  0.21729000  0.57038000  1.0 -0.2664738901
N  N45  1  0.78910000  0.28271000  0.07038000  1.0 -0.2664738901
N  N46  1  0.21090000  0.71729000  0.92962000  1.0 -0.2664738901
N  N47  1  0.21090000  0.28271000  0.42962000  1.0 -0.2664738901
N  N48  1  0.78910000  0.71729000  0.57038000  1.0 -0.2664738901
N  N49  1  0.15492000  0.54446000  0.27022000  1.0 -0.3008434696
N  N50  1  0.84508000  0.45554000  0.72978000  1.0 -0.3008434696
N  N51  1  0.84508000  0.54446000  0.22978000  1.0 -0.3008434696
N  N52  1  0.15492000  0.45554000  0.77022000  1.0 -0.3008434696
N  N53  1  0.65492000  0.04446000  0.27022000  1.0 -0.3008434696
N  N54  1  0.34508000  0.95554000  0.72978000  1.0 -0.3008434696
N  N55  1  0.34508000  0.04446000  0.22978000  1.0 -0.3008434696
N  N56  1  0.65492000  0.95554000  0.77022000  1.0 -0.3008434696
N  N57  1  0.17557000  0.57320000  0.21374000  1.0 -0.036300934
N  N58  1  0.82443000  0.42680000  0.78626000  1.0 -0.036300934
N  N59  1  0.82443000  0.57320000  0.28626000  1.0 -0.036300934
N  N60  1  0.17557000  0.42680000  0.71374000  1.0 -0.036300934
N  N61  1  0.67557000  0.07320000  0.21374000  1.0 -0.036300934
N  N62  1  0.32443000  0.92680000  0.78626000  1.0 -0.030572399
N  N63  1  0.32443000  0.07320000  0.28626000  1.0 -0.036300934
N  N64  1  0.67557000  0.92680000  0.71374000  1.0 -0.036300934
O  O1  1  0.15415000  0.44986000  0.41153000  1.0 -0.693806595
O  O2  1  0.84585000  0.55014000  0.58847000  1.0 -0.693806595
O  O3  1  0.84585000  0.44986000  0.08847000  1.0 -0.693806595
O  O4  1  0.15415000  0.55014000  0.91153000  1.0 -0.693806595
O  O5  1  0.65415000  0.94986000  0.41153000  1.0 -0.693806595
O  O6  1  0.34585000  0.05014000  0.58847000  1.0 -0.693806595
O  O7  1  0.34585000  0.94986000  0.08847000  1.0 -0.693806595
O  O8  1  0.65415000  0.05014000  0.91153000  1.0 -0.693806595
O  O9  1  0.19293000  0.48054000  0.49602000  1.0 -0.6504215438
O  O10  1  0.80707000  0.51946000  0.50398000  1.0 -0.6504215438
O  O11  1  0.80707000  0.48054000  0.00398000  1.0 -0.6504215438
O  O12  1  0.19293000  0.51946000  0.99602000  1.0 -0.6504215438
O  O13  1  0.69293000  0.98054000  0.49602000  1.0 -0.6504215438
O  O14  1  0.30707000  0.01946000  0.50398000  1.0 -0.6504215438
O  O15  1  0.30707000  0.98054000  0.00398000  1.0 -0.6504215438
O  O16  1  0.69293000  0.01946000  0.99602000  1.0 -0.6504215438
O  O17  1  0.12241000  0.60946000  0.40516000  1.0 -0.2923821051
O  O18  1  0.87759000  0.39054000  0.59484000  1.0 -0.2923821051
O  O19  1  0.87759000  0.60946000  0.09484000  1.0 -0.2923821051
O  O20  1  0.12241000  0.39054000  0.90516000  1.0 -0.2923821051
O  O21  1  0.62241000  0.10946000  0.40516000  1.0 -0.2923821051
O  O22  1  0.37759000  0.89054000  0.59484000  1.0 -0.2923821051
O  O23  1  0.37759000  0.10946000  0.09484000  1.0 -0.2923821051
O  O24  1  0.62241000  0.89054000  0.90516000  1.0 -0.2923821051
O  O25  1  0.10212000  0.61571000  0.27768000  1.0 -0.7355931166
O  O26  1  0.89788000  0.38429000  0.72232000  1.0 -0.7355931166
O  O27  1  0.89788000  0.61571000  0.22232000  1.0 -0.7355931166
O  O28  1  0.10212000  0.38429000  0.77768000  1.0 -0.7355931166
O  O29  1  0.60212000  0.11571000  0.27768000  1.0 -0.7355931166
O  O30  1  0.39788000  0.88429000  0.72232000  1.0 -0.7355931166
O  O31  1  0.39788000  0.11571000  0.22232000  1.0 -0.7355931166
O  O32  1  0.60212000  0.88429000  0.77768000  1.0 -0.7355931166
O  O33  1  0.05828000  0.66813000  0.23811000  1.0 -0.6828887489
O  O34  1  0.94172000  0.33187000  0.76189000  1.0 -0.6828887489
O  O35  1  0.94172000  0.66813000  0.26189000  1.0 -0.6828887489
O  O36  1  0.05828000  0.33187000  0.73811000  1.0 -0.6828887489
O  O37  1  0.55828000  0.16813000  0.23811000  1.0 -0.6828887489
O  O38  1  0.44172000  0.83187000  0.76189000  1.0 -0.6828887489
O  O39  1  0.44172000  0.16813000  0.26189000  1.0 -0.6828887489
O  O40  1  0.55828000  0.83187000  0.73811000  1.0 -0.6828887489
O  O41  1  0.14206000  0.30360000  0.30899000  1.0 -0.7026186574
O  O42  1  0.85794000  0.69640000  0.69101000  1.0 -0.7026186574
O  O43  1  0.85794000  0.30360000  0.19101000  1.0 -0.7026186574
O  O44  1  0.14206000  0.69640000  0.80899000  1.0 -0.7026186574
O  O45  1  0.64206000  0.80360000  0.30899000  1.0 -0.7026186574
O  O46  1  0.35794000  0.19640000  0.69101000  1.0 -0.7026186574
O  O47  1  0.35794000  0.80360000  0.19101000  1.0 -0.7026186574
O  O48  1  0.64206000  0.19640000  0.80899000  1.0 -0.7026186574
O  O49  1  0.14348000  0.18965000  0.39739000  1.0 -0.5940876219
O  O50  1  0.85652000  0.81035000  0.60261000  1.0 -0.5940876219
O  O51  1  0.85652000  0.18965000  0.10261000  1.0 -0.5940876219
O  O52  1  0.14348000  0.81035000  0.89739000  1.0 -0.5940876219
O  O53  1  0.64348000  0.68965000  0.39739000  1.0 -0.5940876219
O  O54  1  0.35652000  0.31035000  0.60261000  1.0 -0.5940876219
O  O55  1  0.35652000  0.68965000  0.10261000  1.0 -0.5940876219
O  O56  1  0.64348000  0.31035000  0.89739000  1.0 -0.5940876219
O  O57  1  0.10576000  0.24932000  0.19700000  1.0 -0.3008434696
O  O58  1  0.89424000  0.75068000  0.80300000  1.0 -0.3008434696
O  O59  1  0.89424000  0.24932000  0.30300000  1.0 -0.3008434696
O  O60  1  0.10576000  0.75068000  0.69700000  1.0 -0.3008434696
O  O61  1  0.60576000  0.74932000  0.19700000  1.0 -0.3008434696
O  O62  1  0.39424000  0.25068000  0.80300000  1.0 -0.3008434696
O  O63  1  0.39424000  0.74932000  0.30300000  1.0 -0.3008434696
O  O64  1  0.60576000  0.25068000  0.69700000  1.0 -0.3008434696
O  O65  1  0.09990000  0.45539000  0.19839000  1.0 -0.673366322
O  O66  1  0.90010000  0.54461000  0.80161000  1.0 -0.673366322
O  O67  1  0.90010000  0.45539000  0.30161000  1.0 -0.673366322
O  O68  1  0.09990000  0.54461000  0.69839000  1.0 -0.673366322
O  O69  1  0.59990000  0.95539000  0.19839000  1.0 -0.673366322
O  O70  1  0.40010000  0.04461000  0.80161000  1.0 -0.673366322
O  O71  1  0.40010000  0.95539000  0.30161000  1.0 -0.673366322
O  O72  1  0.59990000  0.04461000  0.69839000  1.0 -0.673366322
O  O73  1  0.09935000  0.50783000  0.09565000  1.0 -0.6020870942
O  O74  1  0.90065000  0.49217000  0.90435000  1.0 -0.6020870942
O  O75  1  0.90065000  0.50783000  0.40435000  1.0 -0.6020870942
O  O76  1  0.09935000  0.49217000  0.59565000  1.0 -0.6020870942
O  O77  1  0.59935000  0.00783000  0.09565000  1.0 -0.6020870942
O  O78  1  0.40065000  0.99217000  0.90435000  1.0 -0.6020870942
O  O79  1  0.40065000  0.00783000  0.40435000  1.0 -0.6020870942
O  O80  1  0.59935000  0.99217000  0.59565000  1.0 -0.6020870942
O  O81  1  0.17092000  0.27490000  0.54895000  1.0 -0.6828887489
O  O82  1  0.82908000  0.72510000  0.45105000  1.0 -0.6828887489
O  O83  1  0.82908000  0.27490000  0.95105000  1.0 -0.6828887489
O  O84  1  0.17092000  0.72510000  0.04895000  1.0 -0.6828887489
O  O85  1  0.67092000  0.77490000  0.54895000  1.0 -0.6828887489
O  O86  1  0.32908000  0.22510000  0.45105000  1.0 -0.6828887489
O  O87  1  0.32908000  0.77490000  0.95105000  1.0 -0.6828887489
O  O88  1  0.67092000  0.22510000  0.04895000  1.0 -0.6828887489
O  O89  1  0.18864000  0.11289000  0.51975000  1.0 -0.693806595
O  O90  1  0.81136000  0.88711000  0.48025000  1.0 -0.693806595
O  O91  1  0.81136000  0.11289000  0.98025000  1.0 -0.693806595
O  O92  1  0.18864000  0.88711000  0.01975000  1.0 -0.693806595
O  O93  1  0.68864000  0.61289000  0.51975000  1.0 -0.693806595
O  O94  1  0.31136000  0.38711000  0.48025000  1.0 -0.693806595
O  O95  1  0.31136000  0.61289000  0.98025000  1.0 -0.693806595
O  O96  1  0.68864000  0.38711000  0.01975000  1.0 -0.693806595
O  O97  1  0.13029000  0.16436000  0.58459000  1.0 -0.2513978273
O  O98  1  0.86971000  0.83564000  0.41541000  1.0 -0.2513978273
O  O99  1  0.86971000  0.16436000  0.91541000  1.0 -0.2576371884
O  O100  1  0.13029000  0.83564000  0.08459000  1.0 -0.2513978273
O  O101  1  0.63029000  0.66436000  0.58459000  1.0 -0.2513978273
O  O102  1  0.36971000  0.33564000  0.41541000  1.0 -0.2513978273
O  O103  1  0.36971000  0.66436000  0.91541000  1.0 -0.2513978273
O  O104  1  0.63029000  0.33564000  0.08459000  1.0 -0.2513978273
O  O105  1  0.09859000  0.24986000  0.65457000  1.0 -0.7074680243
O  O106  1  0.90141000  0.75014000  0.34543000  1.0 -0.7074680243
O  O107  1  0.90141000  0.24986000  0.84543000  1.0 -0.7074680243
O  O108  1  0.09859000  0.75014000  0.15457000  1.0 -0.7074680243
O  O109  1  0.59859000  0.74986000  0.65457000  1.0 -0.7074680243
O  O110  1  0.40141000  0.25014000  0.34543000  1.0 -0.7074680243
O  O111  1  0.40141000  0.74986000  0.84543000  1.0 -0.7074680243
O  O112  1  0.59859000  0.25014000  0.15457000  1.0 -0.7074680243
O  O113  1  0.05791000  0.26726000  0.56729000  1.0 -0.630264825
O  O114  1  0.94209000  0.73274000  0.43271000  1.0 -0.630264825
O  O115  1  0.94209000  0.26726000  0.93271000  1.0 -0.630264825
O  O116  1  0.05791000  0.73274000  0.06729000  1.0 -0.630264825
O  O117  1  0.55791000  0.76726000  0.56729000  1.0 -0.630264825
O  O118  1  0.44209000  0.23274000  0.43271000  1.0 -0.630264825
O  O119  1  0.44209000  0.76726000  0.93271000  1.0 -0.630264825
O  O120  1  0.55791000  0.23274000  0.06729000  1.0 -0.630264825
