# DDEC6 charges by PACMAN v1.1 (https://github.com/mtap-research/PACMAN-charge/)
data_FIGLAK_FSR_pacman
_symmetry_space_group_name_H-M   'P 1'
_cell_length_a   27.75400000
_cell_length_b   27.75400000
_cell_length_c   21.60700000
_cell_angle_alpha   73.13140000
_cell_angle_beta   106.86900000
_cell_angle_gamma   152.91800000
_symmetry_Int_Tables_number   1
_chemical_formula_structural   Cd3H65C78(N2O3)5
_chemical_formula_sum   'Cd12 H260 C312 N40 O60'
_cell_volume   7231.82737325
_cell_formula_units_Z   4
loop_
 _symmetry_equiv_pos_site_id
 _symmetry_equiv_pos_as_xyz
  1  'x, y, z'
loop_
 _atom_site_type_symbol
 _atom_site_label
 _atom_site_symmetry_multiplicity
 _atom_site_fract_x
 _atom_site_fract_y
 _atom_site_fract_z
 _atom_site_occupancy
 _atom_site_charge
Cd  Cd1  1  0.40978000  0.65988000  0.69106000  1.0 0.8904064074
Cd  Cd2  1  0.65988000  0.40978000  0.80894000  1.0 0.8904064074
Cd  Cd3  1  0.59022000  0.34012000  0.30894000  1.0 0.8904064074
Cd  Cd4  1  0.34012000  0.59022000  0.19106000  1.0 0.8904064074
Cd  Cd5  1  0.52936000  0.87668000  0.54968000  1.0 0.9106895998
Cd  Cd6  1  0.87668000  0.52936000  0.95032000  1.0 0.9106895998
Cd  Cd7  1  0.47064000  0.12332000  0.45032000  1.0 0.9106895998
Cd  Cd8  1  0.12332000  0.47064000  0.04968000  1.0 0.9106895998
Cd  Cd9  1  0.32077000  0.47083000  0.84365000  1.0 0.8904064074
Cd  Cd10  1  0.47083000  0.32077000  0.65635000  1.0 0.8904064074
Cd  Cd11  1  0.67923000  0.52917000  0.15635000  1.0 0.8904064074
Cd  Cd12  1  0.52917000  0.67923000  0.34365000  1.0 0.8904064074
H  H1  1  0.70130000  0.78430000  0.72200000  1.0 0.120709771
H  H2  1  0.78430000  0.70130000  0.77800000  1.0 0.120709771
H  H3  1  0.29870000  0.21570000  0.27800000  1.0 0.120709771
H  H4  1  0.21570000  0.29870000  0.22200000  1.0 0.120709771
H  H5  1  0.55810000  0.69390000  0.76320000  1.0 0.1289262095
H  H6  1  0.69390000  0.55810000  0.73680000  1.0 0.1289262095
H  H7  1  0.44190000  0.30610000  0.23680000  1.0 0.1289262095
H  H8  1  0.30610000  0.44190000  0.26320000  1.0 0.1289262095
H  H9  1  0.58890000  0.81030000  0.52820000  1.0 0.1627337485
H  H10  1  0.81030000  0.58890000  0.97180000  1.0 0.1627337485
H  H11  1  0.41110000  0.18970000  0.47180000  1.0 0.1627337485
H  H12  1  0.18970000  0.41110000  0.02820000  1.0 0.1627337485
H  H13  1  0.50660000  0.69580000  0.52320000  1.0 0.1627337485
H  H14  1  0.69580000  0.50660000  0.97680000  1.0 0.1627337485
H  H15  1  0.49340000  0.30420000  0.47680000  1.0 0.1627337485
H  H16  1  0.30420000  0.49340000  0.02320000  1.0 0.1627337485
H  H17  1  0.47240000  0.71080000  0.54700000  1.0 0.1712646067
H  H18  1  0.71080000  0.47240000  0.95300000  1.0 0.1712646067
H  H19  1  0.52760000  0.28920000  0.45300000  1.0 0.1712646067
H  H20  1  0.28920000  0.52760000  0.04700000  1.0 0.1712646067
H  H21  1  0.68740000  0.81220000  0.54570000  1.0 0.120709771
H  H22  1  0.81220000  0.68740000  0.95430000  1.0 0.120709771
H  H23  1  0.31260000  0.18780000  0.45430000  1.0 0.120709771
H  H24  1  0.18780000  0.31260000  0.04570000  1.0 0.120709771
H  H25  1  0.77220000  0.91420000  0.58020000  1.0 0.120709771
H  H26  1  0.91420000  0.77220000  0.91980000  1.0 0.120709771
H  H27  1  0.22780000  0.08580000  0.41980000  1.0 0.120709771
H  H28  1  0.08580000  0.22780000  0.08020000  1.0 0.120709771
H  H29  1  0.91750000  0.99730000  0.64320000  1.0 0.1289262095
H  H30  1  0.99730000  0.91750000  0.85680000  1.0 0.1289262095
H  H31  1  0.08250000  0.00270000  0.35680000  1.0 0.1289262095
H  H32  1  0.00270000  0.08250000  0.14320000  1.0 0.1289262095
H  H33  1  0.01210000  0.00870000  0.68640000  1.0 0.120709771
H  H34  1  0.00870000  0.01210000  0.81360000  1.0 0.120709771
H  H35  1  0.98790000  0.99130000  0.31360000  1.0 0.120709771
H  H36  1  0.99130000  0.98790000  0.18640000  1.0 0.120709771
H  H37  1  0.94360000  0.87320000  0.68290000  1.0 0.120709771
H  H38  1  0.87320000  0.94360000  0.81710000  1.0 0.120709771
H  H39  1  0.05640000  0.12680000  0.31710000  1.0 0.120709771
H  H40  1  0.12680000  0.05640000  0.18290000  1.0 0.120709771
H  H41  1  0.77560000  0.72080000  0.63290000  1.0 0.120709771
H  H42  1  0.72080000  0.77560000  0.86710000  1.0 0.120709771
H  H43  1  0.22440000  0.27920000  0.36710000  1.0 0.120709771
H  H44  1  0.27920000  0.22440000  0.13290000  1.0 0.120709771
H  H45  1  0.63080000  0.68860000  0.53380000  1.0 0.1289262095
H  H46  1  0.68860000  0.63080000  0.96620000  1.0 0.1289262095
H  H47  1  0.36920000  0.31140000  0.46620000  1.0 0.1289262095
H  H48  1  0.31140000  0.36920000  0.03380000  1.0 0.1289262095
H  H49  1  0.58260000  0.63760000  0.60080000  1.0 0.120709771
H  H50  1  0.63760000  0.58260000  0.89920000  1.0 0.120709771
H  H51  1  0.41740000  0.36240000  0.39920000  1.0 0.120709771
H  H52  1  0.36240000  0.41740000  0.10080000  1.0 0.120709771
H  H53  1  0.58400000  0.48080000  0.52960000  1.0 0.120709771
H  H54  1  0.48080000  0.58400000  0.97040000  1.0 0.120709771
H  H55  1  0.41600000  0.51920000  0.47040000  1.0 0.120709771
H  H56  1  0.51920000  0.41600000  0.02960000  1.0 0.120709771
H  H57  1  0.65710000  0.63010000  0.49390000  1.0 0.1289262095
H  H58  1  0.63010000  0.65710000  0.00610000  1.0 0.1289262095
H  H59  1  0.34290000  0.36990000  0.50610000  1.0 0.1289262095
H  H60  1  0.36990000  0.34290000  0.99390000  1.0 0.1289262095
H  H61  1  0.46460000  0.41900000  0.70340000  1.0 0.1712646067
H  H62  1  0.41900000  0.46460000  0.79660000  1.0 0.1712646067
H  H63  1  0.53540000  0.58100000  0.29660000  1.0 0.1712646067
H  H64  1  0.58100000  0.53540000  0.20340000  1.0 0.1712646067
H  H65  1  0.56610000  0.54090000  0.70840000  1.0 0.1537707659
H  H66  1  0.54090000  0.56610000  0.79160000  1.0 0.1537707659
H  H67  1  0.43390000  0.45910000  0.29160000  1.0 0.1537707659
H  H68  1  0.45910000  0.43390000  0.20840000  1.0 0.1537707659
H  H69  1  0.46370000  0.47610000  0.66740000  1.0 0.1537707659
H  H70  1  0.47610000  0.46370000  0.83260000  1.0 0.1537707659
H  H71  1  0.53630000  0.52390000  0.33260000  1.0 0.1537707659
H  H72  1  0.52390000  0.53630000  0.16740000  1.0 0.1537707659
H  H73  1  0.13520000  0.46340000  0.83780000  1.0 0.0926287453
H  H74  1  0.46340000  0.13520000  0.66220000  1.0 0.0926287453
H  H75  1  0.86480000  0.53660000  0.16220000  1.0 0.0926287453
H  H76  1  0.53660000  0.86480000  0.33780000  1.0 0.0926287453
H  H77  1  0.17940000  0.44520000  0.76610000  1.0 0.1103806242
H  H78  1  0.44520000  0.17940000  0.73390000  1.0 0.1103806242
H  H79  1  0.82060000  0.55480000  0.23390000  1.0 0.1103806242
H  H80  1  0.55480000  0.82060000  0.26610000  1.0 0.1103806242
H  H81  1  0.40280000  0.80780000  0.73890000  1.0 0.0974709317
H  H82  1  0.80780000  0.40280000  0.76110000  1.0 0.0974709317
H  H83  1  0.59720000  0.19220000  0.26110000  1.0 0.0974709317
H  H84  1  0.19220000  0.59720000  0.23890000  1.0 0.0974709317
H  H85  1  0.38920000  0.77940000  0.67520000  1.0 0.1103806242
H  H86  1  0.77940000  0.38920000  0.82480000  1.0 0.1103806242
H  H87  1  0.61080000  0.22060000  0.32480000  1.0 0.1103806242
H  H88  1  0.22060000  0.61080000  0.17520000  1.0 0.1103806242
H  H89  1  0.47130000  0.82390000  0.73170000  1.0 0.1103806242
H  H90  1  0.82390000  0.47130000  0.76830000  1.0 0.1103806242
H  H91  1  0.52870000  0.17610000  0.26830000  1.0 0.1103806242
H  H92  1  0.17610000  0.52870000  0.23170000  1.0 0.1103806242
H  H93  1  0.20060000  0.58860000  0.85950000  1.0 0.1103806242
H  H94  1  0.58860000  0.20060000  0.64050000  1.0 0.1103806242
H  H95  1  0.79940000  0.41140000  0.14050000  1.0 0.1103806242
H  H96  1  0.41140000  0.79940000  0.35950000  1.0 0.1103806242
H  H97  1  0.28930000  0.70130000  0.82520000  1.0 0.1103806242
H  H98  1  0.70130000  0.28930000  0.67480000  1.0 0.1103806242
H  H99  1  0.71070000  0.29870000  0.17480000  1.0 0.1103806242
H  H100  1  0.29870000  0.71070000  0.32520000  1.0 0.1103806242
H  H101  1  0.14840000  0.57600000  0.69550000  1.0 0.1103806242
H  H102  1  0.57600000  0.14840000  0.80450000  1.0 0.1103806242
H  H103  1  0.85160000  0.42400000  0.30450000  1.0 0.1103806242
H  H104  1  0.42400000  0.85160000  0.19550000  1.0 0.1103806242
H  H105  1  0.02340000  0.51920000  0.63760000  1.0 0.120709771
H  H106  1  0.51920000  0.02340000  0.86240000  1.0 0.120709771
H  H107  1  0.97660000  0.48080000  0.36240000  1.0 0.120709771
H  H108  1  0.48080000  0.97660000  0.13760000  1.0 0.120709771
H  H109  1  0.94610000  0.50930000  0.67840000  1.0 0.1103806242
H  H110  1  0.50930000  0.94610000  0.82160000  1.0 0.1103806242
H  H111  1  0.05390000  0.49070000  0.32160000  1.0 0.1103806242
H  H112  1  0.49070000  0.05390000  0.17840000  1.0 0.1103806242
H  H113  1  0.98210000  0.53510000  0.78600000  1.0 0.1103806242
H  H114  1  0.53510000  0.98210000  0.71400000  1.0 0.1103806242
H  H115  1  0.01790000  0.46490000  0.21400000  1.0 0.1103806242
H  H116  1  0.46490000  0.01790000  0.28600000  1.0 0.1103806242
H  H117  1  0.18000000  0.66680000  0.88240000  1.0 0.1289262095
H  H118  1  0.66680000  0.18000000  0.61760000  1.0 0.1289262095
H  H119  1  0.82000000  0.33320000  0.11760000  1.0 0.1289262095
H  H120  1  0.33320000  0.82000000  0.38240000  1.0 0.1289262095
H  H121  1  0.11900000  0.56180000  0.90180000  1.0 0.1289262095
H  H122  1  0.56180000  0.11900000  0.59820000  1.0 0.1289262095
H  H123  1  0.88100000  0.43820000  0.09820000  1.0 0.1289262095
H  H124  1  0.43820000  0.88100000  0.40180000  1.0 0.1289262095
H  H125  1  0.81190000  0.35210000  0.95620000  1.0 0.1289262095
H  H126  1  0.35210000  0.81190000  0.54380000  1.0 0.1289262095
H  H127  1  0.18810000  0.64790000  0.04380000  1.0 0.1289262095
H  H128  1  0.64790000  0.18810000  0.45620000  1.0 0.1289262095
H  H129  1  0.91840000  0.38660000  0.92640000  1.0 0.1398254456
H  H130  1  0.38660000  0.91840000  0.57360000  1.0 0.1398254456
H  H131  1  0.08160000  0.61340000  0.07360000  1.0 0.1398254456
H  H132  1  0.61340000  0.08160000  0.42640000  1.0 0.1398254456
H  H133  1  0.12120000  0.72200000  0.92490000  1.0 0.1712646067
H  H134  1  0.72200000  0.12120000  0.57510000  1.0 0.1712646067
H  H135  1  0.87880000  0.27800000  0.07510000  1.0 0.1712646067
H  H136  1  0.27800000  0.87880000  0.42490000  1.0 0.1712646067
H  H137  1  0.16990000  0.73590000  0.88120000  1.0 0.1398254456
H  H138  1  0.73590000  0.16990000  0.61880000  1.0 0.1398254456
H  H139  1  0.83010000  0.26410000  0.11880000  1.0 0.1398254456
H  H140  1  0.26410000  0.83010000  0.38120000  1.0 0.1398254456
H  H141  1  0.08210000  0.69970000  0.85140000  1.0 0.1537707659
H  H142  1  0.69970000  0.08210000  0.64860000  1.0 0.1537707659
H  H143  1  0.91790000  0.30030000  0.14860000  1.0 0.1537707659
H  H144  1  0.30030000  0.91790000  0.35140000  1.0 0.1537707659
H  H145  1  0.13170000  0.54390000  0.52450000  1.0 0.1103806242
H  H146  1  0.54390000  0.13170000  0.97550000  1.0 0.1103806242
H  H147  1  0.86830000  0.45610000  0.47550000  1.0 0.1103806242
H  H148  1  0.45610000  0.86830000  0.02450000  1.0 0.1103806242
H  H149  1  0.95260000  0.35520000  0.52590000  1.0 0.120709771
H  H150  1  0.35520000  0.95260000  0.97410000  1.0 0.120709771
H  H151  1  0.04740000  0.64480000  0.47410000  1.0 0.120709771
H  H152  1  0.64480000  0.04740000  0.02590000  1.0 0.120709771
H  H153  1  0.92830000  0.24930000  0.56890000  1.0 0.120709771
H  H154  1  0.24930000  0.92830000  0.93110000  1.0 0.120709771
H  H155  1  0.07170000  0.75070000  0.43110000  1.0 0.120709771
H  H156  1  0.75070000  0.07170000  0.06890000  1.0 0.120709771
H  H157  1  0.06420000  0.31320000  0.60150000  1.0 0.1289262095
H  H158  1  0.31320000  0.06420000  0.89850000  1.0 0.1289262095
H  H159  1  0.93580000  0.68680000  0.39850000  1.0 0.1289262095
H  H160  1  0.68680000  0.93580000  0.10150000  1.0 0.1289262095
H  H161  1  0.24070000  0.45950000  0.49470000  1.0 0.1398254456
H  H162  1  0.45950000  0.24070000  0.00530000  1.0 0.1398254456
H  H163  1  0.75930000  0.54050000  0.50530000  1.0 0.1398254456
H  H164  1  0.54050000  0.75930000  0.99470000  1.0 0.1398254456
H  H165  1  0.22550000  0.36730000  0.48270000  1.0 0.1103806242
H  H166  1  0.36730000  0.22550000  0.01730000  1.0 0.1103806242
H  H167  1  0.77450000  0.63270000  0.51730000  1.0 0.1103806242
H  H168  1  0.63270000  0.77450000  0.98270000  1.0 0.1103806242
H  H169  1  0.23020000  0.30200000  0.57250000  1.0 0.120709771
H  H170  1  0.30200000  0.23020000  0.92750000  1.0 0.120709771
H  H171  1  0.76980000  0.69800000  0.42750000  1.0 0.120709771
H  H172  1  0.69800000  0.76980000  0.07250000  1.0 0.120709771
H  H173  1  0.25550000  0.33570000  0.67430000  1.0 0.1289262095
H  H174  1  0.33570000  0.25550000  0.82570000  1.0 0.1289262095
H  H175  1  0.74450000  0.66430000  0.32570000  1.0 0.1289262095
H  H176  1  0.66430000  0.74450000  0.17430000  1.0 0.1289262095
H  H177  1  0.84570000  0.08170000  0.63660000  1.0 0.120709771
H  H178  1  0.08170000  0.84570000  0.86340000  1.0 0.120709771
H  H179  1  0.15430000  0.91830000  0.36340000  1.0 0.120709771
H  H180  1  0.91830000  0.15430000  0.13660000  1.0 0.120709771
H  H181  1  0.99460000  0.17600000  0.69940000  1.0 0.120709771
H  H182  1  0.17600000  0.99460000  0.80060000  1.0 0.120709771
H  H183  1  0.00540000  0.82400000  0.30060000  1.0 0.120709771
H  H184  1  0.82400000  0.00540000  0.19940000  1.0 0.120709771
H  H185  1  0.98610000  0.13230000  0.80690000  1.0 0.120709771
H  H186  1  0.13230000  0.98610000  0.69310000  1.0 0.120709771
H  H187  1  0.01390000  0.86770000  0.19310000  1.0 0.120709771
H  H188  1  0.86770000  0.01390000  0.30690000  1.0 0.120709771
H  H189  1  0.82700000  0.98960000  0.85530000  1.0 0.1289262095
H  H190  1  0.98960000  0.82700000  0.64470000  1.0 0.1289262095
H  H191  1  0.17300000  0.01040000  0.14470000  1.0 0.1289262095
H  H192  1  0.01040000  0.17300000  0.35530000  1.0 0.1289262095
H  H193  1  0.73150000  0.01630000  0.81760000  1.0 0.1289262095
H  H194  1  0.01630000  0.73150000  0.68240000  1.0 0.1289262095
H  H195  1  0.26850000  0.98370000  0.18240000  1.0 0.1289262095
H  H196  1  0.98370000  0.26850000  0.31760000  1.0 0.1289262095
H  H197  1  0.66720000  0.01200000  0.87060000  1.0 0.120709771
H  H198  1  0.01200000  0.66720000  0.62940000  1.0 0.120709771
H  H199  1  0.33280000  0.98800000  0.12940000  1.0 0.120709771
H  H200  1  0.98800000  0.33280000  0.37060000  1.0 0.120709771
H  H201  1  0.50420000  0.85540000  0.91090000  1.0 0.120709771
H  H202  1  0.85540000  0.50420000  0.58910000  1.0 0.120709771
H  H203  1  0.49580000  0.14460000  0.08910000  1.0 0.120709771
H  H204  1  0.14460000  0.49580000  0.41090000  1.0 0.120709771
H  H205  1  0.41080000  0.70060000  0.90820000  1.0 0.120709771
H  H206  1  0.70060000  0.41080000  0.59180000  1.0 0.120709771
H  H207  1  0.58920000  0.29940000  0.09180000  1.0 0.120709771
H  H208  1  0.29940000  0.58920000  0.40820000  1.0 0.120709771
H  H209  1  0.69340000  0.11980000  0.33830000  1.0 0.120709771
H  H210  1  0.11980000  0.69340000  0.16170000  1.0 0.120709771
H  H211  1  0.30660000  0.88020000  0.66170000  1.0 0.120709771
H  H212  1  0.88020000  0.30660000  0.83830000  1.0 0.120709771
H  H213  1  0.75960000  0.17740000  0.24210000  1.0 0.120709771
H  H214  1  0.17740000  0.75960000  0.25790000  1.0 0.120709771
H  H215  1  0.24040000  0.82260000  0.75790000  1.0 0.120709771
H  H216  1  0.82260000  0.24040000  0.74210000  1.0 0.120709771
H  H217  1  0.79730000  0.13610000  0.22280000  1.0 0.120709771
H  H218  1  0.13610000  0.79730000  0.27720000  1.0 0.120709771
H  H219  1  0.20270000  0.86390000  0.77720000  1.0 0.120709771
H  H220  1  0.86390000  0.20270000  0.72280000  1.0 0.120709771
H  H221  1  0.78140000  0.04640000  0.30340000  1.0 0.1289262095
H  H222  1  0.04640000  0.78140000  0.19660000  1.0 0.1289262095
H  H223  1  0.21860000  0.95360000  0.69660000  1.0 0.1289262095
H  H224  1  0.95360000  0.21860000  0.80340000  1.0 0.1289262095
H  H225  1  0.87970000  0.14130000  0.46950000  1.0 0.1398254456
H  H226  1  0.14130000  0.87970000  0.03050000  1.0 0.1398254456
H  H227  1  0.12030000  0.85870000  0.53050000  1.0 0.1398254456
H  H228  1  0.85870000  0.12030000  0.96950000  1.0 0.1398254456
H  H229  1  0.02110000  0.21370000  0.51800000  1.0 0.1103806242
H  H230  1  0.21370000  0.02110000  0.98200000  1.0 0.1103806242
H  H231  1  0.97890000  0.78630000  0.48200000  1.0 0.1103806242
H  H232  1  0.78630000  0.97890000  0.01800000  1.0 0.1103806242
H  H233  1  0.02260000  0.13360000  0.51310000  1.0 0.1103806242
H  H234  1  0.13360000  0.02260000  0.98690000  1.0 0.1103806242
H  H235  1  0.97740000  0.86640000  0.48690000  1.0 0.1103806242
H  H236  1  0.86640000  0.97740000  0.01310000  1.0 0.1103806242
H  H237  1  0.88110000  0.97810000  0.46450000  1.0 0.120709771
H  H238  1  0.97810000  0.88110000  0.03550000  1.0 0.120709771
H  H239  1  0.11890000  0.02190000  0.53550000  1.0 0.120709771
H  H240  1  0.02190000  0.11890000  0.96450000  1.0 0.120709771
H  H241  1  0.38070000  0.80490000  0.74680000  1.0 0.0807215432
H  H242  1  0.80490000  0.38070000  0.75320000  1.0 0.0807215432
H  H243  1  0.61930000  0.19510000  0.25320000  1.0 0.0807215432
H  H244  1  0.19510000  0.61930000  0.24680000  1.0 0.0807215432
H  H245  1  0.45850000  0.82590000  0.68260000  1.0 0.0926287453
H  H246  1  0.82590000  0.45850000  0.81740000  1.0 0.0926287453
H  H247  1  0.54150000  0.17410000  0.31740000  1.0 0.0926287453
H  H248  1  0.17410000  0.54150000  0.18260000  1.0 0.0926287453
H  H249  1  0.20700000  0.47900000  0.77030000  1.0 0.1103806242
H  H250  1  0.47900000  0.20700000  0.72970000  1.0 0.1103806242
H  H251  1  0.79300000  0.52100000  0.22970000  1.0 0.1103806242
H  H252  1  0.52100000  0.79300000  0.27030000  1.0 0.1103806242
H  H253  1  0.13610000  0.45990000  0.77810000  1.0 0.0807215432
H  H254  1  0.45990000  0.13610000  0.72190000  1.0 0.0807215432
H  H255  1  0.86390000  0.54010000  0.22190000  1.0 0.0807215432
H  H256  1  0.54010000  0.86390000  0.27810000  1.0 0.0807215432
H  H257  1  0.21940000  0.50600000  0.83430000  1.0 0.0974709317
H  H258  1  0.50600000  0.21940000  0.66570000  1.0 0.0974709317
H  H259  1  0.78060000  0.49400000  0.16570000  1.0 0.0974709317
H  H260  1  0.49400000  0.78060000  0.33430000  1.0 0.0974709317
C  C1  1  0.56130000  0.73790000  0.61510000  1.0 0.3406652659
C  C2  1  0.73790000  0.56130000  0.88490000  1.0 0.3406652659
C  C3  1  0.43870000  0.26210000  0.38490000  1.0 0.3406652659
C  C4  1  0.26210000  0.43870000  0.11510000  1.0 0.3406652659
C  C5  1  0.65179000  0.76421000  0.69750000  1.0 -0.1368470453
C  C6  1  0.76421000  0.65179000  0.80250000  1.0 -0.1368470453
C  C7  1  0.34821000  0.23579000  0.30250000  1.0 -0.1368470453
C  C8  1  0.23579000  0.34821000  0.19750000  1.0 -0.1368470453
C  C9  1  0.57266000  0.71434000  0.71980000  1.0 -0.0346948952
C  C10  1  0.71434000  0.57266000  0.78020000  1.0 -0.0346948952
C  C11  1  0.42734000  0.28566000  0.28020000  1.0 -0.0346948952
C  C12  1  0.28566000  0.42734000  0.21980000  1.0 -0.0346948952
C  C13  1  0.52947000  0.73873000  0.54750000  1.0 -0.5369387679
C  C14  1  0.73873000  0.52947000  0.95250000  1.0 -0.5369387679
C  C15  1  0.47053000  0.26127000  0.45250000  1.0 -0.5369387679
C  C16  1  0.26127000  0.47053000  0.04750000  1.0 -0.5369387679
C  C17  1  0.72375000  0.84325000  0.58720000  1.0 -0.1586837705
C  C18  1  0.84325000  0.72375000  0.91280000  1.0 -0.1586837705
C  C19  1  0.27625000  0.15675000  0.41280000  1.0 -0.1586837705
C  C20  1  0.15675000  0.27625000  0.08720000  1.0 -0.1586837705
C  C21  1  0.78524000  0.85016000  0.61200000  1.0 0.0467505604
C  C22  1  0.85016000  0.78524000  0.88800000  1.0 0.0467505604
C  C23  1  0.21476000  0.14984000  0.38800000  1.0 0.0467505604
C  C24  1  0.14984000  0.21476000  0.11200000  1.0 0.0467505604
C  C25  1  0.88751000  0.94049000  0.64130000  1.0 -0.1509338626
C  C26  1  0.94049000  0.88751000  0.85870000  1.0 -0.1509338626
C  C27  1  0.11249000  0.05951000  0.35870000  1.0 -0.1509338626
C  C28  1  0.05951000  0.11249000  0.14130000  1.0 -0.1509338626
C  C29  1  0.94438000  0.94762000  0.66700000  1.0 -0.0996928919
C  C30  1  0.94762000  0.94438000  0.83300000  1.0 -0.0996928919
C  C31  1  0.05562000  0.05238000  0.33300000  1.0 -0.0996928919
C  C32  1  0.05238000  0.05562000  0.16700000  1.0 -0.0996928919
C  C33  1  0.90404000  0.86756000  0.66480000  1.0 -0.0996928919
C  C34  1  0.86756000  0.90404000  0.83520000  1.0 -0.0996928919
C  C35  1  0.09596000  0.13244000  0.33520000  1.0 -0.0996928919
C  C36  1  0.13244000  0.09596000  0.16480000  1.0 -0.0996928919
C  C37  1  0.80265000  0.77555000  0.63540000  1.0 -0.1509338626
C  C38  1  0.77555000  0.80265000  0.86460000  1.0 -0.1509338626
C  C39  1  0.19735000  0.22445000  0.36460000  1.0 -0.1509338626
C  C40  1  0.22445000  0.19735000  0.13540000  1.0 -0.1509338626
C  C41  1  0.74197000  0.76583000  0.60980000  1.0 0.055951722
C  C42  1  0.76583000  0.74197000  0.89020000  1.0 0.055951722
C  C43  1  0.25803000  0.23417000  0.39020000  1.0 0.055951722
C  C44  1  0.23417000  0.25803000  0.10980000  1.0 0.055951722
C  C45  1  0.63234000  0.66806000  0.57790000  1.0 -0.1586837705
C  C46  1  0.66806000  0.63234000  0.92210000  1.0 -0.1586837705
C  C47  1  0.36766000  0.33194000  0.42210000  1.0 -0.1586837705
C  C48  1  0.33194000  0.36766000  0.07790000  1.0 -0.1586837705
C  C49  1  0.54439000  0.50681000  0.62210000  1.0 0.3406652659
C  C50  1  0.50681000  0.54439000  0.87790000  1.0 0.3406652659
C  C51  1  0.45561000  0.49319000  0.37790000  1.0 0.3406652659
C  C52  1  0.49319000  0.45561000  0.12210000  1.0 0.3406652659
C  C53  1  0.57979000  0.50161000  0.55100000  1.0 -0.0408923845
C  C54  1  0.50161000  0.57979000  0.94900000  1.0 -0.0408923845
C  C55  1  0.42021000  0.49839000  0.44900000  1.0 -0.0408923845
C  C56  1  0.49839000  0.42021000  0.05100000  1.0 -0.0408923845
C  C57  1  0.62071000  0.58449000  0.53080000  1.0 -0.1307532981
C  C58  1  0.58449000  0.62071000  0.96920000  1.0 -0.1307532981
C  C59  1  0.37929000  0.41551000  0.46920000  1.0 -0.1307532981
C  C60  1  0.41551000  0.37929000  0.03080000  1.0 -0.1307532981
C  C61  1  0.50621000  0.48359000  0.68050000  1.0 -0.5314860791
C  C62  1  0.48359000  0.50621000  0.81950000  1.0 -0.5314860791
C  C63  1  0.49379000  0.51641000  0.31950000  1.0 -0.5314860791
C  C64  1  0.51641000  0.49379000  0.18050000  1.0 -0.5314860791
C  C65  1  0.32116000  0.66964000  0.74380000  1.0 0.1712646067
C  C66  1  0.66964000  0.32116000  0.75620000  1.0 0.1712646067
C  C67  1  0.67884000  0.33036000  0.25620000  1.0 0.1712646067
C  C68  1  0.33036000  0.67884000  0.24380000  1.0 0.1712646067
C  C69  1  0.18589000  0.51351000  0.80680000  1.0 -0.0166533201
C  C70  1  0.51351000  0.18589000  0.69320000  1.0 -0.0166533201
C  C71  1  0.81411000  0.48649000  0.19320000  1.0 -0.0166533201
C  C72  1  0.48649000  0.81411000  0.30680000  1.0 -0.0166533201
C  C73  1  0.21250000  0.50590000  0.76490000  1.0 -0.0408923845
C  C74  1  0.50590000  0.21250000  0.73510000  1.0 -0.0408923845
C  C75  1  0.78750000  0.49410000  0.23510000  1.0 -0.0408923845
C  C76  1  0.49410000  0.78750000  0.26490000  1.0 -0.0408923845
C  C77  1  0.40320000  0.78000000  0.72140000  1.0 -0.1509338626
C  C78  1  0.78000000  0.40320000  0.77860000  1.0 -0.1509338626
C  C79  1  0.59680000  0.22000000  0.27860000  1.0 -0.1509338626
C  C80  1  0.22000000  0.59680000  0.22140000  1.0 -0.1509338626
C  C81  1  0.22658000  0.62782000  0.81800000  1.0 -0.0003088628
C  C82  1  0.62782000  0.22658000  0.68200000  1.0 -0.0003088628
C  C83  1  0.77342000  0.37218000  0.18200000  1.0 0.0003303235
C  C84  1  0.37218000  0.77342000  0.31800000  1.0 0.0003303235
C  C85  1  0.14406000  0.59214000  0.77860000  1.0 -0.0996928919
C  C86  1  0.59214000  0.14406000  0.72140000  1.0 -0.0996928919
C  C87  1  0.85594000  0.40786000  0.22140000  1.0 -0.0996928919
C  C88  1  0.40786000  0.85594000  0.27860000  1.0 -0.0996928919
C  C89  1  0.11567000  0.56873000  0.71420000  1.0 -0.1700325282
C  C90  1  0.56873000  0.11567000  0.78580000  1.0 -0.1700325282
C  C91  1  0.88433000  0.43127000  0.28580000  1.0 -0.1700325282
C  C92  1  0.43127000  0.88433000  0.21420000  1.0 -0.1700325282
C  C93  1  0.04263000  0.53637000  0.67990000  1.0 -0.0870415941
C  C94  1  0.53637000  0.04263000  0.82010000  1.0 -0.0870415941
C  C95  1  0.95737000  0.46363000  0.32010000  1.0 -0.0870415941
C  C96  1  0.46363000  0.95737000  0.17990000  1.0 -0.0870415941
C  C97  1  0.99335000  0.52685000  0.70440000  1.0 -0.1091913059
C  C98  1  0.52685000  0.99335000  0.79560000  1.0 -0.1091913059
C  C99  1  0.00665000  0.47315000  0.29560000  1.0 -0.1091913059
C  C100  1  0.47315000  0.00665000  0.20440000  1.0 -0.1091913059
C  C101  1  0.01651000  0.54409000  0.76780000  1.0 -0.1700325282
C  C102  1  0.54409000  0.01651000  0.73220000  1.0 -0.1700325282
C  C103  1  0.98349000  0.45591000  0.23220000  1.0 -0.1700325282
C  C104  1  0.45591000  0.98349000  0.26780000  1.0 -0.1700325282
C  C105  1  0.08937000  0.57443000  0.80570000  1.0 0.0653198045
C  C106  1  0.57443000  0.08937000  0.69430000  1.0 0.0653198045
C  C107  1  0.91063000  0.42557000  0.19430000  1.0 0.0653198045
C  C108  1  0.42557000  0.91063000  0.30570000  1.0 0.0653198045
C  C109  1  0.11248000  0.59132000  0.87700000  1.0 -0.1700325282
C  C110  1  0.59132000  0.11248000  0.62300000  1.0 -0.1700325282
C  C111  1  0.88752000  0.40868000  0.12300000  1.0 -0.1700325282
C  C112  1  0.40868000  0.88752000  0.37700000  1.0 -0.1700325282
C  C113  1  0.02309000  0.58231000  0.90620000  1.0 0.3314769491
C  C114  1  0.58231000  0.02309000  0.59380000  1.0 0.3314769491
C  C115  1  0.97691000  0.41769000  0.09380000  1.0 0.3314769491
C  C116  1  0.41769000  0.97691000  0.40620000  1.0 0.3314769491
C  C117  1  0.87846000  0.41714000  0.94000000  1.0 -0.0611124084
C  C118  1  0.41714000  0.87846000  0.56000000  1.0 -0.0611124084
C  C119  1  0.12154000  0.58286000  0.06000000  1.0 -0.0611124084
C  C120  1  0.58286000  0.12154000  0.44000000  1.0 -0.0611124084
C  C121  1  0.93689000  0.43591000  0.92410000  1.0 -0.1198595725
C  C122  1  0.43591000  0.93689000  0.57590000  1.0 -0.1198595725
C  C123  1  0.06311000  0.56409000  0.07590000  1.0 -0.1198595725
C  C124  1  0.56409000  0.06311000  0.42410000  1.0 -0.1198595725
C  C125  1  0.10647000  0.69493000  0.88950000  1.0 -0.5480510965
C  C126  1  0.69493000  0.10647000  0.61050000  1.0 -0.5480510965
C  C127  1  0.89353000  0.30507000  0.11050000  1.0 -0.5480510965
C  C128  1  0.30507000  0.89353000  0.38950000  1.0 -0.5480510965
C  C129  1  0.31300000  0.65640000  0.54990000  1.0 0.5601050531
C  C130  1  0.65640000  0.31300000  0.95010000  1.0 0.5601050531
C  C131  1  0.68700000  0.34360000  0.45010000  1.0 0.5601050531
C  C132  1  0.34360000  0.68700000  0.04990000  1.0 0.5601050531
C  C133  1  0.20514000  0.54026000  0.55820000  1.0 -0.1509338626
C  C134  1  0.54026000  0.20514000  0.94180000  1.0 -0.1509338626
C  C135  1  0.79486000  0.45974000  0.44180000  1.0 -0.1509338626
C  C136  1  0.45974000  0.79486000  0.05820000  1.0 -0.1509338626
C  C137  1  0.11884000  0.49816000  0.53880000  1.0 -0.0828962778
C  C138  1  0.49816000  0.11884000  0.96120000  1.0 -0.0828962778
C  C139  1  0.88116000  0.50184000  0.46120000  1.0 -0.0828962778
C  C140  1  0.50184000  0.88116000  0.03880000  1.0 -0.0828962778
C  C141  1  0.01020000  0.38420000  0.54070000  1.0 -0.1307532981
C  C142  1  0.38420000  0.01020000  0.95930000  1.0 -0.1307532981
C  C143  1  0.98980000  0.61580000  0.45930000  1.0 -0.1307532981
C  C144  1  0.61580000  0.98980000  0.04070000  1.0 -0.1307532981
C  C145  1  0.99723000  0.32237000  0.56520000  1.0 -0.0611124084
C  C146  1  0.32237000  0.99723000  0.93480000  1.0 -0.0611124084
C  C147  1  0.00277000  0.67763000  0.43480000  1.0 -0.0611124084
C  C148  1  0.67763000  0.00277000  0.06520000  1.0 -0.0611124084
C  C149  1  0.07816000  0.35964000  0.58470000  1.0 -0.2284672763
C  C150  1  0.35964000  0.07816000  0.91530000  1.0 -0.2284672763
C  C151  1  0.92184000  0.64036000  0.41530000  1.0 -0.2284672763
C  C152  1  0.64036000  0.92184000  0.08470000  1.0 -0.2284672763
C  C153  1  0.18176000  0.46824000  0.57910000  1.0 0.2477694228
C  C154  1  0.46824000  0.18176000  0.92090000  1.0 0.2477694228
C  C155  1  0.81824000  0.53176000  0.42090000  1.0 0.2477694228
C  C156  1  0.53176000  0.81824000  0.07910000  1.0 0.2477694228
C  C157  1  0.25260000  0.44920000  0.59140000  1.0 0.2203137129
C  C158  1  0.44920000  0.25260000  0.90860000  1.0 0.2203137129
C  C159  1  0.74740000  0.55080000  0.40860000  1.0 0.2203137129
C  C160  1  0.55080000  0.74740000  0.09140000  1.0 0.2203137129
C  C161  1  0.24209000  0.43291000  0.53130000  1.0 -0.1864990369
C  C162  1  0.43291000  0.24209000  0.96870000  1.0 -0.1864990369
C  C163  1  0.75791000  0.56709000  0.46870000  1.0 -0.1864990369
C  C164  1  0.56709000  0.75791000  0.03130000  1.0 -0.1864990369
C  C165  1  0.23357000  0.37843000  0.52410000  1.0 -0.0685887194
C  C166  1  0.37843000  0.23357000  0.97590000  1.0 -0.0685887194
C  C167  1  0.76643000  0.62157000  0.47590000  1.0 -0.0685887194
C  C168  1  0.62157000  0.76643000  0.02410000  1.0 -0.0685887194
C  C169  1  0.23698000  0.34022000  0.57710000  1.0 -0.1198595725
C  C170  1  0.34022000  0.23698000  0.92290000  1.0 -0.1198595725
C  C171  1  0.76302000  0.65978000  0.42290000  1.0 -0.1198595725
C  C172  1  0.65978000  0.76302000  0.07710000  1.0 -0.1198595725
C  C173  1  0.25081000  0.35959000  0.63790000  1.0 -0.0996928919
C  C174  1  0.35959000  0.25081000  0.86210000  1.0 -0.0996928919
C  C175  1  0.74919000  0.64041000  0.36210000  1.0 -0.0996928919
C  C176  1  0.64041000  0.74919000  0.13790000  1.0 -0.0996928919
C  C177  1  0.25798000  0.41362000  0.64660000  1.0 -0.1307532981
C  C178  1  0.41362000  0.25798000  0.85340000  1.0 -0.1307532981
C  C179  1  0.74202000  0.58638000  0.35340000  1.0 -0.1307532981
C  C180  1  0.58638000  0.74202000  0.14660000  1.0 -0.1307532981
C  C181  1  0.27184000  0.43076000  0.71320000  1.0 0.5601050531
C  C182  1  0.43076000  0.27184000  0.78680000  1.0 0.5601050531
C  C183  1  0.72816000  0.56924000  0.28680000  1.0 0.5601050531
C  C184  1  0.56924000  0.72816000  0.21320000  1.0 0.5601050531
C  C185  1  0.64856000  0.91864000  0.66460000  1.0 0.5601050531
C  C186  1  0.91864000  0.64856000  0.83540000  1.0 0.5601050531
C  C187  1  0.35144000  0.08136000  0.33540000  1.0 0.5601050531
C  C188  1  0.08136000  0.35144000  0.16460000  1.0 0.5601050531
C  C189  1  0.74358000  0.97662000  0.70750000  1.0 -0.1307532981
C  C190  1  0.97662000  0.74358000  0.79250000  1.0 -0.1307532981
C  C191  1  0.25642000  0.02338000  0.29250000  1.0 -0.1307532981
C  C192  1  0.02338000  0.25642000  0.20750000  1.0 -0.1307532981
C  C193  1  0.84102000  0.06238000  0.68080000  1.0 -0.1091913059
C  C194  1  0.06238000  0.84102000  0.81920000  1.0 -0.1091913059
C  C195  1  0.15898000  0.93762000  0.31920000  1.0 -0.1091913059
C  C196  1  0.93762000  0.15898000  0.18080000  1.0 -0.1091913059
C  C197  1  0.93076000  0.11944000  0.71840000  1.0 -0.1198595725
C  C198  1  0.11944000  0.93076000  0.78160000  1.0 -0.1198595725
C  C199  1  0.06924000  0.88056000  0.28160000  1.0 -0.1198595725
C  C200  1  0.88056000  0.06924000  0.21840000  1.0 -0.1198595725
C  C201  1  0.92544000  0.09316000  0.78170000  1.0 -0.0685887194
C  C202  1  0.09316000  0.92544000  0.71830000  1.0 -0.0685887194
C  C203  1  0.07456000  0.90684000  0.21830000  1.0 -0.0685887194
C  C204  1  0.90684000  0.07456000  0.28170000  1.0 -0.0685887194
C  C205  1  0.83037000  0.00783000  0.81100000  1.0 -0.2201323273
C  C206  1  0.00783000  0.83037000  0.68900000  1.0 -0.2201323273
C  C207  1  0.16963000  0.99217000  0.18900000  1.0 -0.2201323273
C  C208  1  0.99217000  0.16963000  0.31100000  1.0 -0.2201323273
C  C209  1  0.74034000  0.95026000  0.77250000  1.0 0.2258256152
C  C210  1  0.95026000  0.74034000  0.72750000  1.0 0.2258256152
C  C211  1  0.25966000  0.04974000  0.22750000  1.0 0.2258256152
C  C212  1  0.04974000  0.25966000  0.27250000  1.0 0.2258256152
C  C213  1  0.60873000  0.85967000  0.83030000  1.0 0.2477694228
C  C214  1  0.85967000  0.60873000  0.66970000  1.0 0.2477694228
C  C215  1  0.39127000  0.14033000  0.16970000  1.0 0.2477694228
C  C216  1  0.14033000  0.39127000  0.33030000  1.0 0.2477694228
C  C217  1  0.66617000  0.95203000  0.83540000  1.0 -0.2201323273
C  C218  1  0.95203000  0.66617000  0.66460000  1.0 -0.2201323273
C  C219  1  0.33383000  0.04797000  0.16460000  1.0 -0.2201323273
C  C220  1  0.04797000  0.33383000  0.33540000  1.0 -0.2201323273
C  C221  1  0.62706000  0.94914000  0.86670000  1.0 -0.0828962778
C  C222  1  0.94914000  0.62706000  0.63330000  1.0 -0.0828962778
C  C223  1  0.37294000  0.05086000  0.13330000  1.0 -0.0828962778
C  C224  1  0.05086000  0.37294000  0.36670000  1.0 -0.0828962778
C  C225  1  0.53164000  0.85696000  0.89180000  1.0 -0.1586837705
C  C226  1  0.85696000  0.53164000  0.60820000  1.0 -0.1509338626
C  C227  1  0.46836000  0.14304000  0.10820000  1.0 -0.1509338626
C  C228  1  0.14304000  0.46836000  0.39180000  1.0 -0.1586837705
C  C229  1  0.47458000  0.76362000  0.88860000  1.0 -0.1586837705
C  C230  1  0.76362000  0.47458000  0.61140000  1.0 -0.1586837705
C  C231  1  0.52542000  0.23638000  0.11140000  1.0 -0.1586837705
C  C232  1  0.23638000  0.52542000  0.38860000  1.0 -0.1586837705
C  C233  1  0.50976000  0.76244000  0.85760000  1.0 -0.1368470453
C  C234  1  0.76244000  0.50976000  0.64240000  1.0 -0.1368470453
C  C235  1  0.49024000  0.23756000  0.14240000  1.0 -0.1368470453
C  C236  1  0.23756000  0.49024000  0.35760000  1.0 -0.1368470453
C  C237  1  0.44629000  0.66131000  0.85460000  1.0 0.5482918099
C  C238  1  0.66131000  0.44629000  0.64540000  1.0 0.5482918099
C  C239  1  0.55371000  0.33869000  0.14540000  1.0 0.5482918099
C  C240  1  0.33869000  0.55371000  0.35460000  1.0 0.5482918099
C  C241  1  0.64915000  0.00585000  0.44060000  1.0 0.5482918099
C  C242  1  0.00585000  0.64915000  0.05940000  1.0 0.5482918099
C  C243  1  0.35085000  0.99415000  0.55940000  1.0 0.5482918099
C  C244  1  0.99415000  0.35085000  0.94060000  1.0 0.5482918099
C  C245  1  0.69614000  0.04746000  0.37860000  1.0 -0.1198595725
C  C246  1  0.04746000  0.69614000  0.12140000  1.0 -0.1198595725
C  C247  1  0.30386000  0.95254000  0.62140000  1.0 -0.1198595725
C  C248  1  0.95254000  0.30386000  0.87860000  1.0 -0.1198595725
C  C249  1  0.71026000  0.10414000  0.33150000  1.0 -0.1198595725
C  C250  1  0.10414000  0.71026000  0.16850000  1.0 -0.1198595725
C  C251  1  0.28974000  0.89586000  0.66850000  1.0 -0.1198595725
C  C252  1  0.89586000  0.28974000  0.83150000  1.0 -0.1198595725
C  C253  1  0.74945000  0.13815000  0.27380000  1.0 -0.1307532981
C  C254  1  0.13815000  0.74945000  0.22620000  1.0 -0.1307532981
C  C255  1  0.25055000  0.86185000  0.72620000  1.0 -0.1307532981
C  C256  1  0.86185000  0.25055000  0.77380000  1.0 -0.1307532981
C  C257  1  0.77369000  0.11511000  0.26260000  1.0 -0.0996928919
C  C258  1  0.11511000  0.77369000  0.23740000  1.0 -0.0996928919
C  C259  1  0.22631000  0.88489000  0.73740000  1.0 -0.0996928919
C  C260  1  0.88489000  0.22631000  0.76260000  1.0 -0.0996928919
C  C261  1  0.76314000  0.06066000  0.31010000  1.0 -0.2201323273
C  C262  1  0.06066000  0.76314000  0.18990000  1.0 -0.2201323273
C  C263  1  0.23686000  0.93934000  0.68990000  1.0 -0.2201323273
C  C264  1  0.93934000  0.23686000  0.81010000  1.0 -0.2201323273
C  C265  1  0.72483000  0.02817000  0.36760000  1.0 0.1985220089
C  C266  1  0.02817000  0.72483000  0.13240000  1.0 0.1985220089
C  C267  1  0.27517000  0.97183000  0.63240000  1.0 0.1985220089
C  C268  1  0.97183000  0.27517000  0.86760000  1.0 0.1985220089
C  C269  1  0.79543000  0.01517000  0.43920000  1.0 0.2203137129
C  C270  1  0.01517000  0.79543000  0.06080000  1.0 0.2203137129
C  C271  1  0.20457000  0.98483000  0.56080000  1.0 0.2203137129
C  C272  1  0.98483000  0.20457000  0.93920000  1.0 0.2203137129
C  C273  1  0.87963000  0.10797000  0.46870000  1.0 -0.2069882266
C  C274  1  0.10797000  0.87963000  0.03130000  1.0 -0.2069882266
C  C275  1  0.12037000  0.89203000  0.53130000  1.0 -0.2069882266
C  C276  1  0.89203000  0.12037000  0.96870000  1.0 -0.2069882266
C  C277  1  0.96418000  0.15142000  0.49710000  1.0 -0.0828962778
C  C278  1  0.15142000  0.96418000  0.00290000  1.0 -0.0828962778
C  C279  1  0.03582000  0.84858000  0.50290000  1.0 -0.0828962778
C  C280  1  0.84858000  0.03582000  0.99710000  1.0 -0.0828962778
C  C281  1  0.96468000  0.10332000  0.49470000  1.0 -0.1198595725
C  C282  1  0.10332000  0.96468000  0.00530000  1.0 -0.1198595725
C  C283  1  0.03532000  0.89668000  0.50530000  1.0 -0.1198595725
C  C284  1  0.89668000  0.03532000  0.99470000  1.0 -0.1198595725
C  C285  1  0.88025000  0.01075000  0.46530000  1.0 -0.1091913059
C  C286  1  0.01075000  0.88025000  0.03470000  1.0 -0.1091913059
C  C287  1  0.11975000  0.98925000  0.53470000  1.0 -0.1091913059
C  C288  1  0.98925000  0.11975000  0.96530000  1.0 -0.1091913059
C  C289  1  0.79353000  0.96427000  0.43680000  1.0 -0.1198595725
C  C290  1  0.96427000  0.79353000  0.06320000  1.0 -0.1198595725
C  C291  1  0.20647000  0.03573000  0.56320000  1.0 -0.1198595725
C  C292  1  0.03573000  0.20647000  0.93680000  1.0 -0.1198595725
C  C293  1  0.70185000  0.86235000  0.40370000  1.0 0.5482918099
C  C294  1  0.86235000  0.70185000  0.09630000  1.0 0.5482918099
C  C295  1  0.29815000  0.13765000  0.59630000  1.0 0.5482918099
C  C296  1  0.13765000  0.29815000  0.90370000  1.0 0.5482918099
C  C297  1  0.28160000  0.61520000  0.75930000  1.0 0.1712646067
C  C298  1  0.61520000  0.28160000  0.74070000  1.0 0.1712646067
C  C299  1  0.71840000  0.38480000  0.24070000  1.0 0.1712646067
C  C300  1  0.38480000  0.71840000  0.25930000  1.0 0.1712646067
C  C301  1  0.35840000  0.75260000  0.74460000  1.0 -0.0685887194
C  C302  1  0.75260000  0.35840000  0.75540000  1.0 -0.0611124084
C  C303  1  0.64160000  0.24740000  0.25540000  1.0 -0.0685887194
C  C304  1  0.24740000  0.64160000  0.24460000  1.0 -0.0685887194
C  C305  1  0.40330000  0.76690000  0.71180000  1.0 -0.1091913059
C  C306  1  0.76690000  0.40330000  0.78820000  1.0 -0.1091913059
C  C307  1  0.59670000  0.23310000  0.28820000  1.0 -0.1091913059
C  C308  1  0.23310000  0.59670000  0.21180000  1.0 -0.1091913059
C  C309  1  0.20500000  0.50520000  0.78810000  1.0 -0.0828962778
C  C310  1  0.50520000  0.20500000  0.71190000  1.0 -0.0828962778
C  C311  1  0.79500000  0.49480000  0.21190000  1.0 -0.0828962778
C  C312  1  0.49480000  0.79500000  0.28810000  1.0 -0.0828962778
N  N1  1  0.51617000  0.69783000  0.66900000  1.0 -0.3596064746
N  N2  1  0.69783000  0.51617000  0.83100000  1.0 -0.3596064746
N  N3  1  0.48383000  0.30217000  0.33100000  1.0 -0.3596064746
N  N4  1  0.30217000  0.48383000  0.16900000  1.0 -0.3596064746
N  N5  1  0.64603000  0.78017000  0.63100000  1.0 -0.0096801946
N  N6  1  0.78017000  0.64603000  0.86900000  1.0 -0.0096801946
N  N7  1  0.35397000  0.21983000  0.36900000  1.0 -0.0096801946
N  N8  1  0.21983000  0.35397000  0.13100000  1.0 -0.0096801946
N  N9  1  0.59714000  0.58726000  0.57660000  1.0 -0.0166533201
N  N10  1  0.58726000  0.59714000  0.92340000  1.0 -0.0166533201
N  N11  1  0.40286000  0.41274000  0.42340000  1.0 -0.0166533201
N  N12  1  0.41274000  0.40286000  0.07660000  1.0 -0.0166533201
N  N13  1  0.53125000  0.45235000  0.60740000  1.0 -0.3596064746
N  N14  1  0.45235000  0.53125000  0.89260000  1.0 -0.3596064746
N  N15  1  0.46875000  0.54765000  0.39260000  1.0 -0.3596064746
N  N16  1  0.54765000  0.46875000  0.10740000  1.0 -0.3596064746
N  N17  1  0.03158000  0.54322000  0.90310000  1.0 -0.0096801946
N  N18  1  0.54322000  0.03158000  0.59690000  1.0 -0.0096801946
N  N19  1  0.96842000  0.45678000  0.09690000  1.0 -0.0096801946
N  N20  1  0.45678000  0.96842000  0.40310000  1.0 -0.0096801946
N  N21  1  0.93276000  0.51084000  0.92850000  1.0 -0.4116156921
N  N22  1  0.51084000  0.93276000  0.57150000  1.0 -0.4116156921
N  N23  1  0.06724000  0.48916000  0.07150000  1.0 -0.4116156921
N  N24  1  0.48916000  0.06724000  0.42850000  1.0 -0.4116156921
N  N25  1  0.29552000  0.60048000  0.73110000  1.0 -0.1700325282
N  N26  1  0.60048000  0.29552000  0.76890000  1.0 -0.1700325282
N  N27  1  0.70448000  0.39952000  0.26890000  1.0 -0.1700325282
N  N28  1  0.39952000  0.70448000  0.23110000  1.0 -0.1700325282
N  N29  1  0.25335000  0.61585000  0.79060000  1.0 -0.1091913059
N  N30  1  0.61585000  0.25335000  0.70940000  1.0 -0.1091913059
N  N31  1  0.74665000  0.38415000  0.20940000  1.0 -0.1091913059
N  N32  1  0.38415000  0.74665000  0.29060000  1.0 -0.1091913059
N  N33  1  0.34260000  0.66240000  0.72510000  1.0 -0.1198595725
N  N34  1  0.66240000  0.34260000  0.77490000  1.0 -0.1198595725
N  N35  1  0.65740000  0.33760000  0.27490000  1.0 -0.1198595725
N  N36  1  0.33760000  0.65740000  0.22510000  1.0 -0.1198595725
N  N37  1  0.27550000  0.64450000  0.78140000  1.0 -0.1368470453
N  N38  1  0.64450000  0.27550000  0.71860000  1.0 -0.1368470453
N  N39  1  0.72450000  0.35550000  0.21860000  1.0 -0.1368470453
N  N40  1  0.35550000  0.72450000  0.28140000  1.0 -0.1368470453
O  O1  1  0.39266000  0.70334000  0.58570000  1.0 -0.5480510965
O  O2  1  0.70334000  0.39266000  0.91430000  1.0 -0.5480510965
O  O3  1  0.60734000  0.29666000  0.41430000  1.0 -0.5480510965
O  O4  1  0.29666000  0.60734000  0.08570000  1.0 -0.5480510965
O  O5  1  0.32655000  0.70845000  0.50800000  1.0 -0.5102060363
O  O6  1  0.70845000  0.32655000  0.99200000  1.0 -0.5102060363
O  O7  1  0.67345000  0.29155000  0.49200000  1.0 -0.5102060363
O  O8  1  0.29155000  0.67345000  0.00800000  1.0 -0.5102060363
O  O9  1  0.26729000  0.51071000  0.59480000  1.0 -0.2401302978
O  O10  1  0.51071000  0.26729000  0.90520000  1.0 -0.2401302978
O  O11  1  0.73271000  0.48929000  0.40520000  1.0 -0.2401302978
O  O12  1  0.48929000  0.73271000  0.09480000  1.0 -0.2401302978
O  O13  1  0.28184000  0.48156000  0.72220000  1.0 -0.5369387679
O  O14  1  0.48156000  0.28184000  0.77780000  1.0 -0.5369387679
O  O15  1  0.71816000  0.51844000  0.27780000  1.0 -0.5369387679
O  O16  1  0.51844000  0.71816000  0.22220000  1.0 -0.5369387679
O  O17  1  0.27323000  0.39217000  0.76070000  1.0 -0.5369387679
O  O18  1  0.39217000  0.27323000  0.73930000  1.0 -0.5369387679
O  O19  1  0.72677000  0.60783000  0.23930000  1.0 -0.5369387679
O  O20  1  0.60783000  0.72677000  0.26070000  1.0 -0.5369387679
O  O21  1  0.56415000  0.84645000  0.68800000  1.0 -0.5314860791
O  O22  1  0.84645000  0.56415000  0.81200000  1.0 -0.5314860791
O  O23  1  0.43585000  0.15355000  0.31200000  1.0 -0.5314860791
O  O24  1  0.15355000  0.43585000  0.18800000  1.0 -0.5314860791
O  O25  1  0.66534000  0.95186000  0.60500000  1.0 -0.5369387679
O  O26  1  0.95186000  0.66534000  0.89500000  1.0 -0.5369387679
O  O27  1  0.33466000  0.04814000  0.39500000  1.0 -0.5369387679
O  O28  1  0.04814000  0.33466000  0.10500000  1.0 -0.5369387679
O  O29  1  0.64624000  0.85836000  0.80340000  1.0 -0.2284672763
O  O30  1  0.85836000  0.64624000  0.69660000  1.0 -0.2284672763
O  O31  1  0.35376000  0.14164000  0.19660000  1.0 -0.2284672763
O  O32  1  0.14164000  0.35376000  0.30340000  1.0 -0.2284672763
O  O33  1  0.44366000  0.64414000  0.80420000  1.0 -0.5480510965
O  O34  1  0.64414000  0.44366000  0.69580000  1.0 -0.5480510965
O  O35  1  0.55634000  0.35586000  0.19580000  1.0 -0.5480510965
O  O36  1  0.35586000  0.55634000  0.30420000  1.0 -0.5480510965
O  O37  1  0.39416000  0.59344000  0.90220000  1.0 -0.5102060363
O  O38  1  0.59344000  0.39416000  0.59780000  1.0 -0.5102060363
O  O39  1  0.60584000  0.40656000  0.09780000  1.0 -0.5102060363
O  O40  1  0.40656000  0.60584000  0.40220000  1.0 -0.5102060363
O  O41  1  0.56304000  0.90636000  0.45130000  1.0 -0.5242614672
O  O42  1  0.90636000  0.56304000  0.04870000  1.0 -0.5242614672
O  O43  1  0.43696000  0.09364000  0.54870000  1.0 -0.5242614672
O  O44  1  0.09364000  0.43696000  0.95130000  1.0 -0.5242614672
O  O45  1  0.69132000  0.06588000  0.47580000  1.0 -0.5035872683
O  O46  1  0.06588000  0.69132000  0.02420000  1.0 -0.5035872683
O  O47  1  0.30868000  0.93412000  0.52420000  1.0 -0.5035872683
O  O48  1  0.93412000  0.30868000  0.97580000  1.0 -0.5035872683
O  O49  1  0.70801000  0.96859000  0.41450000  1.0 -0.2069882266
O  O50  1  0.96859000  0.70801000  0.08550000  1.0 -0.2069882266
O  O51  1  0.29199000  0.03141000  0.58550000  1.0 -0.2069882266
O  O52  1  0.03141000  0.29199000  0.91450000  1.0 -0.2069882266
O  O53  1  0.65735000  0.84905000  0.35330000  1.0 -0.5035872683
O  O54  1  0.84905000  0.65735000  0.14670000  1.0 -0.5035872683
O  O55  1  0.34265000  0.15095000  0.64670000  1.0 -0.5035872683
O  O56  1  0.15095000  0.34265000  0.85330000  1.0 -0.5035872683
O  O57  1  0.67604000  0.79456000  0.43020000  1.0 -0.5480510965
O  O58  1  0.79456000  0.67604000  0.06980000  1.0 -0.5480510965
O  O59  1  0.32396000  0.20544000  0.56980000  1.0 -0.5480510965
O  O60  1  0.20544000  0.32396000  0.93020000  1.0 -0.5480510965
