# DDEC6 charges by PACMAN v1.1 (https://github.com/mtap-research/PACMAN-charge/)
data_FIGVUN_FSR_pacman
_symmetry_space_group_name_H-M   'P 1'
_cell_length_a   11.78770000
_cell_length_b   5.20930000
_cell_length_c   15.71120000
_cell_angle_alpha   90.00000000
_cell_angle_beta   129.75600000
_cell_angle_gamma   90.00000000
_symmetry_Int_Tables_number   1
_chemical_formula_structural   Zn2P3(HO3)4
_chemical_formula_sum   'Zn4 P6 H8 O24'
_cell_volume   741.68069776
_cell_formula_units_Z   2
loop_
 _symmetry_equiv_pos_site_id
 _symmetry_equiv_pos_as_xyz
  1  'x, y, z'
loop_
 _atom_site_type_symbol
 _atom_site_label
 _atom_site_symmetry_multiplicity
 _atom_site_fract_x
 _atom_site_fract_y
 _atom_site_fract_z
 _atom_site_occupancy
 _atom_site_charge
Zn  Zn1  1  0.82245000  0.20143000  0.42828000  1.0 1.0995237125
Zn  Zn2  1  0.17755000  0.20143000  0.07172000  1.0 1.0995237125
Zn  Zn3  1  0.17755000  0.79857000  0.57172000  1.0 1.0995237125
Zn  Zn4  1  0.82245000  0.79857000  0.92828000  1.0 1.0995237125
P  P1  1  0.09629000  0.28293000  0.43358000  1.0 1.5382021658
P  P2  1  0.90371000  0.28293000  0.06642000  1.0 1.5330250256
P  P3  1  0.90371000  0.71707000  0.56642000  1.0 1.5330250256
P  P4  1  0.09629000  0.71707000  0.93358000  1.0 1.5330250256
P  P5  1  0.50000000  0.42574000  0.25000000  1.0 1.5382021658
P  P6  1  0.50000000  0.57426000  0.75000000  1.0 1.5382021658
H  H1  1  0.61840000  0.68330000  0.37060000  1.0 0.4040995805
H  H2  1  0.38160000  0.68330000  0.12940000  1.0 0.4040995805
H  H3  1  0.38160000  0.31670000  0.62940000  1.0 0.4040995805
H  H4  1  0.61840000  0.31670000  0.87060000  1.0 0.4040995805
H  H5  1  0.03510000  0.22870000  0.28450000  1.0 0.3634356154
H  H6  1  0.96490000  0.22870000  0.21550000  1.0 0.3634356154
H  H7  1  0.96490000  0.77130000  0.71550000  1.0 0.3634356154
H  H8  1  0.03510000  0.77130000  0.78450000  1.0 0.3634356154
O  O1  1  0.11515000  0.21750000  0.34697000  1.0 -0.5759329008
O  O2  1  0.88485000  0.21750000  0.15303000  1.0 -0.5715725707
O  O3  1  0.88485000  0.78250000  0.65303000  1.0 -0.5715725707
O  O4  1  0.11515000  0.78250000  0.84697000  1.0 -0.5715725707
O  O5  1  0.94491000  0.18800000  0.38835000  1.0 -0.773343985
O  O6  1  0.05509000  0.18800000  0.11165000  1.0 -0.773343985
O  O7  1  0.05509000  0.81200000  0.61165000  1.0 -0.773343985
O  O8  1  0.94491000  0.81200000  0.88835000  1.0 -0.773343985
O  O9  1  0.21857000  0.13820000  0.54191000  1.0 -0.7473182189
O  O10  1  0.78143000  0.13820000  0.95809000  1.0 -0.7473182189
O  O11  1  0.78143000  0.86180000  0.45809000  1.0 -0.7473182189
O  O12  1  0.21857000  0.86180000  0.04191000  1.0 -0.7473182189
O  O13  1  0.11828000  0.56990000  0.45522000  1.0 -0.7760308392
O  O14  1  0.88172000  0.56990000  0.04478000  1.0 -0.7760308392
O  O15  1  0.88172000  0.43010000  0.54478000  1.0 -0.7760308392
O  O16  1  0.11828000  0.43010000  0.95522000  1.0 -0.773343985
O  O17  1  0.62946000  0.26890000  0.28091000  1.0 -0.7338233398
O  O18  1  0.37054000  0.26890000  0.21909000  1.0 -0.7338233398
O  O19  1  0.37054000  0.73110000  0.71909000  1.0 -0.7338233398
O  O20  1  0.62946000  0.73110000  0.78091000  1.0 -0.7338233398
O  O21  1  0.54432000  0.60130000  0.34751000  1.0 -0.5643713879
O  O22  1  0.45568000  0.60130000  0.15249000  1.0 -0.5715725707
O  O23  1  0.45568000  0.39870000  0.65249000  1.0 -0.5715725707
O  O24  1  0.54432000  0.39870000  0.84751000  1.0 -0.5643713879
