# DDEC6 charges by PACMAN v1.1 (https://github.com/mtap-research/PACMAN-charge/)
data_FIGXIG_FSR_pacman
_symmetry_space_group_name_H-M   'P 1'
_cell_length_a   22.46450000
_cell_length_b   22.46450000
_cell_length_c   13.66100000
_cell_angle_alpha   90.00000000
_cell_angle_beta   90.00000000
_cell_angle_gamma   122.27500000
_symmetry_Int_Tables_number   1
_chemical_formula_structural   Co3H48W3C59S12(NO)12
_chemical_formula_sum   'Co12 H192 W12 C236 S48 N48 O48'
_cell_volume   5828.90532339
_cell_formula_units_Z   4
loop_
 _symmetry_equiv_pos_site_id
 _symmetry_equiv_pos_as_xyz
  1  'x, y, z'
loop_
 _atom_site_type_symbol
 _atom_site_label
 _atom_site_symmetry_multiplicity
 _atom_site_fract_x
 _atom_site_fract_y
 _atom_site_fract_z
 _atom_site_occupancy
 _atom_site_charge
Co  Co1  1  0.48840000  0.49860000  0.54960000  1.0 0.1685022293
Co  Co2  1  0.51160000  0.50140000  0.04960000  1.0 0.1685022293
Co  Co3  1  0.50140000  0.51160000  0.95040000  1.0 0.1685022293
Co  Co4  1  0.49860000  0.48840000  0.45040000  1.0 0.1685022293
Co  Co5  1  0.99060000  0.98880000  0.51430000  1.0 0.6385457655
Co  Co6  1  0.00940000  0.01120000  0.01430000  1.0 0.6385457655
Co  Co7  1  0.01120000  0.00940000  0.98570000  1.0 0.6385457655
Co  Co8  1  0.98880000  0.99060000  0.48570000  1.0 0.6385457655
Co  Co9  1  0.98939000  0.48973000  0.46950000  1.0 0.8343986561
Co  Co10  1  0.01061000  0.51027000  0.96950000  1.0 0.8343986561
Co  Co11  1  0.51027000  0.01061000  0.03050000  1.0 0.8343986561
Co  Co12  1  0.48973000  0.98939000  0.53050000  1.0 0.8343986561
H  H1  1  0.37892000  0.35744000  0.70147000  1.0 0.1019749609
H  H2  1  0.62108000  0.64256000  0.20147000  1.0 0.1019749609
H  H3  1  0.64256000  0.62108000  0.79853000  1.0 0.1019749609
H  H4  1  0.35744000  0.37892000  0.29853000  1.0 0.1019749609
H  H5  1  0.32733000  0.23725000  0.70423000  1.0 0.0905074434
H  H6  1  0.67267000  0.76275000  0.20423000  1.0 0.0905074434
H  H7  1  0.76275000  0.67267000  0.79577000  1.0 0.0905074434
H  H8  1  0.23725000  0.32733000  0.29577000  1.0 0.0905074434
H  H9  1  0.47108000  0.26144000  0.50440000  1.0 0.1019749609
H  H10  1  0.52892000  0.73856000  0.00440000  1.0 0.1019749609
H  H11  1  0.73856000  0.52892000  0.99560000  1.0 0.1019749609
H  H12  1  0.26144000  0.47108000  0.49560000  1.0 0.1019749609
H  H13  1  0.49616000  0.37678000  0.48214000  1.0 0.1096224315
H  H14  1  0.50384000  0.62322000  0.98214000  1.0 0.1096224315
H  H15  1  0.62322000  0.50384000  0.01786000  1.0 0.1096224315
H  H16  1  0.37678000  0.49616000  0.51786000  1.0 0.1096224315
H  H17  1  0.25585000  0.13485000  0.51752000  1.0 0.0810946289
H  H18  1  0.74415000  0.86515000  0.01752000  1.0 0.0810946289
H  H19  1  0.86515000  0.74415000  0.98248000  1.0 0.0810946289
H  H20  1  0.13485000  0.25585000  0.48248000  1.0 0.0810946289
H  H21  1  0.14407000  0.08951000  0.44651000  1.0 0.0699548188
H  H22  1  0.85593000  0.91049000  0.94651000  1.0 0.0699548188
H  H23  1  0.91049000  0.85593000  0.05349000  1.0 0.0699548188
H  H24  1  0.08951000  0.14407000  0.55349000  1.0 0.0699548188
H  H25  1  0.04740000  0.96536000  0.66525000  1.0 0.0699548188
H  H26  1  0.95260000  0.03464000  0.16525000  1.0 0.0699548188
H  H27  1  0.03464000  0.95260000  0.83475000  1.0 0.0699548188
H  H28  1  0.96536000  0.04740000  0.33475000  1.0 0.0699548188
H  H29  1  0.15055000  0.00893000  0.74831000  1.0 0.1096224315
H  H30  1  0.84945000  0.99108000  0.24831000  1.0 0.1096224315
H  H31  1  0.99108000  0.84946000  0.75169000  1.0 0.1096224315
H  H32  1  0.00892000  0.15055000  0.25169000  1.0 0.1096224315
H  H33  1  0.87241000  0.84225000  0.60603000  1.0 0.1096224315
H  H34  1  0.12759000  0.15775000  0.10603000  1.0 0.1096224315
H  H35  1  0.15775000  0.12759000  0.89397000  1.0 0.1096224315
H  H36  1  0.84225000  0.87241000  0.39397000  1.0 0.1096224315
H  H37  1  0.83010000  0.72456000  0.58703000  1.0 0.0905074434
H  H38  1  0.16990000  0.27544000  0.08703000  1.0 0.0905074434
H  H39  1  0.27544000  0.16990000  0.91297000  1.0 0.0905074434
H  H40  1  0.72456000  0.83010000  0.41297000  1.0 0.0905074434
H  H41  1  0.00675000  0.78043000  0.43477000  1.0 0.0810946289
H  H42  1  0.99325000  0.21957000  0.93477000  1.0 0.0810946289
H  H43  1  0.21957000  0.99325000  0.06523000  1.0 0.0810946289
H  H44  1  0.78043000  0.00675000  0.56523000  1.0 0.0810946289
H  H45  1  0.04222000  0.89828000  0.46044000  1.0 0.0482591753
H  H46  1  0.95778000  0.10172000  0.96044000  1.0 0.0482591753
H  H47  1  0.10172000  0.95778000  0.03956000  1.0 0.0482591753
H  H48  1  0.89828000  0.04222000  0.53956000  1.0 0.0482591753
H  H49  1  0.76395000  0.60269000  0.40673000  1.0 0.0810946289
H  H50  1  0.23605000  0.39731000  0.90673000  1.0 0.0810946289
H  H51  1  0.39731000  0.23605000  0.09327000  1.0 0.0810946289
H  H52  1  0.60269000  0.76395000  0.59327000  1.0 0.0810946289
H  H53  1  0.64787000  0.57037000  0.37038000  1.0 0.1019749609
H  H54  1  0.35213000  0.42963000  0.87038000  1.0 0.1019749609
H  H55  1  0.42963000  0.35213000  0.12962000  1.0 0.1019749609
H  H56  1  0.57037000  0.64787000  0.62962000  1.0 0.1019749609
H  H57  1  0.57825000  0.47651000  0.62131000  1.0 0.1019749609
H  H58  1  0.42175000  0.52349000  0.12131000  1.0 0.1019749609
H  H59  1  0.52349000  0.42175000  0.87869000  1.0 0.1019749609
H  H60  1  0.47651000  0.57825000  0.37869000  1.0 0.1019749609
H  H61  1  0.69062000  0.52248000  0.67673000  1.0 0.1019749609
H  H62  1  0.30938000  0.47752000  0.17673000  1.0 0.1096224315
H  H63  1  0.47752000  0.30938000  0.82327000  1.0 0.1019749609
H  H64  1  0.52248000  0.69062000  0.32327000  1.0 0.1096224315
H  H65  1  0.87689000  0.84545000  0.60958000  1.0 0.1096224315
H  H66  1  0.12311000  0.15455000  0.10958000  1.0 0.1096224315
H  H67  1  0.15455000  0.12311000  0.89042000  1.0 0.1096224315
H  H68  1  0.84545000  0.87689000  0.39042000  1.0 0.1096224315
H  H69  1  0.84218000  0.72908000  0.62813000  1.0 0.0810946289
H  H70  1  0.15782000  0.27092000  0.12813000  1.0 0.0810946289
H  H71  1  0.27092000  0.15782000  0.87187000  1.0 0.0810946289
H  H72  1  0.72908000  0.84218000  0.37187000  1.0 0.0810946289
H  H73  1  0.97837000  0.75919000  0.41237000  1.0 0.1019749609
H  H74  1  0.02163000  0.24081000  0.91237000  1.0 0.1019749609
H  H75  1  0.24081000  0.02163000  0.08763000  1.0 0.1019749609
H  H76  1  0.75919000  0.97837000  0.58763000  1.0 0.1019749609
H  H77  1  0.99172000  0.87098000  0.38750000  1.0 0.0395220376
H  H78  1  0.00828000  0.12902000  0.88750000  1.0 0.0395220376
H  H79  1  0.12902000  0.00828000  0.11250000  1.0 0.0395220376
H  H80  1  0.87098000  0.99172000  0.61250000  1.0 0.0395220376
H  H81  1  0.75126000  0.62632000  0.47675000  1.0 0.0905074434
H  H82  1  0.24874000  0.37368000  0.97675000  1.0 0.0905074434
H  H83  1  0.37368000  0.24874000  0.02325000  1.0 0.0905074434
H  H84  1  0.62632000  0.75126000  0.52325000  1.0 0.0905074434
H  H85  1  0.63030000  0.58690000  0.46436000  1.0 0.0905074434
H  H86  1  0.36970000  0.41310000  0.96436000  1.0 0.0905074434
H  H87  1  0.41310000  0.36970000  0.03564000  1.0 0.0905074434
H  H88  1  0.58690000  0.63030000  0.53564000  1.0 0.0905074434
H  H89  1  0.58604000  0.49684000  0.71834000  1.0 0.0699548188
H  H90  1  0.41396000  0.50316000  0.21834000  1.0 0.0699548188
H  H91  1  0.50316000  0.41396000  0.78166000  1.0 0.0699548188
H  H92  1  0.49684000  0.58604000  0.28166000  1.0 0.0699548188
H  H93  1  0.70469000  0.55449000  0.75234000  1.0 0.0905074434
H  H94  1  0.29530000  0.44550000  0.25234000  1.0 0.0905074434
H  H95  1  0.44550000  0.29530000  0.74766000  1.0 0.0905074434
H  H96  1  0.55449000  0.70469000  0.24766000  1.0 0.0905074434
H  H97  1  0.39208000  0.36238000  0.56615000  1.0 0.1019749609
H  H98  1  0.60792000  0.63762000  0.06615000  1.0 0.1019749609
H  H99  1  0.63762000  0.60792000  0.93385000  1.0 0.1019749609
H  H100  1  0.36238000  0.39208000  0.43385000  1.0 0.1019749609
H  H101  1  0.34562000  0.24398000  0.58875000  1.0 0.0905074434
H  H102  1  0.65438000  0.75602000  0.08875000  1.0 0.0905074434
H  H103  1  0.75602000  0.65438000  0.91125000  1.0 0.0905074434
H  H104  1  0.24398000  0.34562000  0.41125000  1.0 0.0905074434
H  H105  1  0.48620000  0.25848000  0.38996000  1.0 0.1206740774
H  H106  1  0.51380000  0.74152000  0.88996000  1.0 0.1206740774
H  H107  1  0.74152000  0.51380000  0.11004000  1.0 0.1206740774
H  H108  1  0.25848000  0.48620000  0.61004000  1.0 0.1206740774
H  H109  1  0.53736000  0.38156000  0.39461000  1.0 0.1206740774
H  H110  1  0.46264000  0.61844000  0.89461000  1.0 0.1206740774
H  H111  1  0.61844000  0.46264000  0.10539000  1.0 0.1206740774
H  H112  1  0.38156000  0.53736000  0.60539000  1.0 0.1206740774
H  H113  1  0.26121000  0.11635000  0.44788000  1.0 0.0810946289
H  H114  1  0.73879000  0.88365000  0.94788000  1.0 0.0810946289
H  H115  1  0.88365000  0.73879000  0.05212000  1.0 0.0810946289
H  H116  1  0.11635000  0.26121000  0.55212000  1.0 0.0810946289
H  H117  1  0.13949000  0.04557000  0.41032000  1.0 0.0583608141
H  H118  1  0.86051000  0.95443000  0.91032000  1.0 0.0583608141
H  H119  1  0.95443000  0.86051000  0.08968000  1.0 0.0583608141
H  H120  1  0.04557000  0.13949000  0.58968000  1.0 0.0583608141
H  H121  1  0.08752000  0.99972000  0.68306000  1.0 0.0905074434
H  H122  1  0.91248000  0.00028000  0.18306000  1.0 0.0905074434
H  H123  1  0.00028000  0.91248000  0.81694000  1.0 0.0905074434
H  H124  1  0.99972000  0.08752000  0.31694000  1.0 0.0905074434
H  H125  1  0.20279000  0.05159000  0.72747000  1.0 0.0905074434
H  H126  1  0.79721000  0.94841000  0.22747000  1.0 0.0905074434
H  H127  1  0.94841000  0.79721000  0.77253000  1.0 0.0905074434
H  H128  1  0.05159000  0.20279000  0.27253000  1.0 0.0905074434
H  H129  1  0.85858000  0.38588000  0.59410000  1.0 0.1096224315
H  H130  1  0.14142000  0.61412000  0.09410000  1.0 0.1096224315
H  H131  1  0.61412000  0.14142000  0.90590000  1.0 0.1096224315
H  H132  1  0.38588000  0.85858000  0.40590000  1.0 0.1096224315
H  H133  1  0.74343000  0.34977000  0.62491000  1.0 0.1303512798
H  H134  1  0.25657000  0.65023000  0.12491000  1.0 0.1303512798
H  H135  1  0.65023000  0.25657000  0.87509000  1.0 0.1303512798
H  H136  1  0.34977000  0.74343000  0.37509000  1.0 0.1303512798
H  H137  1  0.76017000  0.48259000  0.41216000  1.0 0.1303512798
H  H138  1  0.23983000  0.51741000  0.91216000  1.0 0.1303512798
H  H139  1  0.51741000  0.23983000  0.08784000  1.0 0.1303512798
H  H140  1  0.48259000  0.76017000  0.58784000  1.0 0.1303512798
H  H141  1  0.87860000  0.51832000  0.39622000  1.0 0.0905074434
H  H142  1  0.12140000  0.48168000  0.89622000  1.0 0.0905074434
H  H143  1  0.48168000  0.12140000  0.10378000  1.0 0.0905074434
H  H144  1  0.51832000  0.87860000  0.60378000  1.0 0.0905074434
H  H145  1  0.61703000  0.25221000  0.46236000  1.0 0.1303512798
H  H146  1  0.38297000  0.74779000  0.96236000  1.0 0.1303512798
H  H147  1  0.74779000  0.38297000  0.03764000  1.0 0.1303512798
H  H148  1  0.25221000  0.61703000  0.53764000  1.0 0.1303512798
H  H149  1  0.56433000  0.13127000  0.43102000  1.0 0.1096224315
H  H150  1  0.43567000  0.86873000  0.93102000  1.0 0.1096224315
H  H151  1  0.86873000  0.43567000  0.06898000  1.0 0.1096224315
H  H152  1  0.13127000  0.56433000  0.56898000  1.0 0.1096224315
H  H153  1  0.48927000  0.08049000  0.69518000  1.0 0.1019749609
H  H154  1  0.51073000  0.91951000  0.19518000  1.0 0.1019749609
H  H155  1  0.91951000  0.51073000  0.80482000  1.0 0.1019749609
H  H156  1  0.08049000  0.48927000  0.30482000  1.0 0.1019749609
H  H157  1  0.52471000  0.19413000  0.72936000  1.0 0.1206740774
H  H158  1  0.47529000  0.80587000  0.22936000  1.0 0.1206740774
H  H159  1  0.80587000  0.47529000  0.77064000  1.0 0.1206740774
H  H160  1  0.19413000  0.52471000  0.27064000  1.0 0.1206740774
H  H161  1  0.35306000  0.87496000  0.63824000  1.0 0.1206740774
H  H162  1  0.64694000  0.12504000  0.13824000  1.0 0.1206740774
H  H163  1  0.12504000  0.64694000  0.86176000  1.0 0.1206740774
H  H164  1  0.87496000  0.35306000  0.36176000  1.0 0.1206740774
H  H165  1  0.23593000  0.83531000  0.65611000  1.0 0.1206740774
H  H166  1  0.76407000  0.16469000  0.15611000  1.0 0.1206740774
H  H167  1  0.16469000  0.76407000  0.84389000  1.0 0.1206740774
H  H168  1  0.83531000  0.23593000  0.34389000  1.0 0.1206740774
H  H169  1  0.26895000  0.99471000  0.48050000  1.0 0.1206740774
H  H170  1  0.73105000  0.00529000  0.98050000  1.0 0.1206740774
H  H171  1  0.00529000  0.73105000  0.01950000  1.0 0.1206740774
H  H172  1  0.99471000  0.26895000  0.51950000  1.0 0.1206740774
H  H173  1  0.38874000  0.03382000  0.48100000  1.0 0.0699548188
H  H174  1  0.61126000  0.96618000  0.98100000  1.0 0.0699548188
H  H175  1  0.96618000  0.61126000  0.01900000  1.0 0.0699548188
H  H176  1  0.03382000  0.38874000  0.51900000  1.0 0.0699548188
H  H177  1  0.12461000  0.76097000  0.46701000  1.0 0.1303512798
H  H178  1  0.87539000  0.23903000  0.96701000  1.0 0.1303512798
H  H179  1  0.23903000  0.87539000  0.03299000  1.0 0.1303512798
H  H180  1  0.76097000  0.12461000  0.53299000  1.0 0.1303512798
H  H181  1  0.07725000  0.64601000  0.40709000  1.0 0.1096224315
H  H182  1  0.92275000  0.35399000  0.90709000  1.0 0.1096224315
H  H183  1  0.35399000  0.92275000  0.09291000  1.0 0.1096224315
H  H184  1  0.64601000  0.07725000  0.59291000  1.0 0.1096224315
H  H185  1  0.96158000  0.55934000  0.63779000  1.0 0.1019749609
H  H186  1  0.03842000  0.44066000  0.13779000  1.0 0.1019749609
H  H187  1  0.44066000  0.03842000  0.86221000  1.0 0.1019749609
H  H188  1  0.55934000  0.96158000  0.36221000  1.0 0.1019749609
H  H189  1  0.00934000  0.66722000  0.71042000  1.0 0.1206740774
H  H190  1  0.99066000  0.33278000  0.21042000  1.0 0.1206740774
H  H191  1  0.33278000  0.99066000  0.78958000  1.0 0.1206740774
H  H192  1  0.66722000  0.00934000  0.28958000  1.0 0.1206740774
W  W1  1  0.00081000  0.06733000  0.74900000  1.0 1.3362693032
W  W2  1  0.99919000  0.93267000  0.24900000  1.0 1.3362693032
W  W3  1  0.93267000  0.99919000  0.75100000  1.0 1.3362693032
W  W4  1  0.06733000  0.00081000  0.25100000  1.0 1.3362693032
W  W5  1  0.52376000  0.44584000  0.30910000  1.0 0.9415949126
W  W6  1  0.47624000  0.55416000  0.80910000  1.0 0.9415949126
W  W7  1  0.55416000  0.47624000  0.19090000  1.0 0.9415949126
W  W8  1  0.44584000  0.52376000  0.69090000  1.0 0.9415949126
W  W9  1  0.01377000  0.43893000  0.72142000  1.0 2.1084722122
W  W10  1  0.98623000  0.56107000  0.22142000  1.0 2.1084722122
W  W11  1  0.56107000  0.98623000  0.77858000  1.0 2.1084722122
W  W12  1  0.43893000  0.01377000  0.27858000  1.0 2.1084722122
C  C1  1  0.39670000  0.33730000  0.65800000  1.0 -0.1334786574
C  C2  1  0.60330000  0.66270000  0.15800000  1.0 -0.1334786574
C  C3  1  0.66270000  0.60330000  0.84200000  1.0 -0.1334786574
C  C4  1  0.33730000  0.39670000  0.34200000  1.0 -0.1334786574
C  C5  1  0.36760000  0.26640000  0.66400000  1.0 -0.2206882919
C  C6  1  0.63240000  0.73360000  0.16400000  1.0 -0.2206882919
C  C7  1  0.73360000  0.63240000  0.83600000  1.0 -0.2206882919
C  C8  1  0.26640000  0.36760000  0.33600000  1.0 -0.2206882919
C  C9  1  0.39770000  0.23630000  0.60700000  1.0 -0.0283839228
C  C10  1  0.60230000  0.76370000  0.10700000  1.0 -0.0283839228
C  C11  1  0.76370000  0.60230000  0.89300000  1.0 -0.0283839228
C  C12  1  0.23630000  0.39770000  0.39300000  1.0 -0.0283839228
C  C13  1  0.44890000  0.27910000  0.54300000  1.0 -0.0409312782
C  C14  1  0.55110000  0.72090000  0.04300000  1.0 -0.0409312782
C  C15  1  0.72090000  0.55110000  0.95700000  1.0 -0.0409312782
C  C16  1  0.27910000  0.44890000  0.45700000  1.0 -0.0409312782
C  C17  1  0.46780000  0.35020000  0.53600000  1.0 0.0699548188
C  C18  1  0.53220000  0.64980000  0.03600000  1.0 0.0699548188
C  C19  1  0.64980000  0.53220000  0.96400000  1.0 0.0699548188
C  C20  1  0.35020000  0.46780000  0.46400000  1.0 0.0699548188
C  C21  1  0.21300000  0.07500000  0.64200000  1.0 0.0210358567
C  C22  1  0.78700000  0.92500000  0.14200000  1.0 0.0210358567
C  C23  1  0.92500000  0.78700000  0.85800000  1.0 0.0210358567
C  C24  1  0.07500000  0.21300000  0.35800000  1.0 0.0210358567
C  C25  1  0.21390000  0.10010000  0.54900000  1.0 -0.0628541612
C  C26  1  0.78610000  0.89990000  0.04900000  1.0 -0.0628541612
C  C27  1  0.89990000  0.78610000  0.95100000  1.0 -0.0628541612
C  C28  1  0.10010000  0.21390000  0.45100000  1.0 -0.0628541612
C  C29  1  0.14670000  0.06930000  0.50600000  1.0 0.1096224315
C  C30  1  0.85330000  0.93070000  0.00600000  1.0 0.1096224315
C  C31  1  0.93070000  0.85330000  0.99400000  1.0 0.1096224315
C  C32  1  0.06930000  0.14670000  0.49400000  1.0 0.1096224315
C  C33  1  0.09000000  0.99800000  0.63300000  1.0 0.0482591753
C  C34  1  0.91000000  0.00200000  0.13300000  1.0 0.0482591753
C  C35  1  0.00200000  0.91000000  0.86700000  1.0 0.0482591753
C  C36  1  0.99800000  0.09000000  0.36700000  1.0 0.0482591753
C  C37  1  0.15100000  0.02500000  0.68400000  1.0 -0.1008848527
C  C38  1  0.84900000  0.97500000  0.18400000  1.0 -0.1008848527
C  C39  1  0.97500000  0.84900000  0.81600000  1.0 -0.1008848527
C  C40  1  0.02500000  0.15100000  0.31600000  1.0 -0.1008848527
C  C41  1  0.90040000  0.82960000  0.57000000  1.0 0.0810946289
C  C42  1  0.09960000  0.17040000  0.07000000  1.0 0.0810946289
C  C43  1  0.17040000  0.09960000  0.93000000  1.0 0.0810946289
C  C44  1  0.82960000  0.90040000  0.43000000  1.0 0.0810946289
C  C45  1  0.87450000  0.75950000  0.56000000  1.0 -0.2889869074
C  C46  1  0.12550000  0.24050000  0.06000000  1.0 -0.2889869074
C  C47  1  0.24050000  0.12550000  0.94000000  1.0 -0.2889869074
C  C48  1  0.75950000  0.87450000  0.44000000  1.0 -0.2889869074
C  C49  1  0.91580000  0.73980000  0.50700000  1.0 0.0482591753
C  C50  1  0.08420000  0.26020000  0.00700000  1.0 0.0482591753
C  C51  1  0.26020000  0.08420000  0.99300000  1.0 0.0482591753
C  C52  1  0.73980000  0.91580000  0.49300000  1.0 0.0482591753
C  C53  1  0.97740000  0.79120000  0.47100000  1.0 -0.0409312782
C  C54  1  0.02260000  0.20880000  0.97100000  1.0 -0.0409312782
C  C55  1  0.20880000  0.02260000  0.02900000  1.0 -0.0409312782
C  C56  1  0.79120000  0.97740000  0.52900000  1.0 -0.0409312782
C  C57  1  0.99830000  0.86250000  0.48700000  1.0 0.1019749609
C  C58  1  0.00170000  0.13750000  0.98700000  1.0 0.1019749609
C  C59  1  0.13750000  0.00170000  0.01300000  1.0 0.1019749609
C  C60  1  0.86250000  0.99830000  0.51300000  1.0 0.1019749609
C  C61  1  0.73820000  0.56780000  0.54900000  1.0 -0.0114103125
C  C62  1  0.26180000  0.43220000  0.04900000  1.0 -0.0114103125
C  C63  1  0.43220000  0.26180000  0.95100000  1.0 -0.0114103125
C  C64  1  0.56780000  0.73820000  0.45100000  1.0 -0.0114103125
C  C65  1  0.72720000  0.58080000  0.45400000  1.0 -0.1423047045
C  C66  1  0.27280000  0.41920000  0.95400000  1.0 -0.1423047045
C  C67  1  0.41920000  0.27280000  0.04600000  1.0 -0.1423047045
C  C68  1  0.58080000  0.72720000  0.54600000  1.0 -0.1423047045
C  C69  1  0.65690000  0.55910000  0.43300000  1.0 -0.0864003608
C  C70  1  0.34310000  0.44090000  0.93300000  1.0 -0.0864003608
C  C71  1  0.44090000  0.34310000  0.06700000  1.0 -0.0864003608
C  C72  1  0.55910000  0.65690000  0.56700000  1.0 -0.0864003608
C  C73  1  0.61670000  0.50730000  0.58000000  1.0 0.0583608141
C  C74  1  0.38330000  0.49270000  0.08000000  1.0 0.0583608141
C  C75  1  0.49270000  0.38330000  0.92000000  1.0 0.0583608141
C  C76  1  0.50730000  0.61670000  0.42000000  1.0 0.0583608141
C  C77  1  0.68280000  0.53120000  0.61100000  1.0 0.0210358567
C  C78  1  0.31720000  0.46880000  0.11100000  1.0 0.0210358567
C  C79  1  0.46880000  0.31720000  0.88900000  1.0 0.0210358567
C  C80  1  0.53120000  0.68280000  0.38900000  1.0 0.0210358567
C  C81  1  0.87580000  0.75820000  0.57900000  1.0 -0.3190607332
C  C82  1  0.12420000  0.24180000  0.07900000  1.0 -0.3146285871
C  C83  1  0.24180000  0.12420000  0.92100000  1.0 -0.3190607332
C  C84  1  0.75820000  0.87580000  0.42100000  1.0 -0.3190607332
C  C85  1  0.90230000  0.72970000  0.51200000  1.0 0.0304241359
C  C86  1  0.09770000  0.27030000  0.01200000  1.0 0.0304241359
C  C87  1  0.27030000  0.09770000  0.98800000  1.0 0.0304241359
C  C88  1  0.72970000  0.90230000  0.48800000  1.0 0.0304241359
C  C89  1  0.95310000  0.77390000  0.45100000  1.0 -0.0409312782
C  C90  1  0.04690000  0.22610000  0.95100000  1.0 -0.0409312782
C  C91  1  0.22610000  0.04690000  0.04900000  1.0 -0.0409312782
C  C92  1  0.77390000  0.95310000  0.54900000  1.0 -0.0409312782
C  C93  1  0.96810000  0.84390000  0.44400000  1.0 0.0810946289
C  C94  1  0.03190000  0.15610000  0.94400000  1.0 0.0810946289
C  C95  1  0.15610000  0.03190000  0.05600000  1.0 0.0810946289
C  C96  1  0.84390000  0.96810000  0.55600000  1.0 0.0810946289
C  C97  1  0.73510000  0.57690000  0.61000000  1.0 -0.0008929912
C  C98  1  0.26490000  0.42310000  0.11000000  1.0 -0.0008929912
C  C99  1  0.42310000  0.26490000  0.89000000  1.0 -0.0008929912
C  C100  1  0.57690000  0.73510000  0.39000000  1.0 -0.0008929912
C  C101  1  0.71820000  0.59780000  0.52500000  1.0 -0.0203016665
C  C102  1  0.28180000  0.40220000  0.02500000  1.0 -0.0203016665
C  C103  1  0.40220000  0.28180000  0.97500000  1.0 -0.0203016665
C  C104  1  0.59780000  0.71820000  0.47500000  1.0 -0.0203016665
C  C105  1  0.64500000  0.57100000  0.51800000  1.0 0.0810946289
C  C106  1  0.35500000  0.42900000  0.01800000  1.0 0.0810946289
C  C107  1  0.42900000  0.35500000  0.98200000  1.0 0.0810946289
C  C108  1  0.57100000  0.64500000  0.48200000  1.0 0.0810946289
C  C109  1  0.61970000  0.52230000  0.66800000  1.0 -0.0628541612
C  C110  1  0.38030000  0.47770000  0.16800000  1.0 -0.0628541612
C  C111  1  0.47770000  0.38030000  0.83200000  1.0 -0.0628541612
C  C112  1  0.52230000  0.61970000  0.33200000  1.0 -0.0628541612
C  C113  1  0.68860000  0.55140000  0.68700000  1.0 -0.1423047045
C  C114  1  0.31140000  0.44860000  0.18700000  1.0 -0.1423047045
C  C115  1  0.44860000  0.31140000  0.81300000  1.0 -0.1423047045
C  C116  1  0.55140000  0.68860000  0.31300000  1.0 -0.1423047045
C  C117  1  0.41120000  0.34080000  0.52900000  1.0 0.0699548188
C  C118  1  0.58880000  0.65920000  0.02900000  1.0 0.0699548188
C  C119  1  0.65920000  0.58880000  0.97100000  1.0 0.0699548188
C  C120  1  0.34080000  0.41120000  0.47100000  1.0 0.0699548188
C  C121  1  0.38340000  0.27060000  0.54400000  1.0 -0.0522023784
C  C122  1  0.61660000  0.72940000  0.04400000  1.0 -0.0522023784
C  C123  1  0.72940000  0.61660000  0.95600000  1.0 -0.0522023784
C  C124  1  0.27060000  0.38340000  0.45600000  1.0 -0.0522023784
C  C125  1  0.41230000  0.23770000  0.49000000  1.0 0.0083787832
C  C126  1  0.58770000  0.76230000  0.99000000  1.0 0.0083787832
C  C127  1  0.76230000  0.58770000  0.01000000  1.0 0.0083787832
C  C128  1  0.23770000  0.41230000  0.51000000  1.0 0.0083787832
C  C129  1  0.46610000  0.27790000  0.43000000  1.0 -0.169676683
C  C130  1  0.53390000  0.72210000  0.93000000  1.0 -0.169676683
C  C131  1  0.72210000  0.53390000  0.07000000  1.0 -0.169676683
C  C132  1  0.27790000  0.46610000  0.57000000  1.0 -0.169676683
C  C133  1  0.49370000  0.35210000  0.42700000  1.0 0.1019749609
C  C134  1  0.50630000  0.64790000  0.92700000  1.0 0.1019749609
C  C135  1  0.64790000  0.50630000  0.07300000  1.0 0.1019749609
C  C136  1  0.35210000  0.49370000  0.57300000  1.0 0.1019749609
C  C137  1  0.24300000  0.08300000  0.59100000  1.0 -0.0203016665
C  C138  1  0.75700000  0.91700000  0.09100000  1.0 -0.0203016665
C  C139  1  0.91700000  0.75700000  0.90900000  1.0 -0.0203016665
C  C140  1  0.08300000  0.24300000  0.40900000  1.0 -0.0203016665
C  C141  1  0.22660000  0.08940000  0.49600000  1.0 -0.1008848527
C  C142  1  0.77340000  0.91060000  0.99600000  1.0 -0.1008848527
C  C143  1  0.91060000  0.77340000  0.00400000  1.0 -0.1008848527
C  C144  1  0.08940000  0.22660000  0.50400000  1.0 -0.1008848527
C  C145  1  0.15360000  0.05240000  0.47700000  1.0 0.0699548188
C  C146  1  0.84640000  0.94760000  0.97700000  1.0 0.0699548188
C  C147  1  0.94760000  0.84640000  0.02300000  1.0 0.0699548188
C  C148  1  0.05240000  0.15360000  0.52300000  1.0 0.0699548188
C  C149  1  0.12280000  0.02320000  0.63400000  1.0 0.0810946289
C  C150  1  0.87720000  0.97680000  0.13400000  1.0 0.0810946289
C  C151  1  0.97680000  0.87720000  0.86600000  1.0 0.0810946289
C  C152  1  0.02320000  0.12280000  0.36600000  1.0 0.0810946289
C  C153  1  0.19130000  0.05270000  0.66100000  1.0 -0.0114103125
C  C154  1  0.80870000  0.94730000  0.16100000  1.0 -0.0114103125
C  C155  1  0.94730000  0.80870000  0.83900000  1.0 -0.0114103125
C  C156  1  0.05270000  0.19130000  0.33900000  1.0 -0.0114103125
C  C157  1  0.83850000  0.40650000  0.55700000  1.0 0.0699548188
C  C158  1  0.16150000  0.59350000  0.05700000  1.0 0.0699548188
C  C159  1  0.59350000  0.16150000  0.94300000  1.0 0.0699548188
C  C160  1  0.40650000  0.83850000  0.44300000  1.0 0.0699548188
C  C161  1  0.76910000  0.38250000  0.57400000  1.0 -0.1826187186
C  C162  1  0.23090000  0.61750000  0.07400000  1.0 -0.1826187186
C  C163  1  0.61750000  0.23090000  0.92600000  1.0 -0.1826187186
C  C164  1  0.38250000  0.76910000  0.42600000  1.0 -0.1826187186
C  C165  1  0.73720000  0.40900000  0.51300000  1.0 0.1096224315
C  C166  1  0.26280000  0.59100000  0.01300000  1.0 0.1096224315
C  C167  1  0.59100000  0.26280000  0.98700000  1.0 0.1096224315
C  C168  1  0.40900000  0.73720000  0.48700000  1.0 0.1096224315
C  C169  1  0.77850000  0.46070000  0.45000000  1.0 -0.2311666639
C  C170  1  0.22150000  0.53930000  0.95000000  1.0 -0.2311666639
C  C171  1  0.53930000  0.22150000  0.05000000  1.0 -0.2311666639
C  C172  1  0.46070000  0.77850000  0.55000000  1.0 -0.2311666639
C  C173  1  0.85040000  0.48220000  0.44200000  1.0 0.0810946289
C  C174  1  0.14960000  0.51780000  0.94200000  1.0 0.0810946289
C  C175  1  0.51780000  0.14960000  0.05800000  1.0 0.0810946289
C  C176  1  0.48220000  0.85040000  0.55800000  1.0 0.0810946289
C  C177  1  0.57720000  0.23460000  0.60180000  1.0 0.1096224315
C  C178  1  0.42280000  0.76540000  0.10180000  1.0 0.1096224315
C  C179  1  0.76540000  0.42280000  0.89820000  1.0 0.1096224315
C  C180  1  0.23460000  0.57720000  0.39820000  1.0 0.1096224315
C  C181  1  0.58990000  0.21770000  0.51070000  1.0 -0.1826187186
C  C182  1  0.41010000  0.78230000  0.01070000  1.0 -0.1826187186
C  C183  1  0.78230000  0.41010000  0.98930000  1.0 -0.1826187186
C  C184  1  0.21770000  0.58990000  0.48930000  1.0 -0.1923810088
C  C185  1  0.55960000  0.14520000  0.49480000  1.0 0.1096224315
C  C186  1  0.44040000  0.85480000  0.99480000  1.0 0.1096224315
C  C187  1  0.85480000  0.44040000  0.00520000  1.0 0.1096224315
C  C188  1  0.14520000  0.55960000  0.50520000  1.0 0.1096224315
C  C189  1  0.51430000  0.11530000  0.64650000  1.0 0.0395220376
C  C190  1  0.48570000  0.88470000  0.14650000  1.0 0.0395220376
C  C191  1  0.88470000  0.48570000  0.85350000  1.0 0.0395220376
C  C192  1  0.11530000  0.51430000  0.35350000  1.0 0.0395220376
C  C193  1  0.53680000  0.18280000  0.66850000  1.0 -0.2206882919
C  C194  1  0.46320000  0.81720000  0.16850000  1.0 -0.2206882919
C  C195  1  0.81720000  0.46320000  0.83150000  1.0 -0.2206882919
C  C196  1  0.18280000  0.53680000  0.33150000  1.0 -0.2206882919
C  C197  1  0.33600000  0.90100000  0.60700000  1.0 0.0699548188
C  C198  1  0.66400000  0.09900000  0.10700000  1.0 0.0699548188
C  C199  1  0.09900000  0.66400000  0.89300000  1.0 0.0699548188
C  C200  1  0.90100000  0.33600000  0.39300000  1.0 0.0699548188
C  C201  1  0.26560000  0.87500000  0.61600000  1.0 -0.1826187186
C  C202  1  0.73440000  0.12500000  0.11600000  1.0 -0.1826187186
C  C203  1  0.12500000  0.73440000  0.88400000  1.0 -0.1826187186
C  C204  1  0.87500000  0.26560000  0.38400000  1.0 -0.1826187186
C  C205  1  0.23860000  0.90980000  0.56300000  1.0 0.1206740774
C  C206  1  0.76140000  0.09020000  0.06300000  1.0 0.1206740774
C  C207  1  0.09020000  0.76140000  0.93700000  1.0 0.1206740774
C  C208  1  0.90980000  0.23860000  0.43700000  1.0 0.1206740774
C  C209  1  0.28460000  0.96860000  0.51500000  1.0 -0.2311666639
C  C210  1  0.71540000  0.03140000  0.01500000  1.0 -0.2311666639
C  C211  1  0.03140000  0.71540000  0.98500000  1.0 -0.2311666639
C  C212  1  0.96860000  0.28460000  0.48500000  1.0 -0.2311666639
C  C213  1  0.35710000  0.99170000  0.51500000  1.0 0.0810946289
C  C214  1  0.64290000  0.00830000  0.01500000  1.0 0.0810946289
C  C215  1  0.00830000  0.64290000  0.98500000  1.0 0.0810946289
C  C216  1  0.99170000  0.35710000  0.48500000  1.0 0.0810946289
C  C217  1  0.06570000  0.72430000  0.59300000  1.0 0.1019749609
C  C218  1  0.93430000  0.27570000  0.09300000  1.0 0.1019749609
C  C219  1  0.27570000  0.93430000  0.90700000  1.0 0.1019749609
C  C220  1  0.72430000  0.06570000  0.40700000  1.0 0.1019749609
C  C221  1  0.09140000  0.72060000  0.50300000  1.0 -0.1923810088
C  C222  1  0.90860000  0.27940000  0.00300000  1.0 -0.1923810088
C  C223  1  0.27940000  0.90860000  0.99700000  1.0 -0.1923810088
C  C224  1  0.72060000  0.09140000  0.49700000  1.0 -0.1923810088
C  C225  1  0.06350000  0.65110000  0.47100000  1.0 0.0905074434
C  C226  1  0.93650000  0.34890000  0.97100000  1.0 0.0905074434
C  C227  1  0.34890000  0.93650000  0.02900000  1.0 0.0905074434
C  C228  1  0.65110000  0.06350000  0.52900000  1.0 0.0905074434
C  C229  1  0.99700000  0.60020000  0.60400000  1.0 0.0304241359
C  C230  1  0.00300000  0.39980000  0.10400000  1.0 0.0304241359
C  C231  1  0.39980000  0.00300000  0.89600000  1.0 0.0304241359
C  C232  1  0.60020000  0.99700000  0.39600000  1.0 0.0304241359
C  C233  1  0.02200000  0.66400000  0.64500000  1.0 -0.2311666639
C  C234  1  0.97800000  0.33600000  0.14500000  1.0 -0.2311666639
C  C235  1  0.33600000  0.97800000  0.85500000  1.0 -0.2311666639
C  C236  1  0.66400000  0.02200000  0.35500000  1.0 -0.2311666639
S  S1  1  0.36920000  0.14740000  0.60680000  1.0 0.0395220376
S  S2  1  0.63080000  0.85260000  0.10680000  1.0 0.0482591753
S  S3  1  0.85260000  0.63080000  0.89320000  1.0 0.0482591753
S  S4  1  0.14740000  0.36920000  0.39320000  1.0 0.0395220376
S  S5  1  0.29380000  0.10120000  0.70760000  1.0 0.0083787832
S  S6  1  0.70620000  0.89880000  0.20760000  1.0 0.0083787832
S  S7  1  0.89880000  0.70620000  0.79240000  1.0 0.0083787832
S  S8  1  0.10120000  0.29380000  0.29240000  1.0 0.0083787832
S  S9  1  0.89160000  0.65280000  0.48850000  1.0 0.0810946289
S  S10  1  0.10840000  0.34720000  0.98850000  1.0 0.0810946289
S  S11  1  0.34720000  0.10840000  0.01150000  1.0 0.0810946289
S  S12  1  0.65280000  0.89160000  0.51150000  1.0 0.0810946289
S  S13  1  0.82520000  0.59660000  0.59610000  1.0 0.0210358567
S  S14  1  0.17480000  0.40340000  0.09610000  1.0 0.0210358567
S  S15  1  0.40340000  0.17480000  0.90390000  1.0 0.0210358567
S  S16  1  0.59660000  0.82520000  0.40390000  1.0 0.0210358567
S  S17  1  0.87540000  0.64100000  0.50930000  1.0 0.0304241359
S  S18  1  0.12460000  0.35900000  0.00930000  1.0 0.0304241359
S  S19  1  0.35900000  0.12460000  0.99070000  1.0 0.0304241359
S  S20  1  0.64100000  0.87540000  0.49070000  1.0 0.0304241359
S  S21  1  0.82410000  0.59890000  0.63450000  1.0 0.0304241359
S  S22  1  0.17590000  0.40110000  0.13450000  1.0 0.0304241359
S  S23  1  0.40110000  0.17590000  0.86550000  1.0 0.0304241359
S  S24  1  0.59890000  0.82410000  0.36550000  1.0 0.0304241359
S  S25  1  0.38980000  0.15180000  0.50990000  1.0 0.0395220376
S  S26  1  0.61020000  0.84820000  0.00990000  1.0 0.0395220376
S  S27  1  0.84820000  0.61020000  0.99010000  1.0 0.0395220376
S  S28  1  0.15180000  0.38980000  0.49010000  1.0 0.0395220376
S  S29  1  0.33240000  0.11960000  0.63250000  1.0 0.0395220376
S  S30  1  0.66760000  0.88040000  0.13250000  1.0 0.0395220376
S  S31  1  0.88040000  0.66760000  0.86750000  1.0 0.0395220376
S  S32  1  0.11960000  0.33240000  0.36750000  1.0 0.0395220376
S  S33  1  0.64850000  0.38130000  0.51720000  1.0 -0.121381674
S  S34  1  0.35150000  0.61870000  0.01720000  1.0 -0.121381674
S  S35  1  0.61870000  0.35150000  0.98280000  1.0 -0.121381674
S  S36  1  0.38130000  0.64850000  0.48280000  1.0 -0.121381674
S  S37  1  0.60670000  0.32390000  0.63670000  1.0 -0.169676683
S  S38  1  0.39330000  0.67610000  0.13670000  1.0 -0.169676683
S  S39  1  0.67610000  0.39330000  0.86330000  1.0 -0.169676683
S  S40  1  0.32390000  0.60670000  0.36330000  1.0 -0.169676683
S  S41  1  0.15030000  0.88250000  0.55730000  1.0 -0.0663476931
S  S42  1  0.84970000  0.11750000  0.05730000  1.0 -0.0663476931
S  S43  1  0.11750000  0.84970000  0.94270000  1.0 -0.0663476931
S  S44  1  0.88250000  0.15030000  0.44270000  1.0 -0.0663476931
S  S45  1  0.09710000  0.80650000  0.65550000  1.0 -0.121381674
S  S46  1  0.90290000  0.19350000  0.15550000  1.0 -0.121381674
S  S47  1  0.19350000  0.90290000  0.84450000  1.0 -0.121381674
S  S48  1  0.80650000  0.09710000  0.34450000  1.0 -0.121381674
N  N1  1  0.44900000  0.38140000  0.59700000  1.0 -0.2311666639
N  N2  1  0.55100000  0.61860000  0.09700000  1.0 -0.2311666639
N  N3  1  0.61860000  0.55100000  0.90300000  1.0 -0.2311666639
N  N4  1  0.38140000  0.44900000  0.40300000  1.0 -0.2311666639
N  N5  1  0.08700000  0.01500000  0.54000000  1.0 -0.2311666639
N  N6  1  0.91300000  0.98500000  0.04000000  1.0 -0.2311666639
N  N7  1  0.98500000  0.91300000  0.96000000  1.0 -0.2311666639
N  N8  1  0.01500000  0.08700000  0.46000000  1.0 -0.2311666639
N  N9  1  0.96180000  0.88220000  0.53500000  1.0 -0.2729481766
N  N10  1  0.03820000  0.11780000  0.03500000  1.0 -0.2729481766
N  N11  1  0.11780000  0.03820000  0.96500000  1.0 -0.2729481766
N  N12  1  0.88220000  0.96180000  0.46500000  1.0 -0.2729481766
N  N13  1  0.60290000  0.52510000  0.49300000  1.0 -0.1008848527
N  N14  1  0.39710000  0.47490000  0.99300000  1.0 -0.1008848527
N  N15  1  0.47490000  0.39710000  0.00700000  1.0 -0.1008848527
N  N16  1  0.52510000  0.60290000  0.50700000  1.0 -0.1008848527
N  N17  1  0.95230000  0.87370000  0.51300000  1.0 -0.2206882919
N  N18  1  0.04770000  0.12630000  0.01300000  1.0 -0.2206882919
N  N19  1  0.12630000  0.04770000  0.98700000  1.0 -0.2206882919
N  N20  1  0.87370000  0.95230000  0.48700000  1.0 -0.2206882919
N  N21  1  0.59570000  0.52630000  0.57900000  1.0 -0.0628541612
N  N22  1  0.40430000  0.47370000  0.07900000  1.0 -0.0628541612
N  N23  1  0.47370000  0.40430000  0.92100000  1.0 -0.0628541612
N  N24  1  0.52630000  0.59570000  0.42100000  1.0 -0.0628541612
N  N25  1  0.46270000  0.38130000  0.46600000  1.0 -0.1923810088
N  N26  1  0.53730000  0.61870000  0.96600000  1.0 -0.1923810088
N  N27  1  0.61870000  0.53730000  0.03400000  1.0 -0.1923810088
N  N28  1  0.38130000  0.46270000  0.53400000  1.0 -0.1923810088
N  N29  1  0.10300000  0.02700000  0.54300000  1.0 -0.2031660239
N  N30  1  0.89700000  0.97300000  0.04300000  1.0 -0.2031660239
N  N31  1  0.97300000  0.89700000  0.95700000  1.0 -0.2031660239
N  N32  1  0.02700000  0.10300000  0.45700000  1.0 -0.2031660239
N  N33  1  0.88060000  0.45640000  0.49200000  1.0 -0.2311666639
N  N34  1  0.11940000  0.54360000  0.99200000  1.0 -0.2311666639
N  N35  1  0.54360000  0.11940000  0.00800000  1.0 -0.2311666639
N  N36  1  0.45640000  0.88060000  0.50800000  1.0 -0.2311666639
N  N37  1  0.52530000  0.09470000  0.55960000  1.0 -0.2311666639
N  N38  1  0.47470000  0.90530000  0.05960000  1.0 -0.2311666639
N  N39  1  0.90530000  0.47470000  0.94040000  1.0 -0.2311666639
N  N40  1  0.09470000  0.52530000  0.44040000  1.0 -0.2311666639
N  N41  1  0.38350000  0.95970000  0.55900000  1.0 -0.2206882919
N  N42  1  0.61650000  0.04030000  0.05900000  1.0 -0.2206882919
N  N43  1  0.04030000  0.61650000  0.94100000  1.0 -0.2206882919
N  N44  1  0.95970000  0.38350000  0.44100000  1.0 -0.2206882919
N  N45  1  0.02060000  0.59260000  0.51790000  1.0 -0.238930882
N  N46  1  0.97940000  0.40740000  0.01790000  1.0 -0.238930882
N  N47  1  0.40740000  0.97940000  0.98210000  1.0 -0.238930882
N  N48  1  0.59260000  0.02060000  0.48210000  1.0 -0.238930882
O  O1  1  0.08780000  0.13900000  0.74300000  1.0 -0.4824971417
O  O2  1  0.91220000  0.86100000  0.24300000  1.0 -0.4824971417
O  O3  1  0.86100000  0.91220000  0.75700000  1.0 -0.4824971417
O  O4  1  0.13900000  0.08780000  0.25700000  1.0 -0.4824971417
O  O5  1  0.98570000  0.00850000  0.65400000  1.0 -0.5674846331
O  O6  1  0.01430000  0.99150000  0.15400000  1.0 -0.5674846331
O  O7  1  0.99150000  0.01430000  0.84600000  1.0 -0.5674846331
O  O8  1  0.00850000  0.98570000  0.34600000  1.0 -0.5674846331
O  O9  1  0.94310000  0.09630000  0.73900000  1.0 -0.3190607332
O  O10  1  0.05690000  0.90370000  0.23900000  1.0 -0.3190607332
O  O11  1  0.90370000  0.05690000  0.76100000  1.0 -0.3190607332
O  O12  1  0.09630000  0.94310000  0.26100000  1.0 -0.3190607332
O  O13  1  0.98800000  0.02440000  0.86160000  1.0 -0.602778689
O  O14  1  0.01200000  0.97560000  0.36160000  1.0 -0.602778689
O  O15  1  0.97560000  0.01200000  0.63840000  1.0 -0.602778689
O  O16  1  0.02440000  0.98800000  0.13840000  1.0 -0.602778689
O  O17  1  0.49490000  0.44270000  0.19020000  1.0 -0.1826187186
O  O18  1  0.50510000  0.55730000  0.69020000  1.0 -0.1826187186
O  O19  1  0.55730000  0.50510000  0.30980000  1.0 -0.1826187186
O  O20  1  0.44270000  0.49490000  0.80980000  1.0 -0.1826187186
O  O21  1  0.50300000  0.49580000  0.11800000  1.0 -0.3360212902
O  O22  1  0.49700000  0.50420000  0.61800000  1.0 -0.3360212902
O  O23  1  0.50420000  0.49700000  0.38200000  1.0 -0.3360212902
O  O24  1  0.49580000  0.50300000  0.88200000  1.0 -0.3360212902
O  O25  1  0.51920000  0.38580000  0.18900000  1.0 -0.4648811082
O  O26  1  0.48080000  0.61420000  0.68900000  1.0 -0.4648811082
O  O27  1  0.61420000  0.48080000  0.31100000  1.0 -0.4648811082
O  O28  1  0.38580000  0.51920000  0.81100000  1.0 -0.4648811082
O  O29  1  0.47960000  0.35980000  0.35700000  1.0 -0.1826187186
O  O30  1  0.52040000  0.64020000  0.85700000  1.0 -0.1826187186
O  O31  1  0.64020000  0.52040000  0.14300000  1.0 -0.1826187186
O  O32  1  0.35980000  0.47960000  0.64300000  1.0 -0.1826187186
O  O33  1  0.01760000  0.49100000  0.81890000  1.0 -0.8524974296
O  O34  1  0.98240000  0.50900000  0.31890000  1.0 -0.8524974296
O  O35  1  0.50900000  0.98240000  0.68110000  1.0 -0.8524974296
O  O36  1  0.49100000  0.01760000  0.18110000  1.0 -0.8524974296
O  O37  1  0.99790000  0.46790000  0.61230000  1.0 -0.8600926558
O  O38  1  0.00210000  0.53210000  0.11230000  1.0 -0.8600926558
O  O39  1  0.53210000  0.00210000  0.88770000  1.0 -0.8600926558
O  O40  1  0.46790000  0.99790000  0.38770000  1.0 -0.8600926558
O  O41  1  0.94840000  0.35120000  0.74200000  1.0 -0.7943691025
O  O42  1  0.05160000  0.64880000  0.24200000  1.0 -0.7943691025
O  O43  1  0.64880000  0.05160000  0.75800000  1.0 -0.7943691025
O  O44  1  0.35120000  0.94840000  0.25800000  1.0 -0.7943691025
O  O45  1  0.09540000  0.44520000  0.71260000  1.0 -0.8060433427
O  O46  1  0.90460000  0.55480000  0.21260000  1.0 -0.8060433427
O  O47  1  0.55480000  0.90460000  0.78740000  1.0 -0.8060433427
O  O48  1  0.44520000  0.09540000  0.28740000  1.0 -0.8060433427
