# DDEC6 charges by PACMAN v1.1 (https://github.com/mtap-research/PACMAN-charge/)
data_FIGXAY_ASR_pacman
_symmetry_space_group_name_H-M   'P 1'
_cell_length_a   21.39800000
_cell_length_b   13.73820000
_cell_length_c   22.84600000
_cell_angle_alpha   90.00000000
_cell_angle_beta   117.84200000
_cell_angle_gamma   90.00000000
_symmetry_Int_Tables_number   1
_chemical_formula_structural   Co2H32W3C40S8(N4O5)2
_chemical_formula_sum   'Co8 H128 W12 C160 S32 N32 O40'
_cell_volume   5938.58239450
_cell_formula_units_Z   4
loop_
 _symmetry_equiv_pos_site_id
 _symmetry_equiv_pos_as_xyz
  1  'x, y, z'
loop_
 _atom_site_type_symbol
 _atom_site_label
 _atom_site_symmetry_multiplicity
 _atom_site_fract_x
 _atom_site_fract_y
 _atom_site_fract_z
 _atom_site_occupancy
 _atom_site_charge
Co  Co1  1  0.99332000  0.28317000  0.75384000  1.0 0.8131044937
Co  Co2  1  0.00668000  0.78317000  0.74616000  1.0 0.8131044937
Co  Co3  1  0.49456000  0.21479000  0.75031000  1.0 0.9785418741
Co  Co4  1  0.50544000  0.71479000  0.74969000  1.0 0.9785418741
Co  Co5  1  0.00668000  0.71683000  0.24616000  1.0 0.8131044937
Co  Co6  1  0.99332000  0.21683000  0.25384000  1.0 0.8131044937
Co  Co7  1  0.50544000  0.78521000  0.24969000  1.0 0.9785418741
Co  Co8  1  0.49456000  0.28521000  0.25031000  1.0 0.9785418741
H  H1  1  0.85493000  0.16460000  0.72163000  1.0 0.0998547036
H  H2  1  0.14507000  0.66460000  0.77837000  1.0 0.0998547036
H  H3  1  0.73975000  0.15112000  0.64267000  1.0 0.1298792539
H  H4  1  0.26025000  0.65112000  0.85733000  1.0 0.1298792539
H  H5  1  0.77590000  0.35858000  0.53835000  1.0 0.1487778594
H  H6  1  0.22410000  0.85858000  0.96165000  1.0 0.1487778594
H  H7  1  0.89157000  0.36151000  0.61788000  1.0 0.0906641479
H  H8  1  0.10843000  0.86151000  0.88212000  1.0 0.0906641479
H  H9  1  0.53918000  0.02752000  0.58044000  1.0 0.1298792539
H  H10  1  0.46082000  0.52752000  0.91956000  1.0 0.1298792539
H  H11  1  0.49527000  0.05693000  0.65276000  1.0 0.1209120065
H  H12  1  0.50473000  0.55693000  0.84724000  1.0 0.1209120065
H  H13  1  0.57682000  0.31772000  0.68868000  1.0 0.1209120065
H  H14  1  0.42318000  0.81772000  0.81132000  1.0 0.1209120065
H  H15  1  0.61771000  0.29621000  0.61117000  1.0 0.1209120065
H  H16  1  0.38229000  0.79621000  0.88883000  1.0 0.1209120065
H  H17  1  0.03869000  0.22881000  0.89579000  1.0 0.0998547036
H  H18  1  0.96131000  0.72881000  0.60421000  1.0 0.0998547036
H  H19  1  0.00455000  0.22000000  0.97612000  1.0 0.1298792539
H  H20  1  0.99545000  0.72000000  0.52388000  1.0 0.1298792539
H  H21  1  0.83293000  0.37945000  0.85702000  1.0 0.1298792539
H  H22  1  0.16707000  0.87945000  0.64298000  1.0 0.1298792539
H  H23  1  0.87723000  0.38306000  0.78264000  1.0 0.1209120065
H  H24  1  0.12277000  0.88306000  0.71736000  1.0 0.1209120065
H  H25  1  0.76284000  0.20096000  0.89473000  1.0 0.1209120065
H  H26  1  0.23716000  0.70096000  0.60527000  1.0 0.1209120065
H  H27  1  0.65314000  0.14977000  0.82256000  1.0 0.1209120065
H  H28  1  0.34686000  0.64977000  0.67744000  1.0 0.1209120065
H  H29  1  0.56834000  0.38713000  0.84192000  1.0 0.1298792539
H  H30  1  0.43166000  0.88713000  0.65808000  1.0 0.1298792539
H  H31  1  0.67515000  0.44701000  0.91839000  1.0 0.1298792539
H  H32  1  0.32485000  0.94701000  0.58161000  1.0 0.1298792539
H  H33  1  0.38700000  0.33333333  0.77355000  1.0 0.1209120065
H  H34  1  0.61300000  0.83333000  0.72645000  1.0 0.1209120065
H  H35  1  0.34592000  0.35826000  0.85030000  1.0 0.1209120065
H  H36  1  0.65408000  0.85826000  0.64970000  1.0 0.1209120065
H  H37  1  0.49116000  0.16417000  0.96749000  1.0 0.14027459
H  H38  1  0.50884000  0.66417000  0.53251000  1.0 0.14027459
H  H39  1  0.52367000  0.14340000  0.88793000  1.0 0.1091265708
H  H40  1  0.47633000  0.64340000  0.61207000  1.0 0.1091265708
H  H41  1  0.25532000  0.21116000  0.89441000  1.0 0.14027459
H  H42  1  0.74468000  0.71116000  0.60559000  1.0 0.14027459
H  H43  1  0.13904000  0.18113000  0.82595000  1.0 0.1209120065
H  H44  1  0.86096000  0.68113000  0.67405000  1.0 0.1209120065
H  H45  1  0.08897000  0.44812000  0.84060000  1.0 0.1091265708
H  H46  1  0.91103000  0.94812000  0.65940000  1.0 0.1091265708
H  H47  1  0.20207000  0.48836000  0.91241000  1.0 0.1298792539
H  H48  1  0.79793000  0.98836000  0.58759000  1.0 0.1298792539
H  H49  1  0.38908000  0.27245000  0.60979000  1.0 0.0998547036
H  H50  1  0.61092000  0.77245000  0.89021000  1.0 0.0998547036
H  H51  1  0.27058000  0.26657000  0.53427000  1.0 0.1298792539
H  H52  1  0.72942000  0.76657000  0.96573000  1.0 0.1298792539
H  H53  1  0.24581000  0.07049000  0.65185000  1.0 0.1209120065
H  H54  1  0.75419000  0.57049000  0.84815000  1.0 0.1209120065
H  H55  1  0.36273000  0.08582000  0.72386000  1.0 0.1298792539
H  H56  1  0.63727000  0.58582000  0.77614000  1.0 0.1298792539
H  H57  1  0.00885000  0.03527000  0.59897000  1.0 0.1298792539
H  H58  1  0.99115000  0.53527000  0.90103000  1.0 0.1298792539
H  H59  1  0.96914000  0.10734000  0.66341000  1.0 0.1091265708
H  H60  1  0.03086000  0.60734000  0.83659000  1.0 0.1091265708
H  H61  1  0.08707000  0.33685000  0.68331000  1.0 0.0906641479
H  H62  1  0.91293000  0.83685000  0.81669000  1.0 0.0906641479
H  H63  1  0.12749000  0.26908000  0.61587000  1.0 0.1298792539
H  H64  1  0.87251000  0.76908000  0.88413000  1.0 0.1298792539
H  H65  1  0.14507000  0.83540000  0.27837000  1.0 0.0998547036
H  H66  1  0.85493000  0.33540000  0.22163000  1.0 0.0998547036
H  H67  1  0.26025000  0.84888000  0.35733000  1.0 0.1298792539
H  H68  1  0.73975000  0.34888000  0.14267000  1.0 0.1298792539
H  H69  1  0.22410000  0.64142000  0.46165000  1.0 0.1487778594
H  H70  1  0.77590000  0.14142000  0.03835000  1.0 0.1487778594
H  H71  1  0.10843000  0.63849000  0.38212000  1.0 0.0906641479
H  H72  1  0.89157000  0.13849000  0.11788000  1.0 0.0906641479
H  H73  1  0.46082000  0.97248000  0.41956000  1.0 0.1298792539
H  H74  1  0.53918000  0.47248000  0.08044000  1.0 0.1298792539
H  H75  1  0.50473000  0.94307000  0.34724000  1.0 0.1209120065
H  H76  1  0.49527000  0.44307000  0.15276000  1.0 0.1209120065
H  H77  1  0.42318000  0.68228000  0.31132000  1.0 0.1209120065
H  H78  1  0.57682000  0.18228000  0.18868000  1.0 0.1209120065
H  H79  1  0.38229000  0.70379000  0.38883000  1.0 0.1209120065
H  H80  1  0.61771000  0.20379000  0.11117000  1.0 0.1209120065
H  H81  1  0.96131000  0.77119000  0.10421000  1.0 0.0998547036
H  H82  1  0.03869000  0.27119000  0.39579000  1.0 0.0998547036
H  H83  1  0.99545000  0.78000000  0.02388000  1.0 0.1298792539
H  H84  1  0.00455000  0.28000000  0.47612000  1.0 0.1298792539
H  H85  1  0.16707000  0.62055000  0.14298000  1.0 0.1298792539
H  H86  1  0.83293000  0.12055000  0.35702000  1.0 0.1298792539
H  H87  1  0.12277000  0.61694000  0.21736000  1.0 0.1209120065
H  H88  1  0.87723000  0.11694000  0.28264000  1.0 0.1209120065
H  H89  1  0.23716000  0.79904000  0.10527000  1.0 0.1209120065
H  H90  1  0.76284000  0.29904000  0.39473000  1.0 0.1209120065
H  H91  1  0.34686000  0.85023000  0.17744000  1.0 0.1209120065
H  H92  1  0.65314000  0.35023000  0.32256000  1.0 0.1209120065
H  H93  1  0.43166000  0.61287000  0.15808000  1.0 0.1298792539
H  H94  1  0.56834000  0.11287000  0.34192000  1.0 0.1298792539
H  H95  1  0.32485000  0.55299000  0.08161000  1.0 0.1298792539
H  H96  1  0.67515000  0.05299000  0.41839000  1.0 0.1298792539
H  H97  1  0.61300000  0.66666667  0.22645000  1.0 0.1209120065
H  H98  1  0.38700000  0.16667000  0.27355000  1.0 0.1209120065
H  H99  1  0.65408000  0.64174000  0.14970000  1.0 0.1209120065
H  H100  1  0.34592000  0.14174000  0.35030000  1.0 0.1209120065
H  H101  1  0.50884000  0.83583000  0.03251000  1.0 0.14027459
H  H102  1  0.49116000  0.33583000  0.46749000  1.0 0.14027459
H  H103  1  0.47633000  0.85660000  0.11207000  1.0 0.1091265708
H  H104  1  0.52367000  0.35660000  0.38793000  1.0 0.1091265708
H  H105  1  0.74468000  0.78884000  0.10559000  1.0 0.14027459
H  H106  1  0.25532000  0.28884000  0.39441000  1.0 0.14027459
H  H107  1  0.86096000  0.81887000  0.17405000  1.0 0.1209120065
H  H108  1  0.13904000  0.31887000  0.32595000  1.0 0.1209120065
H  H109  1  0.91103000  0.55188000  0.15940000  1.0 0.1091265708
H  H110  1  0.08897000  0.05188000  0.34060000  1.0 0.1091265708
H  H111  1  0.79793000  0.51164000  0.08759000  1.0 0.1298792539
H  H112  1  0.20207000  0.01164000  0.41241000  1.0 0.1298792539
H  H113  1  0.61092000  0.72755000  0.39021000  1.0 0.0998547036
H  H114  1  0.38908000  0.22755000  0.10979000  1.0 0.0998547036
H  H115  1  0.72942000  0.73343000  0.46573000  1.0 0.1298792539
H  H116  1  0.27058000  0.23343000  0.03427000  1.0 0.1298792539
H  H117  1  0.75419000  0.92951000  0.34815000  1.0 0.1209120065
H  H118  1  0.24581000  0.42951000  0.15185000  1.0 0.1209120065
H  H119  1  0.63727000  0.91418000  0.27614000  1.0 0.1298792539
H  H120  1  0.36273000  0.41418000  0.22386000  1.0 0.1298792539
H  H121  1  0.99115000  0.96473000  0.40103000  1.0 0.1298792539
H  H122  1  0.00885000  0.46473000  0.09897000  1.0 0.1298792539
H  H123  1  0.03086000  0.89266000  0.33659000  1.0 0.1091265708
H  H124  1  0.96914000  0.39266000  0.16341000  1.0 0.1091265708
H  H125  1  0.91293000  0.66315000  0.31669000  1.0 0.0906641479
H  H126  1  0.08707000  0.16315000  0.18331000  1.0 0.0906641479
H  H127  1  0.87251000  0.73092000  0.38413000  1.0 0.1298792539
H  H128  1  0.12749000  0.23092000  0.11587000  1.0 0.1298792539
W  W1  1  0.99544000  0.02527000  0.81196000  1.0 0.9911728931
W  W2  1  0.00456000  0.52527000  0.68804000  1.0 0.9785418741
W  W3  1  0.43459000  0.46703000  0.68491000  1.0 0.8598990572
W  W4  1  0.56541000  0.96703000  0.81509000  1.0 0.8598990572
W  W5  1  0.45800000  0.46893000  0.67528000  1.0 0.8818781507
W  W6  1  0.54200000  0.96893000  0.82472000  1.0 0.8818781507
W  W7  1  0.00456000  0.97473000  0.18804000  1.0 0.9785418741
W  W8  1  0.99544000  0.47473000  0.31196000  1.0 0.9911728931
W  W9  1  0.56541000  0.53297000  0.31509000  1.0 0.8598990572
W  W10  1  0.43459000  0.03297000  0.18491000  1.0 0.8598990572
W  W11  1  0.54200000  0.53107000  0.32472000  1.0 0.8818781507
W  W12  1  0.45800000  0.03107000  0.17528000  1.0 0.8818781507
C  C1  1  0.83870000  0.20360000  0.68410000  1.0 0.0725446885
C  C2  1  0.16130000  0.70360000  0.81590000  1.0 0.0725446885
C  C3  1  0.76920000  0.19580000  0.63710000  1.0 -0.200535801
C  C4  1  0.23080000  0.69580000  0.86290000  1.0 -0.200535801
C  C5  1  0.74290000  0.25460000  0.58130000  1.0 0.0998547036
C  C6  1  0.25710000  0.75460000  0.91870000  1.0 0.0998547036
C  C7  1  0.79090000  0.31810000  0.57510000  1.0 -0.200535801
C  C8  1  0.20910000  0.81810000  0.92490000  1.0 -0.200535801
C  C9  1  0.86030000  0.32020000  0.62340000  1.0 0.0821621947
C  C10  1  0.13970000  0.82020000  0.87660000  1.0 0.0821621947
C  C11  1  0.58160000  0.16020000  0.58820000  1.0 0.0725446885
C  C12  1  0.41840000  0.66020000  0.91180000  1.0 0.0725446885
C  C13  1  0.54610000  0.08770000  0.60120000  1.0 -0.2102783402
C  C14  1  0.45390000  0.58770000  0.89880000  1.0 -0.2102783402
C  C15  1  0.52090000  0.10570000  0.64540000  1.0 0.0821621947
C  C16  1  0.47910000  0.60570000  0.85460000  1.0 0.0821621947
C  C17  1  0.56790000  0.25890000  0.66600000  1.0 0.1209120065
C  C18  1  0.43210000  0.75890000  0.83400000  1.0 0.1209120065
C  C19  1  0.59350000  0.24660000  0.61970000  1.0 -0.200535801
C  C20  1  0.40650000  0.74660000  0.88030000  1.0 -0.200535801
C  C21  1  0.99720000  0.26030000  0.88840000  1.0 0.0426777923
C  C22  1  0.00280000  0.76030000  0.61160000  1.0 0.0426777923
C  C23  1  0.97740000  0.25340000  0.93690000  1.0 -0.2102783402
C  C24  1  0.02260000  0.75340000  0.56310000  1.0 -0.2102783402
C  C25  1  0.91480000  0.29860000  0.92490000  1.0 0.1091265708
C  C26  1  0.08520000  0.79860000  0.57510000  1.0 0.0998547036
C  C27  1  0.87520000  0.34870000  0.86620000  1.0 -0.2205881751
C  C28  1  0.12480000  0.84870000  0.63380000  1.0 -0.2205881751
C  C29  1  0.90290000  0.34990000  0.82230000  1.0 0.0821621947
C  C30  1  0.09710000  0.84990000  0.67770000  1.0 0.0821621947
C  C31  1  0.73230000  0.33120000  0.91440000  1.0 0.0821621947
C  C32  1  0.26770000  0.83120000  0.58560000  1.0 0.0821621947
C  C33  1  0.72400000  0.24060000  0.88500000  1.0 -0.2102783402
C  C34  1  0.27600000  0.74060000  0.61500000  1.0 -0.2102783402
C  C35  1  0.65780000  0.21080000  0.84170000  1.0 0.0998547036
C  C36  1  0.34220000  0.71080000  0.65830000  1.0 0.0998547036
C  C37  1  0.60840000  0.34910000  0.85350000  1.0 0.0906641479
C  C38  1  0.39160000  0.84910000  0.64650000  1.0 0.0906641479
C  C39  1  0.67220000  0.38670000  0.89880000  1.0 -0.2205881751
C  C40  1  0.32780000  0.88670000  0.60120000  1.0 -0.2205881751
C  C41  1  0.40760000  0.29880000  0.81310000  1.0 0.1209120065
C  C42  1  0.59240000  0.79880000  0.68690000  1.0 0.1298792539
C  C43  1  0.38300000  0.31540000  0.85920000  1.0 -0.2205881751
C  C44  1  0.61700000  0.81540000  0.64080000  1.0 -0.2205881751
C  C45  1  0.41610000  0.26550000  0.91870000  1.0 0.0821621947
C  C46  1  0.58390000  0.76550000  0.58130000  1.0 0.0821621947
C  C47  1  0.46910000  0.19960000  0.92840000  1.0 -0.200535801
C  C48  1  0.53090000  0.69960000  0.57160000  1.0 -0.200535801
C  C49  1  0.48800000  0.18780000  0.88090000  1.0 0.0906641479
C  C50  1  0.51200000  0.68780000  0.61910000  1.0 0.0906641479
C  C51  1  0.24270000  0.35540000  0.90980000  1.0 0.1091265708
C  C52  1  0.75730000  0.85540000  0.59020000  1.0 0.1091265708
C  C53  1  0.22210000  0.26060000  0.88380000  1.0 -0.2102783402
C  C54  1  0.77790000  0.76060000  0.61620000  1.0 -0.2102783402
C  C55  1  0.15250000  0.24350000  0.84300000  1.0 0.0906641479
C  C56  1  0.84750000  0.74350000  0.65700000  1.0 0.0906641479
C  C57  1  0.12360000  0.40040000  0.85240000  1.0 0.0567618702
C  C58  1  0.87640000  0.90040000  0.64760000  1.0 0.0567618702
C  C59  1  0.19090000  0.42610000  0.89450000  1.0 -0.200535801
C  C60  1  0.80910000  0.92610000  0.60550000  1.0 -0.200535801
C  C61  1  0.35890000  0.23340000  0.61860000  1.0 0.0821621947
C  C62  1  0.64110000  0.73340000  0.88140000  1.0 0.0821621947
C  C63  1  0.28820000  0.22980000  0.57290000  1.0 -0.2102783402
C  C64  1  0.71180000  0.72980000  0.92710000  1.0 -0.2102783402
C  C65  1  0.24370000  0.16900000  0.58630000  1.0 0.0821621947
C  C66  1  0.75630000  0.66900000  0.91370000  1.0 0.0821621947
C  C67  1  0.27340000  0.11400000  0.64270000  1.0 -0.2205881751
C  C68  1  0.72660000  0.61400000  0.85730000  1.0 -0.2205881751
C  C69  1  0.34380000  0.12340000  0.68560000  1.0 0.1091265708
C  C70  1  0.65620000  0.62340000  0.81440000  1.0 0.1091265708
C  C71  1  0.07550000  0.14260000  0.60230000  1.0 0.0998547036
C  C72  1  0.92450000  0.64260000  0.89770000  1.0 0.0998547036
C  C73  1  0.02560000  0.09670000  0.61640000  1.0 -0.200535801
C  C74  1  0.97440000  0.59670000  0.88360000  1.0 -0.200535801
C  C75  1  0.00180000  0.13970000  0.65430000  1.0 0.0502119659
C  C76  1  0.99820000  0.63970000  0.84570000  1.0 0.0567618702
C  C77  1  0.07090000  0.27530000  0.66580000  1.0 0.0906641479
C  C78  1  0.92910000  0.77530000  0.83420000  1.0 0.0821621947
C  C79  1  0.09650000  0.23460000  0.62620000  1.0 -0.200535801
C  C80  1  0.90350000  0.73460000  0.87380000  1.0 -0.200535801
C  C81  1  0.16130000  0.79640000  0.31590000  1.0 0.0725446885
C  C82  1  0.83870000  0.29640000  0.18410000  1.0 0.0725446885
C  C83  1  0.23080000  0.80420000  0.36290000  1.0 -0.200535801
C  C84  1  0.76920000  0.30420000  0.13710000  1.0 -0.200535801
C  C85  1  0.25710000  0.74540000  0.41870000  1.0 0.0998547036
C  C86  1  0.74290000  0.24540000  0.08130000  1.0 0.0998547036
C  C87  1  0.20910000  0.68190000  0.42490000  1.0 -0.200535801
C  C88  1  0.79090000  0.18190000  0.07510000  1.0 -0.200535801
C  C89  1  0.13970000  0.67980000  0.37660000  1.0 0.0821621947
C  C90  1  0.86030000  0.17980000  0.12340000  1.0 0.0821621947
C  C91  1  0.41840000  0.83980000  0.41180000  1.0 0.0725446885
C  C92  1  0.58160000  0.33980000  0.08820000  1.0 0.0725446885
C  C93  1  0.45390000  0.91230000  0.39880000  1.0 -0.2102783402
C  C94  1  0.54610000  0.41230000  0.10120000  1.0 -0.2102783402
C  C95  1  0.47910000  0.89430000  0.35460000  1.0 0.0821621947
C  C96  1  0.52090000  0.39430000  0.14540000  1.0 0.0821621947
C  C97  1  0.43210000  0.74110000  0.33400000  1.0 0.1209120065
C  C98  1  0.56790000  0.24110000  0.16600000  1.0 0.1209120065
C  C99  1  0.40650000  0.75340000  0.38030000  1.0 -0.200535801
C  C100  1  0.59350000  0.25340000  0.11970000  1.0 -0.200535801
C  C101  1  0.00280000  0.73970000  0.11160000  1.0 0.0426777923
C  C102  1  0.99720000  0.23970000  0.38840000  1.0 0.0426777923
C  C103  1  0.02260000  0.74660000  0.06310000  1.0 -0.2102783402
C  C104  1  0.97740000  0.24660000  0.43690000  1.0 -0.2102783402
C  C105  1  0.08520000  0.70140000  0.07510000  1.0 0.1091265708
C  C106  1  0.91480000  0.20140000  0.42490000  1.0 0.0998547036
C  C107  1  0.12480000  0.65130000  0.13380000  1.0 -0.2205881751
C  C108  1  0.87520000  0.15130000  0.36620000  1.0 -0.2205881751
C  C109  1  0.09710000  0.65010000  0.17770000  1.0 0.0821621947
C  C110  1  0.90290000  0.15010000  0.32230000  1.0 0.0821621947
C  C111  1  0.26770000  0.66880000  0.08560000  1.0 0.0821621947
C  C112  1  0.73230000  0.16880000  0.41440000  1.0 0.0821621947
C  C113  1  0.27600000  0.75940000  0.11500000  1.0 -0.2102783402
C  C114  1  0.72400000  0.25940000  0.38500000  1.0 -0.2102783402
C  C115  1  0.34220000  0.78920000  0.15830000  1.0 0.0998547036
C  C116  1  0.65780000  0.28920000  0.34170000  1.0 0.0998547036
C  C117  1  0.39160000  0.65090000  0.14650000  1.0 0.0906641479
C  C118  1  0.60840000  0.15090000  0.35350000  1.0 0.0906641479
C  C119  1  0.32780000  0.61330000  0.10120000  1.0 -0.2205881751
C  C120  1  0.67220000  0.11330000  0.39880000  1.0 -0.2205881751
C  C121  1  0.59240000  0.70120000  0.18690000  1.0 0.1298792539
C  C122  1  0.40760000  0.20120000  0.31310000  1.0 0.1209120065
C  C123  1  0.61700000  0.68460000  0.14080000  1.0 -0.2205881751
C  C124  1  0.38300000  0.18460000  0.35920000  1.0 -0.2205881751
C  C125  1  0.58390000  0.73450000  0.08130000  1.0 0.0821621947
C  C126  1  0.41610000  0.23450000  0.41870000  1.0 0.0821621947
C  C127  1  0.53090000  0.80040000  0.07160000  1.0 -0.200535801
C  C128  1  0.46910000  0.30040000  0.42840000  1.0 -0.200535801
C  C129  1  0.51200000  0.81220000  0.11910000  1.0 0.0906641479
C  C130  1  0.48800000  0.31220000  0.38090000  1.0 0.0906641479
C  C131  1  0.75730000  0.64460000  0.09020000  1.0 0.1091265708
C  C132  1  0.24270000  0.14460000  0.40980000  1.0 0.1091265708
C  C133  1  0.77790000  0.73940000  0.11620000  1.0 -0.2102783402
C  C134  1  0.22210000  0.23940000  0.38380000  1.0 -0.2102783402
C  C135  1  0.84750000  0.75650000  0.15700000  1.0 0.0906641479
C  C136  1  0.15250000  0.25650000  0.34300000  1.0 0.0906641479
C  C137  1  0.87640000  0.59960000  0.14760000  1.0 0.0567618702
C  C138  1  0.12360000  0.09960000  0.35240000  1.0 0.0567618702
C  C139  1  0.80910000  0.57390000  0.10550000  1.0 -0.200535801
C  C140  1  0.19090000  0.07390000  0.39450000  1.0 -0.200535801
C  C141  1  0.64110000  0.76660000  0.38140000  1.0 0.0821621947
C  C142  1  0.35890000  0.26660000  0.11860000  1.0 0.0821621947
C  C143  1  0.71180000  0.77020000  0.42710000  1.0 -0.2102783402
C  C144  1  0.28820000  0.27020000  0.07290000  1.0 -0.2102783402
C  C145  1  0.75630000  0.83100000  0.41370000  1.0 0.0821621947
C  C146  1  0.24370000  0.33100000  0.08630000  1.0 0.0906641479
C  C147  1  0.72660000  0.88600000  0.35730000  1.0 -0.2205881751
C  C148  1  0.27340000  0.38600000  0.14270000  1.0 -0.2205881751
C  C149  1  0.65620000  0.87660000  0.31440000  1.0 0.1091265708
C  C150  1  0.34380000  0.37660000  0.18560000  1.0 0.1091265708
C  C151  1  0.92450000  0.85740000  0.39770000  1.0 0.0998547036
C  C152  1  0.07550000  0.35740000  0.10230000  1.0 0.0998547036
C  C153  1  0.97440000  0.90330000  0.38360000  1.0 -0.200535801
C  C154  1  0.02560000  0.40330000  0.11640000  1.0 -0.200535801
C  C155  1  0.99820000  0.86030000  0.34570000  1.0 0.0502119659
C  C156  1  0.00180000  0.36030000  0.15430000  1.0 0.0502119659
C  C157  1  0.92910000  0.72470000  0.33420000  1.0 0.0821621947
C  C158  1  0.07090000  0.22470000  0.16580000  1.0 0.0821621947
C  C159  1  0.90350000  0.76540000  0.37380000  1.0 -0.200535801
C  C160  1  0.09650000  0.26540000  0.12620000  1.0 -0.200535801
S  S1  1  0.65461000  0.25999000  0.51899000  1.0 0.0426777923
S  S2  1  0.34539000  0.75999000  0.98101000  1.0 0.0426777923
S  S3  1  0.61134000  0.13525000  0.52925000  1.0 -0.002919206
S  S4  1  0.38866000  0.63525000  0.97075000  1.0 -0.002919206
S  S5  1  0.88810000  0.27910000  0.98696000  1.0 0.0115076109
S  S6  1  0.11190000  0.77910000  0.51304000  1.0 0.0115076109
S  S7  1  0.81409000  0.38245000  0.97082000  1.0 -0.0075455134
S  S8  1  0.18591000  0.88245000  0.52918000  1.0 -0.0075455134
S  S9  1  0.39133000  0.27212000  0.98277000  1.0 0.0502119659
S  S10  1  0.60867000  0.77212000  0.51723000  1.0 0.0502119659
S  S11  1  0.33186000  0.39340000  0.96161000  1.0 -0.002919206
S  S12  1  0.66814000  0.89340000  0.53839000  1.0 -0.002919206
S  S13  1  0.15416000  0.17170000  0.52455000  1.0 0.0013957724
S  S14  1  0.84584000  0.67170000  0.97545000  1.0 0.0013957724
S  S15  1  0.10376000  0.07430000  0.55355000  1.0 -0.0075455134
S  S16  1  0.89624000  0.57430000  0.94645000  1.0 -0.0075455134
S  S17  1  0.34539000  0.74001000  0.48101000  1.0 0.0426777923
S  S18  1  0.65461000  0.24001000  0.01899000  1.0 0.0426777923
S  S19  1  0.38866000  0.86475000  0.47075000  1.0 -0.002919206
S  S20  1  0.61134000  0.36475000  0.02925000  1.0 -0.002919206
S  S21  1  0.11190000  0.72090000  0.01304000  1.0 0.0115076109
S  S22  1  0.88810000  0.22090000  0.48696000  1.0 0.0115076109
S  S23  1  0.18591000  0.61755000  0.02918000  1.0 -0.0075455134
S  S24  1  0.81409000  0.11755000  0.47082000  1.0 -0.0075455134
S  S25  1  0.60867000  0.72788000  0.01723000  1.0 0.0502119659
S  S26  1  0.39133000  0.22788000  0.48277000  1.0 0.0502119659
S  S27  1  0.66814000  0.60660000  0.03839000  1.0 -0.002919206
S  S28  1  0.33186000  0.10660000  0.46161000  1.0 -0.002919206
S  S29  1  0.84584000  0.82830000  0.47545000  1.0 0.0013957724
S  S30  1  0.15416000  0.32830000  0.02455000  1.0 0.0013957724
S  S31  1  0.89624000  0.92570000  0.44645000  1.0 -0.002919206
S  S32  1  0.10376000  0.42570000  0.05355000  1.0 -0.002919206
N  N1  1  0.88470000  0.26530000  0.67830000  1.0 -0.2308742503
N  N2  1  0.11530000  0.76530000  0.82170000  1.0 -0.2308742503
N  N3  1  0.53140000  0.19100000  0.67930000  1.0 -0.2511592302
N  N4  1  0.46860000  0.69100000  0.82070000  1.0 -0.2511592302
N  N5  1  0.96250000  0.30820000  0.83130000  1.0 -0.2308742503
N  N6  1  0.03750000  0.80820000  0.66870000  1.0 -0.2308742503
N  N7  1  0.59940000  0.26190000  0.82470000  1.0 -0.2308742503
N  N8  1  0.40060000  0.76190000  0.67530000  1.0 -0.2308742503
N  N9  1  0.45780000  0.23750000  0.82280000  1.0 -0.2205881751
N  N10  1  0.54220000  0.73750000  0.67720000  1.0 -0.2308742503
N  N11  1  0.10280000  0.31120000  0.82620000  1.0 -0.2308742503
N  N12  1  0.89720000  0.81120000  0.67380000  1.0 -0.2308742503
N  N13  1  0.38590000  0.18210000  0.67590000  1.0 -0.2381714097
N  N14  1  0.61410000  0.68210000  0.82410000  1.0 -0.2381714097
N  N15  1  0.02460000  0.23190000  0.68050000  1.0 -0.2381714097
N  N16  1  0.97540000  0.73190000  0.81950000  1.0 -0.2381714097
N  N17  1  0.11530000  0.73470000  0.32170000  1.0 -0.2308742503
N  N18  1  0.88470000  0.23470000  0.17830000  1.0 -0.2308742503
N  N19  1  0.46860000  0.80900000  0.32070000  1.0 -0.2511592302
N  N20  1  0.53140000  0.30900000  0.17930000  1.0 -0.2511592302
N  N21  1  0.03750000  0.69180000  0.16870000  1.0 -0.2308742503
N  N22  1  0.96250000  0.19180000  0.33130000  1.0 -0.2308742503
N  N23  1  0.40060000  0.73810000  0.17530000  1.0 -0.2308742503
N  N24  1  0.59940000  0.23810000  0.32470000  1.0 -0.2308742503
N  N25  1  0.54220000  0.76250000  0.17720000  1.0 -0.2308742503
N  N26  1  0.45780000  0.26250000  0.32280000  1.0 -0.2205881751
N  N27  1  0.89720000  0.68880000  0.17380000  1.0 -0.2308742503
N  N28  1  0.10280000  0.18880000  0.32620000  1.0 -0.2308742503
N  N29  1  0.61410000  0.81790000  0.32410000  1.0 -0.2381714097
N  N30  1  0.38590000  0.31790000  0.17590000  1.0 -0.2381714097
N  N31  1  0.97540000  0.76810000  0.31950000  1.0 -0.2381714097
N  N32  1  0.02460000  0.26810000  0.18050000  1.0 -0.2381714097
O  O1  1  0.01270000  0.92770000  0.77000000  1.0 -0.7989720869
O  O2  1  0.98730000  0.42770000  0.73000000  1.0 -0.7989720869
O  O3  1  0.00340000  0.13940000  0.78050000  1.0 -0.7815932947
O  O4  1  0.99660000  0.63940000  0.71950000  1.0 -0.7815932947
O  O5  1  0.48730000  0.56830000  0.72490000  1.0 -0.6128977108
O  O6  1  0.51270000  0.06830000  0.77510000  1.0 -0.6128977108
O  O7  1  0.35460000  0.47320000  0.69110000  1.0 -0.4001087862
O  O8  1  0.64540000  0.97320000  0.80890000  1.0 -0.4001087862
O  O9  1  0.47770000  0.35630000  0.72310000  1.0 -0.6528782415
O  O10  1  0.52230000  0.85630000  0.77690000  1.0 -0.6528782415
O  O11  1  0.41490000  0.46600000  0.60140000  1.0 -0.2102783402
O  O12  1  0.58510000  0.96600000  0.89860000  1.0 -0.2102783402
O  O13  1  0.48900000  0.58050000  0.71690000  1.0 -0.6912711131
O  O14  1  0.51100000  0.08050000  0.78310000  1.0 -0.6912711131
O  O15  1  0.36380000  0.47760000  0.62770000  1.0 -0.2308742503
O  O16  1  0.63620000  0.97760000  0.87230000  1.0 -0.2308742503
O  O17  1  0.47900000  0.37200000  0.73220000  1.0 -0.5861759352
O  O18  1  0.52100000  0.87200000  0.76780000  1.0 -0.5861759352
O  O19  1  0.49030000  0.45560000  0.61690000  1.0 -0.4001087862
O  O20  1  0.50970000  0.95560000  0.88310000  1.0 -0.4001087862
O  O21  1  0.98730000  0.07230000  0.23000000  1.0 -0.7989720869
O  O22  1  0.01270000  0.57230000  0.27000000  1.0 -0.7989720869
O  O23  1  0.99660000  0.86060000  0.21950000  1.0 -0.7815932947
O  O24  1  0.00340000  0.36060000  0.28050000  1.0 -0.7815932947
O  O25  1  0.51270000  0.43170000  0.27510000  1.0 -0.6128977108
O  O26  1  0.48730000  0.93170000  0.22490000  1.0 -0.6128977108
O  O27  1  0.64540000  0.52680000  0.30890000  1.0 -0.4001087862
O  O28  1  0.35460000  0.02680000  0.19110000  1.0 -0.4001087862
O  O29  1  0.52230000  0.64370000  0.27690000  1.0 -0.6528782415
O  O30  1  0.47770000  0.14370000  0.22310000  1.0 -0.6528782415
O  O31  1  0.58510000  0.53400000  0.39860000  1.0 -0.2102783402
O  O32  1  0.41490000  0.03400000  0.10140000  1.0 -0.2102783402
O  O33  1  0.51100000  0.41950000  0.28310000  1.0 -0.6912711131
O  O34  1  0.48900000  0.91950000  0.21690000  1.0 -0.6912711131
O  O35  1  0.63620000  0.52240000  0.37230000  1.0 -0.2308742503
O  O36  1  0.36380000  0.02240000  0.12770000  1.0 -0.2308742503
O  O37  1  0.52100000  0.62800000  0.26780000  1.0 -0.5861759352
O  O38  1  0.47900000  0.12800000  0.23220000  1.0 -0.5861759352
O  O39  1  0.50970000  0.54440000  0.38310000  1.0 -0.4001087862
O  O40  1  0.49030000  0.04440000  0.11690000  1.0 -0.4001087862
