# DDEC6 charges by PACMAN v1.1 (https://github.com/mtap-research/PACMAN-charge/)
data_FIHHOV_ASR_pacman
_symmetry_space_group_name_H-M   'P 1'
_cell_length_a   21.53460000
_cell_length_b   21.53460000
_cell_length_c   21.53460000
_cell_angle_alpha   93.19510000
_cell_angle_beta   93.19510000
_cell_angle_gamma   152.68900000
_symmetry_Int_Tables_number   1
_chemical_formula_structural   Zn3B4H6C98N12(O3F2)4
_chemical_formula_sum   'Zn6 B8 H12 C196 N24 O24 F16'
_cell_volume   4452.45396188
_cell_formula_units_Z   2
loop_
 _symmetry_equiv_pos_site_id
 _symmetry_equiv_pos_as_xyz
  1  'x, y, z'
loop_
 _atom_site_type_symbol
 _atom_site_label
 _atom_site_symmetry_multiplicity
 _atom_site_fract_x
 _atom_site_fract_y
 _atom_site_fract_z
 _atom_site_occupancy
 _atom_site_charge
Zn  Zn1  1  0.14489000  0.14489000  0.00000000  1.0 0.9584008836
Zn  Zn2  1  0.85511000  0.85511000  0.00000000  1.0 0.9584008836
Zn  Zn3  1  0.67847000  0.67839000  0.35686000  1.0 0.7400244706
Zn  Zn4  1  0.32153000  0.32161000  0.64314000  1.0 0.7400244706
Zn  Zn5  1  0.32161000  0.67847000  0.00008000  1.0 0.7400244706
Zn  Zn6  1  0.67839000  0.32153000  0.99992000  1.0 0.7400244706
B  B1  1  0.83940000  0.14270000  0.69670000  1.0 0.7067049228
B  B2  1  0.44600000  0.14270000  0.30330000  1.0 0.7046130233
B  B3  1  0.14270000  0.83940000  0.69670000  1.0 0.7067049228
B  B4  1  0.14270000  0.44600000  0.30330000  1.0 0.7046130233
B  B5  1  0.16060000  0.85730000  0.30330000  1.0 0.7067049228
B  B6  1  0.55400000  0.85730000  0.69670000  1.0 0.7046130233
B  B7  1  0.85730000  0.16060000  0.30330000  1.0 0.7046130233
B  B8  1  0.85730000  0.55400000  0.69670000  1.0 0.7067049228
H  H1  1  0.18500000  0.18550000  0.37050000  1.0 0.1474540375
H  H2  1  0.81500000  0.81450000  0.62950000  1.0 0.1474540375
H  H3  1  0.81450000  0.18500000  0.99950000  1.0 0.1474540375
H  H4  1  0.18550000  0.81500000  0.00050000  1.0 0.1474540375
H  H5  1  0.29970000  0.30080000  0.20670000  1.0 0.1474540375
H  H6  1  0.09410000  0.09300000  0.79330000  1.0 0.1474540375
H  H7  1  0.09300000  0.29970000  0.99890000  1.0 0.1474540375
H  H8  1  0.30080000  0.09410000  0.00110000  1.0 0.1474540375
H  H9  1  0.70030000  0.69920000  0.79330000  1.0 0.1474540375
H  H10  1  0.90590000  0.90700000  0.20670000  1.0 0.1474540375
H  H11  1  0.90700000  0.70030000  0.00110000  1.0 0.1474540375
H  H12  1  0.69920000  0.90590000  0.99890000  1.0 0.1474540375
C  C1  1  0.16296000  0.16312000  0.32608000  1.0 -0.0877666863
C  C2  1  0.83704000  0.83688000  0.67392000  1.0 -0.0877666863
C  C3  1  0.83688000  0.16296000  0.99984000  1.0 -0.0877666863
C  C4  1  0.16312000  0.83704000  0.00016000  1.0 -0.0877666863
C  C5  1  0.26364000  0.26359000  0.29403000  1.0 -0.0116968614
C  C6  1  0.96956000  0.96961000  0.70597000  1.0 -0.0116968614
C  C7  1  0.96961000  0.26364000  0.00005000  1.0 -0.0116968614
C  C8  1  0.26359000  0.96956000  0.99995000  1.0 -0.0116968614
C  C9  1  0.73636000  0.73641000  0.70597000  1.0 -0.0116968614
C  C10  1  0.03044000  0.03039000  0.29403000  1.0 -0.0116968614
C  C11  1  0.03039000  0.73636000  0.99995000  1.0 -0.0116968614
C  C12  1  0.73641000  0.03044000  0.00005000  1.0 -0.0116968614
C  C13  1  0.23143000  0.23179000  0.22862000  1.0 -0.0877666863
C  C14  1  0.00317000  0.00281000  0.77138000  1.0 -0.0877666863
C  C15  1  0.00281000  0.23143000  0.99964000  1.0 -0.0877666863
C  C16  1  0.23179000  0.00317000  0.00036000  1.0 -0.0877666863
C  C17  1  0.76857000  0.76821000  0.77138000  1.0 -0.0877666863
C  C18  1  0.99683000  0.99719000  0.22862000  1.0 -0.0877666863
C  C19  1  0.99719000  0.76857000  0.00036000  1.0 -0.0877666863
C  C20  1  0.76821000  0.99683000  0.99964000  1.0 -0.0877666863
C  C21  1  0.09763000  0.09735000  0.19498000  1.0 -0.0179402133
C  C22  1  0.90237000  0.90265000  0.80502000  1.0 -0.0179402133
C  C23  1  0.90265000  0.09763000  0.00028000  1.0 -0.0179402133
C  C24  1  0.09735000  0.90237000  0.99972000  1.0 -0.0273948651
C  C25  1  0.06072000  0.06116000  0.12188000  1.0 0.6107840024
C  C26  1  0.93928000  0.93884000  0.87812000  1.0 0.6107840024
C  C27  1  0.93884000  0.06072000  0.99956000  1.0 0.6107840024
C  C28  1  0.06116000  0.93928000  0.00044000  1.0 0.6107840024
C  C29  1  0.41071000  0.41069000  0.33180000  1.0 0.5713221289
C  C30  1  0.07889000  0.07891000  0.66820000  1.0 0.5713221289
C  C31  1  0.07891000  0.41071000  0.00002000  1.0 0.5713221289
C  C32  1  0.41069000  0.07889000  0.99998000  1.0 0.5713221289
C  C33  1  0.58929000  0.58931000  0.66820000  1.0 0.5713221289
C  C34  1  0.92111000  0.92109000  0.33180000  1.0 0.5713221289
C  C35  1  0.92109000  0.58929000  0.99998000  1.0 0.5713221289
C  C36  1  0.58931000  0.92111000  0.00002000  1.0 0.5713221289
C  C37  1  0.58070000  0.70910000  0.39760000  1.0 0.0603217696
C  C38  1  0.31150000  0.18310000  0.60240000  1.0 0.0603217696
C  C39  1  0.18310000  0.58070000  0.87160000  1.0 0.0603217696
C  C40  1  0.70910000  0.31150000  0.12840000  1.0 0.0603217696
C  C41  1  0.41930000  0.29090000  0.60240000  1.0 0.0603217696
C  C42  1  0.68850000  0.81690000  0.39760000  1.0 0.0603217696
C  C43  1  0.81690000  0.41930000  0.12840000  1.0 0.0603217696
C  C44  1  0.29090000  0.68850000  0.87160000  1.0 0.0603217696
C  C45  1  0.56170000  0.74390000  0.43920000  1.0 -0.0179402133
C  C46  1  0.30470000  0.12250000  0.56080000  1.0 -0.0116968614
C  C47  1  0.12250000  0.56170000  0.81780000  1.0 -0.0179402133
C  C48  1  0.74390000  0.30470000  0.18220000  1.0 -0.0116968614
C  C49  1  0.43830000  0.25610000  0.56080000  1.0 -0.0116968614
C  C50  1  0.69530000  0.87750000  0.43920000  1.0 -0.0179402133
C  C51  1  0.87750000  0.43830000  0.18220000  1.0 -0.0179402133
C  C52  1  0.25610000  0.69530000  0.81780000  1.0 -0.0116968614
C  C53  1  0.66080000  0.83840000  0.49920000  1.0 -0.0116968614
C  C54  1  0.33920000  0.16160000  0.50080000  1.0 -0.0116968614
C  C55  1  0.16160000  0.66080000  0.82240000  1.0 -0.0116968614
C  C56  1  0.83840000  0.33920000  0.17760000  1.0 -0.0116968614
C  C57  1  0.78600000  0.01150000  0.60530000  1.0 0.1378107088
C  C58  1  0.40620000  0.18070000  0.39470000  1.0 0.1378107088
C  C59  1  0.18070000  0.78600000  0.77450000  1.0 0.1378107088
C  C60  1  0.01150000  0.40620000  0.22550000  1.0 0.1378107088
C  C61  1  0.21400000  0.98850000  0.39470000  1.0 0.1378107088
C  C62  1  0.59380000  0.81930000  0.60530000  1.0 0.1378107088
C  C63  1  0.81930000  0.21400000  0.22550000  1.0 0.1378107088
C  C64  1  0.98850000  0.59380000  0.77450000  1.0 0.1378107088
C  C65  1  0.65630000  0.88710000  0.54340000  1.0 0.0259413371
C  C66  1  0.34370000  0.11290000  0.45660000  1.0 0.0259413371
C  C67  1  0.11290000  0.65630000  0.76920000  1.0 0.0259413371
C  C68  1  0.88710000  0.34370000  0.23080000  1.0 0.0259413371
C  C69  1  0.63440000  0.96070000  0.59510000  1.0 0.305657842
C  C70  1  0.36560000  0.03930000  0.40490000  1.0 0.2950561427
C  C71  1  0.03930000  0.63440000  0.67370000  1.0 0.2930897258
C  C72  1  0.96070000  0.36560000  0.32630000  1.0 0.2950561427
C  C73  1  0.69840000  0.09400000  0.60360000  1.0 -0.0801122227
C  C74  1  0.49040000  0.09480000  0.39640000  1.0 -0.0801122227
C  C75  1  0.09480000  0.69840000  0.60440000  1.0 -0.0801122227
C  C76  1  0.09400000  0.49040000  0.39560000  1.0 -0.0801122227
C  C77  1  0.30160000  0.90600000  0.39640000  1.0 -0.0801122227
C  C78  1  0.50960000  0.90520000  0.60360000  1.0 -0.0801122227
C  C79  1  0.90520000  0.30160000  0.39560000  1.0 -0.0801122227
C  C80  1  0.90600000  0.50960000  0.60440000  1.0 -0.0801122227
C  C81  1  0.63450000  0.03890000  0.67340000  1.0 0.2682049208
C  C82  1  0.36550000  0.96110000  0.32660000  1.0 0.2682049208
C  C83  1  0.96110000  0.63450000  0.59560000  1.0 0.2682049208
C  C84  1  0.03890000  0.36550000  0.40440000  1.0 0.2682049208
C  C85  1  0.62260000  0.08620000  0.70880000  1.0 0.0259413371
C  C86  1  0.37740000  0.91380000  0.29120000  1.0 0.0240813008
C  C87  1  0.91380000  0.62260000  0.53640000  1.0 0.0240813008
C  C88  1  0.08620000  0.37740000  0.46360000  1.0 0.0259413371
C  C89  1  0.65650000  0.11390000  0.77040000  1.0 -0.0273948651
C  C90  1  0.34350000  0.88610000  0.22960000  1.0 -0.0273948651
C  C91  1  0.88610000  0.65650000  0.54260000  1.0 -0.0273948651
C  C92  1  0.11390000  0.34350000  0.45740000  1.0 -0.0273948651
C  C93  1  0.58240000  0.18450000  0.87090000  1.0 0.0603217696
C  C94  1  0.31360000  0.71150000  0.12910000  1.0 0.0603217696
C  C95  1  0.71150000  0.58240000  0.39790000  1.0 0.0603217696
C  C96  1  0.18450000  0.31360000  0.60210000  1.0 0.0603217696
C  C97  1  0.41760000  0.81550000  0.12910000  1.0 0.0603217696
C  C98  1  0.68640000  0.28850000  0.87090000  1.0 0.0603217696
C  C99  1  0.28850000  0.41760000  0.60210000  1.0 0.0603217696
C  C100  1  0.81550000  0.68640000  0.39790000  1.0 0.0603217696
C  C101  1  0.56020000  0.12150000  0.81750000  1.0 -0.0179402133
C  C102  1  0.30400000  0.74270000  0.18250000  1.0 -0.0179402133
C  C103  1  0.74270000  0.56020000  0.43870000  1.0 -0.0116968614
C  C104  1  0.12150000  0.30400000  0.56130000  1.0 -0.0179402133
C  C105  1  0.43980000  0.87850000  0.18250000  1.0 -0.0179402133
C  C106  1  0.69600000  0.25730000  0.81750000  1.0 -0.0116968614
C  C107  1  0.25730000  0.43980000  0.56130000  1.0 -0.0179402133
C  C108  1  0.87850000  0.69600000  0.43870000  1.0 -0.0116968614
C  C109  1  0.66080000  0.16140000  0.82220000  1.0 0.0030472473
C  C110  1  0.33920000  0.83860000  0.17780000  1.0 0.0030472473
C  C111  1  0.83860000  0.66080000  0.49940000  1.0 0.0030472473
C  C112  1  0.16140000  0.33920000  0.50060000  1.0 0.0030472473
C  C113  1  0.75550000  0.23890000  0.87480000  1.0 -0.0421671728
C  C114  1  0.36410000  0.88070000  0.12520000  1.0 -0.0421671728
C  C115  1  0.88070000  0.75550000  0.51660000  1.0 -0.0421671728
C  C116  1  0.23890000  0.36410000  0.48340000  1.0 -0.0421671728
C  C117  1  0.24450000  0.76110000  0.12520000  1.0 -0.0421671728
C  C118  1  0.63590000  0.11930000  0.87480000  1.0 -0.0421671728
C  C119  1  0.11930000  0.24450000  0.48340000  1.0 -0.0421671728
C  C120  1  0.76110000  0.63590000  0.51660000  1.0 -0.0421671728
C  C121  1  0.77730000  0.30400000  0.92710000  1.0 0.0802999026
C  C122  1  0.37690000  0.85020000  0.07290000  1.0 0.0802999026
C  C123  1  0.85020000  0.77730000  0.47330000  1.0 0.0802999026
C  C124  1  0.30400000  0.37690000  0.52670000  1.0 0.0802999026
C  C125  1  0.22270000  0.69600000  0.07290000  1.0 0.0802999026
C  C126  1  0.62310000  0.14980000  0.92710000  1.0 0.0802999026
C  C127  1  0.14980000  0.22270000  0.52670000  1.0 0.0802999026
C  C128  1  0.69600000  0.62310000  0.47330000  1.0 0.0802999026
C  C129  1  0.89790000  0.06760000  0.64190000  1.0 -0.1277897015
C  C130  1  0.42570000  0.25600000  0.35810000  1.0 -0.1277897015
C  C131  1  0.25600000  0.89790000  0.83030000  1.0 -0.1277897015
C  C132  1  0.06760000  0.42570000  0.16970000  1.0 -0.1277897015
C  C133  1  0.10210000  0.93240000  0.35810000  1.0 -0.1277897015
C  C134  1  0.57430000  0.74400000  0.64190000  1.0 -0.1277897015
C  C135  1  0.74400000  0.10210000  0.16970000  1.0 -0.1277897015
C  C136  1  0.93240000  0.57430000  0.83030000  1.0 -0.1277897015
C  C137  1  0.56530000  0.99970000  0.56500000  1.0 0.0400870947
C  C138  1  0.43470000  0.00030000  0.43500000  1.0 0.0400870947
C  C139  1  0.00030000  0.56530000  0.56560000  1.0 0.0400870947
C  C140  1  0.99970000  0.43470000  0.43440000  1.0 0.0453101739
C  C141  1  0.47190000  0.99340000  0.67970000  1.0 -0.0014328833
C  C142  1  0.31370000  0.79220000  0.32030000  1.0 -0.0014328833
C  C143  1  0.79220000  0.47190000  0.47850000  1.0 -0.0014328833
C  C144  1  0.99340000  0.31370000  0.52150000  1.0 -0.0014328833
C  C145  1  0.52810000  0.00660000  0.32030000  1.0 -0.0014328833
C  C146  1  0.68630000  0.20780000  0.67970000  1.0 -0.0014328833
C  C147  1  0.20780000  0.52810000  0.52150000  1.0 -0.0014328833
C  C148  1  0.00660000  0.68630000  0.47850000  1.0 -0.0014328833
C  C149  1  0.63660000  0.76070000  0.51610000  1.0 -0.0273948651
C  C150  1  0.24460000  0.12050000  0.48390000  1.0 -0.0273948651
C  C151  1  0.12050000  0.63660000  0.87590000  1.0 -0.0273948651
C  C152  1  0.76070000  0.24460000  0.12410000  1.0 -0.0273948651
C  C153  1  0.36340000  0.23930000  0.48390000  1.0 -0.0273948651
C  C154  1  0.75540000  0.87950000  0.51610000  1.0 -0.0273948651
C  C155  1  0.87950000  0.36340000  0.12410000  1.0 -0.0273948651
C  C156  1  0.23930000  0.75540000  0.87590000  1.0 -0.0273948651
C  C157  1  0.62480000  0.69780000  0.47320000  1.0 0.0802999026
C  C158  1  0.22460000  0.15160000  0.52680000  1.0 0.0802999026
C  C159  1  0.15160000  0.62480000  0.92700000  1.0 0.0802999026
C  C160  1  0.69780000  0.22460000  0.07300000  1.0 0.0802999026
C  C161  1  0.37520000  0.30220000  0.52680000  1.0 0.0802999026
C  C162  1  0.77540000  0.84840000  0.47320000  1.0 0.0802999026
C  C163  1  0.84840000  0.37520000  0.07300000  1.0 0.0802999026
C  C164  1  0.30220000  0.77540000  0.92700000  1.0 0.0802999026
C  C165  1  0.67620000  0.96790000  0.53630000  1.0 -0.0116968614
C  C166  1  0.43160000  0.13990000  0.46370000  1.0 -0.0116968614
C  C167  1  0.13990000  0.67620000  0.70830000  1.0 -0.0116968614
C  C168  1  0.96790000  0.43160000  0.29170000  1.0 -0.0116968614
C  C169  1  0.32380000  0.03210000  0.46370000  1.0 -0.0116968614
C  C170  1  0.56840000  0.86010000  0.53630000  1.0 -0.0116968614
C  C171  1  0.86010000  0.32380000  0.29170000  1.0 -0.0116968614
C  C172  1  0.03210000  0.56840000  0.70830000  1.0 -0.0116968614
C  C173  1  0.59410000  0.98810000  0.77480000  1.0 0.1474540375
C  C174  1  0.21330000  0.81930000  0.22520000  1.0 0.1474540375
C  C175  1  0.81930000  0.59410000  0.60600000  1.0 0.1474540375
C  C176  1  0.98810000  0.21330000  0.39400000  1.0 0.1474540375
C  C177  1  0.40590000  0.01190000  0.22520000  1.0 0.1474540375
C  C178  1  0.78670000  0.18070000  0.77480000  1.0 0.1474540375
C  C179  1  0.18070000  0.40590000  0.39400000  1.0 0.1474540375
C  C180  1  0.01190000  0.78670000  0.60600000  1.0 0.1474540375
C  C181  1  0.57370000  0.93220000  0.82950000  1.0 -0.1380861785
C  C182  1  0.10270000  0.74420000  0.17050000  1.0 -0.1380861785
C  C183  1  0.74420000  0.57370000  0.64150000  1.0 -0.1380861785
C  C184  1  0.93220000  0.10270000  0.35850000  1.0 -0.1380861785
C  C185  1  0.42630000  0.06780000  0.17050000  1.0 -0.1380861785
C  C186  1  0.89730000  0.25580000  0.82950000  1.0 -0.1380861785
C  C187  1  0.25580000  0.42630000  0.35850000  1.0 -0.1380861785
C  C188  1  0.06780000  0.89730000  0.64150000  1.0 -0.1380861785
C  C189  1  0.67760000  0.99930000  0.47750000  1.0 0.0603217696
C  C190  1  0.52180000  0.20010000  0.52250000  1.0 0.0603217696
C  C191  1  0.20010000  0.67760000  0.67830000  1.0 0.0603217696
C  C192  1  0.99930000  0.52180000  0.32170000  1.0 0.0603217696
C  C193  1  0.32240000  0.00070000  0.52250000  1.0 0.0603217696
C  C194  1  0.47820000  0.79990000  0.47750000  1.0 0.0603217696
C  C195  1  0.79990000  0.32240000  0.32170000  1.0 0.0603217696
C  C196  1  0.00070000  0.47820000  0.67830000  1.0 0.0603217696
N  N1  1  0.66859000  0.74615000  0.41474000  1.0 -0.0421671728
N  N2  1  0.33141000  0.25385000  0.58526000  1.0 -0.0421671728
N  N3  1  0.25385000  0.66859000  0.92244000  1.0 -0.0421671728
N  N4  1  0.74615000  0.33141000  0.07756000  1.0 -0.0421671728
N  N5  1  0.66841000  0.25377000  0.92218000  1.0 -0.0421671728
N  N6  1  0.33159000  0.74623000  0.07782000  1.0 -0.0459811307
N  N7  1  0.74623000  0.66841000  0.41464000  1.0 -0.0459811307
N  N8  1  0.25377000  0.33159000  0.58536000  1.0 -0.0459811307
N  N9  1  0.74630000  0.03000000  0.63590000  1.0 -0.1929904264
N  N10  1  0.39410000  0.11040000  0.36410000  1.0 -0.1973606005
N  N11  1  0.11040000  0.74630000  0.71630000  1.0 -0.1929904264
N  N12  1  0.03000000  0.39410000  0.28370000  1.0 -0.1973606005
N  N13  1  0.25370000  0.97000000  0.36410000  1.0 -0.1973606005
N  N14  1  0.60590000  0.88960000  0.63590000  1.0 -0.1973606005
N  N15  1  0.88960000  0.25370000  0.28370000  1.0 -0.1929904264
N  N16  1  0.97000000  0.60590000  0.71630000  1.0 -0.1929904264
N  N17  1  0.74850000  0.11240000  0.71650000  1.0 -0.1929904264
N  N18  1  0.39590000  0.03200000  0.28350000  1.0 -0.1929904264
N  N19  1  0.03200000  0.74850000  0.63610000  1.0 -0.1929904264
N  N20  1  0.11240000  0.39590000  0.36390000  1.0 -0.1929904264
N  N21  1  0.25150000  0.88760000  0.28350000  1.0 -0.1929904264
N  N22  1  0.60410000  0.96800000  0.71650000  1.0 -0.1929904264
N  N23  1  0.96800000  0.25150000  0.36390000  1.0 -0.1929904264
N  N24  1  0.88760000  0.60410000  0.63610000  1.0 -0.1929904264
O  O1  1  0.43451000  0.43458000  0.39049000  1.0 -0.5424198873
O  O2  1  0.04409000  0.04402000  0.60951000  1.0 -0.5424198873
O  O3  1  0.04402000  0.43451000  0.99993000  1.0 -0.5424198873
O  O4  1  0.43458000  0.04409000  0.00007000  1.0 -0.5424198873
O  O5  1  0.56549000  0.56542000  0.60951000  1.0 -0.5424198873
O  O6  1  0.95591000  0.95598000  0.39049000  1.0 -0.5424198873
O  O7  1  0.95598000  0.56549000  0.00007000  1.0 -0.5424198873
O  O8  1  0.56542000  0.95591000  0.99993000  1.0 -0.5424198873
O  O9  1  0.49999000  0.49990000  0.29949000  1.0 -0.521386496
O  O10  1  0.20041000  0.20050000  0.70051000  1.0 -0.521386496
O  O11  1  0.20050000  0.49999000  0.00009000  1.0 -0.521386496
O  O12  1  0.49990000  0.20041000  0.99991000  1.0 -0.521386496
O  O13  1  0.50001000  0.50010000  0.70051000  1.0 -0.521386496
O  O14  1  0.79959000  0.79950000  0.29949000  1.0 -0.521386496
O  O15  1  0.79950000  0.50001000  0.99991000  1.0 -0.521386496
O  O16  1  0.50010000  0.79959000  0.00009000  1.0 -0.521386496
O  O17  1  0.15670000  0.15648000  0.09518000  1.0 -0.511161334
O  O18  1  0.06130000  0.06152000  0.90482000  1.0 -0.511161334
O  O19  1  0.06152000  0.15670000  0.00022000  1.0 -0.511161334
O  O20  1  0.15648000  0.06130000  0.99978000  1.0 -0.511161334
O  O21  1  0.84330000  0.84352000  0.90482000  1.0 -0.511161334
O  O22  1  0.93870000  0.93848000  0.09518000  1.0 -0.511161334
O  O23  1  0.93848000  0.84330000  0.99978000  1.0 -0.511161334
O  O24  1  0.84352000  0.93870000  0.00022000  1.0 -0.511161334
F  F1  1  0.87500000  0.13050000  0.74590000  1.0 -0.3386049039
F  F2  1  0.38460000  0.12910000  0.25410000  1.0 -0.3386049039
F  F3  1  0.12910000  0.87500000  0.74450000  1.0 -0.3386049039
F  F4  1  0.13050000  0.38460000  0.25550000  1.0 -0.3386049039
F  F5  1  0.12500000  0.86950000  0.25410000  1.0 -0.3386049039
F  F6  1  0.61540000  0.87090000  0.74590000  1.0 -0.3386049039
F  F7  1  0.87090000  0.12500000  0.25550000  1.0 -0.3386049039
F  F8  1  0.86950000  0.61540000  0.74450000  1.0 -0.3386049039
F  F9  1  0.97470000  0.28450000  0.68980000  1.0 -0.3929247625
F  F10  1  0.59470000  0.28490000  0.31020000  1.0 -0.3929247625
F  F11  1  0.28490000  0.97470000  0.69020000  1.0 -0.3929247625
F  F12  1  0.28450000  0.59470000  0.30980000  1.0 -0.3929247625
F  F13  1  0.02530000  0.71550000  0.31020000  1.0 -0.3929247625
F  F14  1  0.40530000  0.71510000  0.68980000  1.0 -0.3929247625
F  F15  1  0.71510000  0.02530000  0.30980000  1.0 -0.3929247625
F  F16  1  0.71550000  0.40530000  0.69020000  1.0 -0.3929247625
