# DDEC6 charges by PACMAN v1.1 (https://github.com/mtap-research/PACMAN-charge/)
data_FIJNUL_FSR_pacman
_symmetry_space_group_name_H-M   'P 1'
_cell_length_a   27.53580000
_cell_length_b   27.53580000
_cell_length_c   27.53580000
_cell_angle_alpha   60.00000000
_cell_angle_beta   60.00000000
_cell_angle_gamma   60.00000000
_symmetry_Int_Tables_number   1
_chemical_formula_structural   Zr3H5C13(SO8)2
_chemical_formula_sum   'Zr36 H60 C156 S24 O192'
_cell_volume   14763.11823523
_cell_formula_units_Z   12
loop_
 _symmetry_equiv_pos_site_id
 _symmetry_equiv_pos_as_xyz
  1  'x, y, z'
loop_
 _atom_site_type_symbol
 _atom_site_label
 _atom_site_symmetry_multiplicity
 _atom_site_fract_x
 _atom_site_fract_y
 _atom_site_fract_z
 _atom_site_occupancy
 _atom_site_charge
Zr  Zr1  1  0.58982000  0.41018000  0.00000000  1.0 2.4241315177
Zr  Zr2  1  0.41018000  0.58982000  0.00000000  1.0 2.4241315177
Zr  Zr3  1  0.00000000  0.00000000  0.58982000  1.0 2.429138892
Zr  Zr4  1  0.00000000  0.00000000  0.41018000  1.0 2.429138892
Zr  Zr5  1  0.00000000  0.58982000  0.41018000  1.0 2.4241315177
Zr  Zr6  1  0.00000000  0.41018000  0.58982000  1.0 2.4241315177
Zr  Zr7  1  0.58982000  0.00000000  0.00000000  1.0 2.429138892
Zr  Zr8  1  0.41018000  0.00000000  0.00000000  1.0 2.429138892
Zr  Zr9  1  0.41018000  0.00000000  0.58982000  1.0 2.429138892
Zr  Zr10  1  0.58982000  0.00000000  0.41018000  1.0 2.429138892
Zr  Zr11  1  0.00000000  0.58982000  0.00000000  1.0 2.429138892
Zr  Zr12  1  0.00000000  0.41018000  0.00000000  1.0 2.4241315177
Zr  Zr13  1  0.54530000  0.54530000  0.01898000  1.0 2.4364675604
Zr  Zr14  1  0.54530000  0.54530000  0.89042000  1.0 2.4364675604
Zr  Zr15  1  0.01898000  0.89042000  0.54530000  1.0 2.4364675604
Zr  Zr16  1  0.89042000  0.01898000  0.54530000  1.0 2.4364675604
Zr  Zr17  1  0.01898000  0.54530000  0.54530000  1.0 2.4364675604
Zr  Zr18  1  0.89042000  0.54530000  0.54530000  1.0 2.429138892
Zr  Zr19  1  0.54530000  0.01898000  0.89042000  1.0 2.4364675604
Zr  Zr20  1  0.54530000  0.89042000  0.01898000  1.0 2.4364675604
Zr  Zr21  1  0.54530000  0.01898000  0.54530000  1.0 2.4364675604
Zr  Zr22  1  0.54530000  0.89042000  0.54530000  1.0 2.4364675604
Zr  Zr23  1  0.89042000  0.54530000  0.01898000  1.0 2.4364675604
Zr  Zr24  1  0.01898000  0.54530000  0.89042000  1.0 2.4364675604
Zr  Zr25  1  0.45470000  0.45470000  0.10958000  1.0 2.4364675604
Zr  Zr26  1  0.45470000  0.45470000  0.98102000  1.0 2.4364675604
Zr  Zr27  1  0.98102000  0.10958000  0.45470000  1.0 2.4364675604
Zr  Zr28  1  0.10958000  0.98102000  0.45470000  1.0 2.4364675604
Zr  Zr29  1  0.98102000  0.45470000  0.10958000  1.0 2.4364675604
Zr  Zr30  1  0.10958000  0.45470000  0.98102000  1.0 2.4364675604
Zr  Zr31  1  0.45470000  0.98102000  0.45470000  1.0 2.4364675604
Zr  Zr32  1  0.45470000  0.10958000  0.45470000  1.0 2.4364675604
Zr  Zr33  1  0.45470000  0.98102000  0.10958000  1.0 2.4364675604
Zr  Zr34  1  0.45470000  0.10958000  0.98102000  1.0 2.4364675604
Zr  Zr35  1  0.10958000  0.45470000  0.45470000  1.0 2.4364675604
Zr  Zr36  1  0.98102000  0.45470000  0.45470000  1.0 2.4364675604
H  H1  1  0.77862000  0.34256000  0.01128000  1.0 0.1702685959
H  H2  1  0.34256000  0.77862000  0.86754000  1.0 0.1702685959
H  H3  1  0.01128000  0.86754000  0.77862000  1.0 0.1702685959
H  H4  1  0.86754000  0.01128000  0.34256000  1.0 0.1702685959
H  H5  1  0.01128000  0.77862000  0.34256000  1.0 0.1702685959
H  H6  1  0.86754000  0.34256000  0.77862000  1.0 0.1702685959
H  H7  1  0.77862000  0.01128000  0.86754000  1.0 0.1702685959
H  H8  1  0.34256000  0.86754000  0.01128000  1.0 0.1702685959
H  H9  1  0.34256000  0.01128000  0.77862000  1.0 0.1702685959
H  H10  1  0.77862000  0.86754000  0.34256000  1.0 0.1702685959
H  H11  1  0.86754000  0.77862000  0.01128000  1.0 0.1702685959
H  H12  1  0.01128000  0.34256000  0.86754000  1.0 0.1702685959
H  H13  1  0.22138000  0.65744000  0.13246000  1.0 0.1702685959
H  H14  1  0.65744000  0.22138000  0.98872000  1.0 0.1702685959
H  H15  1  0.98872000  0.13246000  0.65744000  1.0 0.1702685959
H  H16  1  0.13246000  0.98872000  0.22138000  1.0 0.1702685959
H  H17  1  0.98872000  0.22138000  0.13246000  1.0 0.1702685959
H  H18  1  0.13246000  0.65744000  0.98872000  1.0 0.1702685959
H  H19  1  0.22138000  0.98872000  0.65744000  1.0 0.1702685959
H  H20  1  0.65744000  0.13246000  0.22138000  1.0 0.1702685959
H  H21  1  0.65744000  0.98872000  0.13246000  1.0 0.1702685959
H  H22  1  0.22138000  0.13246000  0.98872000  1.0 0.1702685959
H  H23  1  0.13246000  0.22138000  0.65744000  1.0 0.1702685959
H  H24  1  0.98872000  0.65744000  0.22138000  1.0 0.1702685959
H  H25  1  0.22138000  0.65744000  0.98872000  1.0 0.1702685959
H  H26  1  0.65744000  0.22138000  0.13246000  1.0 0.1702685959
H  H27  1  0.98872000  0.13246000  0.22138000  1.0 0.1702685959
H  H28  1  0.13246000  0.98872000  0.65744000  1.0 0.1702685959
H  H29  1  0.98872000  0.22138000  0.65744000  1.0 0.1702685959
H  H30  1  0.13246000  0.65744000  0.22138000  1.0 0.1702685959
H  H31  1  0.22138000  0.98872000  0.13246000  1.0 0.1702685959
H  H32  1  0.65744000  0.13246000  0.98872000  1.0 0.1702685959
H  H33  1  0.65744000  0.98872000  0.22138000  1.0 0.1702685959
H  H34  1  0.22138000  0.13246000  0.65744000  1.0 0.1702685959
H  H35  1  0.13246000  0.22138000  0.98872000  1.0 0.1702685959
H  H36  1  0.98872000  0.65744000  0.13246000  1.0 0.1702685959
H  H37  1  0.77862000  0.34256000  0.86754000  1.0 0.1702685959
H  H38  1  0.34256000  0.77862000  0.01128000  1.0 0.1702685959
H  H39  1  0.01128000  0.86754000  0.34256000  1.0 0.1702685959
H  H40  1  0.86754000  0.01128000  0.77862000  1.0 0.1702685959
H  H41  1  0.01128000  0.77862000  0.86754000  1.0 0.1702685959
H  H42  1  0.86754000  0.34256000  0.01128000  1.0 0.1702685959
H  H43  1  0.77862000  0.01128000  0.34256000  1.0 0.1702685959
H  H44  1  0.34256000  0.86754000  0.77862000  1.0 0.1702685959
H  H45  1  0.34256000  0.01128000  0.86754000  1.0 0.1702685959
H  H46  1  0.77862000  0.86754000  0.01128000  1.0 0.1702685959
H  H47  1  0.86754000  0.77862000  0.34256000  1.0 0.1702685959
H  H48  1  0.01128000  0.34256000  0.77862000  1.0 0.1702685959
H  H49  1  0.50000000  0.50000000  0.18500000  1.0 0.2075333149
H  H50  1  0.50000000  0.50000000  0.81500000  1.0 0.2019868134
H  H51  1  0.18500000  0.81500000  0.50000000  1.0 0.2075333149
H  H52  1  0.81500000  0.18500000  0.50000000  1.0 0.2075333149
H  H53  1  0.18500000  0.50000000  0.50000000  1.0 0.2075333149
H  H54  1  0.81500000  0.50000000  0.50000000  1.0 0.2075333149
H  H55  1  0.50000000  0.18500000  0.81500000  1.0 0.2075333149
H  H56  1  0.50000000  0.81500000  0.18500000  1.0 0.2075333149
H  H57  1  0.50000000  0.18500000  0.50000000  1.0 0.2075333149
H  H58  1  0.50000000  0.81500000  0.50000000  1.0 0.2075333149
H  H59  1  0.81500000  0.50000000  0.18500000  1.0 0.2075333149
H  H60  1  0.18500000  0.50000000  0.81500000  1.0 0.2019868134
C  C1  1  0.78010000  0.37370000  0.01470000  1.0 -0.0605264331
C  C2  1  0.37370000  0.78010000  0.83150000  1.0 -0.0605264331
C  C3  1  0.01470000  0.83150000  0.78010000  1.0 -0.0605264331
C  C4  1  0.83150000  0.01470000  0.37370000  1.0 -0.0605264331
C  C5  1  0.01470000  0.78010000  0.37370000  1.0 -0.0605264331
C  C6  1  0.83150000  0.37370000  0.78010000  1.0 -0.0605264331
C  C7  1  0.78010000  0.01470000  0.83150000  1.0 -0.0605264331
C  C8  1  0.37370000  0.83150000  0.01470000  1.0 -0.0605264331
C  C9  1  0.37370000  0.01470000  0.78010000  1.0 -0.0605264331
C  C10  1  0.78010000  0.83150000  0.37370000  1.0 -0.0605264331
C  C11  1  0.83150000  0.78010000  0.01470000  1.0 -0.0605264331
C  C12  1  0.01470000  0.37370000  0.83150000  1.0 -0.0605264331
C  C13  1  0.21990000  0.62630000  0.16850000  1.0 -0.0605264331
C  C14  1  0.62630000  0.21990000  0.98530000  1.0 -0.0605264331
C  C15  1  0.98530000  0.16850000  0.62630000  1.0 -0.0605264331
C  C16  1  0.16850000  0.98530000  0.21990000  1.0 -0.0605264331
C  C17  1  0.98530000  0.21990000  0.16850000  1.0 -0.0605264331
C  C18  1  0.16850000  0.62630000  0.98530000  1.0 -0.0605264331
C  C19  1  0.21990000  0.98530000  0.62630000  1.0 -0.0605264331
C  C20  1  0.62630000  0.16850000  0.21990000  1.0 -0.0605264331
C  C21  1  0.62630000  0.98530000  0.16850000  1.0 -0.0605264331
C  C22  1  0.21990000  0.16850000  0.98530000  1.0 -0.0605264331
C  C23  1  0.16850000  0.21990000  0.62630000  1.0 -0.0605264331
C  C24  1  0.98530000  0.62630000  0.21990000  1.0 -0.0605264331
C  C25  1  0.21990000  0.62630000  0.98530000  1.0 -0.0605264331
C  C26  1  0.62630000  0.21990000  0.16850000  1.0 -0.0605264331
C  C27  1  0.98530000  0.16850000  0.21990000  1.0 -0.0605264331
C  C28  1  0.16850000  0.98530000  0.62630000  1.0 -0.0605264331
C  C29  1  0.98530000  0.21990000  0.62630000  1.0 -0.0605264331
C  C30  1  0.16850000  0.62630000  0.21990000  1.0 -0.0605264331
C  C31  1  0.21990000  0.98530000  0.16850000  1.0 -0.0605264331
C  C32  1  0.62630000  0.16850000  0.98530000  1.0 -0.0605264331
C  C33  1  0.62630000  0.98530000  0.21990000  1.0 -0.0605264331
C  C34  1  0.21990000  0.16850000  0.62630000  1.0 -0.0605264331
C  C35  1  0.16850000  0.21990000  0.98530000  1.0 -0.0605264331
C  C36  1  0.98530000  0.62630000  0.16850000  1.0 -0.0605264331
C  C37  1  0.78010000  0.37370000  0.83150000  1.0 -0.0605264331
C  C38  1  0.37370000  0.78010000  0.01470000  1.0 -0.0605264331
C  C39  1  0.01470000  0.83150000  0.37370000  1.0 -0.0605264331
C  C40  1  0.83150000  0.01470000  0.78010000  1.0 -0.0605264331
C  C41  1  0.01470000  0.78010000  0.83150000  1.0 -0.0605264331
C  C42  1  0.83150000  0.37370000  0.01470000  1.0 -0.0605264331
C  C43  1  0.78010000  0.01470000  0.37370000  1.0 -0.0605264331
C  C44  1  0.37370000  0.83150000  0.78010000  1.0 -0.0605264331
C  C45  1  0.37370000  0.01470000  0.83150000  1.0 -0.0605264331
C  C46  1  0.78010000  0.83150000  0.01470000  1.0 -0.0605264331
C  C47  1  0.83150000  0.78010000  0.37370000  1.0 -0.0605264331
C  C48  1  0.01470000  0.37370000  0.78010000  1.0 -0.0605264331
C  C49  1  0.73290000  0.42470000  0.02030000  1.0 -0.0876691311
C  C50  1  0.42470000  0.73290000  0.82210000  1.0 -0.0876691311
C  C51  1  0.02030000  0.82210000  0.73290000  1.0 -0.0876691311
C  C52  1  0.82210000  0.02030000  0.42470000  1.0 -0.0876691311
C  C53  1  0.02030000  0.73290000  0.42470000  1.0 -0.0876691311
C  C54  1  0.82210000  0.42470000  0.73290000  1.0 -0.0876691311
C  C55  1  0.73290000  0.02030000  0.82210000  1.0 -0.0876691311
C  C56  1  0.42470000  0.82210000  0.02030000  1.0 -0.0876691311
C  C57  1  0.42470000  0.02030000  0.73290000  1.0 -0.0876691311
C  C58  1  0.73290000  0.82210000  0.42470000  1.0 -0.0876691311
C  C59  1  0.82210000  0.73290000  0.02030000  1.0 -0.0876691311
C  C60  1  0.02030000  0.42470000  0.82210000  1.0 -0.0876691311
C  C61  1  0.26710000  0.57530000  0.17790000  1.0 -0.0876691311
C  C62  1  0.57530000  0.26710000  0.97970000  1.0 -0.0876691311
C  C63  1  0.97970000  0.17790000  0.57530000  1.0 -0.0876691311
C  C64  1  0.17790000  0.97970000  0.26710000  1.0 -0.0876691311
C  C65  1  0.97970000  0.26710000  0.17790000  1.0 -0.0876691311
C  C66  1  0.17790000  0.57530000  0.97970000  1.0 -0.0876691311
C  C67  1  0.26710000  0.97970000  0.57530000  1.0 -0.0876691311
C  C68  1  0.57530000  0.17790000  0.26710000  1.0 -0.0876691311
C  C69  1  0.57530000  0.97970000  0.17790000  1.0 -0.0876691311
C  C70  1  0.26710000  0.17790000  0.97970000  1.0 -0.0876691311
C  C71  1  0.17790000  0.26710000  0.57530000  1.0 -0.0876691311
C  C72  1  0.97970000  0.57530000  0.26710000  1.0 -0.0876691311
C  C73  1  0.26710000  0.57530000  0.97970000  1.0 -0.0876691311
C  C74  1  0.57530000  0.26710000  0.17790000  1.0 -0.0876691311
C  C75  1  0.97970000  0.17790000  0.26710000  1.0 -0.0876691311
C  C76  1  0.17790000  0.97970000  0.57530000  1.0 -0.0876691311
C  C77  1  0.97970000  0.26710000  0.57530000  1.0 -0.0876691311
C  C78  1  0.17790000  0.57530000  0.26710000  1.0 -0.0876691311
C  C79  1  0.26710000  0.97970000  0.17790000  1.0 -0.0876691311
C  C80  1  0.57530000  0.17790000  0.97970000  1.0 -0.0876691311
C  C81  1  0.57530000  0.97970000  0.26710000  1.0 -0.0876691311
C  C82  1  0.26710000  0.17790000  0.57530000  1.0 -0.0876691311
C  C83  1  0.17790000  0.26710000  0.97970000  1.0 -0.0876691311
C  C84  1  0.97970000  0.57530000  0.17790000  1.0 -0.0876691311
C  C85  1  0.73290000  0.42470000  0.82210000  1.0 -0.0876691311
C  C86  1  0.42470000  0.73290000  0.02030000  1.0 -0.0876691311
C  C87  1  0.02030000  0.82210000  0.42470000  1.0 -0.0876691311
C  C88  1  0.82210000  0.02030000  0.73290000  1.0 -0.0876691311
C  C89  1  0.02030000  0.73290000  0.82210000  1.0 -0.0876691311
C  C90  1  0.82210000  0.42470000  0.02030000  1.0 -0.0876691311
C  C91  1  0.73290000  0.02030000  0.42470000  1.0 -0.0876691311
C  C92  1  0.42470000  0.82210000  0.73290000  1.0 -0.0876691311
C  C93  1  0.42470000  0.02030000  0.82210000  1.0 -0.0876691311
C  C94  1  0.73290000  0.82210000  0.02030000  1.0 -0.0876691311
C  C95  1  0.82210000  0.73290000  0.42470000  1.0 -0.0876691311
C  C96  1  0.02030000  0.42470000  0.73290000  1.0 -0.0876691311
C  C97  1  0.67250000  0.44430000  0.02070000  1.0 0.6769359192
C  C98  1  0.44430000  0.67250000  0.86250000  1.0 0.6769359192
C  C99  1  0.02070000  0.86250000  0.67250000  1.0 0.6769359192
C  C100  1  0.86250000  0.02070000  0.44430000  1.0 0.6769359192
C  C101  1  0.02070000  0.67250000  0.44430000  1.0 0.6769359192
C  C102  1  0.86250000  0.44430000  0.67250000  1.0 0.6769359192
C  C103  1  0.67250000  0.02070000  0.86250000  1.0 0.6769359192
C  C104  1  0.44430000  0.86250000  0.02070000  1.0 0.6769359192
C  C105  1  0.44430000  0.02070000  0.67250000  1.0 0.6769359192
C  C106  1  0.67250000  0.86250000  0.44430000  1.0 0.6769359192
C  C107  1  0.86250000  0.67250000  0.02070000  1.0 0.6769359192
C  C108  1  0.02070000  0.44430000  0.86250000  1.0 0.6769359192
C  C109  1  0.32750000  0.55570000  0.13750000  1.0 0.6769359192
C  C110  1  0.55570000  0.32750000  0.97930000  1.0 0.6769359192
C  C111  1  0.97930000  0.13750000  0.55570000  1.0 0.6769359192
C  C112  1  0.13750000  0.97930000  0.32750000  1.0 0.6769359192
C  C113  1  0.97930000  0.32750000  0.13750000  1.0 0.6769359192
C  C114  1  0.13750000  0.55570000  0.97930000  1.0 0.6769359192
C  C115  1  0.32750000  0.97930000  0.55570000  1.0 0.6769359192
C  C116  1  0.55570000  0.13750000  0.32750000  1.0 0.6769359192
C  C117  1  0.55570000  0.97930000  0.13750000  1.0 0.6769359192
C  C118  1  0.32750000  0.13750000  0.97930000  1.0 0.6769359192
C  C119  1  0.13750000  0.32750000  0.55570000  1.0 0.6769359192
C  C120  1  0.97930000  0.55570000  0.32750000  1.0 0.6769359192
C  C121  1  0.32750000  0.55570000  0.97930000  1.0 0.6769359192
C  C122  1  0.55570000  0.32750000  0.13750000  1.0 0.6769359192
C  C123  1  0.97930000  0.13750000  0.32750000  1.0 0.6769359192
C  C124  1  0.13750000  0.97930000  0.55570000  1.0 0.6769359192
C  C125  1  0.97930000  0.32750000  0.55570000  1.0 0.6769359192
C  C126  1  0.13750000  0.55570000  0.32750000  1.0 0.6769359192
C  C127  1  0.32750000  0.97930000  0.13750000  1.0 0.6769359192
C  C128  1  0.55570000  0.13750000  0.97930000  1.0 0.6769359192
C  C129  1  0.55570000  0.97930000  0.32750000  1.0 0.6769359192
C  C130  1  0.32750000  0.13750000  0.55570000  1.0 0.6769359192
C  C131  1  0.13750000  0.32750000  0.97930000  1.0 0.6769359192
C  C132  1  0.97930000  0.55570000  0.13750000  1.0 0.6769359192
C  C133  1  0.67250000  0.44430000  0.86250000  1.0 0.6769359192
C  C134  1  0.44430000  0.67250000  0.02070000  1.0 0.6769359192
C  C135  1  0.02070000  0.86250000  0.44430000  1.0 0.6769359192
C  C136  1  0.86250000  0.02070000  0.67250000  1.0 0.6769359192
C  C137  1  0.02070000  0.67250000  0.86250000  1.0 0.6769359192
C  C138  1  0.86250000  0.44430000  0.02070000  1.0 0.6769359192
C  C139  1  0.67250000  0.02070000  0.44430000  1.0 0.6769359192
C  C140  1  0.44430000  0.86250000  0.67250000  1.0 0.6769359192
C  C141  1  0.44430000  0.02070000  0.86250000  1.0 0.6769359192
C  C142  1  0.67250000  0.86250000  0.02070000  1.0 0.6769359192
C  C143  1  0.86250000  0.67250000  0.44430000  1.0 0.6769359192
C  C144  1  0.02070000  0.44430000  0.67250000  1.0 0.6769359192
C  C145  1  0.50000000  0.50000000  0.15040000  1.0 0.349700143
C  C146  1  0.50000000  0.50000000  0.84960000  1.0 0.3411701403
C  C147  1  0.15040000  0.84960000  0.50000000  1.0 0.349700143
C  C148  1  0.84960000  0.15040000  0.50000000  1.0 0.349700143
C  C149  1  0.15040000  0.50000000  0.50000000  1.0 0.349700143
C  C150  1  0.84960000  0.50000000  0.50000000  1.0 0.349700143
C  C151  1  0.50000000  0.15040000  0.84960000  1.0 0.349700143
C  C152  1  0.50000000  0.84960000  0.15040000  1.0 0.349700143
C  C153  1  0.50000000  0.15040000  0.50000000  1.0 0.349700143
C  C154  1  0.50000000  0.84960000  0.50000000  1.0 0.349700143
C  C155  1  0.84960000  0.50000000  0.15040000  1.0 0.349700143
C  C156  1  0.15040000  0.50000000  0.84960000  1.0 0.3411701403
S  S1  1  0.75030000  0.47350000  0.02590000  1.0 0.2075333149
S  S2  1  0.47350000  0.75030000  0.75030000  1.0 0.2075333149
S  S3  1  0.02590000  0.75030000  0.75030000  1.0 0.2075333149
S  S4  1  0.75030000  0.02590000  0.47350000  1.0 0.2019868134
S  S5  1  0.02590000  0.75030000  0.47350000  1.0 0.2019868134
S  S6  1  0.75030000  0.47350000  0.75030000  1.0 0.2019868134
S  S7  1  0.75030000  0.02590000  0.75030000  1.0 0.2019868134
S  S8  1  0.47350000  0.75030000  0.02590000  1.0 0.2019868134
S  S9  1  0.47350000  0.02590000  0.75030000  1.0 0.2019868134
S  S10  1  0.75030000  0.75030000  0.47350000  1.0 0.2019868134
S  S11  1  0.75030000  0.75030000  0.02590000  1.0 0.2019868134
S  S12  1  0.02590000  0.47350000  0.75030000  1.0 0.2019868134
S  S13  1  0.24970000  0.52650000  0.24970000  1.0 0.2019868134
S  S14  1  0.52650000  0.24970000  0.97410000  1.0 0.2019868134
S  S15  1  0.97410000  0.24970000  0.52650000  1.0 0.2075333149
S  S16  1  0.24970000  0.97410000  0.24970000  1.0 0.2019868134
S  S17  1  0.97410000  0.24970000  0.24970000  1.0 0.2019868134
S  S18  1  0.24970000  0.52650000  0.97410000  1.0 0.2019868134
S  S19  1  0.24970000  0.97410000  0.52650000  1.0 0.2019868134
S  S20  1  0.52650000  0.24970000  0.24970000  1.0 0.2019868134
S  S21  1  0.52650000  0.97410000  0.24970000  1.0 0.2019868134
S  S22  1  0.24970000  0.24970000  0.97410000  1.0 0.2019868134
S  S23  1  0.24970000  0.24970000  0.52650000  1.0 0.2075333149
S  S24  1  0.97410000  0.52650000  0.24970000  1.0 0.2019868134
O  O1  1  0.66510000  0.40470000  0.01190000  1.0 -0.5966757406
O  O2  1  0.40470000  0.66510000  0.91830000  1.0 -0.5966757406
O  O3  1  0.01190000  0.91830000  0.66510000  1.0 -0.5966757406
O  O4  1  0.91830000  0.01190000  0.40470000  1.0 -0.5966757406
O  O5  1  0.01190000  0.66510000  0.40470000  1.0 -0.5966757406
O  O6  1  0.91830000  0.40470000  0.66510000  1.0 -0.5966757406
O  O7  1  0.66510000  0.01190000  0.91830000  1.0 -0.5966757406
O  O8  1  0.40470000  0.91830000  0.01190000  1.0 -0.5966757406
O  O9  1  0.40470000  0.01190000  0.66510000  1.0 -0.5966757406
O  O10  1  0.66510000  0.91830000  0.40470000  1.0 -0.5966757406
O  O11  1  0.91830000  0.66510000  0.01190000  1.0 -0.5966757406
O  O12  1  0.01190000  0.40470000  0.91830000  1.0 -0.5966757406
O  O13  1  0.33490000  0.59530000  0.08170000  1.0 -0.5966757406
O  O14  1  0.59530000  0.33490000  0.98810000  1.0 -0.5966757406
O  O15  1  0.98810000  0.08170000  0.59530000  1.0 -0.5966757406
O  O16  1  0.08170000  0.98810000  0.33490000  1.0 -0.5966757406
O  O17  1  0.98810000  0.33490000  0.08170000  1.0 -0.5966757406
O  O18  1  0.08170000  0.59530000  0.98810000  1.0 -0.5966757406
O  O19  1  0.33490000  0.98810000  0.59530000  1.0 -0.5966757406
O  O20  1  0.59530000  0.08170000  0.33490000  1.0 -0.5966757406
O  O21  1  0.59530000  0.98810000  0.08170000  1.0 -0.5966757406
O  O22  1  0.33490000  0.08170000  0.98810000  1.0 -0.5966757406
O  O23  1  0.08170000  0.33490000  0.59530000  1.0 -0.5966757406
O  O24  1  0.98810000  0.59530000  0.33490000  1.0 -0.5966757406
O  O25  1  0.33490000  0.59530000  0.98810000  1.0 -0.5966757406
O  O26  1  0.59530000  0.33490000  0.08170000  1.0 -0.5966757406
O  O27  1  0.98810000  0.08170000  0.33490000  1.0 -0.5966757406
O  O28  1  0.08170000  0.98810000  0.59530000  1.0 -0.5966757406
O  O29  1  0.98810000  0.33490000  0.59530000  1.0 -0.5966757406
O  O30  1  0.08170000  0.59530000  0.33490000  1.0 -0.5966757406
O  O31  1  0.33490000  0.98810000  0.08170000  1.0 -0.5966757406
O  O32  1  0.59530000  0.08170000  0.98810000  1.0 -0.5966757406
O  O33  1  0.59530000  0.98810000  0.33490000  1.0 -0.5966757406
O  O34  1  0.33490000  0.08170000  0.59530000  1.0 -0.5966757406
O  O35  1  0.08170000  0.33490000  0.98810000  1.0 -0.5966757406
O  O36  1  0.98810000  0.59530000  0.08170000  1.0 -0.5966757406
O  O37  1  0.66510000  0.40470000  0.91830000  1.0 -0.5966757406
O  O38  1  0.40470000  0.66510000  0.01190000  1.0 -0.5966757406
O  O39  1  0.01190000  0.91830000  0.40470000  1.0 -0.5966757406
O  O40  1  0.91830000  0.01190000  0.66510000  1.0 -0.5966757406
O  O41  1  0.01190000  0.66510000  0.91830000  1.0 -0.5966757406
O  O42  1  0.91830000  0.40470000  0.01190000  1.0 -0.5966757406
O  O43  1  0.66510000  0.01190000  0.40470000  1.0 -0.5966757406
O  O44  1  0.40470000  0.91830000  0.66510000  1.0 -0.5966757406
O  O45  1  0.40470000  0.01190000  0.91830000  1.0 -0.5966757406
O  O46  1  0.66510000  0.91830000  0.01190000  1.0 -0.5966757406
O  O47  1  0.91830000  0.66510000  0.40470000  1.0 -0.5966757406
O  O48  1  0.01190000  0.40470000  0.66510000  1.0 -0.5966757406
O  O49  1  0.63780000  0.49120000  0.02440000  1.0 -0.5405518568
O  O50  1  0.49120000  0.63780000  0.84660000  1.0 -0.5405518568
O  O51  1  0.02440000  0.84660000  0.63780000  1.0 -0.5405518568
O  O52  1  0.84660000  0.02440000  0.49120000  1.0 -0.5405518568
O  O53  1  0.02440000  0.63780000  0.49120000  1.0 -0.5405518568
O  O54  1  0.84660000  0.49120000  0.63780000  1.0 -0.5405518568
O  O55  1  0.63780000  0.02440000  0.84660000  1.0 -0.5405518568
O  O56  1  0.49120000  0.84660000  0.02440000  1.0 -0.5405518568
O  O57  1  0.49120000  0.02440000  0.63780000  1.0 -0.5405518568
O  O58  1  0.63780000  0.84660000  0.49120000  1.0 -0.5405518568
O  O59  1  0.84660000  0.63780000  0.02440000  1.0 -0.5405518568
O  O60  1  0.02440000  0.49120000  0.84660000  1.0 -0.5405518568
O  O61  1  0.36220000  0.50880000  0.15340000  1.0 -0.5405518568
O  O62  1  0.50880000  0.36220000  0.97560000  1.0 -0.5405518568
O  O63  1  0.97560000  0.15340000  0.50880000  1.0 -0.5405518568
O  O64  1  0.15340000  0.97560000  0.36220000  1.0 -0.5405518568
O  O65  1  0.97560000  0.36220000  0.15340000  1.0 -0.5405518568
O  O66  1  0.15340000  0.50880000  0.97560000  1.0 -0.5405518568
O  O67  1  0.36220000  0.97560000  0.50880000  1.0 -0.5405518568
O  O68  1  0.50880000  0.15340000  0.36220000  1.0 -0.5405518568
O  O69  1  0.50880000  0.97560000  0.15340000  1.0 -0.5405518568
O  O70  1  0.36220000  0.15340000  0.97560000  1.0 -0.5405518568
O  O71  1  0.15340000  0.36220000  0.50880000  1.0 -0.5405518568
O  O72  1  0.97560000  0.50880000  0.36220000  1.0 -0.5405518568
O  O73  1  0.36220000  0.50880000  0.97560000  1.0 -0.5405518568
O  O74  1  0.50880000  0.36220000  0.15340000  1.0 -0.5405518568
O  O75  1  0.97560000  0.15340000  0.36220000  1.0 -0.5405518568
O  O76  1  0.15340000  0.97560000  0.50880000  1.0 -0.5405518568
O  O77  1  0.97560000  0.36220000  0.50880000  1.0 -0.5405518568
O  O78  1  0.15340000  0.50880000  0.36220000  1.0 -0.5405518568
O  O79  1  0.36220000  0.97560000  0.15340000  1.0 -0.5405518568
O  O80  1  0.50880000  0.15340000  0.97560000  1.0 -0.5405518568
O  O81  1  0.50880000  0.97560000  0.36220000  1.0 -0.5405518568
O  O82  1  0.36220000  0.15340000  0.50880000  1.0 -0.5405518568
O  O83  1  0.15340000  0.36220000  0.97560000  1.0 -0.5405518568
O  O84  1  0.97560000  0.50880000  0.15340000  1.0 -0.5405518568
O  O85  1  0.63780000  0.49120000  0.84660000  1.0 -0.5405518568
O  O86  1  0.49120000  0.63780000  0.02440000  1.0 -0.5405518568
O  O87  1  0.02440000  0.84660000  0.49120000  1.0 -0.5405518568
O  O88  1  0.84660000  0.02440000  0.63780000  1.0 -0.5405518568
O  O89  1  0.02440000  0.63780000  0.84660000  1.0 -0.5405518568
O  O90  1  0.84660000  0.49120000  0.02440000  1.0 -0.5405518568
O  O91  1  0.63780000  0.02440000  0.49120000  1.0 -0.5405518568
O  O92  1  0.49120000  0.84660000  0.63780000  1.0 -0.5405518568
O  O93  1  0.49120000  0.02440000  0.84660000  1.0 -0.5405518568
O  O94  1  0.63780000  0.84660000  0.02440000  1.0 -0.5405518568
O  O95  1  0.84660000  0.63780000  0.49120000  1.0 -0.5405518568
O  O96  1  0.02440000  0.49120000  0.63780000  1.0 -0.5405518568
O  O97  1  0.60130000  0.60130000  0.95770000  1.0 -0.7117898788
O  O98  1  0.60130000  0.60130000  0.83970000  1.0 -0.7117898788
O  O99  1  0.95770000  0.83970000  0.60130000  1.0 -0.7117898788
O  O100  1  0.83970000  0.95770000  0.60130000  1.0 -0.6912431281
O  O101  1  0.95770000  0.60130000  0.60130000  1.0 -0.7117898788
O  O102  1  0.83970000  0.60130000  0.60130000  1.0 -0.7117898788
O  O103  1  0.60130000  0.95770000  0.83970000  1.0 -0.6912431281
O  O104  1  0.60130000  0.83970000  0.95770000  1.0 -0.7117898788
O  O105  1  0.60130000  0.95770000  0.60130000  1.0 -0.6912431281
O  O106  1  0.60130000  0.83970000  0.60130000  1.0 -0.7117898788
O  O107  1  0.83970000  0.60130000  0.95770000  1.0 -0.7152552673
O  O108  1  0.95770000  0.60130000  0.83970000  1.0 -0.6912431281
O  O109  1  0.39870000  0.39870000  0.16030000  1.0 -0.6964033712
O  O110  1  0.39870000  0.39870000  0.04230000  1.0 -0.6912431281
O  O111  1  0.04230000  0.16030000  0.39870000  1.0 -0.6912431281
O  O112  1  0.16030000  0.04230000  0.39870000  1.0 -0.6912431281
O  O113  1  0.04230000  0.39870000  0.16030000  1.0 -0.6964033712
O  O114  1  0.16030000  0.39870000  0.04230000  1.0 -0.6912431281
O  O115  1  0.39870000  0.04230000  0.39870000  1.0 -0.6912431281
O  O116  1  0.39870000  0.16030000  0.39870000  1.0 -0.6912431281
O  O117  1  0.39870000  0.04230000  0.16030000  1.0 -0.6912431281
O  O118  1  0.39870000  0.16030000  0.04230000  1.0 -0.6912431281
O  O119  1  0.16030000  0.39870000  0.39870000  1.0 -0.6964033712
O  O120  1  0.04230000  0.39870000  0.39870000  1.0 -0.6912431281
O  O121  1  0.53325000  0.53325000  0.11375000  1.0 -0.5218559945
O  O122  1  0.53325000  0.53325000  0.81975000  1.0 -0.5218559945
O  O123  1  0.11375000  0.81975000  0.53325000  1.0 -0.5218559945
O  O124  1  0.81975000  0.11375000  0.53325000  1.0 -0.5218559945
O  O125  1  0.11375000  0.53325000  0.53325000  1.0 -0.5218559945
O  O126  1  0.81975000  0.53325000  0.53325000  1.0 -0.5218559945
O  O127  1  0.53325000  0.11375000  0.81975000  1.0 -0.5218559945
O  O128  1  0.53325000  0.81975000  0.11375000  1.0 -0.5218559945
O  O129  1  0.53325000  0.11375000  0.53325000  1.0 -0.5218559945
O  O130  1  0.53325000  0.81975000  0.53325000  1.0 -0.5218559945
O  O131  1  0.81975000  0.53325000  0.11375000  1.0 -0.5218559945
O  O132  1  0.11375000  0.53325000  0.81975000  1.0 -0.5218559945
O  O133  1  0.46675000  0.46675000  0.18025000  1.0 -0.5218559945
O  O134  1  0.46675000  0.46675000  0.88625000  1.0 -0.5218559945
O  O135  1  0.88625000  0.18025000  0.46675000  1.0 -0.5218559945
O  O136  1  0.18025000  0.88625000  0.46675000  1.0 -0.5218559945
O  O137  1  0.88625000  0.46675000  0.18025000  1.0 -0.5218559945
O  O138  1  0.18025000  0.46675000  0.88625000  1.0 -0.5218559945
O  O139  1  0.46675000  0.88625000  0.46675000  1.0 -0.5218559945
O  O140  1  0.46675000  0.18025000  0.46675000  1.0 -0.5218559945
O  O141  1  0.46675000  0.88625000  0.18025000  1.0 -0.5218559945
O  O142  1  0.46675000  0.18025000  0.88625000  1.0 -0.5218559945
O  O143  1  0.18025000  0.46675000  0.46675000  1.0 -0.5218559945
O  O144  1  0.88625000  0.46675000  0.46675000  1.0 -0.5218559945
O  O145  1  0.54480000  0.45520000  0.06200000  1.0 -1.0672414371
O  O146  1  0.45520000  0.54480000  0.93800000  1.0 -1.061010096
O  O147  1  0.06200000  0.93800000  0.54480000  1.0 -1.061010096
O  O148  1  0.93800000  0.06200000  0.45520000  1.0 -1.061010096
O  O149  1  0.06200000  0.54480000  0.45520000  1.0 -1.061010096
O  O150  1  0.93800000  0.45520000  0.54480000  1.0 -1.061010096
O  O151  1  0.54480000  0.06200000  0.93800000  1.0 -1.061010096
O  O152  1  0.45520000  0.93800000  0.06200000  1.0 -1.061010096
O  O153  1  0.45520000  0.06200000  0.54480000  1.0 -1.0672414371
O  O154  1  0.54480000  0.93800000  0.45520000  1.0 -1.061010096
O  O155  1  0.93800000  0.54480000  0.06200000  1.0 -1.0672414371
O  O156  1  0.06200000  0.45520000  0.93800000  1.0 -1.061010096
O  O157  1  0.45520000  0.54480000  0.06200000  1.0 -1.0672414371
O  O158  1  0.54480000  0.45520000  0.93800000  1.0 -1.061010096
O  O159  1  0.93800000  0.06200000  0.54480000  1.0 -1.061010096
O  O160  1  0.06200000  0.93800000  0.45520000  1.0 -1.061010096
O  O161  1  0.93800000  0.45520000  0.06200000  1.0 -1.061010096
O  O162  1  0.06200000  0.54480000  0.93800000  1.0 -1.061010096
O  O163  1  0.45520000  0.93800000  0.54480000  1.0 -1.0672414371
O  O164  1  0.54480000  0.06200000  0.45520000  1.0 -1.061010096
O  O165  1  0.54480000  0.93800000  0.06200000  1.0 -1.061010096
O  O166  1  0.45520000  0.06200000  0.93800000  1.0 -1.061010096
O  O167  1  0.06200000  0.45520000  0.54480000  1.0 -1.061010096
O  O168  1  0.93800000  0.54480000  0.45520000  1.0 -1.0672414371
O  O169  1  0.49610000  0.41250000  0.04570000  1.0 -0.9699964429
O  O170  1  0.41250000  0.49610000  0.04570000  1.0 -0.9699964429
O  O171  1  0.04570000  0.04570000  0.49610000  1.0 -0.9699964429
O  O172  1  0.04570000  0.04570000  0.41250000  1.0 -0.9699964429
O  O173  1  0.04570000  0.49610000  0.41250000  1.0 -0.9699964429
O  O174  1  0.04570000  0.41250000  0.49610000  1.0 -0.9699964429
O  O175  1  0.49610000  0.04570000  0.04570000  1.0 -0.9699964429
O  O176  1  0.41250000  0.04570000  0.04570000  1.0 -0.9699964429
O  O177  1  0.41250000  0.04570000  0.49610000  1.0 -0.9699964429
O  O178  1  0.49610000  0.04570000  0.41250000  1.0 -0.9699964429
O  O179  1  0.04570000  0.49610000  0.04570000  1.0 -0.9699964429
O  O180  1  0.04570000  0.41250000  0.04570000  1.0 -0.9699964429
O  O181  1  0.50390000  0.58750000  0.95430000  1.0 -0.9699964429
O  O182  1  0.58750000  0.50390000  0.95430000  1.0 -0.9699964429
O  O183  1  0.95430000  0.95430000  0.58750000  1.0 -0.9699964429
O  O184  1  0.95430000  0.95430000  0.50390000  1.0 -0.9699964429
O  O185  1  0.95430000  0.50390000  0.95430000  1.0 -0.976420469
O  O186  1  0.95430000  0.58750000  0.95430000  1.0 -0.9699964429
O  O187  1  0.50390000  0.95430000  0.58750000  1.0 -0.9699964429
O  O188  1  0.58750000  0.95430000  0.50390000  1.0 -0.9699964429
O  O189  1  0.58750000  0.95430000  0.95430000  1.0 -0.976420469
O  O190  1  0.50390000  0.95430000  0.95430000  1.0 -0.9699964429
O  O191  1  0.95430000  0.50390000  0.58750000  1.0 -0.9699964429
O  O192  1  0.95430000  0.58750000  0.50390000  1.0 -0.9699964429
