# DDEC6 charges by PACMAN v1.1 (https://github.com/mtap-research/PACMAN-charge/)
data_FIJNOF_FSR_pacman
_symmetry_space_group_name_H-M   'P 1'
_cell_length_a   27.41460000
_cell_length_b   27.41460000
_cell_length_c   27.41460000
_cell_angle_alpha   60.00000000
_cell_angle_beta   60.00000000
_cell_angle_gamma   60.00000000
_symmetry_Int_Tables_number   1
_chemical_formula_structural   Zr3H4C12(SO8)2
_chemical_formula_sum   'Zr36 H48 C144 S24 O192'
_cell_volume   14569.03353288
_cell_formula_units_Z   12
loop_
 _symmetry_equiv_pos_site_id
 _symmetry_equiv_pos_as_xyz
  1  'x, y, z'
loop_
 _atom_site_type_symbol
 _atom_site_label
 _atom_site_symmetry_multiplicity
 _atom_site_fract_x
 _atom_site_fract_y
 _atom_site_fract_z
 _atom_site_occupancy
 _atom_site_charge
Zr  Zr1  1  0.98107000  0.45457000  0.45457000  1.0 2.5587254947
Zr  Zr2  1  0.45457000  0.98107000  0.10979000  1.0 2.5587254947
Zr  Zr3  1  0.45457000  0.10979000  0.98107000  1.0 2.5587254947
Zr  Zr4  1  0.10979000  0.45457000  0.45457000  1.0 2.5587254947
Zr  Zr5  1  0.45457000  0.98107000  0.45457000  1.0 2.5587254947
Zr  Zr6  1  0.10979000  0.45457000  0.98107000  1.0 2.5587254947
Zr  Zr7  1  0.98107000  0.45457000  0.10979000  1.0 2.5587254947
Zr  Zr8  1  0.45457000  0.10979000  0.45457000  1.0 2.5587254947
Zr  Zr9  1  0.45457000  0.45457000  0.98107000  1.0 2.5587254947
Zr  Zr10  1  0.98107000  0.10979000  0.45457000  1.0 2.5587254947
Zr  Zr11  1  0.10979000  0.98107000  0.45457000  1.0 2.5587254947
Zr  Zr12  1  0.45457000  0.45457000  0.10979000  1.0 2.5587254947
Zr  Zr13  1  0.01893000  0.54543000  0.89021000  1.0 2.5587254947
Zr  Zr14  1  0.54543000  0.01893000  0.54543000  1.0 2.5587254947
Zr  Zr15  1  0.54543000  0.89021000  0.54543000  1.0 2.5587254947
Zr  Zr16  1  0.89021000  0.54543000  0.01893000  1.0 2.5587254947
Zr  Zr17  1  0.54543000  0.01893000  0.89021000  1.0 2.5587254947
Zr  Zr18  1  0.89021000  0.54543000  0.54543000  1.0 2.5587254947
Zr  Zr19  1  0.01893000  0.54543000  0.54543000  1.0 2.5587254947
Zr  Zr20  1  0.54543000  0.89021000  0.01893000  1.0 2.5587254947
Zr  Zr21  1  0.54543000  0.54543000  0.89021000  1.0 2.5587254947
Zr  Zr22  1  0.01893000  0.89021000  0.54543000  1.0 2.5587254947
Zr  Zr23  1  0.89021000  0.01893000  0.54543000  1.0 2.5587254947
Zr  Zr24  1  0.54543000  0.54543000  0.01893000  1.0 2.5587254947
Zr  Zr25  1  0.00000000  0.41018000  0.58982000  1.0 2.3924471125
Zr  Zr26  1  0.41018000  0.00000000  0.00000000  1.0 2.3924471125
Zr  Zr27  1  0.58982000  0.00000000  0.00000000  1.0 2.3924471125
Zr  Zr28  1  0.00000000  0.58982000  0.41018000  1.0 2.3924471125
Zr  Zr29  1  0.58982000  0.00000000  0.41018000  1.0 2.3924471125
Zr  Zr30  1  0.00000000  0.41018000  0.00000000  1.0 2.3924471125
Zr  Zr31  1  0.00000000  0.58982000  0.00000000  1.0 2.3924471125
Zr  Zr32  1  0.41018000  0.00000000  0.58982000  1.0 2.3924471125
Zr  Zr33  1  0.41018000  0.58982000  0.00000000  1.0 2.3924471125
Zr  Zr34  1  0.00000000  0.00000000  0.41018000  1.0 2.3924471125
Zr  Zr35  1  0.00000000  0.00000000  0.58982000  1.0 2.3924471125
Zr  Zr36  1  0.58982000  0.41018000  0.00000000  1.0 2.3924471125
H  H1  1  0.98770000  0.22170000  0.65830000  1.0 0.1846657579
H  H2  1  0.22170000  0.98770000  0.13230000  1.0 0.1846657579
H  H3  1  0.65830000  0.13230000  0.98770000  1.0 0.1846657579
H  H4  1  0.13230000  0.65830000  0.22170000  1.0 0.1846657579
H  H5  1  0.65830000  0.98770000  0.22170000  1.0 0.1846657579
H  H6  1  0.13230000  0.22170000  0.98770000  1.0 0.1846657579
H  H7  1  0.98770000  0.65830000  0.13230000  1.0 0.1846657579
H  H8  1  0.22170000  0.13230000  0.65830000  1.0 0.1846657579
H  H9  1  0.22170000  0.65830000  0.98770000  1.0 0.1846657579
H  H10  1  0.98770000  0.13230000  0.22170000  1.0 0.1846657579
H  H11  1  0.13230000  0.98770000  0.65830000  1.0 0.1846657579
H  H12  1  0.65830000  0.22170000  0.13230000  1.0 0.1846657579
H  H13  1  0.01230000  0.77830000  0.86770000  1.0 0.1846657579
H  H14  1  0.77830000  0.01230000  0.34170000  1.0 0.1846657579
H  H15  1  0.34170000  0.86770000  0.77830000  1.0 0.1846657579
H  H16  1  0.86770000  0.34170000  0.01230000  1.0 0.1846657579
H  H17  1  0.34170000  0.01230000  0.86770000  1.0 0.1846657579
H  H18  1  0.86770000  0.77830000  0.34170000  1.0 0.1846657579
H  H19  1  0.01230000  0.34170000  0.77830000  1.0 0.1846657579
H  H20  1  0.77830000  0.86770000  0.01230000  1.0 0.1846657579
H  H21  1  0.77830000  0.34170000  0.86770000  1.0 0.1846657579
H  H22  1  0.01230000  0.86770000  0.34170000  1.0 0.1846657579
H  H23  1  0.86770000  0.01230000  0.77830000  1.0 0.1846657579
H  H24  1  0.34170000  0.77830000  0.01230000  1.0 0.1846657579
H  H25  1  0.01230000  0.77830000  0.34170000  1.0 0.1846657579
H  H26  1  0.77830000  0.01230000  0.86770000  1.0 0.1846657579
H  H27  1  0.34170000  0.86770000  0.01230000  1.0 0.1846657579
H  H28  1  0.86770000  0.34170000  0.77830000  1.0 0.1846657579
H  H29  1  0.34170000  0.01230000  0.77830000  1.0 0.1846657579
H  H30  1  0.86770000  0.77830000  0.01230000  1.0 0.1846657579
H  H31  1  0.01230000  0.34170000  0.86770000  1.0 0.1846657579
H  H32  1  0.77830000  0.86770000  0.34170000  1.0 0.1846657579
H  H33  1  0.77830000  0.34170000  0.01230000  1.0 0.1846657579
H  H34  1  0.01230000  0.86770000  0.77830000  1.0 0.1846657579
H  H35  1  0.86770000  0.01230000  0.34170000  1.0 0.1846657579
H  H36  1  0.34170000  0.77830000  0.86770000  1.0 0.1846657579
H  H37  1  0.98770000  0.22170000  0.13230000  1.0 0.1846657579
H  H38  1  0.22170000  0.98770000  0.65830000  1.0 0.1846657579
H  H39  1  0.65830000  0.13230000  0.22170000  1.0 0.1846657579
H  H40  1  0.13230000  0.65830000  0.98770000  1.0 0.1846657579
H  H41  1  0.65830000  0.98770000  0.13230000  1.0 0.1846657579
H  H42  1  0.13230000  0.22170000  0.65830000  1.0 0.1846657579
H  H43  1  0.98770000  0.65830000  0.22170000  1.0 0.1846657579
H  H44  1  0.22170000  0.13230000  0.98770000  1.0 0.1846657579
H  H45  1  0.22170000  0.65830000  0.13230000  1.0 0.1846657579
H  H46  1  0.98770000  0.13230000  0.65830000  1.0 0.1846657579
H  H47  1  0.13230000  0.98770000  0.22170000  1.0 0.1846657579
H  H48  1  0.65830000  0.22170000  0.98770000  1.0 0.1846657579
C  C1  1  0.97960000  0.32580000  0.56000000  1.0 0.6947581356
C  C2  1  0.32580000  0.97960000  0.13460000  1.0 0.6947581356
C  C3  1  0.56000000  0.13460000  0.97960000  1.0 0.6947581356
C  C4  1  0.13460000  0.56000000  0.32580000  1.0 0.6947581356
C  C5  1  0.56000000  0.97960000  0.32580000  1.0 0.6947581356
C  C6  1  0.13460000  0.32580000  0.97960000  1.0 0.6947581356
C  C7  1  0.97960000  0.56000000  0.13460000  1.0 0.6947581356
C  C8  1  0.32580000  0.13460000  0.56000000  1.0 0.6947581356
C  C9  1  0.32580000  0.56000000  0.97960000  1.0 0.6947581356
C  C10  1  0.97960000  0.13460000  0.32580000  1.0 0.6947581356
C  C11  1  0.13460000  0.97960000  0.56000000  1.0 0.6947581356
C  C12  1  0.56000000  0.32580000  0.13460000  1.0 0.6947581356
C  C13  1  0.02040000  0.67420000  0.86540000  1.0 0.6947581356
C  C14  1  0.67420000  0.02040000  0.44000000  1.0 0.6947581356
C  C15  1  0.44000000  0.86540000  0.67420000  1.0 0.6947581356
C  C16  1  0.86540000  0.44000000  0.02040000  1.0 0.6947581356
C  C17  1  0.44000000  0.02040000  0.86540000  1.0 0.6947581356
C  C18  1  0.86540000  0.67420000  0.44000000  1.0 0.6947581356
C  C19  1  0.02040000  0.44000000  0.67420000  1.0 0.6947581356
C  C20  1  0.67420000  0.86540000  0.02040000  1.0 0.6960525498
C  C21  1  0.67420000  0.44000000  0.86540000  1.0 0.6947581356
C  C22  1  0.02040000  0.86540000  0.44000000  1.0 0.6947581356
C  C23  1  0.86540000  0.02040000  0.67420000  1.0 0.6947581356
C  C24  1  0.44000000  0.67420000  0.02040000  1.0 0.6947581356
C  C25  1  0.02040000  0.67420000  0.44000000  1.0 0.6947581356
C  C26  1  0.67420000  0.02040000  0.86540000  1.0 0.6947581356
C  C27  1  0.44000000  0.86540000  0.02040000  1.0 0.6960525498
C  C28  1  0.86540000  0.44000000  0.67420000  1.0 0.6947581356
C  C29  1  0.44000000  0.02040000  0.67420000  1.0 0.6947581356
C  C30  1  0.86540000  0.67420000  0.02040000  1.0 0.6960525498
C  C31  1  0.02040000  0.44000000  0.86540000  1.0 0.6947581356
C  C32  1  0.67420000  0.86540000  0.44000000  1.0 0.6947581356
C  C33  1  0.67420000  0.44000000  0.02040000  1.0 0.6947581356
C  C34  1  0.02040000  0.86540000  0.67420000  1.0 0.6947581356
C  C35  1  0.86540000  0.02040000  0.44000000  1.0 0.6947581356
C  C36  1  0.44000000  0.67420000  0.86540000  1.0 0.6947581356
C  C37  1  0.97960000  0.32580000  0.13460000  1.0 0.6947581356
C  C38  1  0.32580000  0.97960000  0.56000000  1.0 0.6947581356
C  C39  1  0.56000000  0.13460000  0.32580000  1.0 0.6947581356
C  C40  1  0.13460000  0.56000000  0.97960000  1.0 0.6947581356
C  C41  1  0.56000000  0.97960000  0.13460000  1.0 0.6947581356
C  C42  1  0.13460000  0.32580000  0.56000000  1.0 0.6947581356
C  C43  1  0.97960000  0.56000000  0.32580000  1.0 0.6947581356
C  C44  1  0.32580000  0.13460000  0.97960000  1.0 0.6947581356
C  C45  1  0.32580000  0.56000000  0.13460000  1.0 0.6947581356
C  C46  1  0.97960000  0.13460000  0.56000000  1.0 0.6947581356
C  C47  1  0.13460000  0.97960000  0.32580000  1.0 0.6947581356
C  C48  1  0.56000000  0.32580000  0.97960000  1.0 0.6947581356
C  C49  1  0.98040000  0.26680000  0.57560000  1.0 -0.1052720076
C  C50  1  0.26680000  0.98040000  0.17720000  1.0 -0.1046097691
C  C51  1  0.57560000  0.17720000  0.98040000  1.0 -0.1046097691
C  C52  1  0.17720000  0.57560000  0.26680000  1.0 -0.1046097691
C  C53  1  0.57560000  0.98040000  0.26680000  1.0 -0.1052720076
C  C54  1  0.17720000  0.26680000  0.98040000  1.0 -0.1052720076
C  C55  1  0.98040000  0.57560000  0.17720000  1.0 -0.1052720076
C  C56  1  0.26680000  0.17720000  0.57560000  1.0 -0.1046097691
C  C57  1  0.26680000  0.57560000  0.98040000  1.0 -0.1052720076
C  C58  1  0.98040000  0.17720000  0.26680000  1.0 -0.1052720076
C  C59  1  0.17720000  0.98040000  0.57560000  1.0 -0.1052720076
C  C60  1  0.57560000  0.26680000  0.17720000  1.0 -0.1052720076
C  C61  1  0.01960000  0.73320000  0.82280000  1.0 -0.1052720076
C  C62  1  0.73320000  0.01960000  0.42440000  1.0 -0.1052720076
C  C63  1  0.42440000  0.82280000  0.73320000  1.0 -0.1052720076
C  C64  1  0.82280000  0.42440000  0.01960000  1.0 -0.1052720076
C  C65  1  0.42440000  0.01960000  0.82280000  1.0 -0.1052720076
C  C66  1  0.82280000  0.73320000  0.42440000  1.0 -0.1052720076
C  C67  1  0.01960000  0.42440000  0.73320000  1.0 -0.1052720076
C  C68  1  0.73320000  0.82280000  0.01960000  1.0 -0.1046097691
C  C69  1  0.73320000  0.42440000  0.82280000  1.0 -0.1052720076
C  C70  1  0.01960000  0.82280000  0.42440000  1.0 -0.1052720076
C  C71  1  0.82280000  0.01960000  0.73320000  1.0 -0.1052720076
C  C72  1  0.42440000  0.73320000  0.01960000  1.0 -0.1052720076
C  C73  1  0.01960000  0.73320000  0.42440000  1.0 -0.1046097691
C  C74  1  0.73320000  0.01960000  0.82280000  1.0 -0.1052720076
C  C75  1  0.42440000  0.82280000  0.01960000  1.0 -0.1052720076
C  C76  1  0.82280000  0.42440000  0.73320000  1.0 -0.1052720076
C  C77  1  0.42440000  0.01960000  0.73320000  1.0 -0.1052720076
C  C78  1  0.82280000  0.73320000  0.01960000  1.0 -0.1046097691
C  C79  1  0.01960000  0.42440000  0.82280000  1.0 -0.1052720076
C  C80  1  0.73320000  0.82280000  0.42440000  1.0 -0.1052720076
C  C81  1  0.73320000  0.42440000  0.01960000  1.0 -0.1052720076
C  C82  1  0.01960000  0.82280000  0.73320000  1.0 -0.1052720076
C  C83  1  0.82280000  0.01960000  0.42440000  1.0 -0.1046097691
C  C84  1  0.42440000  0.73320000  0.82280000  1.0 -0.1052720076
C  C85  1  0.98040000  0.26680000  0.17720000  1.0 -0.1052720076
C  C86  1  0.26680000  0.98040000  0.57560000  1.0 -0.1052720076
C  C87  1  0.57560000  0.17720000  0.26680000  1.0 -0.1052720076
C  C88  1  0.17720000  0.57560000  0.98040000  1.0 -0.1052720076
C  C89  1  0.57560000  0.98040000  0.17720000  1.0 -0.1046097691
C  C90  1  0.17720000  0.26680000  0.57560000  1.0 -0.1052720076
C  C91  1  0.98040000  0.57560000  0.26680000  1.0 -0.1052720076
C  C92  1  0.26680000  0.17720000  0.98040000  1.0 -0.1046097691
C  C93  1  0.26680000  0.57560000  0.17720000  1.0 -0.1052720076
C  C94  1  0.98040000  0.17720000  0.57560000  1.0 -0.1052720076
C  C95  1  0.17720000  0.98040000  0.26680000  1.0 -0.1052720076
C  C96  1  0.57560000  0.26680000  0.98040000  1.0 -0.1052720076
C  C97  1  0.98490000  0.21990000  0.62690000  1.0 -0.0335981019
C  C98  1  0.21990000  0.98490000  0.16830000  1.0 -0.0335981019
C  C99  1  0.62690000  0.16830000  0.98490000  1.0 -0.0335981019
C  C100  1  0.16830000  0.62690000  0.21990000  1.0 -0.0335981019
C  C101  1  0.62690000  0.98490000  0.21990000  1.0 -0.0335981019
C  C102  1  0.16830000  0.21990000  0.98490000  1.0 -0.0335981019
C  C103  1  0.98490000  0.62690000  0.16830000  1.0 -0.0335981019
C  C104  1  0.21990000  0.16830000  0.62690000  1.0 -0.0335981019
C  C105  1  0.21990000  0.62690000  0.98490000  1.0 -0.0335981019
C  C106  1  0.98490000  0.16830000  0.21990000  1.0 -0.0335981019
C  C107  1  0.16830000  0.98490000  0.62690000  1.0 -0.0335981019
C  C108  1  0.62690000  0.21990000  0.16830000  1.0 -0.0335981019
C  C109  1  0.01510000  0.78010000  0.83170000  1.0 -0.0335981019
C  C110  1  0.78010000  0.01510000  0.37310000  1.0 -0.0335981019
C  C111  1  0.37310000  0.83170000  0.78010000  1.0 -0.0335981019
C  C112  1  0.83170000  0.37310000  0.01510000  1.0 -0.0335981019
C  C113  1  0.37310000  0.01510000  0.83170000  1.0 -0.0335981019
C  C114  1  0.83170000  0.78010000  0.37310000  1.0 -0.0335981019
C  C115  1  0.01510000  0.37310000  0.78010000  1.0 -0.0335981019
C  C116  1  0.78010000  0.83170000  0.01510000  1.0 -0.0335981019
C  C117  1  0.78010000  0.37310000  0.83170000  1.0 -0.0335981019
C  C118  1  0.01510000  0.83170000  0.37310000  1.0 -0.0335981019
C  C119  1  0.83170000  0.01510000  0.78010000  1.0 -0.0335981019
C  C120  1  0.37310000  0.78010000  0.01510000  1.0 -0.0335981019
C  C121  1  0.01510000  0.78010000  0.37310000  1.0 -0.0335981019
C  C122  1  0.78010000  0.01510000  0.83170000  1.0 -0.0335981019
C  C123  1  0.37310000  0.83170000  0.01510000  1.0 -0.0335981019
C  C124  1  0.83170000  0.37310000  0.78010000  1.0 -0.0335981019
C  C125  1  0.37310000  0.01510000  0.78010000  1.0 -0.0335981019
C  C126  1  0.83170000  0.78010000  0.01510000  1.0 -0.0335981019
C  C127  1  0.01510000  0.37310000  0.83170000  1.0 -0.0335981019
C  C128  1  0.78010000  0.83170000  0.37310000  1.0 -0.0335981019
C  C129  1  0.78010000  0.37310000  0.01510000  1.0 -0.0335981019
C  C130  1  0.01510000  0.83170000  0.78010000  1.0 -0.0335981019
C  C131  1  0.83170000  0.01510000  0.37310000  1.0 -0.0335981019
C  C132  1  0.37310000  0.78010000  0.83170000  1.0 -0.0335981019
C  C133  1  0.98490000  0.21990000  0.16830000  1.0 -0.0335981019
C  C134  1  0.21990000  0.98490000  0.62690000  1.0 -0.0335981019
C  C135  1  0.62690000  0.16830000  0.21990000  1.0 -0.0335981019
C  C136  1  0.16830000  0.62690000  0.98490000  1.0 -0.0335981019
C  C137  1  0.62690000  0.98490000  0.16830000  1.0 -0.0335981019
C  C138  1  0.16830000  0.21990000  0.62690000  1.0 -0.0335981019
C  C139  1  0.98490000  0.62690000  0.21990000  1.0 -0.0335981019
C  C140  1  0.21990000  0.16830000  0.98490000  1.0 -0.0335981019
C  C141  1  0.21990000  0.62690000  0.16830000  1.0 -0.0335981019
C  C142  1  0.98490000  0.16830000  0.62690000  1.0 -0.0335981019
C  C143  1  0.16830000  0.98490000  0.21990000  1.0 -0.0335981019
C  C144  1  0.62690000  0.21990000  0.98490000  1.0 -0.0335981019
S  S1  1  0.97433000  0.24905000  0.52757000  1.0 0.356690912
S  S2  1  0.24905000  0.97433000  0.24905000  1.0 0.356690912
S  S3  1  0.52757000  0.24905000  0.97433000  1.0 0.3539118219
S  S4  1  0.24905000  0.52757000  0.24905000  1.0 0.356690912
S  S5  1  0.52757000  0.97433000  0.24905000  1.0 0.356690912
S  S6  1  0.24905000  0.24905000  0.97433000  1.0 0.3539118219
S  S7  1  0.97433000  0.52757000  0.24905000  1.0 0.356690912
S  S8  1  0.24905000  0.24905000  0.52757000  1.0 0.3539118219
S  S9  1  0.24905000  0.52757000  0.97433000  1.0 0.3539118219
S  S10  1  0.97433000  0.24905000  0.24905000  1.0 0.356690912
S  S11  1  0.24905000  0.97433000  0.52757000  1.0 0.356690912
S  S12  1  0.52757000  0.24905000  0.24905000  1.0 0.356690912
S  S13  1  0.02567000  0.75095000  0.75095000  1.0 0.3539118219
S  S14  1  0.75095000  0.02567000  0.47243000  1.0 0.3539118219
S  S15  1  0.47243000  0.75095000  0.75095000  1.0 0.356690912
S  S16  1  0.75095000  0.47243000  0.02567000  1.0 0.356690912
S  S17  1  0.47243000  0.02567000  0.75095000  1.0 0.3539118219
S  S18  1  0.75095000  0.75095000  0.47243000  1.0 0.356690912
S  S19  1  0.02567000  0.47243000  0.75095000  1.0 0.3539118219
S  S20  1  0.75095000  0.75095000  0.02567000  1.0 0.365113843
S  S21  1  0.75095000  0.47243000  0.75095000  1.0 0.3539118219
S  S22  1  0.02567000  0.75095000  0.47243000  1.0 0.3539118219
S  S23  1  0.75095000  0.02567000  0.75095000  1.0 0.3539118219
S  S24  1  0.47243000  0.75095000  0.02567000  1.0 0.356690912
O  O1  1  0.04560000  0.39800000  0.39800000  1.0 -0.711529957
O  O2  1  0.39800000  0.04560000  0.15840000  1.0 -0.711529957
O  O3  1  0.39800000  0.15840000  0.04560000  1.0 -0.711529957
O  O4  1  0.15840000  0.39800000  0.39800000  1.0 -0.711529957
O  O5  1  0.39800000  0.04560000  0.39800000  1.0 -0.7296201403
O  O6  1  0.15840000  0.39800000  0.04560000  1.0 -0.711529957
O  O7  1  0.04560000  0.39800000  0.15840000  1.0 -0.711529957
O  O8  1  0.39800000  0.15840000  0.39800000  1.0 -0.711529957
O  O9  1  0.39800000  0.39800000  0.04560000  1.0 -0.711529957
O  O10  1  0.04560000  0.15840000  0.39800000  1.0 -0.711529957
O  O11  1  0.15840000  0.04560000  0.39800000  1.0 -0.711529957
O  O12  1  0.39800000  0.39800000  0.15840000  1.0 -0.711529957
O  O13  1  0.95440000  0.60200000  0.84160000  1.0 -0.711529957
O  O14  1  0.60200000  0.95440000  0.60200000  1.0 -0.711529957
O  O15  1  0.60200000  0.84160000  0.60200000  1.0 -0.711529957
O  O16  1  0.84160000  0.60200000  0.95440000  1.0 -0.711529957
O  O17  1  0.60200000  0.95440000  0.84160000  1.0 -0.711529957
O  O18  1  0.84160000  0.60200000  0.60200000  1.0 -0.711529957
O  O19  1  0.95440000  0.60200000  0.60200000  1.0 -0.711529957
O  O20  1  0.60200000  0.84160000  0.95440000  1.0 -0.711529957
O  O21  1  0.60200000  0.60200000  0.84160000  1.0 -0.711529957
O  O22  1  0.95440000  0.84160000  0.60200000  1.0 -0.711529957
O  O23  1  0.84160000  0.95440000  0.60200000  1.0 -0.711529957
O  O24  1  0.60200000  0.60200000  0.95440000  1.0 -0.711529957
O  O25  1  0.89340000  0.46220000  0.46220000  1.0 -0.6601637641
O  O26  1  0.46220000  0.89340000  0.18220000  1.0 -0.6601637641
O  O27  1  0.46220000  0.18220000  0.89340000  1.0 -0.6601637641
O  O28  1  0.18220000  0.46220000  0.46220000  1.0 -0.6601637641
O  O29  1  0.46220000  0.89340000  0.46220000  1.0 -0.6601637641
O  O30  1  0.18220000  0.46220000  0.89340000  1.0 -0.6601637641
O  O31  1  0.89340000  0.46220000  0.18220000  1.0 -0.6601637641
O  O32  1  0.46220000  0.18220000  0.46220000  1.0 -0.6601637641
O  O33  1  0.46220000  0.46220000  0.89340000  1.0 -0.6601637641
O  O34  1  0.89340000  0.18220000  0.46220000  1.0 -0.6601637641
O  O35  1  0.18220000  0.89340000  0.46220000  1.0 -0.6601637641
O  O36  1  0.46220000  0.46220000  0.18220000  1.0 -0.6601637641
O  O37  1  0.10660000  0.53780000  0.81780000  1.0 -0.6601637641
O  O38  1  0.53780000  0.10660000  0.53780000  1.0 -0.6601637641
O  O39  1  0.53780000  0.81780000  0.53780000  1.0 -0.6601637641
O  O40  1  0.81780000  0.53780000  0.10660000  1.0 -0.6601637641
O  O41  1  0.53780000  0.10660000  0.81780000  1.0 -0.6601637641
O  O42  1  0.81780000  0.53780000  0.53780000  1.0 -0.6601637641
O  O43  1  0.10660000  0.53780000  0.53780000  1.0 -0.6601637641
O  O44  1  0.53780000  0.81780000  0.10660000  1.0 -0.6601637641
O  O45  1  0.53780000  0.53780000  0.81780000  1.0 -0.6601637641
O  O46  1  0.10660000  0.81780000  0.53780000  1.0 -0.6601637641
O  O47  1  0.81780000  0.10660000  0.53780000  1.0 -0.6601637641
O  O48  1  0.53780000  0.53780000  0.10660000  1.0 -0.6601637641
O  O49  1  0.93580000  0.45640000  0.54360000  1.0 -1.0613806374
O  O50  1  0.45640000  0.93580000  0.06420000  1.0 -1.0613806374
O  O51  1  0.54360000  0.06420000  0.93580000  1.0 -1.0613806374
O  O52  1  0.06420000  0.54360000  0.45640000  1.0 -1.0669087428
O  O53  1  0.54360000  0.93580000  0.45640000  1.0 -1.0613806374
O  O54  1  0.06420000  0.45640000  0.93580000  1.0 -1.0613806374
O  O55  1  0.93580000  0.54360000  0.06420000  1.0 -1.0613806374
O  O56  1  0.45640000  0.06420000  0.54360000  1.0 -1.0613806374
O  O57  1  0.45640000  0.54360000  0.93580000  1.0 -1.0613806374
O  O58  1  0.93580000  0.06420000  0.45640000  1.0 -1.0613806374
O  O59  1  0.06420000  0.93580000  0.54360000  1.0 -1.0613806374
O  O60  1  0.54360000  0.45640000  0.06420000  1.0 -1.0613806374
O  O61  1  0.06420000  0.54360000  0.93580000  1.0 -1.0613806374
O  O62  1  0.54360000  0.06420000  0.45640000  1.0 -1.0613806374
O  O63  1  0.45640000  0.93580000  0.54360000  1.0 -1.0613806374
O  O64  1  0.93580000  0.45640000  0.06420000  1.0 -1.0613806374
O  O65  1  0.45640000  0.06420000  0.93580000  1.0 -1.0613806374
O  O66  1  0.93580000  0.54360000  0.45640000  1.0 -1.0613806374
O  O67  1  0.06420000  0.45640000  0.54360000  1.0 -1.0613806374
O  O68  1  0.54360000  0.93580000  0.06420000  1.0 -1.0613806374
O  O69  1  0.54360000  0.45640000  0.93580000  1.0 -1.0613806374
O  O70  1  0.06420000  0.93580000  0.45640000  1.0 -1.0613806374
O  O71  1  0.93580000  0.06420000  0.54360000  1.0 -1.0613806374
O  O72  1  0.45640000  0.54360000  0.06420000  1.0 -1.0613806374
O  O73  1  0.95520000  0.50100000  0.58860000  1.0 -1.0669087428
O  O74  1  0.50100000  0.95520000  0.95520000  1.0 -1.0669087428
O  O75  1  0.58860000  0.95520000  0.95520000  1.0 -1.0669087428
O  O76  1  0.95520000  0.58860000  0.50100000  1.0 -1.0613806374
O  O77  1  0.58860000  0.95520000  0.50100000  1.0 -1.0669087428
O  O78  1  0.95520000  0.50100000  0.95520000  1.0 -1.0669087428
O  O79  1  0.95520000  0.58860000  0.95520000  1.0 -1.0669087428
O  O80  1  0.50100000  0.95520000  0.58860000  1.0 -1.0669087428
O  O81  1  0.50100000  0.58860000  0.95520000  1.0 -1.0669087428
O  O82  1  0.95520000  0.95520000  0.50100000  1.0 -1.0669087428
O  O83  1  0.95520000  0.95520000  0.58860000  1.0 -1.0669087428
O  O84  1  0.58860000  0.50100000  0.95520000  1.0 -1.0669087428
O  O85  1  0.04480000  0.49900000  0.04480000  1.0 -1.0669087428
O  O86  1  0.49900000  0.04480000  0.41140000  1.0 -1.0669087428
O  O87  1  0.41140000  0.04480000  0.49900000  1.0 -1.0613806374
O  O88  1  0.04480000  0.41140000  0.04480000  1.0 -1.0669087428
O  O89  1  0.41140000  0.04480000  0.04480000  1.0 -1.0669087428
O  O90  1  0.04480000  0.49900000  0.41140000  1.0 -1.0669087428
O  O91  1  0.04480000  0.41140000  0.49900000  1.0 -1.0669087428
O  O92  1  0.49900000  0.04480000  0.04480000  1.0 -1.0669087428
O  O93  1  0.49900000  0.41140000  0.04480000  1.0 -1.0669087428
O  O94  1  0.04480000  0.04480000  0.41140000  1.0 -1.0669087428
O  O95  1  0.04480000  0.04480000  0.49900000  1.0 -1.0669087428
O  O96  1  0.41140000  0.49900000  0.04480000  1.0 -1.0669087428
O  O97  1  0.97450000  0.36290000  0.50930000  1.0 -0.5403342659
O  O98  1  0.36290000  0.97450000  0.15330000  1.0 -0.5403342659
O  O99  1  0.50930000  0.15330000  0.97450000  1.0 -0.5403342659
O  O100  1  0.15330000  0.50930000  0.36290000  1.0 -0.5403342659
O  O101  1  0.50930000  0.97450000  0.36290000  1.0 -0.5403342659
O  O102  1  0.15330000  0.36290000  0.97450000  1.0 -0.5403342659
O  O103  1  0.97450000  0.50930000  0.15330000  1.0 -0.5403342659
O  O104  1  0.36290000  0.15330000  0.50930000  1.0 -0.5403342659
O  O105  1  0.36290000  0.50930000  0.97450000  1.0 -0.5403342659
O  O106  1  0.97450000  0.15330000  0.36290000  1.0 -0.5403342659
O  O107  1  0.15330000  0.97450000  0.50930000  1.0 -0.5403342659
O  O108  1  0.50930000  0.36290000  0.15330000  1.0 -0.5403342659
O  O109  1  0.02550000  0.63710000  0.84670000  1.0 -0.5403342659
O  O110  1  0.63710000  0.02550000  0.49070000  1.0 -0.5403342659
O  O111  1  0.49070000  0.84670000  0.63710000  1.0 -0.5403342659
O  O112  1  0.84670000  0.49070000  0.02550000  1.0 -0.5403342659
O  O113  1  0.49070000  0.02550000  0.84670000  1.0 -0.5403342659
O  O114  1  0.84670000  0.63710000  0.49070000  1.0 -0.5403342659
O  O115  1  0.02550000  0.49070000  0.63710000  1.0 -0.5403342659
O  O116  1  0.63710000  0.84670000  0.02550000  1.0 -0.5403342659
O  O117  1  0.63710000  0.49070000  0.84670000  1.0 -0.5403342659
O  O118  1  0.02550000  0.84670000  0.49070000  1.0 -0.5403342659
O  O119  1  0.84670000  0.02550000  0.63710000  1.0 -0.5403342659
O  O120  1  0.49070000  0.63710000  0.02550000  1.0 -0.5403342659
O  O121  1  0.02550000  0.63710000  0.49070000  1.0 -0.5403342659
O  O122  1  0.63710000  0.02550000  0.84670000  1.0 -0.5403342659
O  O123  1  0.49070000  0.84670000  0.02550000  1.0 -0.5403342659
O  O124  1  0.84670000  0.49070000  0.63710000  1.0 -0.5403342659
O  O125  1  0.49070000  0.02550000  0.63710000  1.0 -0.5403342659
O  O126  1  0.84670000  0.63710000  0.02550000  1.0 -0.5403342659
O  O127  1  0.02550000  0.49070000  0.84670000  1.0 -0.5403342659
O  O128  1  0.63710000  0.84670000  0.49070000  1.0 -0.5403342659
O  O129  1  0.63710000  0.49070000  0.02550000  1.0 -0.5403342659
O  O130  1  0.02550000  0.84670000  0.63710000  1.0 -0.5403342659
O  O131  1  0.84670000  0.02550000  0.49070000  1.0 -0.5403342659
O  O132  1  0.49070000  0.63710000  0.84670000  1.0 -0.5403342659
O  O133  1  0.97450000  0.36290000  0.15330000  1.0 -0.5403342659
O  O134  1  0.36290000  0.97450000  0.50930000  1.0 -0.5403342659
O  O135  1  0.50930000  0.15330000  0.36290000  1.0 -0.5403342659
O  O136  1  0.15330000  0.50930000  0.97450000  1.0 -0.5403342659
O  O137  1  0.50930000  0.97450000  0.15330000  1.0 -0.5403342659
O  O138  1  0.15330000  0.36290000  0.50930000  1.0 -0.5403342659
O  O139  1  0.97450000  0.50930000  0.36290000  1.0 -0.5403342659
O  O140  1  0.36290000  0.15330000  0.97450000  1.0 -0.5403342659
O  O141  1  0.36290000  0.50930000  0.15330000  1.0 -0.5403342659
O  O142  1  0.97450000  0.15330000  0.50930000  1.0 -0.5403342659
O  O143  1  0.15330000  0.97450000  0.36290000  1.0 -0.5403342659
O  O144  1  0.50930000  0.36290000  0.97450000  1.0 -0.5403342659
O  O145  1  0.98574000  0.33562000  0.59600000  1.0 -0.5056207578
O  O146  1  0.33562000  0.98574000  0.08264000  1.0 -0.504696172
O  O147  1  0.59600000  0.08264000  0.98574000  1.0 -0.5056207578
O  O148  1  0.08264000  0.59600000  0.33562000  1.0 -0.5056207578
O  O149  1  0.59600000  0.98574000  0.33562000  1.0 -0.5056207578
O  O150  1  0.08264000  0.33562000  0.98574000  1.0 -0.5056207578
O  O151  1  0.98574000  0.59600000  0.08264000  1.0 -0.5056207578
O  O152  1  0.33562000  0.08264000  0.59600000  1.0 -0.5056207578
O  O153  1  0.33562000  0.59600000  0.98574000  1.0 -0.5056207578
O  O154  1  0.98574000  0.08264000  0.33562000  1.0 -0.5056207578
O  O155  1  0.08264000  0.98574000  0.59600000  1.0 -0.5056207578
O  O156  1  0.59600000  0.33562000  0.08264000  1.0 -0.5056207578
O  O157  1  0.01426000  0.66438000  0.91736000  1.0 -0.5056207578
O  O158  1  0.66438000  0.01426000  0.40400000  1.0 -0.5056207578
O  O159  1  0.40400000  0.91736000  0.66438000  1.0 -0.5056207578
O  O160  1  0.91736000  0.40400000  0.01426000  1.0 -0.5056207578
O  O161  1  0.40400000  0.01426000  0.91736000  1.0 -0.5056207578
O  O162  1  0.91736000  0.66438000  0.40400000  1.0 -0.5056207578
O  O163  1  0.01426000  0.40400000  0.66438000  1.0 -0.5056207578
O  O164  1  0.66438000  0.91736000  0.01426000  1.0 -0.5056207578
O  O165  1  0.66438000  0.40400000  0.91736000  1.0 -0.5056207578
O  O166  1  0.01426000  0.91736000  0.40400000  1.0 -0.5056207578
O  O167  1  0.91736000  0.01426000  0.66438000  1.0 -0.504696172
O  O168  1  0.40400000  0.66438000  0.01426000  1.0 -0.5056207578
O  O169  1  0.01426000  0.66438000  0.40400000  1.0 -0.5056207578
O  O170  1  0.66438000  0.01426000  0.91736000  1.0 -0.5056207578
O  O171  1  0.40400000  0.91736000  0.01426000  1.0 -0.5056207578
O  O172  1  0.91736000  0.40400000  0.66438000  1.0 -0.5056207578
O  O173  1  0.40400000  0.01426000  0.66438000  1.0 -0.504696172
O  O174  1  0.91736000  0.66438000  0.01426000  1.0 -0.5056207578
O  O175  1  0.01426000  0.40400000  0.91736000  1.0 -0.5056207578
O  O176  1  0.66438000  0.91736000  0.40400000  1.0 -0.5056207578
O  O177  1  0.66438000  0.40400000  0.01426000  1.0 -0.5056207578
O  O178  1  0.01426000  0.91736000  0.66438000  1.0 -0.5056207578
O  O179  1  0.91736000  0.01426000  0.40400000  1.0 -0.5056207578
O  O180  1  0.40400000  0.66438000  0.91736000  1.0 -0.5056207578
O  O181  1  0.98574000  0.33562000  0.08264000  1.0 -0.5056207578
O  O182  1  0.33562000  0.98574000  0.59600000  1.0 -0.5056207578
O  O183  1  0.59600000  0.08264000  0.33562000  1.0 -0.5056207578
O  O184  1  0.08264000  0.59600000  0.98574000  1.0 -0.5056207578
O  O185  1  0.59600000  0.98574000  0.08264000  1.0 -0.5056207578
O  O186  1  0.08264000  0.33562000  0.59600000  1.0 -0.5056207578
O  O187  1  0.98574000  0.59600000  0.33562000  1.0 -0.5056207578
O  O188  1  0.33562000  0.08264000  0.98574000  1.0 -0.504696172
O  O189  1  0.33562000  0.59600000  0.08264000  1.0 -0.5056207578
O  O190  1  0.98574000  0.08264000  0.59600000  1.0 -0.5056207578
O  O191  1  0.08264000  0.98574000  0.33562000  1.0 -0.5056207578
O  O192  1  0.59600000  0.33562000  0.98574000  1.0 -0.5056207578
