# DDEC6 charges by PACMAN v1.1 (https://github.com/mtap-research/PACMAN-charge/)
data_FIJREW_FSR_pacman
_symmetry_space_group_name_H-M   'P 1'
_cell_length_a   14.14700000
_cell_length_b   18.09400000
_cell_length_c   20.45700000
_cell_angle_alpha   90.00000000
_cell_angle_beta   102.56700000
_cell_angle_gamma   90.00000000
_symmetry_Int_Tables_number   1
_chemical_formula_structural   AgH17C23(OF2)4
_chemical_formula_sum   'Ag8 H136 C184 O32 F64'
_cell_volume   5111.04257118
_cell_formula_units_Z   8
loop_
 _symmetry_equiv_pos_site_id
 _symmetry_equiv_pos_as_xyz
  1  'x, y, z'
loop_
 _atom_site_type_symbol
 _atom_site_label
 _atom_site_symmetry_multiplicity
 _atom_site_fract_x
 _atom_site_fract_y
 _atom_site_fract_z
 _atom_site_occupancy
 _atom_site_charge
Ag  Ag1  1  0.75308000  0.61309000  0.99925000  1.0 0.4133063947
Ag  Ag2  1  0.24692000  0.11309000  0.50075000  1.0 0.4133063947
Ag  Ag3  1  0.24692000  0.38691000  0.00075000  1.0 0.4133063947
Ag  Ag4  1  0.75308000  0.88691000  0.49925000  1.0 0.4133063947
Ag  Ag5  1  0.76410000  0.39395000  0.53657000  1.0 0.4271659126
Ag  Ag6  1  0.23590000  0.89395000  0.96343000  1.0 0.4271659126
Ag  Ag7  1  0.23590000  0.60605000  0.46343000  1.0 0.4271659126
Ag  Ag8  1  0.76410000  0.10605000  0.03657000  1.0 0.4271659126
H  H1  1  0.57100000  0.55300000  0.89500000  1.0 0.1377682687
H  H2  1  0.42900000  0.05300000  0.60500000  1.0 0.1377682687
H  H3  1  0.42900000  0.44700000  0.10500000  1.0 0.1377682687
H  H4  1  0.57100000  0.94700000  0.39500000  1.0 0.1377682687
H  H5  1  0.59900000  0.43200000  0.91600000  1.0 0.1318295903
H  H6  1  0.40100000  0.93200000  0.58400000  1.0 0.1318295903
H  H7  1  0.40100000  0.56800000  0.08400000  1.0 0.1318295903
H  H8  1  0.59900000  0.06800000  0.41600000  1.0 0.1318295903
H  H9  1  0.63700000  0.46700000  0.11100000  1.0 0.1318295903
H  H10  1  0.36300000  0.96700000  0.38900000  1.0 0.1318295903
H  H11  1  0.36300000  0.53300000  0.88900000  1.0 0.1318295903
H  H12  1  0.63700000  0.03300000  0.61100000  1.0 0.1318295903
H  H13  1  0.62000000  0.58500000  0.08800000  1.0 0.1318295903
H  H14  1  0.38000000  0.08500000  0.41200000  1.0 0.1318295903
H  H15  1  0.38000000  0.41500000  0.91200000  1.0 0.1318295903
H  H16  1  0.62000000  0.91500000  0.58800000  1.0 0.1318295903
H  H17  1  0.53400000  0.67900000  0.94100000  1.0 0.1196968501
H  H18  1  0.46600000  0.17900000  0.55900000  1.0 0.1196968501
H  H19  1  0.46600000  0.32100000  0.05900000  1.0 0.1196968501
H  H20  1  0.53400000  0.82100000  0.44100000  1.0 0.1196968501
H  H21  1  0.54600000  0.68800000  0.02100000  1.0 0.1108024065
H  H22  1  0.45400000  0.18800000  0.47900000  1.0 0.1108024065
H  H23  1  0.45400000  0.31200000  0.97900000  1.0 0.1108024065
H  H24  1  0.54600000  0.81200000  0.52100000  1.0 0.1108024065
H  H25  1  0.60700000  0.32400000  0.99800000  1.0 0.1196968501
H  H26  1  0.39300000  0.82400000  0.50200000  1.0 0.1196968501
H  H27  1  0.39300000  0.67600000  0.00200000  1.0 0.1196968501
H  H28  1  0.60700000  0.17600000  0.49800000  1.0 0.1196968501
H  H29  1  0.61600000  0.33900000  0.07300000  1.0 0.1196968501
H  H30  1  0.38400000  0.83900000  0.42700000  1.0 0.1196968501
H  H31  1  0.38400000  0.66100000  0.92700000  1.0 0.1196968501
H  H32  1  0.61600000  0.16100000  0.57300000  1.0 0.1196968501
H  H33  1  0.82700000  0.45000000  0.00900000  1.0 0.1318295903
H  H34  1  0.17300000  0.95000000  0.49100000  1.0 0.1318295903
H  H35  1  0.17300000  0.55000000  0.99100000  1.0 0.1318295903
H  H36  1  0.82700000  0.05000000  0.50900000  1.0 0.1318295903
H  H37  1  0.86500000  0.45400000  0.90500000  1.0 0.1318295903
H  H38  1  0.13500000  0.95400000  0.59500000  1.0 0.1318295903
H  H39  1  0.13500000  0.54600000  0.09500000  1.0 0.1318295903
H  H40  1  0.86500000  0.04600000  0.40500000  1.0 0.1318295903
H  H41  1  0.00400000  0.63900000  0.94100000  1.0 0.1318295903
H  H42  1  0.99600000  0.13900000  0.55900000  1.0 0.1318295903
H  H43  1  0.99600000  0.36100000  0.05900000  1.0 0.1318295903
H  H44  1  0.00400000  0.86100000  0.44100000  1.0 0.1318295903
H  H45  1  0.96600000  0.63900000  0.05200000  1.0 0.1377682687
H  H46  1  0.03400000  0.13900000  0.44800000  1.0 0.1377682687
H  H47  1  0.03400000  0.36100000  0.94800000  1.0 0.1377682687
H  H48  1  0.96600000  0.86100000  0.55200000  1.0 0.1377682687
H  H49  1  0.85800000  0.51200000  0.12700000  1.0 0.1108024065
H  H50  1  0.14200000  0.01200000  0.37300000  1.0 0.1108024065
H  H51  1  0.14200000  0.48800000  0.87300000  1.0 0.1108024065
H  H52  1  0.85800000  0.98800000  0.62700000  1.0 0.1108024065
H  H53  1  0.93100000  0.57000000  0.14200000  1.0 0.1108024065
H  H54  1  0.06900000  0.07000000  0.35800000  1.0 0.1108024065
H  H55  1  0.06900000  0.43000000  0.85800000  1.0 0.1108024065
H  H56  1  0.93100000  0.93000000  0.64200000  1.0 0.1108024065
H  H57  1  0.96000000  0.51500000  0.82200000  1.0 0.0995664914
H  H58  1  0.04000000  0.01500000  0.67800000  1.0 0.0995664914
H  H59  1  0.04000000  0.48500000  0.17800000  1.0 0.0995664914
H  H60  1  0.96000000  0.98500000  0.32200000  1.0 0.0995664914
H  H61  1  0.01300000  0.57100000  0.84300000  1.0 0.0995664914
H  H62  1  0.98700000  0.07100000  0.65700000  1.0 0.0995664914
H  H63  1  0.98700000  0.42900000  0.15700000  1.0 0.0995664914
H  H64  1  0.01300000  0.92900000  0.34300000  1.0 0.0995664914
H  H65  1  0.84300000  0.78100000  0.99700000  1.0 0.3500558381
H  H66  1  0.15700000  0.28100000  0.50300000  1.0 0.3500558381
H  H67  1  0.15700000  0.21900000  0.00300000  1.0 0.3500558381
H  H68  1  0.84300000  0.71900000  0.49700000  1.0 0.3500558381
H  H69  1  0.62200000  0.45000000  0.61600000  1.0 0.1377682687
H  H70  1  0.37800000  0.95000000  0.88400000  1.0 0.1377682687
H  H71  1  0.37800000  0.55000000  0.38400000  1.0 0.1377682687
H  H72  1  0.62200000  0.05000000  0.11600000  1.0 0.1377682687
H  H73  1  0.63400000  0.57300000  0.58600000  1.0 0.1318295903
H  H74  1  0.36600000  0.07300000  0.91400000  1.0 0.1318295903
H  H75  1  0.36600000  0.42700000  0.41400000  1.0 0.1318295903
H  H76  1  0.63400000  0.92700000  0.08600000  1.0 0.1318295903
H  H77  1  0.59200000  0.52700000  0.39800000  1.0 0.1318295903
H  H78  1  0.40800000  0.02700000  0.10200000  1.0 0.1318295903
H  H79  1  0.40800000  0.47300000  0.60200000  1.0 0.1318295903
H  H80  1  0.59200000  0.97300000  0.89800000  1.0 0.1318295903
H  H81  1  0.58700000  0.40300000  0.42700000  1.0 0.1318295903
H  H82  1  0.41300000  0.90300000  0.07300000  1.0 0.1318295903
H  H83  1  0.41300000  0.59700000  0.57300000  1.0 0.1318295903
H  H84  1  0.58700000  0.09700000  0.92700000  1.0 0.1318295903
H  H85  1  0.56800000  0.32700000  0.57300000  1.0 0.1108024065
H  H86  1  0.43200000  0.82700000  0.92700000  1.0 0.1108024065
H  H87  1  0.43200000  0.67300000  0.42700000  1.0 0.1108024065
H  H88  1  0.56800000  0.17300000  0.07300000  1.0 0.1108024065
H  H89  1  0.54900000  0.31200000  0.50500000  1.0 0.1108024065
H  H90  1  0.45100000  0.81200000  0.99500000  1.0 0.1108024065
H  H91  1  0.45100000  0.68800000  0.49500000  1.0 0.1108024065
H  H92  1  0.54900000  0.18800000  0.00500000  1.0 0.1108024065
H  H93  1  0.60500000  0.67400000  0.49900000  1.0 0.0995664914
H  H94  1  0.39500000  0.17400000  0.00100000  1.0 0.0995664914
H  H95  1  0.39500000  0.32600000  0.50100000  1.0 0.0995664914
H  H96  1  0.60500000  0.82600000  0.99900000  1.0 0.0995664914
H  H97  1  0.58400000  0.66300000  0.43500000  1.0 0.0995664914
H  H98  1  0.41600000  0.16300000  0.06500000  1.0 0.0995664914
H  H99  1  0.41600000  0.33700000  0.56500000  1.0 0.0995664914
H  H100  1  0.58400000  0.83700000  0.93500000  1.0 0.0995664914
H  H101  1  0.83100000  0.54700000  0.54000000  1.0 0.1318295903
H  H102  1  0.16900000  0.04700000  0.96000000  1.0 0.1318295903
H  H103  1  0.16900000  0.45300000  0.46000000  1.0 0.1318295903
H  H104  1  0.83100000  0.95300000  0.04000000  1.0 0.1318295903
H  H105  1  0.82900000  0.55000000  0.42600000  1.0 0.1318295903
H  H106  1  0.17100000  0.05000000  0.07400000  1.0 0.1318295903
H  H107  1  0.17100000  0.45000000  0.57400000  1.0 0.1318295903
H  H108  1  0.82900000  0.95000000  0.92600000  1.0 0.1318295903
H  H109  1  0.98100000  0.37200000  0.44200000  1.0 0.1318295903
H  H110  1  0.01900000  0.87200000  0.05800000  1.0 0.1318295903
H  H111  1  0.01900000  0.62800000  0.55800000  1.0 0.1318295903
H  H112  1  0.98100000  0.12800000  0.94200000  1.0 0.1318295903
H  H113  1  0.98600000  0.36000000  0.55600000  1.0 0.1377682687
H  H114  1  0.01400000  0.86000000  0.94400000  1.0 0.1377682687
H  H115  1  0.01400000  0.64000000  0.44400000  1.0 0.1377682687
H  H116  1  0.98600000  0.14000000  0.05600000  1.0 0.1377682687
H  H117  1  0.91200000  0.49600000  0.65000000  1.0 0.0995664914
H  H118  1  0.08800000  0.99600000  0.85000000  1.0 0.0995664914
H  H119  1  0.08800000  0.50400000  0.35000000  1.0 0.0995664914
H  H120  1  0.91200000  0.00400000  0.15000000  1.0 0.0995664914
H  H121  1  0.96400000  0.42900000  0.65100000  1.0 0.1108024065
H  H122  1  0.03600000  0.92900000  0.84900000  1.0 0.1108024065
H  H123  1  0.03600000  0.57100000  0.34900000  1.0 0.1108024065
H  H124  1  0.96400000  0.07100000  0.15100000  1.0 0.1108024065
H  H125  1  0.89200000  0.50600000  0.32700000  1.0 0.1108024065
H  H126  1  0.10800000  0.00600000  0.17300000  1.0 0.1108024065
H  H127  1  0.10800000  0.49400000  0.67300000  1.0 0.1108024065
H  H128  1  0.89200000  0.99400000  0.82700000  1.0 0.1108024065
H  H129  1  0.96100000  0.44100000  0.33800000  1.0 0.1196968501
H  H130  1  0.03900000  0.94100000  0.16200000  1.0 0.1196968501
H  H131  1  0.03900000  0.55900000  0.66200000  1.0 0.1196968501
H  H132  1  0.96100000  0.05900000  0.83800000  1.0 0.1196968501
H  H133  1  0.84100000  0.29500000  0.03100000  1.0 0.3500558381
H  H134  1  0.15900000  0.79500000  0.46900000  1.0 0.3500558381
H  H135  1  0.15900000  0.70500000  0.96900000  1.0 0.3500558381
H  H136  1  0.84100000  0.20500000  0.53100000  1.0 0.3500558381
C  C1  1  0.58440000  0.58490000  0.98930000  1.0 0.0481516015
C  C2  1  0.41560000  0.08490000  0.51070000  1.0 0.0481516015
C  C3  1  0.41560000  0.41510000  0.01070000  1.0 0.0481516015
C  C4  1  0.58440000  0.91510000  0.48930000  1.0 0.0481516015
C  C5  1  0.58800000  0.53590000  0.93730000  1.0 -0.1403159271
C  C6  1  0.41200000  0.03590000  0.56270000  1.0 -0.1403159271
C  C7  1  0.41200000  0.46410000  0.06270000  1.0 -0.1403159271
C  C8  1  0.58800000  0.96410000  0.43730000  1.0 -0.1403159271
C  C9  1  0.60100000  0.46070000  0.95080000  1.0 -0.1305887282
C  C10  1  0.39900000  0.96070000  0.54920000  1.0 -0.1403159271
C  C11  1  0.39900000  0.53930000  0.04920000  1.0 -0.1305887282
C  C12  1  0.60100000  0.03930000  0.45080000  1.0 -0.1305887282
C  C13  1  0.61070000  0.43390000  0.01500000  1.0 0.1196968501
C  C14  1  0.38930000  0.93390000  0.48500000  1.0 0.1196968501
C  C15  1  0.38930000  0.56610000  0.98500000  1.0 0.1196968501
C  C16  1  0.61070000  0.06610000  0.51500000  1.0 0.1196968501
C  C17  1  0.62890000  0.48370000  0.06710000  1.0 -0.1494804303
C  C18  1  0.37110000  0.98370000  0.43290000  1.0 -0.1494804303
C  C19  1  0.37110000  0.51630000  0.93290000  1.0 -0.1494804303
C  C20  1  0.62890000  0.01630000  0.56710000  1.0 -0.1494804303
C  C21  1  0.61650000  0.55920000  0.05450000  1.0 -0.1403159271
C  C22  1  0.38350000  0.05920000  0.44550000  1.0 -0.1403159271
C  C23  1  0.38350000  0.44080000  0.94550000  1.0 -0.1403159271
C  C24  1  0.61650000  0.94080000  0.55450000  1.0 -0.1403159271
C  C25  1  0.52620000  0.65640000  0.97610000  1.0 -0.2094863652
C  C26  1  0.47380000  0.15640000  0.52390000  1.0 -0.2094863652
C  C27  1  0.47380000  0.34360000  0.02390000  1.0 -0.2094863652
C  C28  1  0.52620000  0.84360000  0.47610000  1.0 -0.2094863652
C  C29  1  0.58350000  0.35540000  0.02740000  1.0 -0.2209623213
C  C30  1  0.41650000  0.85540000  0.47260000  1.0 -0.2209623213
C  C31  1  0.41650000  0.64460000  0.97260000  1.0 -0.2209623213
C  C32  1  0.58350000  0.14460000  0.52740000  1.0 -0.2209623213
C  C33  1  0.89560000  0.54240000  0.04220000  1.0 0.0481516015
C  C34  1  0.10440000  0.04240000  0.45780000  1.0 0.0481516015
C  C35  1  0.10440000  0.45760000  0.95780000  1.0 0.0481516015
C  C36  1  0.89560000  0.95760000  0.54220000  1.0 0.0481516015
C  C37  1  0.85830000  0.48860000  0.99480000  1.0 -0.1494804303
C  C38  1  0.14170000  0.98860000  0.50520000  1.0 -0.1494804303
C  C39  1  0.14170000  0.51140000  0.00520000  1.0 -0.1494804303
C  C40  1  0.85830000  0.01140000  0.49480000  1.0 -0.1494804303
C  C41  1  0.88090000  0.48820000  0.93300000  1.0 -0.1189307181
C  C42  1  0.11910000  0.98820000  0.56700000  1.0 -0.1189307181
C  C43  1  0.11910000  0.51180000  0.06700000  1.0 -0.1189307181
C  C44  1  0.88090000  0.01180000  0.43300000  1.0 -0.1189307181
C  C45  1  0.94090000  0.54200000  0.91430000  1.0 0.0995664914
C  C46  1  0.05910000  0.04200000  0.58570000  1.0 0.0995664914
C  C47  1  0.05910000  0.45800000  0.08570000  1.0 0.0995664914
C  C48  1  0.94090000  0.95800000  0.41430000  1.0 0.0995664914
C  C49  1  0.95930000  0.60380000  0.95480000  1.0 -0.1189307181
C  C50  1  0.04070000  0.10380000  0.54520000  1.0 -0.1189307181
C  C51  1  0.04070000  0.39620000  0.04520000  1.0 -0.1189307181
C  C52  1  0.95930000  0.89620000  0.45480000  1.0 -0.1189307181
C  C53  1  0.93800000  0.60480000  0.01760000  1.0 -0.1611080682
C  C54  1  0.06200000  0.10480000  0.48240000  1.0 -0.1611080682
C  C55  1  0.06200000  0.39520000  0.98240000  1.0 -0.1611080682
C  C56  1  0.93800000  0.89520000  0.51760000  1.0 -0.1611080682
C  C57  1  0.91440000  0.52420000  0.11580000  1.0 -0.2209623213
C  C58  1  0.08560000  0.02420000  0.38420000  1.0 -0.2209623213
C  C59  1  0.08560000  0.47580000  0.88420000  1.0 -0.2209623213
C  C60  1  0.91440000  0.97580000  0.61580000  1.0 -0.2209623213
C  C61  1  0.99530000  0.52710000  0.86060000  1.0 -0.178718483
C  C62  1  0.00470000  0.02710000  0.63940000  1.0 -0.178718483
C  C63  1  0.00470000  0.47290000  0.13940000  1.0 -0.178718483
C  C64  1  0.99530000  0.97290000  0.36060000  1.0 -0.178718483
C  C65  1  0.77220000  0.75150000  0.90000000  1.0 0.4961385151
C  C66  1  0.22780000  0.25150000  0.60000000  1.0 0.4961385151
C  C67  1  0.22780000  0.24850000  0.10000000  1.0 0.4961385151
C  C68  1  0.77220000  0.74850000  0.40000000  1.0 0.4961385151
C  C69  1  0.75470000  0.78070000  0.82740000  1.0 0.2502173652
C  C70  1  0.24530000  0.28070000  0.67260000  1.0 0.2502173652
C  C71  1  0.24530000  0.21930000  0.17260000  1.0 0.2502173652
C  C72  1  0.75470000  0.71930000  0.32740000  1.0 0.2502173652
C  C73  1  0.82580000  0.75000000  0.79050000  1.0 0.2677979861
C  C74  1  0.17420000  0.25000000  0.70950000  1.0 0.2677979861
C  C75  1  0.17420000  0.25000000  0.20950000  1.0 0.2677979861
C  C76  1  0.82580000  0.75000000  0.29050000  1.0 0.2677979861
C  C77  1  0.78020000  0.76140000  0.71130000  1.0 0.1196968501
C  C78  1  0.21980000  0.26140000  0.78870000  1.0 0.1196968501
C  C79  1  0.21980000  0.23860000  0.28870000  1.0 0.1196968501
C  C80  1  0.78020000  0.73860000  0.21130000  1.0 0.1196968501
C  C81  1  0.85250000  0.74200000  0.67120000  1.0 0.0995664914
C  C82  1  0.14750000  0.24200000  0.82880000  1.0 0.0995664914
C  C83  1  0.14750000  0.25800000  0.32880000  1.0 0.0995664914
C  C84  1  0.85250000  0.75800000  0.17120000  1.0 0.0995664914
C  C85  1  0.80650000  0.74170000  0.59310000  1.0 0.4041878899
C  C86  1  0.19350000  0.24170000  0.90690000  1.0 0.4041878899
C  C87  1  0.19350000  0.25830000  0.40690000  1.0 0.4041878899
C  C88  1  0.80650000  0.75830000  0.09310000  1.0 0.4041878899
C  C89  1  0.84710000  0.77320000  0.71710000  1.0 0.0995664914
C  C90  1  0.15290000  0.27320000  0.78290000  1.0 0.0995664914
C  C91  1  0.15290000  0.22680000  0.28290000  1.0 0.0995664914
C  C92  1  0.84710000  0.72680000  0.21710000  1.0 0.0995664914
C  C93  1  0.80740000  0.70810000  0.66666667  1.0 0.1542007049
C  C94  1  0.19260000  0.20810000  0.83340000  1.0 0.1542007049
C  C95  1  0.19260000  0.29190000  0.33340000  1.0 0.1542007049
C  C96  1  0.80740000  0.79190000  0.16660000  1.0 0.1542007049
C  C97  1  0.59330000  0.41700000  0.52330000  1.0 0.0412906782
C  C98  1  0.40670000  0.91700000  0.97670000  1.0 0.0412906782
C  C99  1  0.40670000  0.58300000  0.47670000  1.0 0.0412906782
C  C100  1  0.59330000  0.08300000  0.02330000  1.0 0.0412906782
C  C101  1  0.62000000  0.46990000  0.57370000  1.0 -0.1611080682
C  C102  1  0.38000000  0.96990000  0.92630000  1.0 -0.1611080682
C  C103  1  0.38000000  0.53010000  0.42630000  1.0 -0.1611080682
C  C104  1  0.62000000  0.03010000  0.07370000  1.0 -0.1611080682
C  C105  1  0.62360000  0.54440000  0.55720000  1.0 -0.1189307181
C  C106  1  0.37640000  0.04440000  0.94280000  1.0 -0.1189307181
C  C107  1  0.37640000  0.45560000  0.44280000  1.0 -0.1189307181
C  C108  1  0.62360000  0.95560000  0.05720000  1.0 -0.1189307181
C  C109  1  0.60430000  0.56660000  0.49100000  1.0 0.0876182337
C  C110  1  0.39570000  0.06660000  0.00900000  1.0 0.0876182337
C  C111  1  0.39570000  0.43340000  0.50900000  1.0 0.0876182337
C  C112  1  0.60430000  0.93340000  0.99100000  1.0 0.0876182337
C  C113  1  0.60060000  0.51290000  0.44330000  1.0 -0.1305887282
C  C114  1  0.39940000  0.01290000  0.05670000  1.0 -0.1305887282
C  C115  1  0.39940000  0.48710000  0.55670000  1.0 -0.1305887282
C  C116  1  0.60060000  0.98710000  0.94330000  1.0 -0.1305887282
C  C117  1  0.59510000  0.43890000  0.45840000  1.0 -0.1403159271
C  C118  1  0.40490000  0.93890000  0.04160000  1.0 -0.1403159271
C  C119  1  0.40490000  0.56110000  0.54160000  1.0 -0.1403159271
C  C120  1  0.59510000  0.06110000  0.95840000  1.0 -0.1403159271
C  C121  1  0.54210000  0.34660000  0.53530000  1.0 -0.1885530333
C  C122  1  0.45790000  0.84660000  0.96470000  1.0 -0.1885530333
C  C123  1  0.45790000  0.65340000  0.46470000  1.0 -0.1885530333
C  C124  1  0.54210000  0.15340000  0.03530000  1.0 -0.1885530333
C  C125  1  0.56890000  0.64360000  0.47190000  1.0 -0.1703269164
C  C126  1  0.43110000  0.14360000  0.02810000  1.0 -0.1703269164
C  C127  1  0.43110000  0.35640000  0.52810000  1.0 -0.1703269164
C  C128  1  0.56890000  0.85640000  0.97190000  1.0 -0.1703269164
C  C129  1  0.91490000  0.45570000  0.55730000  1.0 0.0481516015
C  C130  1  0.08510000  0.95570000  0.94270000  1.0 0.0481516015
C  C131  1  0.08510000  0.54430000  0.44270000  1.0 0.0481516015
C  C132  1  0.91490000  0.04430000  0.05730000  1.0 0.0481516015
C  C133  1  0.86120000  0.50910000  0.51610000  1.0 -0.178718483
C  C134  1  0.13880000  0.00910000  0.98390000  1.0 -0.178718483
C  C135  1  0.13880000  0.49090000  0.48390000  1.0 -0.178718483
C  C136  1  0.86120000  0.99090000  0.01610000  1.0 -0.178718483
C  C137  1  0.86050000  0.51300000  0.44850000  1.0 -0.1145368841
C  C138  1  0.13950000  0.01300000  0.05150000  1.0 -0.1145368841
C  C139  1  0.13950000  0.48700000  0.55150000  1.0 -0.1145368841
C  C140  1  0.86050000  0.98700000  0.94850000  1.0 -0.1145368841
C  C141  1  0.91510000  0.46390000  0.41970000  1.0 0.0995664914
C  C142  1  0.08490000  0.96390000  0.08030000  1.0 0.0995664914
C  C143  1  0.08490000  0.53610000  0.58030000  1.0 0.0995664914
C  C144  1  0.91510000  0.03610000  0.91970000  1.0 0.0995664914
C  C145  1  0.95110000  0.40210000  0.45740000  1.0 -0.1020328383
C  C146  1  0.04890000  0.90210000  0.04260000  1.0 -0.1020328383
C  C147  1  0.04890000  0.59790000  0.54260000  1.0 -0.1020328383
C  C148  1  0.95110000  0.09790000  0.95740000  1.0 -0.1020328383
C  C149  1  0.95210000  0.39730000  0.52460000  1.0 -0.1611080682
C  C150  1  0.04790000  0.89730000  0.97540000  1.0 -0.1611080682
C  C151  1  0.04790000  0.60270000  0.47540000  1.0 -0.1611080682
C  C152  1  0.95210000  0.10270000  0.02460000  1.0 -0.1611080682
C  C153  1  0.95550000  0.47080000  0.63060000  1.0 -0.2094863652
C  C154  1  0.04450000  0.97080000  0.86940000  1.0 -0.2094863652
C  C155  1  0.04450000  0.52920000  0.36940000  1.0 -0.2094863652
C  C156  1  0.95550000  0.02920000  0.13060000  1.0 -0.2094863652
C  C157  1  0.94750000  0.48410000  0.35640000  1.0 -0.2209623213
C  C158  1  0.05250000  0.98410000  0.14360000  1.0 -0.2209623213
C  C159  1  0.05250000  0.51590000  0.64360000  1.0 -0.2209623213
C  C160  1  0.94750000  0.01590000  0.85640000  1.0 -0.2209623213
C  C161  1  0.81600000  0.24140000  0.62990000  1.0 0.4833476339
C  C162  1  0.18400000  0.74140000  0.87010000  1.0 0.4833476339
C  C163  1  0.18400000  0.75860000  0.37010000  1.0 0.4833476339
C  C164  1  0.81600000  0.25860000  0.12990000  1.0 0.4833476339
C  C165  1  0.81720000  0.20870000  0.70010000  1.0 0.2618461271
C  C166  1  0.18280000  0.70870000  0.79990000  1.0 0.2618461271
C  C167  1  0.18280000  0.79130000  0.29990000  1.0 0.2618461271
C  C168  1  0.81720000  0.29130000  0.20010000  1.0 0.2618461271
C  C169  1  0.78520000  0.26300000  0.74840000  1.0 0.2831318249
C  C170  1  0.21480000  0.76300000  0.75160000  1.0 0.2831318249
C  C171  1  0.21480000  0.73700000  0.25160000  1.0 0.2831318249
C  C172  1  0.78520000  0.23700000  0.24840000  1.0 0.2831318249
C  C173  1  0.79650000  0.23610000  0.82210000  1.0 0.2831318249
C  C174  1  0.20350000  0.73610000  0.67790000  1.0 0.2831318249
C  C175  1  0.20350000  0.76390000  0.17790000  1.0 0.2831318249
C  C176  1  0.79650000  0.26390000  0.32210000  1.0 0.2831318249
C  C177  1  0.73520000  0.27730000  0.86340000  1.0 0.2502173652
C  C178  1  0.26480000  0.77730000  0.63660000  1.0 0.2502173652
C  C179  1  0.26480000  0.72270000  0.13660000  1.0 0.2502173652
C  C180  1  0.73520000  0.22270000  0.36340000  1.0 0.2502173652
C  C181  1  0.76150000  0.25700000  0.93820000  1.0 0.4871910607
C  C182  1  0.23850000  0.75700000  0.56180000  1.0 0.4871910607
C  C183  1  0.23850000  0.74300000  0.06180000  1.0 0.4871910607
C  C184  1  0.76150000  0.24300000  0.43820000  1.0 0.4871910607
O  O1  1  0.72570000  0.69610000  0.90930000  1.0 -0.4798006694
O  O2  1  0.27430000  0.19610000  0.59070000  1.0 -0.4798006694
O  O3  1  0.27430000  0.30390000  0.09070000  1.0 -0.4798006694
O  O4  1  0.72570000  0.80390000  0.40930000  1.0 -0.4798006694
O  O5  1  0.83300000  0.78890000  0.94100000  1.0 -0.4798006694
O  O6  1  0.16700000  0.28890000  0.55900000  1.0 -0.4798006694
O  O7  1  0.16700000  0.21110000  0.05900000  1.0 -0.4798006694
O  O8  1  0.83300000  0.71110000  0.44100000  1.0 -0.4798006694
O  O9  1  0.73620000  0.77980000  0.57130000  1.0 -0.4798006694
O  O10  1  0.26380000  0.27980000  0.92870000  1.0 -0.4798006694
O  O11  1  0.26380000  0.22020000  0.42870000  1.0 -0.4798006694
O  O12  1  0.73620000  0.72020000  0.07130000  1.0 -0.4798006694
O  O13  1  0.86490000  0.71250000  0.56250000  1.0 -0.5018541708
O  O14  1  0.13510000  0.21250000  0.93750000  1.0 -0.5018541708
O  O15  1  0.13510000  0.28750000  0.43750000  1.0 -0.5018541708
O  O16  1  0.86490000  0.78750000  0.06250000  1.0 -0.5018541708
O  O17  1  0.77610000  0.30040000  0.61600000  1.0 -0.4798006694
O  O18  1  0.22390000  0.80040000  0.88400000  1.0 -0.4798006694
O  O19  1  0.22390000  0.69960000  0.38400000  1.0 -0.4798006694
O  O20  1  0.77610000  0.19960000  0.11600000  1.0 -0.4798006694
O  O21  1  0.85520000  0.19960000  0.59470000  1.0 -0.5050072054
O  O22  1  0.14480000  0.69960000  0.90530000  1.0 -0.5018541708
O  O23  1  0.14480000  0.80040000  0.40530000  1.0 -0.5018541708
O  O24  1  0.85520000  0.30040000  0.09470000  1.0 -0.5018541708
O  O25  1  0.72010000  0.20430000  0.95530000  1.0 -0.4733149887
O  O26  1  0.27990000  0.70430000  0.54470000  1.0 -0.4733149887
O  O27  1  0.27990000  0.79570000  0.04470000  1.0 -0.4733149887
O  O28  1  0.72010000  0.29570000  0.45530000  1.0 -0.4733149887
O  O29  1  0.82570000  0.29820000  0.97330000  1.0 -0.4798006694
O  O30  1  0.17430000  0.79820000  0.52670000  1.0 -0.4733149887
O  O31  1  0.17430000  0.70180000  0.02670000  1.0 -0.4733149887
O  O32  1  0.82570000  0.20180000  0.47330000  1.0 -0.4798006694
F  F1  1  0.66666667  0.76150000  0.79340000  1.0 -0.1494804303
F  F2  1  0.33340000  0.26150000  0.70660000  1.0 -0.1494804303
F  F3  1  0.33340000  0.23850000  0.20660000  1.0 -0.1494804303
F  F4  1  0.66666667  0.73850000  0.29340000  1.0 -0.1494804303
F  F5  1  0.75940000  0.85560000  0.82730000  1.0 -0.1611080682
F  F6  1  0.24060000  0.35560000  0.67270000  1.0 -0.1611080682
F  F7  1  0.24060000  0.14440000  0.17270000  1.0 -0.1611080682
F  F8  1  0.75940000  0.64440000  0.32730000  1.0 -0.1611080682
F  F9  1  0.84020000  0.67850000  0.80190000  1.0 -0.1305887282
F  F10  1  0.15980000  0.17850000  0.69810000  1.0 -0.1305887282
F  F11  1  0.15980000  0.32150000  0.19810000  1.0 -0.1305887282
F  F12  1  0.84020000  0.82150000  0.30190000  1.0 -0.1305887282
F  F13  1  0.91380000  0.78230000  0.81690000  1.0 -0.1305887282
F  F14  1  0.08620000  0.28230000  0.68310000  1.0 -0.1305887282
F  F15  1  0.08620000  0.21770000  0.18310000  1.0 -0.1305887282
F  F16  1  0.91380000  0.71770000  0.31690000  1.0 -0.1305887282
F  F17  1  0.71230000  0.70250000  0.68310000  1.0 -0.1189307181
F  F18  1  0.28770000  0.20250000  0.81690000  1.0 -0.1189307181
F  F19  1  0.28770000  0.29750000  0.31690000  1.0 -0.1189307181
F  F20  1  0.71230000  0.79750000  0.18310000  1.0 -0.1189307181
F  F21  1  0.77030000  0.83160000  0.70080000  1.0 -0.1189307181
F  F22  1  0.22970000  0.33160000  0.79920000  1.0 -0.1189307181
F  F23  1  0.22970000  0.16840000  0.29920000  1.0 -0.1189307181
F  F24  1  0.77030000  0.66840000  0.20080000  1.0 -0.1189307181
F  F25  1  0.88480000  0.66666667  0.68510000  1.0 -0.1145368841
F  F26  1  0.11520000  0.16660000  0.81490000  1.0 -0.1145368841
F  F27  1  0.11520000  0.33340000  0.31490000  1.0 -0.1145368841
F  F28  1  0.88480000  0.83340000  0.18510000  1.0 -0.1145368841
F  F29  1  0.93230000  0.79160000  0.69580000  1.0 -0.1189307181
F  F30  1  0.06770000  0.29160000  0.80420000  1.0 -0.1189307181
F  F31  1  0.06770000  0.20840000  0.30420000  1.0 -0.1189307181
F  F32  1  0.93230000  0.70840000  0.19580000  1.0 -0.1189307181
F  F33  1  0.75470000  0.15050000  0.69140000  1.0 -0.1611080682
F  F34  1  0.24530000  0.65050000  0.80860000  1.0 -0.1611080682
F  F35  1  0.24530000  0.84950000  0.30860000  1.0 -0.1611080682
F  F36  1  0.75470000  0.34950000  0.19140000  1.0 -0.1611080682
F  F37  1  0.90530000  0.18260000  0.72930000  1.0 -0.1494804303
F  F38  1  0.09470000  0.68260000  0.77070000  1.0 -0.1494804303
F  F39  1  0.09470000  0.81740000  0.27070000  1.0 -0.1494804303
F  F40  1  0.90530000  0.31740000  0.22930000  1.0 -0.1494804303
F  F41  1  0.69200000  0.28080000  0.72440000  1.0 -0.1403159271
F  F42  1  0.30800000  0.78080000  0.77560000  1.0 -0.1403159271
F  F43  1  0.30800000  0.71920000  0.27560000  1.0 -0.1403159271
F  F44  1  0.69200000  0.21920000  0.22440000  1.0 -0.1403159271
F  F45  1  0.83950000  0.32500000  0.75120000  1.0 -0.1494804303
F  F46  1  0.16050000  0.82500000  0.74880000  1.0 -0.1494804303
F  F47  1  0.16050000  0.67500000  0.24880000  1.0 -0.1494804303
F  F48  1  0.83950000  0.17500000  0.25120000  1.0 -0.1494804303
F  F49  1  0.77200000  0.16410000  0.82170000  1.0 -0.1403159271
F  F50  1  0.22800000  0.66410000  0.67830000  1.0 -0.1403159271
F  F51  1  0.22800000  0.83590000  0.17830000  1.0 -0.1403159271
F  F52  1  0.77200000  0.33590000  0.32170000  1.0 -0.1403159271
F  F53  1  0.88990000  0.24240000  0.85330000  1.0 -0.1403159271
F  F54  1  0.11010000  0.74240000  0.64670000  1.0 -0.1403159271
F  F55  1  0.11010000  0.75760000  0.14670000  1.0 -0.1403159271
F  F56  1  0.88990000  0.25760000  0.35330000  1.0 -0.1403159271
F  F57  1  0.64080000  0.26220000  0.83900000  1.0 -0.1611080682
F  F58  1  0.35920000  0.76220000  0.66100000  1.0 -0.1611080682
F  F59  1  0.35920000  0.73780000  0.16100000  1.0 -0.1611080682
F  F60  1  0.64080000  0.23780000  0.33900000  1.0 -0.1611080682
F  F61  1  0.74660000  0.35110000  0.85490000  1.0 -0.1611080682
F  F62  1  0.25340000  0.85110000  0.64510000  1.0 -0.1611080682
F  F63  1  0.25340000  0.64890000  0.14510000  1.0 -0.1611080682
F  F64  1  0.74660000  0.14890000  0.35490000  1.0 -0.1611080682
