# DDEC6 charges by PACMAN v1.1 (https://github.com/mtap-research/PACMAN-charge/)
data_FIJYED_ASR_pacman
_symmetry_space_group_name_H-M   'P 1'
_cell_length_a   9.74780000
_cell_length_b   9.22010000
_cell_length_c   19.67210000
_cell_angle_alpha   90.00000000
_cell_angle_beta   95.60000000
_cell_angle_gamma   90.00000000
_symmetry_Int_Tables_number   1
_chemical_formula_structural   Al4P4O17
_chemical_formula_sum   'Al16 P16 O68'
_cell_volume   1759.60541179
_cell_formula_units_Z   4
loop_
 _symmetry_equiv_pos_site_id
 _symmetry_equiv_pos_as_xyz
  1  'x, y, z'
loop_
 _atom_site_type_symbol
 _atom_site_label
 _atom_site_symmetry_multiplicity
 _atom_site_fract_x
 _atom_site_fract_y
 _atom_site_fract_z
 _atom_site_occupancy
 _atom_site_charge
Al  Al1  1  0.00870000  0.91810000  0.94370000  1.0 1.7285355288
Al  Al2  1  0.49130000  0.41810000  0.05630000  1.0 1.7285355288
Al  Al3  1  0.99130000  0.08190000  0.05630000  1.0 1.7285355288
Al  Al4  1  0.50870000  0.58190000  0.94370000  1.0 1.7285355288
Al  Al5  1  0.78160000  0.12780000  0.46960000  1.0 1.7869505841
Al  Al6  1  0.71840000  0.62780000  0.53040000  1.0 1.7869505841
Al  Al7  1  0.21840000  0.87220000  0.53040000  1.0 1.7869505841
Al  Al8  1  0.28160000  0.37220000  0.46960000  1.0 1.7869505841
Al  Al9  1  0.73490000  0.66090000  0.08040000  1.0 1.7736187237
Al  Al10  1  0.76510000  0.16090000  0.91960000  1.0 1.7736187237
Al  Al11  1  0.26510000  0.33910000  0.91960000  1.0 1.7736187237
Al  Al12  1  0.23490000  0.83910000  0.08040000  1.0 1.7736187237
Al  Al13  1  0.01230000  0.13010000  0.67480000  1.0 1.7559125978
Al  Al14  1  0.48770000  0.63010000  0.32520000  1.0 1.7559125978
Al  Al15  1  0.98770000  0.86990000  0.32520000  1.0 1.7542018253
Al  Al16  1  0.51230000  0.36990000  0.67480000  1.0 1.7559125978
P  P1  1  0.92290000  0.88320000  0.57950000  1.0 1.5533645707
P  P2  1  0.57710000  0.38320000  0.42050000  1.0 1.5533645707
P  P3  1  0.07710000  0.11680000  0.42050000  1.0 1.557187116
P  P4  1  0.42290000  0.61680000  0.57950000  1.0 1.557187116
P  P5  1  0.28580000  0.16820000  0.59950000  1.0 1.557187116
P  P6  1  0.21420000  0.66820000  0.40050000  1.0 1.557187116
P  P7  1  0.71420000  0.83180000  0.40050000  1.0 1.557187116
P  P8  1  0.78580000  0.33180000  0.59950000  1.0 1.557187116
P  P9  1  0.01420000  0.15520000  0.83830000  1.0 1.557187116
P  P10  1  0.48580000  0.65520000  0.16170000  1.0 1.557187116
P  P11  1  0.98580000  0.84480000  0.16170000  1.0 1.5533645707
P  P12  1  0.51420000  0.34480000  0.83830000  1.0 1.557187116
P  P13  1  0.71230000  0.84640000  0.95210000  1.0 1.557187116
P  P14  1  0.78770000  0.34640000  0.04790000  1.0 1.5533645707
P  P15  1  0.28770000  0.15360000  0.04790000  1.0 1.557187116
P  P16  1  0.21230000  0.65360000  0.95210000  1.0 1.557187116
O  O1  1  0.85030000  0.81610000  0.92170000  1.0 -0.7608685163
O  O2  1  0.64970000  0.31610000  0.07830000  1.0 -0.7608685163
O  O3  1  0.14970000  0.18390000  0.07830000  1.0 -0.7608685163
O  O4  1  0.35030000  0.68390000  0.92170000  1.0 -0.7608685163
O  O5  1  0.73130000  0.82550000  0.02970000  1.0 -0.7480921936
O  O6  1  0.76870000  0.32550000  0.97030000  1.0 -0.7480921936
O  O7  1  0.26870000  0.17450000  0.97030000  1.0 -0.7480921936
O  O8  1  0.23130000  0.67450000  0.02970000  1.0 -0.7480921936
O  O9  1  0.06440000  0.01020000  0.86930000  1.0 -0.7608685163
O  O10  1  0.43560000  0.51020000  0.13070000  1.0 -0.7608685163
O  O11  1  0.93560000  0.98980000  0.13070000  1.0 -0.7608685163
O  O12  1  0.56440000  0.48980000  0.86930000  1.0 -0.7608685163
O  O13  1  0.17540000  0.15270000  0.64850000  1.0 -0.7975813192
O  O14  1  0.32460000  0.65270000  0.35150000  1.0 -0.7975813192
O  O15  1  0.82460000  0.84730000  0.35150000  1.0 -0.7975813192
O  O16  1  0.67540000  0.34730000  0.64850000  1.0 -0.7975813192
O  O17  1  0.02560000  0.14390000  0.76180000  1.0 -0.7608685163
O  O18  1  0.47440000  0.64390000  0.23820000  1.0 -0.7608685163
O  O19  1  0.97440000  0.85610000  0.23820000  1.0 -0.7608685163
O  O20  1  0.52560000  0.35610000  0.76180000  1.0 -0.7608685163
O  O21  1  0.41690000  0.22460000  0.63890000  1.0 -0.7721144003
O  O22  1  0.08310000  0.72460000  0.36110000  1.0 -0.7721144003
O  O23  1  0.58310000  0.77540000  0.36110000  1.0 -0.7721144003
O  O24  1  0.91690000  0.27540000  0.63890000  1.0 -0.7721144003
O  O25  1  0.87120000  0.98980000  0.52380000  1.0 -0.7975813192
O  O26  1  0.62880000  0.48980000  0.47620000  1.0 -0.7975813192
O  O27  1  0.12880000  0.01020000  0.47620000  1.0 -0.7975813192
O  O28  1  0.37120000  0.51020000  0.52380000  1.0 -0.7975813192
O  O29  1  0.10580000  0.28000000  0.86720000  1.0 -0.7177900714
O  O30  1  0.39420000  0.78000000  0.13280000  1.0 -0.7177900714
O  O31  1  0.89420000  0.72000000  0.13280000  1.0 -0.7177900714
O  O32  1  0.60580000  0.22000000  0.86720000  1.0 -0.7177900714
O  O33  1  0.06390000  0.81820000  0.56660000  1.0 -0.7820057687
O  O34  1  0.43610000  0.31820000  0.43340000  1.0 -0.7820057687
O  O35  1  0.93610000  0.18180000  0.43340000  1.0 -0.7820057687
O  O36  1  0.56390000  0.68180000  0.56660000  1.0 -0.7820057687
O  O37  1  0.32420000  0.01790000  0.57220000  1.0 -0.7608685163
O  O38  1  0.17580000  0.51790000  0.42780000  1.0 -0.7608685163
O  O39  1  0.67580000  0.98210000  0.42780000  1.0 -0.7608685163
O  O40  1  0.82420000  0.48210000  0.57220000  1.0 -0.7608685163
O  O41  1  0.65880000  0.00180000  0.93500000  1.0 -0.7480921936
O  O42  1  0.84120000  0.50180000  0.06500000  1.0 -0.7480921936
O  O43  1  0.34120000  0.99820000  0.06500000  1.0 -0.7480921936
O  O44  1  0.15880000  0.49820000  0.93500000  1.0 -0.7480921936
O  O45  1  0.91390000  0.08110000  0.97070000  1.0 -1.0621010703
O  O46  1  0.58610000  0.58110000  0.02930000  1.0 -1.0621010703
O  O47  1  0.08610000  0.91890000  0.02930000  1.0 -1.0621010703
O  O48  1  0.41390000  0.41890000  0.97070000  1.0 -1.0621010703
O  O49  1  0.81930000  0.75950000  0.58740000  1.0 -0.7357713622
O  O50  1  0.68070000  0.25950000  0.41260000  1.0 -0.7357713622
O  O51  1  0.18070000  0.24050000  0.41260000  1.0 -0.7357713622
O  O52  1  0.31930000  0.74050000  0.58740000  1.0 -0.7357713622
O  O53  1  0.86150000  0.18400000  0.84690000  1.0 -0.7886418742
O  O54  1  0.63850000  0.68400000  0.15310000  1.0 -0.7886418742
O  O55  1  0.13850000  0.81600000  0.15310000  1.0 -0.7886418742
O  O56  1  0.36150000  0.31600000  0.84690000  1.0 -0.7886418742
O  O57  1  0.93970000  0.96420000  0.64790000  1.0 -0.7975813192
O  O58  1  0.56030000  0.46420000  0.35210000  1.0 -0.7975813192
O  O59  1  0.06030000  0.03580000  0.35210000  1.0 -0.7975813192
O  O60  1  0.43970000  0.53580000  0.64790000  1.0 -0.7975813192
O  O61  1  0.23430000  0.27770000  0.54400000  1.0 -0.7820057687
O  O62  1  0.26570000  0.77770000  0.45600000  1.0 -0.7820057687
O  O63  1  0.76570000  0.72230000  0.45600000  1.0 -0.7820057687
O  O64  1  0.73430000  0.22230000  0.54400000  1.0 -0.7820057687
O  O65  1  0.60640000  0.74110000  0.91830000  1.0 -0.6966829342
O  O66  1  0.89360000  0.24110000  0.08170000  1.0 -0.6966829342
O  O67  1  0.39360000  0.25890000  0.08170000  1.0 -0.6966829342
O  O68  1  0.10640000  0.75890000  0.91830000  1.0 -0.6966829342
