# DDEC6 charges by PACMAN v1.1 (https://github.com/mtap-research/PACMAN-charge/)
data_FILBAG_ASR_pacman
_symmetry_space_group_name_H-M   'P 1'
_cell_length_a   31.12400000
_cell_length_b   31.12400000
_cell_length_c   31.12400000
_cell_angle_alpha   90.00000000
_cell_angle_beta   90.00000000
_cell_angle_gamma   90.00000000
_symmetry_Int_Tables_number   1
_chemical_formula_structural   Zn5H42C96(N3O4)6
_chemical_formula_sum   'Zn20 H168 C384 N72 O96'
_cell_volume   30149.92387462
_cell_formula_units_Z   4
loop_
 _symmetry_equiv_pos_site_id
 _symmetry_equiv_pos_as_xyz
  1  'x, y, z'
loop_
 _atom_site_type_symbol
 _atom_site_label
 _atom_site_symmetry_multiplicity
 _atom_site_fract_x
 _atom_site_fract_y
 _atom_site_fract_z
 _atom_site_occupancy
 _atom_site_charge
Zn  Zn1  1  0.44159000  0.44159000  0.44159000  1.0 0.607328468
Zn  Zn2  1  0.05841000  0.55841000  0.94159000  1.0 0.607328468
Zn  Zn3  1  0.55841000  0.94159000  0.05841000  1.0 0.607328468
Zn  Zn4  1  0.94159000  0.05841000  0.55841000  1.0 0.607328468
Zn  Zn5  1  0.19159000  0.69159000  0.80841000  1.0 0.607328468
Zn  Zn6  1  0.30841000  0.30841000  0.30841000  1.0 0.607328468
Zn  Zn7  1  0.69159000  0.80841000  0.19159000  1.0 0.607328468
Zn  Zn8  1  0.80841000  0.19159000  0.69159000  1.0 0.607328468
Zn  Zn9  1  0.26430000  0.48570000  0.37500000  1.0 0.7322558943
Zn  Zn10  1  0.23570000  0.51430000  0.87500000  1.0 0.7322558943
Zn  Zn11  1  0.73570000  0.98570000  0.12500000  1.0 0.7322558943
Zn  Zn12  1  0.76430000  0.01430000  0.62500000  1.0 0.7322558943
Zn  Zn13  1  0.37500000  0.26430000  0.48570000  1.0 0.7322558943
Zn  Zn14  1  0.87500000  0.23570000  0.51430000  1.0 0.7322558943
Zn  Zn15  1  0.12500000  0.73570000  0.98570000  1.0 0.7322558943
Zn  Zn16  1  0.62500000  0.76430000  0.01430000  1.0 0.7322558943
Zn  Zn17  1  0.48570000  0.37500000  0.26430000  1.0 0.7322558943
Zn  Zn18  1  0.51430000  0.87500000  0.23570000  1.0 0.7322558943
Zn  Zn19  1  0.98570000  0.12500000  0.73570000  1.0 0.7322558943
Zn  Zn20  1  0.01430000  0.62500000  0.76430000  1.0 0.7322558943
H  H1  1  0.34420000  0.43560000  0.41570000  1.0 0.0975387075
H  H2  1  0.32060000  0.56810000  0.34560000  1.0 0.1579240669
H  H3  1  0.45470000  0.53910000  0.40400000  1.0 0.139956421
H  H4  1  0.41730000  0.68590000  0.26630000  1.0 0.1315982182
H  H5  1  0.44440000  0.75110000  0.24230000  1.0 0.1315982182
H  H6  1  0.48950000  0.77590000  0.36070000  1.0 0.139956421
H  H7  1  0.46240000  0.71070000  0.38470000  1.0 0.1241232545
H  H8  1  0.15580000  0.56440000  0.91570000  1.0 0.0975387075
H  H9  1  0.17940000  0.43190000  0.84560000  1.0 0.1579240669
H  H10  1  0.04530000  0.46090000  0.90400000  1.0 0.139956421
H  H11  1  0.08270000  0.31410000  0.76630000  1.0 0.1315982182
H  H12  1  0.05560000  0.24890000  0.74230000  1.0 0.1315982182
H  H13  1  0.01050000  0.22410000  0.86070000  1.0 0.139956421
H  H14  1  0.03760000  0.28930000  0.88470000  1.0 0.1241232545
H  H15  1  0.65580000  0.93560000  0.08430000  1.0 0.0975387075
H  H16  1  0.67940000  0.06810000  0.15440000  1.0 0.1579240669
H  H17  1  0.54530000  0.03910000  0.09600000  1.0 0.139956421
H  H18  1  0.58270000  0.18590000  0.23370000  1.0 0.1315982182
H  H19  1  0.55560000  0.25110000  0.25770000  1.0 0.1315982182
H  H20  1  0.51050000  0.27590000  0.13930000  1.0 0.139956421
H  H21  1  0.53760000  0.21070000  0.11530000  1.0 0.1241232545
H  H22  1  0.84420000  0.06440000  0.58430000  1.0 0.0975387075
H  H23  1  0.82060000  0.93190000  0.65440000  1.0 0.1579240669
H  H24  1  0.95470000  0.96090000  0.59600000  1.0 0.139956421
H  H25  1  0.91730000  0.81410000  0.73370000  1.0 0.1315982182
H  H26  1  0.94440000  0.74890000  0.75770000  1.0 0.1315982182
H  H27  1  0.98950000  0.72410000  0.63930000  1.0 0.139956421
H  H28  1  0.96240000  0.78930000  0.61530000  1.0 0.1241232545
H  H29  1  0.41570000  0.34420000  0.43560000  1.0 0.0975387075
H  H30  1  0.34560000  0.32060000  0.56810000  1.0 0.1579240669
H  H31  1  0.40400000  0.45470000  0.53910000  1.0 0.139956421
H  H32  1  0.26630000  0.41730000  0.68590000  1.0 0.1315982182
H  H33  1  0.24230000  0.44440000  0.75110000  1.0 0.1315982182
H  H34  1  0.36070000  0.48950000  0.77590000  1.0 0.139956421
H  H35  1  0.38470000  0.46240000  0.71070000  1.0 0.1241232545
H  H36  1  0.91570000  0.15580000  0.56440000  1.0 0.0975387075
H  H37  1  0.84560000  0.17940000  0.43190000  1.0 0.1579240669
H  H38  1  0.90400000  0.04530000  0.46090000  1.0 0.139956421
H  H39  1  0.76630000  0.08270000  0.31410000  1.0 0.1315982182
H  H40  1  0.74230000  0.05560000  0.24890000  1.0 0.1315982182
H  H41  1  0.86070000  0.01050000  0.22410000  1.0 0.139956421
H  H42  1  0.88470000  0.03760000  0.28930000  1.0 0.1241232545
H  H43  1  0.08430000  0.65580000  0.93560000  1.0 0.0975387075
H  H44  1  0.15440000  0.67940000  0.06810000  1.0 0.1579240669
H  H45  1  0.09600000  0.54530000  0.03910000  1.0 0.139956421
H  H46  1  0.23370000  0.58270000  0.18590000  1.0 0.1315982182
H  H47  1  0.25770000  0.55560000  0.25110000  1.0 0.1315982182
H  H48  1  0.13930000  0.51050000  0.27590000  1.0 0.139956421
H  H49  1  0.11530000  0.53760000  0.21070000  1.0 0.1241232545
H  H50  1  0.58430000  0.84420000  0.06440000  1.0 0.0975387075
H  H51  1  0.65440000  0.82060000  0.93190000  1.0 0.1579240669
H  H52  1  0.59600000  0.95470000  0.96090000  1.0 0.139956421
H  H53  1  0.73370000  0.91730000  0.81410000  1.0 0.1315982182
H  H54  1  0.75770000  0.94440000  0.74890000  1.0 0.1315982182
H  H55  1  0.63930000  0.98950000  0.72410000  1.0 0.139956421
H  H56  1  0.61530000  0.96240000  0.78930000  1.0 0.1241232545
H  H57  1  0.43560000  0.41570000  0.34420000  1.0 0.0975387075
H  H58  1  0.56810000  0.34560000  0.32060000  1.0 0.1579240669
H  H59  1  0.53910000  0.40400000  0.45470000  1.0 0.139956421
H  H60  1  0.68590000  0.26630000  0.41730000  1.0 0.1315982182
H  H61  1  0.75110000  0.24230000  0.44440000  1.0 0.1315982182
H  H62  1  0.77590000  0.36070000  0.48950000  1.0 0.139956421
H  H63  1  0.71070000  0.38470000  0.46240000  1.0 0.1241232545
H  H64  1  0.56440000  0.91570000  0.15580000  1.0 0.0975387075
H  H65  1  0.43190000  0.84560000  0.17940000  1.0 0.1579240669
H  H66  1  0.46090000  0.90400000  0.04530000  1.0 0.139956421
H  H67  1  0.31410000  0.76630000  0.08270000  1.0 0.1315982182
H  H68  1  0.24890000  0.74230000  0.05560000  1.0 0.1315982182
H  H69  1  0.22410000  0.86070000  0.01050000  1.0 0.139956421
H  H70  1  0.28930000  0.88470000  0.03760000  1.0 0.1241232545
H  H71  1  0.93560000  0.08430000  0.65580000  1.0 0.0975387075
H  H72  1  0.06810000  0.15440000  0.67940000  1.0 0.1579240669
H  H73  1  0.03910000  0.09600000  0.54530000  1.0 0.139956421
H  H74  1  0.18590000  0.23370000  0.58270000  1.0 0.1315982182
H  H75  1  0.25110000  0.25770000  0.55560000  1.0 0.1315982182
H  H76  1  0.27590000  0.13930000  0.51050000  1.0 0.139956421
H  H77  1  0.21070000  0.11530000  0.53760000  1.0 0.1241232545
H  H78  1  0.06440000  0.58430000  0.84420000  1.0 0.0975387075
H  H79  1  0.93190000  0.65440000  0.82060000  1.0 0.1579240669
H  H80  1  0.96090000  0.59600000  0.95470000  1.0 0.139956421
H  H81  1  0.81410000  0.73370000  0.91730000  1.0 0.1315982182
H  H82  1  0.74890000  0.75770000  0.94440000  1.0 0.1315982182
H  H83  1  0.72410000  0.63930000  0.98950000  1.0 0.139956421
H  H84  1  0.78930000  0.61530000  0.96240000  1.0 0.1241232545
H  H85  1  0.18560000  0.59420000  0.83430000  1.0 0.0975387075
H  H86  1  0.31810000  0.57060000  0.90440000  1.0 0.1579240669
H  H87  1  0.28910000  0.70470000  0.84600000  1.0 0.139956421
H  H88  1  0.43590000  0.66730000  0.98370000  1.0 0.1315982182
H  H89  1  0.50110000  0.69440000  0.00770000  1.0 0.139956421
H  H90  1  0.52590000  0.73950000  0.88930000  1.0 0.139956421
H  H91  1  0.46070000  0.71240000  0.86530000  1.0 0.1241232545
H  H92  1  0.31440000  0.40580000  0.33430000  1.0 0.0975387075
H  H93  1  0.18190000  0.42940000  0.40440000  1.0 0.1579240669
H  H94  1  0.21090000  0.29530000  0.34600000  1.0 0.139956421
H  H95  1  0.06410000  0.33270000  0.48370000  1.0 0.1315982182
H  H96  1  0.99890000  0.30560000  0.50770000  1.0 0.1315982182
H  H97  1  0.97410000  0.26050000  0.38930000  1.0 0.139956421
H  H98  1  0.03930000  0.28760000  0.36530000  1.0 0.1241232545
H  H99  1  0.68560000  0.90580000  0.16570000  1.0 0.0975387075
H  H100  1  0.81810000  0.92940000  0.09560000  1.0 0.1579240669
H  H101  1  0.78910000  0.79530000  0.15400000  1.0 0.139956421
H  H102  1  0.93590000  0.83270000  0.01630000  1.0 0.1315982182
H  H103  1  0.00110000  0.80560000  0.99230000  1.0 0.1315982182
H  H104  1  0.02590000  0.76050000  0.11070000  1.0 0.139956421
H  H105  1  0.96070000  0.78760000  0.13470000  1.0 0.1241232545
H  H106  1  0.81440000  0.09420000  0.66570000  1.0 0.0975387075
H  H107  1  0.68190000  0.07060000  0.59560000  1.0 0.1579240669
H  H108  1  0.71090000  0.20470000  0.65400000  1.0 0.139956421
H  H109  1  0.56410000  0.16730000  0.51630000  1.0 0.1315982182
H  H110  1  0.49890000  0.19440000  0.49230000  1.0 0.1315982182
H  H111  1  0.47410000  0.23950000  0.61070000  1.0 0.139956421
H  H112  1  0.53930000  0.21240000  0.63470000  1.0 0.1241232545
H  H113  1  0.09420000  0.66570000  0.81440000  1.0 0.0975387075
H  H114  1  0.07060000  0.59560000  0.68190000  1.0 0.1579240669
H  H115  1  0.20470000  0.65400000  0.71090000  1.0 0.139956421
H  H116  1  0.16730000  0.51630000  0.56410000  1.0 0.1315982182
H  H117  1  0.19440000  0.49230000  0.49890000  1.0 0.1315982182
H  H118  1  0.23950000  0.61070000  0.47410000  1.0 0.139956421
H  H119  1  0.21240000  0.63470000  0.53930000  1.0 0.1241232545
H  H120  1  0.90580000  0.16570000  0.68560000  1.0 0.0975387075
H  H121  1  0.92940000  0.09560000  0.81810000  1.0 0.1579240669
H  H122  1  0.79530000  0.15400000  0.78910000  1.0 0.139956421
H  H123  1  0.83270000  0.01630000  0.93590000  1.0 0.1315982182
H  H124  1  0.80560000  0.99230000  0.00110000  1.0 0.1315982182
H  H125  1  0.76050000  0.11070000  0.02590000  1.0 0.139956421
H  H126  1  0.78760000  0.13470000  0.96070000  1.0 0.1241232545
H  H127  1  0.40580000  0.33430000  0.31440000  1.0 0.0975387075
H  H128  1  0.42940000  0.40440000  0.18190000  1.0 0.1579240669
H  H129  1  0.29530000  0.34600000  0.21090000  1.0 0.139956421
H  H130  1  0.33270000  0.48370000  0.06410000  1.0 0.1315982182
H  H131  1  0.30560000  0.50770000  0.99890000  1.0 0.1315982182
H  H132  1  0.26050000  0.38930000  0.97410000  1.0 0.139956421
H  H133  1  0.28760000  0.36530000  0.03930000  1.0 0.1241232545
H  H134  1  0.59420000  0.83430000  0.18560000  1.0 0.0975387075
H  H135  1  0.57060000  0.90440000  0.31810000  1.0 0.1579240669
H  H136  1  0.70470000  0.84600000  0.28910000  1.0 0.139956421
H  H137  1  0.66730000  0.98370000  0.43590000  1.0 0.1315982182
H  H138  1  0.69440000  0.00770000  0.50110000  1.0 0.1315982182
H  H139  1  0.73950000  0.88930000  0.52590000  1.0 0.139956421
H  H140  1  0.71240000  0.86530000  0.46070000  1.0 0.1241232545
H  H141  1  0.16570000  0.68560000  0.90580000  1.0 0.0975387075
H  H142  1  0.09560000  0.81810000  0.92940000  1.0 0.1579240669
H  H143  1  0.15400000  0.78910000  0.79530000  1.0 0.139956421
H  H144  1  0.01630000  0.93590000  0.83270000  1.0 0.1315982182
H  H145  1  0.99230000  0.00110000  0.80560000  1.0 0.139956421
H  H146  1  0.11070000  0.02590000  0.76050000  1.0 0.139956421
H  H147  1  0.13470000  0.96070000  0.78760000  1.0 0.1241232545
H  H148  1  0.66570000  0.81440000  0.09420000  1.0 0.0975387075
H  H149  1  0.59560000  0.68190000  0.07060000  1.0 0.1579240669
H  H150  1  0.65400000  0.71090000  0.20470000  1.0 0.139956421
H  H151  1  0.51630000  0.56410000  0.16730000  1.0 0.1315982182
H  H152  1  0.49230000  0.49890000  0.19440000  1.0 0.1315982182
H  H153  1  0.61070000  0.47410000  0.23950000  1.0 0.139956421
H  H154  1  0.63470000  0.53930000  0.21240000  1.0 0.1241232545
H  H155  1  0.83430000  0.18560000  0.59420000  1.0 0.0975387075
H  H156  1  0.90440000  0.31810000  0.57060000  1.0 0.1579240669
H  H157  1  0.84600000  0.28910000  0.70470000  1.0 0.139956421
H  H158  1  0.98370000  0.43590000  0.66730000  1.0 0.1315982182
H  H159  1  0.00770000  0.50110000  0.69440000  1.0 0.1315982182
H  H160  1  0.88930000  0.52590000  0.73950000  1.0 0.139956421
H  H161  1  0.86530000  0.46070000  0.71240000  1.0 0.1241232545
H  H162  1  0.33430000  0.31440000  0.40580000  1.0 0.0975387075
H  H163  1  0.40440000  0.18190000  0.42940000  1.0 0.1579240669
H  H164  1  0.34600000  0.21090000  0.29530000  1.0 0.139956421
H  H165  1  0.48370000  0.06410000  0.33270000  1.0 0.1315982182
H  H166  1  0.50770000  0.99890000  0.30560000  1.0 0.1315982182
H  H167  1  0.38930000  0.97410000  0.26050000  1.0 0.139956421
H  H168  1  0.36530000  0.03930000  0.28760000  1.0 0.1241232545
C  C1  1  0.35370000  0.46260000  0.40710000  1.0 0.139956421
C  C2  1  0.39514000  0.51456000  0.39517000  1.0 0.139956421
C  C3  1  0.35498000  0.52326000  0.37767000  1.0 0.139956421
C  C4  1  0.34748000  0.56229000  0.35731000  1.0 -0.1355672961
C  C5  1  0.38013000  0.59263000  0.35450000  1.0 -0.0558588437
C  C6  1  0.42029000  0.58393000  0.37200000  1.0 -0.0328723142
C  C7  1  0.42779000  0.54489000  0.39230000  1.0 -0.1969683418
C  C8  1  0.44930000  0.62330000  0.36510000  1.0 0.4333253934
C  C9  1  0.38280000  0.63450000  0.33400000  1.0 0.420160302
C  C10  1  0.43720000  0.69183000  0.32780000  1.0 0.2017567124
C  C11  1  0.43180000  0.70400000  0.28520000  1.0 -0.1569101212
C  C12  1  0.44800000  0.74300000  0.27086000  1.0 -0.0886370679
C  C13  1  0.46960000  0.76996000  0.29920000  1.0 -0.0012627284
C  C14  1  0.47500000  0.75780000  0.34180000  1.0 -0.0849498033
C  C15  1  0.45880000  0.71880000  0.35610000  1.0 -0.1569101212
C  C16  1  0.48650000  0.81360000  0.28010000  1.0 0.4930079688
C  C17  1  0.14630000  0.53740000  0.90710000  1.0 0.139956421
C  C18  1  0.10486000  0.48544000  0.89517000  1.0 0.139956421
C  C19  1  0.14502000  0.47674000  0.87767000  1.0 0.139956421
C  C20  1  0.15252000  0.43771000  0.85731000  1.0 -0.1326208888
C  C21  1  0.11987000  0.40737000  0.85450000  1.0 -0.0558588437
C  C22  1  0.07971000  0.41607000  0.87200000  1.0 -0.0328723142
C  C23  1  0.07221000  0.45511000  0.89230000  1.0 -0.1969683418
C  C24  1  0.05070000  0.37670000  0.86510000  1.0 0.4333253934
C  C25  1  0.11720000  0.36550000  0.83400000  1.0 0.420160302
C  C26  1  0.06280000  0.30817000  0.82780000  1.0 0.2017567124
C  C27  1  0.06820000  0.29600000  0.78520000  1.0 -0.1569101212
C  C28  1  0.05200000  0.25700000  0.77086000  1.0 -0.0886370679
C  C29  1  0.03040000  0.23004000  0.79920000  1.0 0.0003900857
C  C30  1  0.02500000  0.24220000  0.84180000  1.0 -0.0849498033
C  C31  1  0.04120000  0.28120000  0.85610000  1.0 -0.1542037582
C  C32  1  0.01350000  0.18640000  0.78010000  1.0 0.4930079688
C  C33  1  0.64630000  0.96260000  0.09290000  1.0 0.139956421
C  C34  1  0.60486000  0.01456000  0.10483000  1.0 0.139956421
C  C35  1  0.64502000  0.02326000  0.12233000  1.0 0.139956421
C  C36  1  0.65252000  0.06229000  0.14269000  1.0 -0.1326208888
C  C37  1  0.61987000  0.09263000  0.14550000  1.0 -0.0558588437
C  C38  1  0.57971000  0.08393000  0.12800000  1.0 -0.0328723142
C  C39  1  0.57221000  0.04489000  0.10770000  1.0 -0.1969683418
C  C40  1  0.55070000  0.12330000  0.13490000  1.0 0.4333253934
C  C41  1  0.61720000  0.13450000  0.16600000  1.0 0.420160302
C  C42  1  0.56280000  0.19183000  0.17220000  1.0 0.2017567124
C  C43  1  0.56820000  0.20400000  0.21480000  1.0 -0.1569101212
C  C44  1  0.55200000  0.24300000  0.22914000  1.0 -0.0886370679
C  C45  1  0.53040000  0.26996000  0.20080000  1.0 -0.0012627284
C  C46  1  0.52500000  0.25780000  0.15820000  1.0 -0.0849498033
C  C47  1  0.54120000  0.21880000  0.14390000  1.0 -0.1542037582
C  C48  1  0.51350000  0.31360000  0.21990000  1.0 0.4930079688
C  C49  1  0.85370000  0.03740000  0.59290000  1.0 0.139956421
C  C50  1  0.89514000  0.98544000  0.60483000  1.0 0.139956421
C  C51  1  0.85498000  0.97674000  0.62233000  1.0 0.139956421
C  C52  1  0.84748000  0.93771000  0.64269000  1.0 -0.1326208888
C  C53  1  0.88013000  0.90737000  0.64550000  1.0 -0.0558588437
C  C54  1  0.92029000  0.91607000  0.62800000  1.0 -0.0328723142
C  C55  1  0.92779000  0.95511000  0.60770000  1.0 -0.1969683418
C  C56  1  0.94930000  0.87670000  0.63490000  1.0 0.4333253934
C  C57  1  0.88280000  0.86550000  0.66600000  1.0 0.420160302
C  C58  1  0.93720000  0.80817000  0.67220000  1.0 0.2017567124
C  C59  1  0.93180000  0.79600000  0.71480000  1.0 -0.1569101212
C  C60  1  0.94800000  0.75700000  0.72914000  1.0 -0.0886370679
C  C61  1  0.96960000  0.73004000  0.70080000  1.0 -0.0012627284
C  C62  1  0.97500000  0.74220000  0.65820000  1.0 -0.0849498033
C  C63  1  0.95880000  0.78120000  0.64390000  1.0 -0.1569101212
C  C64  1  0.98650000  0.68640000  0.71990000  1.0 0.4930079688
C  C65  1  0.40710000  0.35370000  0.46260000  1.0 0.139956421
C  C66  1  0.39517000  0.39514000  0.51456000  1.0 0.139956421
C  C67  1  0.37767000  0.35498000  0.52326000  1.0 0.139956421
C  C68  1  0.35731000  0.34748000  0.56229000  1.0 -0.1355672961
C  C69  1  0.35450000  0.38013000  0.59263000  1.0 -0.0558588437
C  C70  1  0.37200000  0.42029000  0.58393000  1.0 -0.0328723142
C  C71  1  0.39230000  0.42779000  0.54489000  1.0 -0.1969683418
C  C72  1  0.36510000  0.44930000  0.62330000  1.0 0.4333253934
C  C73  1  0.33400000  0.38280000  0.63450000  1.0 0.420160302
C  C74  1  0.32780000  0.43720000  0.69183000  1.0 0.2017567124
C  C75  1  0.28520000  0.43180000  0.70400000  1.0 -0.1569101212
C  C76  1  0.27086000  0.44800000  0.74300000  1.0 -0.0886370679
C  C77  1  0.29920000  0.46960000  0.76996000  1.0 -0.0012627284
C  C78  1  0.34180000  0.47500000  0.75780000  1.0 -0.0849498033
C  C79  1  0.35610000  0.45880000  0.71880000  1.0 -0.1542037582
C  C80  1  0.28010000  0.48650000  0.81360000  1.0 0.4930079688
C  C81  1  0.90710000  0.14630000  0.53740000  1.0 0.139956421
C  C82  1  0.89517000  0.10486000  0.48544000  1.0 0.139956421
C  C83  1  0.87767000  0.14502000  0.47674000  1.0 0.139956421
C  C84  1  0.85731000  0.15252000  0.43771000  1.0 -0.1326208888
C  C85  1  0.85450000  0.11987000  0.40737000  1.0 -0.0558588437
C  C86  1  0.87200000  0.07971000  0.41607000  1.0 -0.0328723142
C  C87  1  0.89230000  0.07221000  0.45511000  1.0 -0.1969683418
C  C88  1  0.86510000  0.05070000  0.37670000  1.0 0.4333253934
C  C89  1  0.83400000  0.11720000  0.36550000  1.0 0.420160302
C  C90  1  0.82780000  0.06280000  0.30817000  1.0 0.2017567124
C  C91  1  0.78520000  0.06820000  0.29600000  1.0 -0.1569101212
C  C92  1  0.77086000  0.05200000  0.25700000  1.0 -0.0886370679
C  C93  1  0.79920000  0.03040000  0.23004000  1.0 0.0003900857
C  C94  1  0.84180000  0.02500000  0.24220000  1.0 -0.0886370679
C  C95  1  0.85610000  0.04120000  0.28120000  1.0 -0.1542037582
C  C96  1  0.78010000  0.01350000  0.18640000  1.0 0.4930079688
C  C97  1  0.09290000  0.64630000  0.96260000  1.0 0.139956421
C  C98  1  0.10483000  0.60486000  0.01456000  1.0 0.139956421
C  C99  1  0.12233000  0.64502000  0.02326000  1.0 0.139956421
C  C100  1  0.14269000  0.65252000  0.06229000  1.0 -0.1355672961
C  C101  1  0.14550000  0.61987000  0.09263000  1.0 -0.0558588437
C  C102  1  0.12800000  0.57971000  0.08393000  1.0 -0.0328723142
C  C103  1  0.10770000  0.57221000  0.04489000  1.0 -0.1969683418
C  C104  1  0.13490000  0.55070000  0.12330000  1.0 0.4333253934
C  C105  1  0.16600000  0.61720000  0.13450000  1.0 0.420160302
C  C106  1  0.17220000  0.56280000  0.19183000  1.0 0.2017567124
C  C107  1  0.21480000  0.56820000  0.20400000  1.0 -0.1569101212
C  C108  1  0.22914000  0.55200000  0.24300000  1.0 -0.0886370679
C  C109  1  0.20080000  0.53040000  0.26996000  1.0 -0.0012627284
C  C110  1  0.15820000  0.52500000  0.25780000  1.0 -0.0849498033
C  C111  1  0.14390000  0.54120000  0.21880000  1.0 -0.1569101212
C  C112  1  0.21990000  0.51350000  0.31360000  1.0 0.4930079688
C  C113  1  0.59290000  0.85370000  0.03740000  1.0 0.139956421
C  C114  1  0.60483000  0.89514000  0.98544000  1.0 0.139956421
C  C115  1  0.62233000  0.85498000  0.97674000  1.0 0.139956421
C  C116  1  0.64269000  0.84748000  0.93771000  1.0 -0.1326208888
C  C117  1  0.64550000  0.88013000  0.90737000  1.0 -0.0558588437
C  C118  1  0.62800000  0.92029000  0.91607000  1.0 -0.0328723142
C  C119  1  0.60770000  0.92779000  0.95511000  1.0 -0.1969683418
C  C120  1  0.63490000  0.94930000  0.87670000  1.0 0.4333253934
C  C121  1  0.66600000  0.88280000  0.86550000  1.0 0.420160302
C  C122  1  0.67220000  0.93720000  0.80817000  1.0 0.2017567124
C  C123  1  0.71480000  0.93180000  0.79600000  1.0 -0.1569101212
C  C124  1  0.72914000  0.94800000  0.75700000  1.0 -0.0886370679
C  C125  1  0.70080000  0.96960000  0.73004000  1.0 -0.0012627284
C  C126  1  0.65820000  0.97500000  0.74220000  1.0 -0.0849498033
C  C127  1  0.64390000  0.95880000  0.78120000  1.0 -0.1569101212
C  C128  1  0.71990000  0.98650000  0.68640000  1.0 0.4930079688
C  C129  1  0.46260000  0.40710000  0.35370000  1.0 0.139956421
C  C130  1  0.51456000  0.39517000  0.39514000  1.0 0.139956421
C  C131  1  0.52326000  0.37767000  0.35498000  1.0 0.139956421
C  C132  1  0.56229000  0.35731000  0.34748000  1.0 -0.1355672961
C  C133  1  0.59263000  0.35450000  0.38013000  1.0 -0.0558588437
C  C134  1  0.58393000  0.37200000  0.42029000  1.0 -0.0328723142
C  C135  1  0.54489000  0.39230000  0.42779000  1.0 -0.1969683418
C  C136  1  0.62330000  0.36510000  0.44930000  1.0 0.4333253934
C  C137  1  0.63450000  0.33400000  0.38280000  1.0 0.420160302
C  C138  1  0.69183000  0.32780000  0.43720000  1.0 0.2017567124
C  C139  1  0.70400000  0.28520000  0.43180000  1.0 -0.1569101212
C  C140  1  0.74300000  0.27086000  0.44800000  1.0 -0.0886370679
C  C141  1  0.76996000  0.29920000  0.46960000  1.0 0.0003900857
C  C142  1  0.75780000  0.34180000  0.47500000  1.0 -0.0849498033
C  C143  1  0.71880000  0.35610000  0.45880000  1.0 -0.1542037582
C  C144  1  0.81360000  0.28010000  0.48650000  1.0 0.4930079688
C  C145  1  0.53740000  0.90710000  0.14630000  1.0 0.139956421
C  C146  1  0.48544000  0.89517000  0.10486000  1.0 0.139956421
C  C147  1  0.47674000  0.87767000  0.14502000  1.0 0.139956421
C  C148  1  0.43771000  0.85731000  0.15252000  1.0 -0.1326208888
C  C149  1  0.40737000  0.85450000  0.11987000  1.0 -0.0558588437
C  C150  1  0.41607000  0.87200000  0.07971000  1.0 -0.0328723142
C  C151  1  0.45511000  0.89230000  0.07221000  1.0 -0.1969683418
C  C152  1  0.37670000  0.86510000  0.05070000  1.0 0.4333253934
C  C153  1  0.36550000  0.83400000  0.11720000  1.0 0.420160302
C  C154  1  0.30817000  0.82780000  0.06280000  1.0 0.2017567124
C  C155  1  0.29600000  0.78520000  0.06820000  1.0 -0.1569101212
C  C156  1  0.25700000  0.77086000  0.05200000  1.0 -0.0886370679
C  C157  1  0.23004000  0.79920000  0.03040000  1.0 -0.0012627284
C  C158  1  0.24220000  0.84180000  0.02500000  1.0 -0.0849498033
C  C159  1  0.28120000  0.85610000  0.04120000  1.0 -0.1569101212
C  C160  1  0.18640000  0.78010000  0.01350000  1.0 0.4930079688
C  C161  1  0.96260000  0.09290000  0.64630000  1.0 0.139956421
C  C162  1  0.01456000  0.10483000  0.60486000  1.0 0.139956421
C  C163  1  0.02326000  0.12233000  0.64502000  1.0 0.139956421
C  C164  1  0.06229000  0.14269000  0.65252000  1.0 -0.1326208888
C  C165  1  0.09263000  0.14550000  0.61987000  1.0 -0.0558588437
C  C166  1  0.08393000  0.12800000  0.57971000  1.0 -0.0328723142
C  C167  1  0.04489000  0.10770000  0.57221000  1.0 -0.1969683418
C  C168  1  0.12330000  0.13490000  0.55070000  1.0 0.4333253934
C  C169  1  0.13450000  0.16600000  0.61720000  1.0 0.420160302
C  C170  1  0.19183000  0.17220000  0.56280000  1.0 0.2017567124
C  C171  1  0.20400000  0.21480000  0.56820000  1.0 -0.1569101212
C  C172  1  0.24300000  0.22914000  0.55200000  1.0 -0.0886370679
C  C173  1  0.26996000  0.20080000  0.53040000  1.0 -0.0012627284
C  C174  1  0.25780000  0.15820000  0.52500000  1.0 -0.0849498033
C  C175  1  0.21880000  0.14390000  0.54120000  1.0 -0.1542037582
C  C176  1  0.31360000  0.21990000  0.51350000  1.0 0.4930079688
C  C177  1  0.03740000  0.59290000  0.85370000  1.0 0.139956421
C  C178  1  0.98544000  0.60483000  0.89514000  1.0 0.139956421
C  C179  1  0.97674000  0.62233000  0.85498000  1.0 0.139956421
C  C180  1  0.93771000  0.64269000  0.84748000  1.0 -0.1326208888
C  C181  1  0.90737000  0.64550000  0.88013000  1.0 -0.0558588437
C  C182  1  0.91607000  0.62800000  0.92029000  1.0 -0.0328723142
C  C183  1  0.95511000  0.60770000  0.92779000  1.0 -0.1969683418
C  C184  1  0.87670000  0.63490000  0.94930000  1.0 0.4333253934
C  C185  1  0.86550000  0.66600000  0.88280000  1.0 0.420160302
C  C186  1  0.80817000  0.67220000  0.93720000  1.0 0.2017567124
C  C187  1  0.79600000  0.71480000  0.93180000  1.0 -0.1569101212
C  C188  1  0.75700000  0.72914000  0.94800000  1.0 -0.0886370679
C  C189  1  0.73004000  0.70080000  0.96960000  1.0 -0.0012627284
C  C190  1  0.74220000  0.65820000  0.97500000  1.0 -0.0849498033
C  C191  1  0.78120000  0.64390000  0.95880000  1.0 -0.1569101212
C  C192  1  0.68640000  0.71990000  0.98650000  1.0 0.4930079688
C  C193  1  0.21260000  0.60370000  0.84290000  1.0 0.139956421
C  C194  1  0.26456000  0.64514000  0.85483000  1.0 0.139956421
C  C195  1  0.27326000  0.60498000  0.87233000  1.0 0.139956421
C  C196  1  0.31229000  0.59748000  0.89269000  1.0 -0.1326208888
C  C197  1  0.34263000  0.63013000  0.89550000  1.0 -0.0558588437
C  C198  1  0.33393000  0.67029000  0.87800000  1.0 -0.0328723142
C  C199  1  0.29489000  0.67779000  0.85770000  1.0 -0.1969683418
C  C200  1  0.37330000  0.69930000  0.88490000  1.0 0.4333253934
C  C201  1  0.38450000  0.63280000  0.91600000  1.0 0.420160302
C  C202  1  0.44183000  0.68720000  0.92220000  1.0 0.2017567124
C  C203  1  0.45400000  0.68180000  0.96480000  1.0 -0.1569101212
C  C204  1  0.49300000  0.69800000  0.97914000  1.0 -0.0886370679
C  C205  1  0.51996000  0.71960000  0.95080000  1.0 0.0003900857
C  C206  1  0.50780000  0.72500000  0.90820000  1.0 -0.0849498033
C  C207  1  0.46880000  0.70880000  0.89390000  1.0 -0.1569101212
C  C208  1  0.56360000  0.73650000  0.96990000  1.0 0.4930079688
C  C209  1  0.28740000  0.39630000  0.34290000  1.0 0.139956421
C  C210  1  0.23544000  0.35486000  0.35483000  1.0 0.139956421
C  C211  1  0.22674000  0.39502000  0.37233000  1.0 0.139956421
C  C212  1  0.18771000  0.40252000  0.39269000  1.0 -0.1355672961
C  C213  1  0.15737000  0.36987000  0.39550000  1.0 -0.0558588437
C  C214  1  0.16607000  0.32971000  0.37800000  1.0 -0.0328723142
C  C215  1  0.20511000  0.32221000  0.35770000  1.0 -0.1939165508
C  C216  1  0.12670000  0.30070000  0.38490000  1.0 0.4333253934
C  C217  1  0.11550000  0.36720000  0.41600000  1.0 0.420160302
C  C218  1  0.05817000  0.31280000  0.42220000  1.0 0.2017567124
C  C219  1  0.04600000  0.31820000  0.46480000  1.0 -0.1569101212
C  C220  1  0.00700000  0.30200000  0.47914000  1.0 -0.0886370679
C  C221  1  0.98004000  0.28040000  0.45080000  1.0 0.0003900857
C  C222  1  0.99220000  0.27500000  0.40820000  1.0 -0.0849498033
C  C223  1  0.03120000  0.29120000  0.39390000  1.0 -0.1542037582
C  C224  1  0.93640000  0.26350000  0.46990000  1.0 0.4930079688
C  C225  1  0.71260000  0.89630000  0.15710000  1.0 0.139956421
C  C226  1  0.76456000  0.85486000  0.14517000  1.0 0.139956421
C  C227  1  0.77326000  0.89502000  0.12767000  1.0 0.139956421
C  C228  1  0.81229000  0.90252000  0.10731000  1.0 -0.1355672961
C  C229  1  0.84263000  0.86987000  0.10450000  1.0 -0.0558588437
C  C230  1  0.83393000  0.82971000  0.12200000  1.0 -0.0328723142
C  C231  1  0.79489000  0.82221000  0.14230000  1.0 -0.1969683418
C  C232  1  0.87330000  0.80070000  0.11510000  1.0 0.4333253934
C  C233  1  0.88450000  0.86720000  0.08400000  1.0 0.420160302
C  C234  1  0.94183000  0.81280000  0.07780000  1.0 0.2017567124
C  C235  1  0.95400000  0.81820000  0.03520000  1.0 -0.1569101212
C  C236  1  0.99300000  0.80200000  0.02086000  1.0 -0.0886370679
C  C237  1  0.01996000  0.78040000  0.04920000  1.0 -0.0012627284
C  C238  1  0.00780000  0.77500000  0.09180000  1.0 -0.0849498033
C  C239  1  0.96880000  0.79120000  0.10610000  1.0 -0.1569101212
C  C240  1  0.06360000  0.76350000  0.03010000  1.0 0.4930079688
C  C241  1  0.78740000  0.10370000  0.65710000  1.0 0.139956421
C  C242  1  0.73544000  0.14514000  0.64517000  1.0 0.139956421
C  C243  1  0.72674000  0.10498000  0.62767000  1.0 0.139956421
C  C244  1  0.68771000  0.09748000  0.60731000  1.0 -0.1326208888
C  C245  1  0.65737000  0.13013000  0.60450000  1.0 -0.0558588437
C  C246  1  0.66607000  0.17029000  0.62200000  1.0 -0.0328723142
C  C247  1  0.70511000  0.17779000  0.64230000  1.0 -0.1939165508
C  C248  1  0.62670000  0.19930000  0.61510000  1.0 0.4333253934
C  C249  1  0.61550000  0.13280000  0.58400000  1.0 0.420160302
C  C250  1  0.55817000  0.18720000  0.57780000  1.0 0.2017567124
C  C251  1  0.54600000  0.18180000  0.53520000  1.0 -0.1542037582
C  C252  1  0.50700000  0.19800000  0.52086000  1.0 -0.0886370679
C  C253  1  0.48004000  0.21960000  0.54920000  1.0 0.0003900857
C  C254  1  0.49220000  0.22500000  0.59180000  1.0 -0.0849498033
C  C255  1  0.53120000  0.20880000  0.60610000  1.0 -0.1542037582
C  C256  1  0.43640000  0.23650000  0.53010000  1.0 0.4930079688
C  C257  1  0.10370000  0.65710000  0.78740000  1.0 0.139956421
C  C258  1  0.14514000  0.64517000  0.73544000  1.0 0.139956421
C  C259  1  0.10498000  0.62767000  0.72674000  1.0 0.139956421
C  C260  1  0.09748000  0.60731000  0.68771000  1.0 -0.1326208888
C  C261  1  0.13013000  0.60450000  0.65737000  1.0 -0.0558588437
C  C262  1  0.17029000  0.62200000  0.66607000  1.0 -0.0328723142
C  C263  1  0.17779000  0.64230000  0.70511000  1.0 -0.1939165508
C  C264  1  0.19930000  0.61510000  0.62670000  1.0 0.4333253934
C  C265  1  0.13280000  0.58400000  0.61550000  1.0 0.420160302
C  C266  1  0.18720000  0.57780000  0.55817000  1.0 0.2017567124
C  C267  1  0.18180000  0.53520000  0.54600000  1.0 -0.1569101212
C  C268  1  0.19800000  0.52086000  0.50700000  1.0 -0.0886370679
C  C269  1  0.21960000  0.54920000  0.48004000  1.0 -0.0012627284
C  C270  1  0.22500000  0.59180000  0.49220000  1.0 -0.0849498033
C  C271  1  0.20880000  0.60610000  0.53120000  1.0 -0.1542037582
C  C272  1  0.23650000  0.53010000  0.43640000  1.0 0.4930079688
C  C273  1  0.89630000  0.15710000  0.71260000  1.0 0.139956421
C  C274  1  0.85486000  0.14517000  0.76456000  1.0 0.139956421
C  C275  1  0.89502000  0.12767000  0.77326000  1.0 0.139956421
C  C276  1  0.90252000  0.10731000  0.81229000  1.0 -0.1355672961
C  C277  1  0.86987000  0.10450000  0.84263000  1.0 -0.0558588437
C  C278  1  0.82971000  0.12200000  0.83393000  1.0 -0.0328723142
C  C279  1  0.82221000  0.14230000  0.79489000  1.0 -0.1969683418
C  C280  1  0.80070000  0.11510000  0.87330000  1.0 0.4333253934
C  C281  1  0.86720000  0.08400000  0.88450000  1.0 0.420160302
C  C282  1  0.81280000  0.07780000  0.94183000  1.0 0.2017567124
C  C283  1  0.81820000  0.03520000  0.95400000  1.0 -0.1542037582
C  C284  1  0.80200000  0.02086000  0.99300000  1.0 -0.0886370679
C  C285  1  0.78040000  0.04920000  0.01996000  1.0 0.0003900857
C  C286  1  0.77500000  0.09180000  0.00780000  1.0 -0.0886370679
C  C287  1  0.79120000  0.10610000  0.96880000  1.0 -0.1542037582
C  C288  1  0.76350000  0.03010000  0.06360000  1.0 0.4930079688
C  C289  1  0.39630000  0.34290000  0.28740000  1.0 0.139956421
C  C290  1  0.35486000  0.35483000  0.23544000  1.0 0.139956421
C  C291  1  0.39502000  0.37233000  0.22674000  1.0 0.139956421
C  C292  1  0.40252000  0.39269000  0.18771000  1.0 -0.1355672961
C  C293  1  0.36987000  0.39550000  0.15737000  1.0 -0.0558588437
C  C294  1  0.32971000  0.37800000  0.16607000  1.0 -0.0328723142
C  C295  1  0.32221000  0.35770000  0.20511000  1.0 -0.1939165508
C  C296  1  0.30070000  0.38490000  0.12670000  1.0 0.4333253934
C  C297  1  0.36720000  0.41600000  0.11550000  1.0 0.420160302
C  C298  1  0.31280000  0.42220000  0.05817000  1.0 0.2017567124
C  C299  1  0.31820000  0.46480000  0.04600000  1.0 -0.1569101212
C  C300  1  0.30200000  0.47914000  0.00700000  1.0 -0.0886370679
C  C301  1  0.28040000  0.45080000  0.98004000  1.0 0.0003900857
C  C302  1  0.27500000  0.40820000  0.99220000  1.0 -0.0849498033
C  C303  1  0.29120000  0.39390000  0.03120000  1.0 -0.1542037582
C  C304  1  0.26350000  0.46990000  0.93640000  1.0 0.4930079688
C  C305  1  0.60370000  0.84290000  0.21260000  1.0 0.139956421
C  C306  1  0.64514000  0.85483000  0.26456000  1.0 0.139956421
C  C307  1  0.60498000  0.87233000  0.27326000  1.0 0.139956421
C  C308  1  0.59748000  0.89269000  0.31229000  1.0 -0.1326208888
C  C309  1  0.63013000  0.89550000  0.34263000  1.0 -0.0558588437
C  C310  1  0.67029000  0.87800000  0.33393000  1.0 -0.0328723142
C  C311  1  0.67779000  0.85770000  0.29489000  1.0 -0.1969683418
C  C312  1  0.69930000  0.88490000  0.37330000  1.0 0.4333253934
C  C313  1  0.63280000  0.91600000  0.38450000  1.0 0.420160302
C  C314  1  0.68720000  0.92220000  0.44183000  1.0 0.2017567124
C  C315  1  0.68180000  0.96480000  0.45400000  1.0 -0.1569101212
C  C316  1  0.69800000  0.97914000  0.49300000  1.0 -0.0886370679
C  C317  1  0.71960000  0.95080000  0.51996000  1.0 0.0003900857
C  C318  1  0.72500000  0.90820000  0.50780000  1.0 -0.0849498033
C  C319  1  0.70880000  0.89390000  0.46880000  1.0 -0.1569101212
C  C320  1  0.73650000  0.96990000  0.56360000  1.0 0.4930079688
C  C321  1  0.15710000  0.71260000  0.89630000  1.0 0.139956421
C  C322  1  0.14517000  0.76456000  0.85486000  1.0 0.139956421
C  C323  1  0.12767000  0.77326000  0.89502000  1.0 0.139956421
C  C324  1  0.10731000  0.81229000  0.90252000  1.0 -0.1355672961
C  C325  1  0.10450000  0.84263000  0.86987000  1.0 -0.0558588437
C  C326  1  0.12200000  0.83393000  0.82971000  1.0 -0.0328723142
C  C327  1  0.14230000  0.79489000  0.82221000  1.0 -0.1969683418
C  C328  1  0.11510000  0.87330000  0.80070000  1.0 0.4333253934
C  C329  1  0.08400000  0.88450000  0.86720000  1.0 0.420160302
C  C330  1  0.07780000  0.94183000  0.81280000  1.0 0.2017567124
C  C331  1  0.03520000  0.95400000  0.81820000  1.0 -0.1569101212
C  C332  1  0.02086000  0.99300000  0.80200000  1.0 -0.0886370679
C  C333  1  0.04920000  0.01996000  0.78040000  1.0 0.0003900857
C  C334  1  0.09180000  0.00780000  0.77500000  1.0 -0.0849498033
C  C335  1  0.10610000  0.96880000  0.79120000  1.0 -0.1569101212
C  C336  1  0.03010000  0.06360000  0.76350000  1.0 0.4930079688
C  C337  1  0.65710000  0.78740000  0.10370000  1.0 0.139956421
C  C338  1  0.64517000  0.73544000  0.14514000  1.0 0.139956421
C  C339  1  0.62767000  0.72674000  0.10498000  1.0 0.139956421
C  C340  1  0.60731000  0.68771000  0.09748000  1.0 -0.1326208888
C  C341  1  0.60450000  0.65737000  0.13013000  1.0 -0.0558588437
C  C342  1  0.62200000  0.66607000  0.17029000  1.0 -0.0328723142
C  C343  1  0.64230000  0.70511000  0.17779000  1.0 -0.1939165508
C  C344  1  0.61510000  0.62670000  0.19930000  1.0 0.4333253934
C  C345  1  0.58400000  0.61550000  0.13280000  1.0 0.420160302
C  C346  1  0.57780000  0.55817000  0.18720000  1.0 0.2017567124
C  C347  1  0.53520000  0.54600000  0.18180000  1.0 -0.1569101212
C  C348  1  0.52086000  0.50700000  0.19800000  1.0 -0.0886370679
C  C349  1  0.54920000  0.48004000  0.21960000  1.0 -0.0012627284
C  C350  1  0.59180000  0.49220000  0.22500000  1.0 -0.0849498033
C  C351  1  0.60610000  0.53120000  0.20880000  1.0 -0.1542037582
C  C352  1  0.53010000  0.43640000  0.23650000  1.0 0.4930079688
C  C353  1  0.84290000  0.21260000  0.60370000  1.0 0.139956421
C  C354  1  0.85483000  0.26456000  0.64514000  1.0 0.139956421
C  C355  1  0.87233000  0.27326000  0.60498000  1.0 0.139956421
C  C356  1  0.89269000  0.31229000  0.59748000  1.0 -0.1326208888
C  C357  1  0.89550000  0.34263000  0.63013000  1.0 -0.0558588437
C  C358  1  0.87800000  0.33393000  0.67029000  1.0 -0.0328723142
C  C359  1  0.85770000  0.29489000  0.67779000  1.0 -0.1969683418
C  C360  1  0.88490000  0.37330000  0.69930000  1.0 0.4333253934
C  C361  1  0.91600000  0.38450000  0.63280000  1.0 0.420160302
C  C362  1  0.92220000  0.44183000  0.68720000  1.0 0.2017567124
C  C363  1  0.96480000  0.45400000  0.68180000  1.0 -0.1569101212
C  C364  1  0.97914000  0.49300000  0.69800000  1.0 -0.0886370679
C  C365  1  0.95080000  0.51996000  0.71960000  1.0 0.0003900857
C  C366  1  0.90820000  0.50780000  0.72500000  1.0 -0.0849498033
C  C367  1  0.89390000  0.46880000  0.70880000  1.0 -0.1569101212
C  C368  1  0.96990000  0.56360000  0.73650000  1.0 0.4930079688
C  C369  1  0.34290000  0.28740000  0.39630000  1.0 0.139956421
C  C370  1  0.35483000  0.23544000  0.35486000  1.0 0.139956421
C  C371  1  0.37233000  0.22674000  0.39502000  1.0 0.139956421
C  C372  1  0.39269000  0.18771000  0.40252000  1.0 -0.1355672961
C  C373  1  0.39550000  0.15737000  0.36987000  1.0 -0.0558588437
C  C374  1  0.37800000  0.16607000  0.32971000  1.0 -0.0328723142
C  C375  1  0.35770000  0.20511000  0.32221000  1.0 -0.1939165508
C  C376  1  0.38490000  0.12670000  0.30070000  1.0 0.4333253934
C  C377  1  0.41600000  0.11550000  0.36720000  1.0 0.420160302
C  C378  1  0.42220000  0.05817000  0.31280000  1.0 0.2017567124
C  C379  1  0.46480000  0.04600000  0.31820000  1.0 -0.1569101212
C  C380  1  0.47914000  0.00700000  0.30200000  1.0 -0.0886370679
C  C381  1  0.45080000  0.98004000  0.28040000  1.0 -0.0012627284
C  C382  1  0.40820000  0.99220000  0.27500000  1.0 -0.0886370679
C  C383  1  0.39390000  0.03120000  0.29120000  1.0 -0.1542037582
C  C384  1  0.46990000  0.93640000  0.26350000  1.0 0.4930079688
N  N1  1  0.39410000  0.47694000  0.41441000  1.0 -0.3375002584
N  N2  1  0.32928000  0.48982000  0.38681000  1.0 -0.3086308952
N  N3  1  0.42300000  0.65230000  0.34320000  1.0 -0.2203590904
N  N4  1  0.10590000  0.52306000  0.91441000  1.0 -0.3375002584
N  N5  1  0.17072000  0.51018000  0.88681000  1.0 -0.3086308952
N  N6  1  0.07700000  0.34770000  0.84320000  1.0 -0.2203590904
N  N7  1  0.60590000  0.97694000  0.08559000  1.0 -0.3375002584
N  N8  1  0.67072000  0.98982000  0.11319000  1.0 -0.3086308952
N  N9  1  0.57700000  0.15230000  0.15680000  1.0 -0.2203590904
N  N10  1  0.89410000  0.02306000  0.58559000  1.0 -0.3375002584
N  N11  1  0.82928000  0.01018000  0.61319000  1.0 -0.3086308952
N  N12  1  0.92300000  0.84770000  0.65680000  1.0 -0.2203590904
N  N13  1  0.41441000  0.39410000  0.47694000  1.0 -0.3375002584
N  N14  1  0.38681000  0.32928000  0.48982000  1.0 -0.3086308952
N  N15  1  0.34320000  0.42300000  0.65230000  1.0 -0.2203590904
N  N16  1  0.91441000  0.10590000  0.52306000  1.0 -0.3375002584
N  N17  1  0.88681000  0.17072000  0.51018000  1.0 -0.3086308952
N  N18  1  0.84320000  0.07700000  0.34770000  1.0 -0.2203590904
N  N19  1  0.08559000  0.60590000  0.97694000  1.0 -0.3375002584
N  N20  1  0.11319000  0.67072000  0.98982000  1.0 -0.3086308952
N  N21  1  0.15680000  0.57700000  0.15230000  1.0 -0.2203590904
N  N22  1  0.58559000  0.89410000  0.02306000  1.0 -0.3375002584
N  N23  1  0.61319000  0.82928000  0.01018000  1.0 -0.3086308952
N  N24  1  0.65680000  0.92300000  0.84770000  1.0 -0.2203590904
N  N25  1  0.47694000  0.41441000  0.39410000  1.0 -0.3375002584
N  N26  1  0.48982000  0.38681000  0.32928000  1.0 -0.3086308952
N  N27  1  0.65230000  0.34320000  0.42300000  1.0 -0.2203590904
N  N28  1  0.52306000  0.91441000  0.10590000  1.0 -0.3375002584
N  N29  1  0.51018000  0.88681000  0.17072000  1.0 -0.3086308952
N  N30  1  0.34770000  0.84320000  0.07700000  1.0 -0.2203590904
N  N31  1  0.97694000  0.08559000  0.60590000  1.0 -0.3375002584
N  N32  1  0.98982000  0.11319000  0.67072000  1.0 -0.3086308952
N  N33  1  0.15230000  0.15680000  0.57700000  1.0 -0.2203590904
N  N34  1  0.02306000  0.58559000  0.89410000  1.0 -0.3375002584
N  N35  1  0.01018000  0.61319000  0.82928000  1.0 -0.3086308952
N  N36  1  0.84770000  0.65680000  0.92300000  1.0 -0.2203590904
N  N37  1  0.22694000  0.64410000  0.83559000  1.0 -0.3375002584
N  N38  1  0.23982000  0.57928000  0.86319000  1.0 -0.3086308952
N  N39  1  0.40230000  0.67300000  0.90680000  1.0 -0.2203590904
N  N40  1  0.27306000  0.35590000  0.33559000  1.0 -0.3375002584
N  N41  1  0.26018000  0.42072000  0.36319000  1.0 -0.3086308952
N  N42  1  0.09770000  0.32700000  0.40680000  1.0 -0.2203590904
N  N43  1  0.72694000  0.85590000  0.16441000  1.0 -0.3375002584
N  N44  1  0.73982000  0.92072000  0.13681000  1.0 -0.3086308952
N  N45  1  0.90230000  0.82700000  0.09320000  1.0 -0.2203590904
N  N46  1  0.77306000  0.14410000  0.66441000  1.0 -0.3375002584
N  N47  1  0.76018000  0.07928000  0.63681000  1.0 -0.3086308952
N  N48  1  0.59770000  0.17300000  0.59320000  1.0 -0.2203590904
N  N49  1  0.14410000  0.66441000  0.77306000  1.0 -0.3375002584
N  N50  1  0.07928000  0.63681000  0.76018000  1.0 -0.3086308952
N  N51  1  0.17300000  0.59320000  0.59770000  1.0 -0.2203590904
N  N52  1  0.85590000  0.16441000  0.72694000  1.0 -0.3375002584
N  N53  1  0.92072000  0.13681000  0.73982000  1.0 -0.3086308952
N  N54  1  0.82700000  0.09320000  0.90230000  1.0 -0.2203590904
N  N55  1  0.35590000  0.33559000  0.27306000  1.0 -0.3375002584
N  N56  1  0.42072000  0.36319000  0.26018000  1.0 -0.3086308952
N  N57  1  0.32700000  0.40680000  0.09770000  1.0 -0.2203590904
N  N58  1  0.64410000  0.83559000  0.22694000  1.0 -0.3375002584
N  N59  1  0.57928000  0.86319000  0.23982000  1.0 -0.3086308952
N  N60  1  0.67300000  0.90680000  0.40230000  1.0 -0.2203590904
N  N61  1  0.16441000  0.72694000  0.85590000  1.0 -0.3375002584
N  N62  1  0.13681000  0.73982000  0.92072000  1.0 -0.3086308952
N  N63  1  0.09320000  0.90230000  0.82700000  1.0 -0.2203590904
N  N64  1  0.66441000  0.77306000  0.14410000  1.0 -0.3375002584
N  N65  1  0.63681000  0.76018000  0.07928000  1.0 -0.3086308952
N  N66  1  0.59320000  0.59770000  0.17300000  1.0 -0.2203590904
N  N67  1  0.83559000  0.22694000  0.64410000  1.0 -0.3375002584
N  N68  1  0.86319000  0.23982000  0.57928000  1.0 -0.3086308952
N  N69  1  0.90680000  0.40230000  0.67300000  1.0 -0.2203590904
N  N70  1  0.33559000  0.27306000  0.35590000  1.0 -0.3375002584
N  N71  1  0.36319000  0.26018000  0.42072000  1.0 -0.3086308952
N  N72  1  0.40680000  0.09770000  0.32700000  1.0 -0.2203590904
O  O1  1  0.50620000  0.83430000  0.30500000  1.0 -0.4482170905
O  O2  1  0.48269000  0.82042000  0.24511000  1.0 -0.428860276
O  O3  1  0.35490000  0.65190000  0.31260000  1.0 -0.4178017805
O  O4  1  0.48510000  0.62660000  0.37440000  1.0 -0.3924921535
O  O5  1  0.99380000  0.16570000  0.80500000  1.0 -0.4482170905
O  O6  1  0.01731000  0.17958000  0.74511000  1.0 -0.428860276
O  O7  1  0.14510000  0.34810000  0.81260000  1.0 -0.4178017805
O  O8  1  0.01490000  0.37340000  0.87440000  1.0 -0.3924921535
O  O9  1  0.49380000  0.33430000  0.19500000  1.0 -0.4482170905
O  O10  1  0.51731000  0.32042000  0.25489000  1.0 -0.428860276
O  O11  1  0.64510000  0.15190000  0.18740000  1.0 -0.4178017805
O  O12  1  0.51490000  0.12660000  0.12560000  1.0 -0.3924921535
O  O13  1  0.00620000  0.66570000  0.69500000  1.0 -0.4482170905
O  O14  1  0.98269000  0.67958000  0.75489000  1.0 -0.428860276
O  O15  1  0.85490000  0.84810000  0.68740000  1.0 -0.4132796939
O  O16  1  0.98510000  0.87340000  0.62560000  1.0 -0.3924921535
O  O17  1  0.30500000  0.50620000  0.83430000  1.0 -0.4482170905
O  O18  1  0.24511000  0.48269000  0.82042000  1.0 -0.428860276
O  O19  1  0.31260000  0.35490000  0.65190000  1.0 -0.4178017805
O  O20  1  0.37440000  0.48510000  0.62660000  1.0 -0.3924921535
O  O21  1  0.80500000  0.99380000  0.16570000  1.0 -0.4482170905
O  O22  1  0.74511000  0.01731000  0.17958000  1.0 -0.428860276
O  O23  1  0.81260000  0.14510000  0.34810000  1.0 -0.4178017805
O  O24  1  0.87440000  0.01490000  0.37340000  1.0 -0.3924921535
O  O25  1  0.19500000  0.49380000  0.33430000  1.0 -0.4482170905
O  O26  1  0.25489000  0.51731000  0.32042000  1.0 -0.428860276
O  O27  1  0.18740000  0.64510000  0.15190000  1.0 -0.4178017805
O  O28  1  0.12560000  0.51490000  0.12660000  1.0 -0.3924921535
O  O29  1  0.69500000  0.00620000  0.66570000  1.0 -0.4482170905
O  O30  1  0.75489000  0.98269000  0.67958000  1.0 -0.428860276
O  O31  1  0.68740000  0.85490000  0.84810000  1.0 -0.4132796939
O  O32  1  0.62560000  0.98510000  0.87340000  1.0 -0.3924921535
O  O33  1  0.83430000  0.30500000  0.50620000  1.0 -0.4482170905
O  O34  1  0.82042000  0.24511000  0.48269000  1.0 -0.428860276
O  O35  1  0.65190000  0.31260000  0.35490000  1.0 -0.4178017805
O  O36  1  0.62660000  0.37440000  0.48510000  1.0 -0.3924921535
O  O37  1  0.16570000  0.80500000  0.99380000  1.0 -0.4482170905
O  O38  1  0.17958000  0.74511000  0.01731000  1.0 -0.428860276
O  O39  1  0.34810000  0.81260000  0.14510000  1.0 -0.4178017805
O  O40  1  0.37340000  0.87440000  0.01490000  1.0 -0.3924921535
O  O41  1  0.33430000  0.19500000  0.49380000  1.0 -0.4482170905
O  O42  1  0.32042000  0.25489000  0.51731000  1.0 -0.428860276
O  O43  1  0.15190000  0.18740000  0.64510000  1.0 -0.4178017805
O  O44  1  0.12660000  0.12560000  0.51490000  1.0 -0.3924921535
O  O45  1  0.66570000  0.69500000  0.00620000  1.0 -0.4482170905
O  O46  1  0.67958000  0.75489000  0.98269000  1.0 -0.428860276
O  O47  1  0.84810000  0.68740000  0.85490000  1.0 -0.4132796939
O  O48  1  0.87340000  0.62560000  0.98510000  1.0 -0.3924921535
O  O49  1  0.58430000  0.75620000  0.94500000  1.0 -0.4482170905
O  O50  1  0.57042000  0.73269000  0.00489000  1.0 -0.428860276
O  O51  1  0.40190000  0.60490000  0.93740000  1.0 -0.4178017805
O  O52  1  0.37660000  0.73510000  0.87560000  1.0 -0.3924921535
O  O53  1  0.91570000  0.24380000  0.44500000  1.0 -0.4482170905
O  O54  1  0.92958000  0.26731000  0.50489000  1.0 -0.428860276
O  O55  1  0.09810000  0.39510000  0.43740000  1.0 -0.4178017805
O  O56  1  0.12340000  0.26490000  0.37560000  1.0 -0.3977685785
O  O57  1  0.08430000  0.74380000  0.05500000  1.0 -0.4482170905
O  O58  1  0.07042000  0.76731000  0.99511000  1.0 -0.428860276
O  O59  1  0.90190000  0.89510000  0.06260000  1.0 -0.4178017805
O  O60  1  0.87660000  0.76490000  0.12440000  1.0 -0.3924921535
O  O61  1  0.41570000  0.25620000  0.55500000  1.0 -0.4482170905
O  O62  1  0.42958000  0.23269000  0.49511000  1.0 -0.428860276
O  O63  1  0.59810000  0.10490000  0.56260000  1.0 -0.4178017805
O  O64  1  0.62340000  0.23510000  0.62440000  1.0 -0.3977685785
O  O65  1  0.25620000  0.55500000  0.41570000  1.0 -0.4482170905
O  O66  1  0.23269000  0.49511000  0.42958000  1.0 -0.428860276
O  O67  1  0.10490000  0.56260000  0.59810000  1.0 -0.4178017805
O  O68  1  0.23510000  0.62440000  0.62340000  1.0 -0.3977685785
O  O69  1  0.74380000  0.05500000  0.08430000  1.0 -0.4482170905
O  O70  1  0.76731000  0.99511000  0.07042000  1.0 -0.428860276
O  O71  1  0.89510000  0.06260000  0.90190000  1.0 -0.4178017805
O  O72  1  0.76490000  0.12440000  0.87660000  1.0 -0.3924921535
O  O73  1  0.24380000  0.44500000  0.91570000  1.0 -0.4482170905
O  O74  1  0.26731000  0.50489000  0.92958000  1.0 -0.428860276
O  O75  1  0.39510000  0.43740000  0.09810000  1.0 -0.4178017805
O  O76  1  0.26490000  0.37560000  0.12340000  1.0 -0.3977685785
O  O77  1  0.75620000  0.94500000  0.58430000  1.0 -0.4482170905
O  O78  1  0.73269000  0.00489000  0.57042000  1.0 -0.428860276
O  O79  1  0.60490000  0.93740000  0.40190000  1.0 -0.4178017805
O  O80  1  0.73510000  0.87560000  0.37660000  1.0 -0.3924921535
O  O81  1  0.05500000  0.08430000  0.74380000  1.0 -0.4482170905
O  O82  1  0.99511000  0.07042000  0.76731000  1.0 -0.428860276
O  O83  1  0.06260000  0.90190000  0.89510000  1.0 -0.4178017805
O  O84  1  0.12440000  0.87660000  0.76490000  1.0 -0.3924921535
O  O85  1  0.55500000  0.41570000  0.25620000  1.0 -0.4482170905
O  O86  1  0.49511000  0.42958000  0.23269000  1.0 -0.428860276
O  O87  1  0.56260000  0.59810000  0.10490000  1.0 -0.4178017805
O  O88  1  0.62440000  0.62340000  0.23510000  1.0 -0.3977685785
O  O89  1  0.94500000  0.58430000  0.75620000  1.0 -0.4482170905
O  O90  1  0.00489000  0.57042000  0.73269000  1.0 -0.428860276
O  O91  1  0.93740000  0.40190000  0.60490000  1.0 -0.4178017805
O  O92  1  0.87560000  0.37660000  0.73510000  1.0 -0.3924921535
O  O93  1  0.44500000  0.91570000  0.24380000  1.0 -0.4482170905
O  O94  1  0.50489000  0.92958000  0.26731000  1.0 -0.428860276
O  O95  1  0.43740000  0.09810000  0.39510000  1.0 -0.4178017805
O  O96  1  0.37560000  0.12340000  0.26490000  1.0 -0.3977685785
