# DDEC6 charges by PACMAN v1.1 (https://github.com/mtap-research/PACMAN-charge/)
data_FILYAC_ASR_pacman
_symmetry_space_group_name_H-M   'P 1'
_cell_length_a   10.93300000
_cell_length_b   21.68200000
_cell_length_c   28.76400000
_cell_angle_alpha   90.00000000
_cell_angle_beta   90.00000000
_cell_angle_gamma   90.00000000
_symmetry_Int_Tables_number   1
_chemical_formula_structural   Co3H14C23O11
_chemical_formula_sum   'Co24 H112 C184 O88'
_cell_volume   6818.48623778
_cell_formula_units_Z   8
loop_
 _symmetry_equiv_pos_site_id
 _symmetry_equiv_pos_as_xyz
  1  'x, y, z'
loop_
 _atom_site_type_symbol
 _atom_site_label
 _atom_site_symmetry_multiplicity
 _atom_site_fract_x
 _atom_site_fract_y
 _atom_site_fract_z
 _atom_site_occupancy
 _atom_site_charge
Co  Co1  1  0.57479000  0.03592000  0.95548000  1.0 1.0651984089
Co  Co2  1  0.57479000  0.96408000  0.54452000  1.0 1.0651984089
Co  Co3  1  0.92521000  0.46408000  0.95548000  1.0 1.0651984089
Co  Co4  1  0.92521000  0.53592000  0.54452000  1.0 1.0651984089
Co  Co5  1  0.42521000  0.96408000  0.04452000  1.0 1.0651984089
Co  Co6  1  0.42521000  0.03592000  0.45548000  1.0 1.0651984089
Co  Co7  1  0.07479000  0.53592000  0.04452000  1.0 1.0651984089
Co  Co8  1  0.07479000  0.46408000  0.45548000  1.0 1.0651984089
Co  Co9  1  0.43605000  0.91013000  0.90923000  1.0 0.9853935713
Co  Co10  1  0.43605000  0.08987000  0.59077000  1.0 0.9853935713
Co  Co11  1  0.06395000  0.58987000  0.90923000  1.0 0.9853935713
Co  Co12  1  0.06395000  0.41013000  0.59077000  1.0 0.9853935713
Co  Co13  1  0.56395000  0.08987000  0.09077000  1.0 0.9853935713
Co  Co14  1  0.56395000  0.91013000  0.40923000  1.0 0.9853935713
Co  Co15  1  0.93605000  0.41013000  0.09077000  1.0 0.9853935713
Co  Co16  1  0.93605000  0.58987000  0.40923000  1.0 0.9853935713
Co  Co17  1  0.71369000  0.95605000  0.86638000  1.0 1.05468409
Co  Co18  1  0.71369000  0.04395000  0.63362000  1.0 1.05468409
Co  Co19  1  0.78631000  0.54395000  0.86638000  1.0 1.05468409
Co  Co20  1  0.78631000  0.45605000  0.63362000  1.0 1.05468409
Co  Co21  1  0.28631000  0.04395000  0.13362000  1.0 1.05468409
Co  Co22  1  0.28631000  0.95605000  0.36638000  1.0 1.05468409
Co  Co23  1  0.21369000  0.45605000  0.13362000  1.0 1.05468409
Co  Co24  1  0.21369000  0.54395000  0.36638000  1.0 1.05468409
H  H1  1  0.38240000  0.20240000  0.72300000  1.0 0.071876938
H  H2  1  0.38240000  0.79760000  0.77700000  1.0 0.071876938
H  H3  1  0.11760000  0.29760000  0.72300000  1.0 0.071876938
H  H4  1  0.11760000  0.70240000  0.77700000  1.0 0.071876938
H  H5  1  0.61760000  0.79760000  0.27700000  1.0 0.071876938
H  H6  1  0.61760000  0.20240000  0.22300000  1.0 0.071876938
H  H7  1  0.88240000  0.70240000  0.27700000  1.0 0.071876938
H  H8  1  0.88240000  0.29760000  0.22300000  1.0 0.071876938
H  H9  1  0.25530000  0.18780000  0.79820000  1.0 0.0779439979
H  H10  1  0.25530000  0.81220000  0.70180000  1.0 0.0779439979
H  H11  1  0.24470000  0.31220000  0.79820000  1.0 0.0779439979
H  H12  1  0.24470000  0.68780000  0.70180000  1.0 0.0779439979
H  H13  1  0.74470000  0.81220000  0.20180000  1.0 0.0779439979
H  H14  1  0.74470000  0.18780000  0.29820000  1.0 0.0779439979
H  H15  1  0.75530000  0.68780000  0.20180000  1.0 0.0779439979
H  H16  1  0.75530000  0.31220000  0.29820000  1.0 0.0779439979
H  H17  1  0.47120000  0.18350000  0.84970000  1.0 0.0913041928
H  H18  1  0.47120000  0.81650000  0.65030000  1.0 0.0913041928
H  H19  1  0.02880000  0.31650000  0.84970000  1.0 0.0913041928
H  H20  1  0.02880000  0.68350000  0.65030000  1.0 0.0913041928
H  H21  1  0.52880000  0.81650000  0.15030000  1.0 0.0913041928
H  H22  1  0.52880000  0.18350000  0.34970000  1.0 0.0913041928
H  H23  1  0.97120000  0.68350000  0.15030000  1.0 0.0913041928
H  H24  1  0.97120000  0.31650000  0.34970000  1.0 0.0913041928
H  H25  1  0.58620000  0.06820000  0.76610000  1.0 0.1298567833
H  H26  1  0.58620000  0.93180000  0.73390000  1.0 0.1298567833
H  H27  1  0.91380000  0.43180000  0.76610000  1.0 0.1298567833
H  H28  1  0.91380000  0.56820000  0.73390000  1.0 0.1298567833
H  H29  1  0.41380000  0.93180000  0.23390000  1.0 0.1298567833
H  H30  1  0.41380000  0.06820000  0.26610000  1.0 0.1298567833
H  H31  1  0.08620000  0.56820000  0.23390000  1.0 0.1298567833
H  H32  1  0.08620000  0.43180000  0.26610000  1.0 0.1298567833
H  H33  1  0.75000000  0.25000000  0.04090000  1.0 0.1298567833
H  H34  1  0.75000000  0.75000000  0.45910000  1.0 0.1298567833
H  H35  1  0.25000000  0.75000000  0.95910000  1.0 0.1298567833
H  H36  1  0.25000000  0.25000000  0.54090000  1.0 0.1298567833
H  H37  1  0.63980000  0.17760000  0.92070000  1.0 0.1185909639
H  H38  1  0.63980000  0.82240000  0.57930000  1.0 0.1185909639
H  H39  1  0.86020000  0.32240000  0.92070000  1.0 0.1185909639
H  H40  1  0.86020000  0.67760000  0.57930000  1.0 0.1185909639
H  H41  1  0.36020000  0.82240000  0.07930000  1.0 0.1185909639
H  H42  1  0.36020000  0.17760000  0.42070000  1.0 0.1185909639
H  H43  1  0.13980000  0.67760000  0.07930000  1.0 0.1185909639
H  H44  1  0.13980000  0.32240000  0.42070000  1.0 0.1185909639
H  H45  1  0.75000000  0.25000000  0.88050000  1.0 0.1082416499
H  H46  1  0.75000000  0.75000000  0.61950000  1.0 0.1082416499
H  H47  1  0.25000000  0.75000000  0.11950000  1.0 0.1082416499
H  H48  1  0.25000000  0.25000000  0.38050000  1.0 0.1082416499
H  H49  1  0.06940000  0.99040000  0.92490000  1.0 0.1298567833
H  H50  1  0.06940000  0.00960000  0.57510000  1.0 0.1298567833
H  H51  1  0.43060000  0.50960000  0.92490000  1.0 0.1298567833
H  H52  1  0.43060000  0.49040000  0.57510000  1.0 0.1298567833
H  H53  1  0.93060000  0.00960000  0.07510000  1.0 0.1298567833
H  H54  1  0.93060000  0.99040000  0.42490000  1.0 0.1298567833
H  H55  1  0.56940000  0.49040000  0.07510000  1.0 0.1298567833
H  H56  1  0.56940000  0.50960000  0.42490000  1.0 0.1298567833
H  H57  1  0.27160000  0.11240000  0.99610000  1.0 0.1185909639
H  H58  1  0.27160000  0.88760000  0.50390000  1.0 0.1185909639
H  H59  1  0.22840000  0.38760000  0.99610000  1.0 0.1185909639
H  H60  1  0.22840000  0.61240000  0.50390000  1.0 0.1185909639
H  H61  1  0.72840000  0.88760000  0.00390000  1.0 0.1185909639
H  H62  1  0.72840000  0.11240000  0.49610000  1.0 0.1185909639
H  H63  1  0.77160000  0.61240000  0.00390000  1.0 0.1185909639
H  H64  1  0.77160000  0.38760000  0.49610000  1.0 0.1185909639
H  H65  1  0.09250000  0.16580000  0.01480000  1.0 0.1082416499
H  H66  1  0.09250000  0.83420000  0.48520000  1.0 0.1082416499
H  H67  1  0.40750000  0.33420000  0.01480000  1.0 0.1082416499
H  H68  1  0.40750000  0.66580000  0.48520000  1.0 0.1082416499
H  H69  1  0.90750000  0.83420000  0.98520000  1.0 0.1082416499
H  H70  1  0.90750000  0.16580000  0.51480000  1.0 0.1082416499
H  H71  1  0.59250000  0.66580000  0.98520000  1.0 0.1082416499
H  H72  1  0.59250000  0.33420000  0.51480000  1.0 0.1082416499
H  H73  1  0.90780000  0.13090000  0.98860000  1.0 0.1185909639
H  H74  1  0.90780000  0.86910000  0.51140000  1.0 0.1185909639
H  H75  1  0.59220000  0.36910000  0.98860000  1.0 0.1185909639
H  H76  1  0.59220000  0.63090000  0.51140000  1.0 0.1185909639
H  H77  1  0.09220000  0.86910000  0.01140000  1.0 0.1185909639
H  H78  1  0.09220000  0.13090000  0.48860000  1.0 0.1185909639
H  H79  1  0.40780000  0.63090000  0.01140000  1.0 0.1185909639
H  H80  1  0.40780000  0.36910000  0.48860000  1.0 0.1185909639
H  H81  1  0.62100000  0.92300000  0.94200000  1.0 0.3667072827
H  H82  1  0.62100000  0.07700000  0.55800000  1.0 0.3667072827
H  H83  1  0.87900000  0.57700000  0.94200000  1.0 0.3667072827
H  H84  1  0.87900000  0.42300000  0.55800000  1.0 0.3667072827
H  H85  1  0.37900000  0.07700000  0.05800000  1.0 0.3667072827
H  H86  1  0.37900000  0.92300000  0.44200000  1.0 0.3667072827
H  H87  1  0.12100000  0.42300000  0.05800000  1.0 0.3667072827
H  H88  1  0.12100000  0.57700000  0.44200000  1.0 0.3667072827
H  H89  1  0.29120000  0.16310000  0.72080000  1.0 0.071876938
H  H90  1  0.29120000  0.83690000  0.77920000  1.0 0.071876938
H  H91  1  0.20880000  0.33690000  0.72080000  1.0 0.071876938
H  H92  1  0.20880000  0.66310000  0.77920000  1.0 0.071876938
H  H93  1  0.70880000  0.83690000  0.27920000  1.0 0.071876938
H  H94  1  0.70880000  0.16310000  0.22080000  1.0 0.071876938
H  H95  1  0.79120000  0.66310000  0.27920000  1.0 0.071876938
H  H96  1  0.79120000  0.33690000  0.22080000  1.0 0.071876938
H  H97  1  0.20770000  0.15290000  0.79640000  1.0 0.0779439979
H  H98  1  0.20770000  0.84710000  0.70360000  1.0 0.0779439979
H  H99  1  0.29230000  0.34710000  0.79640000  1.0 0.0779439979
H  H100  1  0.29230000  0.65290000  0.70360000  1.0 0.0779439979
H  H101  1  0.79230000  0.84710000  0.20360000  1.0 0.0779439979
H  H102  1  0.79230000  0.15290000  0.29640000  1.0 0.0779439979
H  H103  1  0.70770000  0.65290000  0.20360000  1.0 0.0779439979
H  H104  1  0.70770000  0.34710000  0.29640000  1.0 0.0779439979
H  H105  1  0.35300000  0.14460000  0.85710000  1.0 0.0913041928
H  H106  1  0.35300000  0.85540000  0.64290000  1.0 0.0913041928
H  H107  1  0.14700000  0.35540000  0.85710000  1.0 0.0913041928
H  H108  1  0.14700000  0.64460000  0.64290000  1.0 0.0913041928
H  H109  1  0.64700000  0.85540000  0.14290000  1.0 0.0913041928
H  H110  1  0.64700000  0.14460000  0.35710000  1.0 0.0913041928
H  H111  1  0.85300000  0.64460000  0.14290000  1.0 0.0913041928
H  H112  1  0.85300000  0.35540000  0.35710000  1.0 0.0913041928
C  C1  1  0.39100000  0.17130000  0.74510000  1.0 -0.0696250949
C  C2  1  0.39100000  0.82870000  0.75490000  1.0 -0.0696250949
C  C3  1  0.10900000  0.32870000  0.74510000  1.0 -0.0696250949
C  C4  1  0.10900000  0.67130000  0.75490000  1.0 -0.0696250949
C  C5  1  0.60900000  0.82870000  0.25490000  1.0 -0.0696250949
C  C6  1  0.60900000  0.17130000  0.24510000  1.0 -0.0696250949
C  C7  1  0.89100000  0.67130000  0.25490000  1.0 -0.0696250949
C  C8  1  0.89100000  0.32870000  0.24510000  1.0 -0.0696250949
C  C9  1  0.33500000  0.17640000  0.79100000  1.0 -0.0275243248
C  C10  1  0.33500000  0.82360000  0.70900000  1.0 -0.0275243248
C  C11  1  0.16500000  0.32360000  0.79100000  1.0 -0.0275243248
C  C12  1  0.16500000  0.67640000  0.70900000  1.0 -0.0275243248
C  C13  1  0.66500000  0.82360000  0.20900000  1.0 -0.0275243248
C  C14  1  0.66500000  0.17640000  0.29100000  1.0 -0.0275243248
C  C15  1  0.83500000  0.67640000  0.20900000  1.0 -0.0275243248
C  C16  1  0.83500000  0.32360000  0.29100000  1.0 -0.0275243248
C  C17  1  0.44200000  0.15800000  0.82620000  1.0 -0.1010951974
C  C18  1  0.44200000  0.84200000  0.67380000  1.0 -0.1010951974
C  C19  1  0.05800000  0.34200000  0.82620000  1.0 -0.1010951974
C  C20  1  0.05800000  0.65800000  0.67380000  1.0 -0.1010951974
C  C21  1  0.55800000  0.84200000  0.17380000  1.0 -0.1010951974
C  C22  1  0.55800000  0.15800000  0.32620000  1.0 -0.1010951974
C  C23  1  0.94200000  0.65800000  0.17380000  1.0 -0.1010951974
C  C24  1  0.94200000  0.34200000  0.32620000  1.0 -0.1010951974
C  C25  1  0.54810000  0.06900000  0.85670000  1.0 0.5898576998
C  C26  1  0.54810000  0.93100000  0.64330000  1.0 0.5898576998
C  C27  1  0.95190000  0.43100000  0.85670000  1.0 0.5898576998
C  C28  1  0.95190000  0.56900000  0.64330000  1.0 0.5898576998
C  C29  1  0.45190000  0.93100000  0.14330000  1.0 0.5898576998
C  C30  1  0.45190000  0.06900000  0.35670000  1.0 0.5898576998
C  C31  1  0.04810000  0.56900000  0.14330000  1.0 0.5898576998
C  C32  1  0.04810000  0.43100000  0.35670000  1.0 0.5898576998
C  C33  1  0.48360000  0.10140000  0.81790000  1.0 -0.0107992538
C  C34  1  0.48360000  0.89860000  0.68210000  1.0 -0.0107992538
C  C35  1  0.01640000  0.39860000  0.81790000  1.0 -0.0107992538
C  C36  1  0.01640000  0.60140000  0.68210000  1.0 -0.0107992538
C  C37  1  0.51640000  0.89860000  0.18210000  1.0 -0.0107992538
C  C38  1  0.51640000  0.10140000  0.31790000  1.0 -0.0107992538
C  C39  1  0.98360000  0.60140000  0.18210000  1.0 -0.0107992538
C  C40  1  0.98360000  0.39860000  0.31790000  1.0 -0.0107992538
C  C41  1  0.51850000  0.09280000  0.77230000  1.0 -0.1921054194
C  C42  1  0.51850000  0.90720000  0.72770000  1.0 -0.1921054194
C  C43  1  0.98150000  0.40720000  0.77230000  1.0 -0.1921054194
C  C44  1  0.98150000  0.59280000  0.72770000  1.0 -0.1921054194
C  C45  1  0.48150000  0.90720000  0.22770000  1.0 -0.1921054194
C  C46  1  0.48150000  0.09280000  0.27230000  1.0 -0.1921054194
C  C47  1  0.01850000  0.59280000  0.22770000  1.0 -0.1921054194
C  C48  1  0.01850000  0.40720000  0.27230000  1.0 -0.1921054194
C  C49  1  0.45730000  0.11910000  0.73570000  1.0 -0.0194388826
C  C50  1  0.45730000  0.88090000  0.76430000  1.0 -0.0194388826
C  C51  1  0.04270000  0.38090000  0.73570000  1.0 -0.0194388826
C  C52  1  0.04270000  0.61910000  0.76430000  1.0 -0.0194388826
C  C53  1  0.54270000  0.88090000  0.26430000  1.0 -0.0194388826
C  C54  1  0.54270000  0.11910000  0.23570000  1.0 -0.0194388826
C  C55  1  0.95730000  0.61910000  0.26430000  1.0 -0.0194388826
C  C56  1  0.95730000  0.38090000  0.23570000  1.0 -0.0194388826
C  C57  1  0.61300000  0.15820000  0.01250000  1.0 0.5840868303
C  C58  1  0.61300000  0.84180000  0.48750000  1.0 0.5840868303
C  C59  1  0.88700000  0.34180000  0.01250000  1.0 0.5840868303
C  C60  1  0.88700000  0.65820000  0.48750000  1.0 0.5840868303
C  C61  1  0.38700000  0.84180000  0.98750000  1.0 0.5840868303
C  C62  1  0.38700000  0.15820000  0.51250000  1.0 0.5840868303
C  C63  1  0.11300000  0.65820000  0.98750000  1.0 0.5840868303
C  C64  1  0.11300000  0.34180000  0.51250000  1.0 0.5840868303
C  C65  1  0.68340000  0.20650000  0.98550000  1.0 -0.0194388826
C  C66  1  0.68340000  0.79350000  0.51450000  1.0 -0.0194388826
C  C67  1  0.81660000  0.29350000  0.98550000  1.0 -0.0194388826
C  C68  1  0.81660000  0.70650000  0.51450000  1.0 -0.0194388826
C  C69  1  0.31660000  0.79350000  0.01450000  1.0 -0.0194388826
C  C70  1  0.31660000  0.20650000  0.48550000  1.0 -0.0194388826
C  C71  1  0.18340000  0.70650000  0.01450000  1.0 -0.0194388826
C  C72  1  0.18340000  0.29350000  0.48550000  1.0 -0.0194388826
C  C73  1  0.75000000  0.25000000  0.00860000  1.0 -0.1189023586
C  C74  1  0.75000000  0.75000000  0.49140000  1.0 -0.1189023586
C  C75  1  0.25000000  0.75000000  0.99140000  1.0 -0.1189023586
C  C76  1  0.25000000  0.25000000  0.50860000  1.0 -0.1189023586
C  C77  1  0.68460000  0.20710000  0.93690000  1.0 -0.1010951974
C  C78  1  0.68460000  0.79290000  0.56310000  1.0 -0.1010951974
C  C79  1  0.81540000  0.29290000  0.93690000  1.0 -0.1010951974
C  C80  1  0.81540000  0.70710000  0.56310000  1.0 -0.1010951974
C  C81  1  0.31540000  0.79290000  0.06310000  1.0 -0.1010951974
C  C82  1  0.31540000  0.20710000  0.43690000  1.0 -0.1010951974
C  C83  1  0.18460000  0.70710000  0.06310000  1.0 -0.1010951974
C  C84  1  0.18460000  0.29290000  0.43690000  1.0 -0.1010951974
C  C85  1  0.75000000  0.25000000  0.91280000  1.0 -0.1010951974
C  C86  1  0.75000000  0.75000000  0.58720000  1.0 -0.1010951974
C  C87  1  0.25000000  0.75000000  0.08720000  1.0 -0.1010951974
C  C88  1  0.25000000  0.25000000  0.41280000  1.0 -0.1010951974
C  C89  1  0.84580000  0.03450000  0.93680000  1.0 0.5898576998
C  C90  1  0.84580000  0.96550000  0.56320000  1.0 0.5898576998
C  C91  1  0.65420000  0.46550000  0.93680000  1.0 0.5898576998
C  C92  1  0.65420000  0.53450000  0.56320000  1.0 0.5898576998
C  C93  1  0.15420000  0.96550000  0.06320000  1.0 0.5898576998
C  C94  1  0.15420000  0.03450000  0.43680000  1.0 0.5898576998
C  C95  1  0.34580000  0.53450000  0.06320000  1.0 0.5898576998
C  C96  1  0.34580000  0.46550000  0.43680000  1.0 0.5898576998
C  C97  1  0.97060000  0.05830000  0.95370000  1.0 -0.0194388826
C  C98  1  0.97060000  0.94170000  0.54630000  1.0 -0.0194388826
C  C99  1  0.52940000  0.44170000  0.95370000  1.0 -0.0194388826
C  C100  1  0.52940000  0.55830000  0.54630000  1.0 -0.0194388826
C  C101  1  0.02940000  0.94170000  0.04630000  1.0 -0.0194388826
C  C102  1  0.02940000  0.05830000  0.45370000  1.0 -0.0194388826
C  C103  1  0.47060000  0.55830000  0.04630000  1.0 -0.0194388826
C  C104  1  0.47060000  0.44170000  0.45370000  1.0 -0.0194388826
C  C105  1  0.07510000  0.02560000  0.94320000  1.0 -0.1107989712
C  C106  1  0.07510000  0.97440000  0.55680000  1.0 -0.1107989712
C  C107  1  0.42490000  0.47440000  0.94320000  1.0 -0.1107989712
C  C108  1  0.42490000  0.52560000  0.55680000  1.0 -0.1107989712
C  C109  1  0.92490000  0.97440000  0.05680000  1.0 -0.1107989712
C  C110  1  0.92490000  0.02560000  0.44320000  1.0 -0.1107989712
C  C111  1  0.57510000  0.52560000  0.05680000  1.0 -0.1107989712
C  C112  1  0.57510000  0.47440000  0.44320000  1.0 -0.1107989712
C  C113  1  0.19000000  0.04440000  0.95960000  1.0 -0.0194388826
C  C114  1  0.19000000  0.95560000  0.54040000  1.0 -0.0194388826
C  C115  1  0.31000000  0.45560000  0.95960000  1.0 -0.0194388826
C  C116  1  0.31000000  0.54440000  0.54040000  1.0 -0.0194388826
C  C117  1  0.81000000  0.95560000  0.04040000  1.0 -0.0194388826
C  C118  1  0.81000000  0.04440000  0.45960000  1.0 -0.0194388826
C  C119  1  0.69000000  0.54440000  0.04040000  1.0 -0.0194388826
C  C120  1  0.69000000  0.45560000  0.45960000  1.0 -0.0194388826
C  C121  1  0.30160000  0.00580000  0.95050000  1.0 0.5898576998
C  C122  1  0.30160000  0.99420000  0.54950000  1.0 0.5898576998
C  C123  1  0.19840000  0.49420000  0.95050000  1.0 0.5898576998
C  C124  1  0.19840000  0.50580000  0.54950000  1.0 0.5898576998
C  C125  1  0.69840000  0.99420000  0.04950000  1.0 0.5898576998
C  C126  1  0.69840000  0.00580000  0.45050000  1.0 0.5898576998
C  C127  1  0.80160000  0.50580000  0.04950000  1.0 0.5898576998
C  C128  1  0.80160000  0.49420000  0.45050000  1.0 0.5898576998
C  C129  1  0.19630000  0.09790000  0.98580000  1.0 -0.1107989712
C  C130  1  0.19630000  0.90210000  0.51420000  1.0 -0.1107989712
C  C131  1  0.30370000  0.40210000  0.98580000  1.0 -0.1107989712
C  C132  1  0.30370000  0.59790000  0.51420000  1.0 -0.1107989712
C  C133  1  0.80370000  0.90210000  0.01420000  1.0 -0.1107989712
C  C134  1  0.80370000  0.09790000  0.48580000  1.0 -0.1107989712
C  C135  1  0.69630000  0.59790000  0.01420000  1.0 -0.1107989712
C  C136  1  0.69630000  0.40210000  0.48580000  1.0 -0.1107989712
C  C137  1  0.08860000  0.13030000  0.99670000  1.0 -0.1010951974
C  C138  1  0.08860000  0.86970000  0.50330000  1.0 -0.1010951974
C  C139  1  0.41140000  0.36970000  0.99670000  1.0 -0.1010951974
C  C140  1  0.41140000  0.63030000  0.50330000  1.0 -0.1010951974
C  C141  1  0.91140000  0.86970000  0.00330000  1.0 -0.1010951974
C  C142  1  0.91140000  0.13030000  0.49670000  1.0 -0.1010951974
C  C143  1  0.58860000  0.63030000  0.00330000  1.0 -0.1010951974
C  C144  1  0.58860000  0.36970000  0.49670000  1.0 -0.1010951974
C  C145  1  0.97870000  0.10960000  0.98080000  1.0 -0.1010951974
C  C146  1  0.97870000  0.89040000  0.51920000  1.0 -0.1010951974
C  C147  1  0.52130000  0.39040000  0.98080000  1.0 -0.1010951974
C  C148  1  0.52130000  0.60960000  0.51920000  1.0 -0.1010951974
C  C149  1  0.02130000  0.89040000  0.01920000  1.0 -0.1010951974
C  C150  1  0.02130000  0.10960000  0.48080000  1.0 -0.1010951974
C  C151  1  0.47870000  0.60960000  0.01920000  1.0 -0.1010951974
C  C152  1  0.47870000  0.39040000  0.48080000  1.0 -0.1010951974
C  C153  1  0.49340000  0.10670000  0.68700000  1.0 0.5676857108
C  C154  1  0.49340000  0.89330000  0.81300000  1.0 0.5676857108
C  C155  1  0.00660000  0.39330000  0.68700000  1.0 0.5676857108
C  C156  1  0.00660000  0.60670000  0.81300000  1.0 0.5676857108
C  C157  1  0.50660000  0.89330000  0.31300000  1.0 0.5676857108
C  C158  1  0.50660000  0.10670000  0.18700000  1.0 0.5676857108
C  C159  1  0.99340000  0.60670000  0.31300000  1.0 0.5676857108
C  C160  1  0.99340000  0.39330000  0.18700000  1.0 0.5676857108
C  C161  1  0.33660000  0.14590000  0.74480000  1.0 -0.0107992538
C  C162  1  0.33660000  0.85410000  0.75520000  1.0 -0.0107992538
C  C163  1  0.16340000  0.35410000  0.74480000  1.0 -0.0107992538
C  C164  1  0.16340000  0.64590000  0.75520000  1.0 -0.0107992538
C  C165  1  0.66340000  0.85410000  0.25520000  1.0 -0.0046501173
C  C166  1  0.66340000  0.14590000  0.24480000  1.0 -0.0107992538
C  C167  1  0.83660000  0.64590000  0.25520000  1.0 -0.0046501173
C  C168  1  0.83660000  0.35410000  0.24480000  1.0 -0.0107992538
C  C169  1  0.29000000  0.14520000  0.79050000  1.0 -0.1010951974
C  C170  1  0.29000000  0.85480000  0.70950000  1.0 -0.1010951974
C  C171  1  0.21000000  0.35480000  0.79050000  1.0 -0.1010951974
C  C172  1  0.21000000  0.64520000  0.70950000  1.0 -0.1010951974
C  C173  1  0.71000000  0.85480000  0.20950000  1.0 -0.1010951974
C  C174  1  0.71000000  0.14520000  0.29050000  1.0 -0.1010951974
C  C175  1  0.79000000  0.64520000  0.20950000  1.0 -0.1010951974
C  C176  1  0.79000000  0.35480000  0.29050000  1.0 -0.1010951974
C  C177  1  0.37200000  0.13250000  0.82690000  1.0 -0.0107992538
C  C178  1  0.37200000  0.86750000  0.67310000  1.0 -0.0107992538
C  C179  1  0.12800000  0.36750000  0.82690000  1.0 -0.0107992538
C  C180  1  0.12800000  0.63250000  0.67310000  1.0 -0.0107992538
C  C181  1  0.62800000  0.86750000  0.17310000  1.0 -0.0107992538
C  C182  1  0.62800000  0.13250000  0.32690000  1.0 -0.0107992538
C  C183  1  0.87200000  0.63250000  0.17310000  1.0 -0.0107992538
C  C184  1  0.87200000  0.36750000  0.32690000  1.0 -0.0107992538
O  O1  1  0.59410000  0.94900000  0.92330000  1.0 -0.9099634341
O  O2  1  0.59410000  0.05100000  0.57670000  1.0 -0.9099634341
O  O3  1  0.90590000  0.55100000  0.92330000  1.0 -0.9099634341
O  O4  1  0.90590000  0.44900000  0.57670000  1.0 -0.9099634341
O  O5  1  0.40590000  0.05100000  0.07670000  1.0 -0.9099634341
O  O6  1  0.40590000  0.94900000  0.42330000  1.0 -0.9099634341
O  O7  1  0.09410000  0.44900000  0.07670000  1.0 -0.9099634341
O  O8  1  0.09410000  0.55100000  0.42330000  1.0 -0.9099634341
O  O9  1  0.59630000  0.08740000  0.68041000  1.0 -0.5567831373
O  O10  1  0.59630000  0.91260000  0.81959000  1.0 -0.5567831373
O  O11  1  0.90370000  0.41260000  0.68041000  1.0 -0.5567831373
O  O12  1  0.90370000  0.58740000  0.81959000  1.0 -0.5567831373
O  O13  1  0.40370000  0.91260000  0.31959000  1.0 -0.5567831373
O  O14  1  0.40370000  0.08740000  0.18041000  1.0 -0.5567831373
O  O15  1  0.09630000  0.58740000  0.31959000  1.0 -0.5567831373
O  O16  1  0.09630000  0.41260000  0.18041000  1.0 -0.5567831373
O  O17  1  0.41620000  0.11500000  0.65537000  1.0 -0.5114563382
O  O18  1  0.41620000  0.88500000  0.84463000  1.0 -0.5114563382
O  O19  1  0.08380000  0.38500000  0.65537000  1.0 -0.5114563382
O  O20  1  0.08380000  0.61500000  0.84463000  1.0 -0.5114563382
O  O21  1  0.58380000  0.88500000  0.34463000  1.0 -0.5114563382
O  O22  1  0.58380000  0.11500000  0.15537000  1.0 -0.5114563382
O  O23  1  0.91620000  0.61500000  0.34463000  1.0 -0.5114563382
O  O24  1  0.91620000  0.38500000  0.15537000  1.0 -0.5114563382
O  O25  1  0.84900000  0.99350000  0.90593000  1.0 -0.5954967266
O  O26  1  0.84900000  0.00650000  0.59407000  1.0 -0.5954967266
O  O27  1  0.65100000  0.50650000  0.90593000  1.0 -0.5954967266
O  O28  1  0.65100000  0.49350000  0.59407000  1.0 -0.5954967266
O  O29  1  0.15100000  0.00650000  0.09407000  1.0 -0.5954967266
O  O30  1  0.15100000  0.99350000  0.40593000  1.0 -0.5954967266
O  O31  1  0.34900000  0.49350000  0.09407000  1.0 -0.5954967266
O  O32  1  0.34900000  0.50650000  0.40593000  1.0 -0.5954967266
O  O33  1  0.75540000  0.05800000  0.95546000  1.0 -0.5526663687
O  O34  1  0.75540000  0.94200000  0.54454000  1.0 -0.5526663687
O  O35  1  0.74460000  0.44200000  0.95546000  1.0 -0.5526663687
O  O36  1  0.74460000  0.55800000  0.54454000  1.0 -0.5526663687
O  O37  1  0.24460000  0.94200000  0.04454000  1.0 -0.5526663687
O  O38  1  0.24460000  0.05800000  0.45546000  1.0 -0.5526663687
O  O39  1  0.25540000  0.55800000  0.04454000  1.0 -0.5526663687
O  O40  1  0.25540000  0.44200000  0.45546000  1.0 -0.5526663687
O  O41  1  0.54930000  0.11790000  0.99244000  1.0 -0.5739278322
O  O42  1  0.54930000  0.88210000  0.50756000  1.0 -0.5739278322
O  O43  1  0.95070000  0.38210000  0.99244000  1.0 -0.5739278322
O  O44  1  0.95070000  0.61790000  0.50756000  1.0 -0.5739278322
O  O45  1  0.45070000  0.88210000  0.00756000  1.0 -0.5739278322
O  O46  1  0.45070000  0.11790000  0.49244000  1.0 -0.5739278322
O  O47  1  0.04930000  0.61790000  0.00756000  1.0 -0.5739278322
O  O48  1  0.04930000  0.38210000  0.49244000  1.0 -0.5739278322
O  O49  1  0.62170000  0.16190000  0.05661000  1.0 -0.5526663687
O  O50  1  0.62170000  0.83810000  0.44339000  1.0 -0.5526663687
O  O51  1  0.87830000  0.33810000  0.05661000  1.0 -0.5526663687
O  O52  1  0.87830000  0.66190000  0.44339000  1.0 -0.5526663687
O  O53  1  0.37830000  0.83810000  0.94339000  1.0 -0.5526663687
O  O54  1  0.37830000  0.16190000  0.55661000  1.0 -0.5526663687
O  O55  1  0.12170000  0.66190000  0.94339000  1.0 -0.5526663687
O  O56  1  0.12170000  0.33810000  0.55661000  1.0 -0.5526663687
O  O57  1  0.39310000  0.01477000  0.97699000  1.0 -0.6252980357
O  O58  1  0.39310000  0.98523000  0.52301000  1.0 -0.6252980357
O  O59  1  0.10690000  0.48523000  0.97699000  1.0 -0.6252980357
O  O60  1  0.10690000  0.51477000  0.52301000  1.0 -0.6252980357
O  O61  1  0.60690000  0.98523000  0.02301000  1.0 -0.6252980357
O  O62  1  0.60690000  0.01477000  0.47699000  1.0 -0.6252980357
O  O63  1  0.89310000  0.51477000  0.02301000  1.0 -0.6252980357
O  O64  1  0.89310000  0.48523000  0.47699000  1.0 -0.6252980357
O  O65  1  0.50610000  0.07480000  0.89706000  1.0 -0.5410320735
O  O66  1  0.50610000  0.92520000  0.60294000  1.0 -0.5410320735
O  O67  1  0.99390000  0.42520000  0.89706000  1.0 -0.5410320735
O  O68  1  0.99390000  0.57480000  0.60294000  1.0 -0.5410320735
O  O69  1  0.49390000  0.92520000  0.10294000  1.0 -0.5410320735
O  O70  1  0.49390000  0.07480000  0.39706000  1.0 -0.5410320735
O  O71  1  0.00610000  0.57480000  0.10294000  1.0 -0.5410320735
O  O72  1  0.00610000  0.42520000  0.39706000  1.0 -0.5410320735
O  O73  1  0.63940000  0.03820000  0.84531000  1.0 -0.5526663687
O  O74  1  0.63940000  0.96180000  0.65469000  1.0 -0.5526663687
O  O75  1  0.86060000  0.46180000  0.84531000  1.0 -0.5526663687
O  O76  1  0.86060000  0.53820000  0.65469000  1.0 -0.5526663687
O  O77  1  0.36060000  0.96180000  0.15469000  1.0 -0.5526663687
O  O78  1  0.36060000  0.03820000  0.34531000  1.0 -0.5526663687
O  O79  1  0.13940000  0.53820000  0.15469000  1.0 -0.5526663687
O  O80  1  0.13940000  0.46180000  0.34531000  1.0 -0.5526663687
O  O81  1  0.29910000  0.96960000  0.91744000  1.0 -0.5114563382
O  O82  1  0.29910000  0.03040000  0.58256000  1.0 -0.5114563382
O  O83  1  0.20090000  0.53040000  0.91744000  1.0 -0.5114563382
O  O84  1  0.20090000  0.46960000  0.58256000  1.0 -0.5114563382
O  O85  1  0.70090000  0.03040000  0.08256000  1.0 -0.5114563382
O  O86  1  0.70090000  0.96960000  0.41744000  1.0 -0.5114563382
O  O87  1  0.79910000  0.46960000  0.08256000  1.0 -0.5114563382
O  O88  1  0.79910000  0.53040000  0.41744000  1.0 -0.5114563382
