# DDEC6 charges by PACMAN v1.1 (https://github.com/mtap-research/PACMAN-charge/)
data_FIQYEN_ASR_pacman
_symmetry_space_group_name_H-M   'P 1'
_cell_length_a   13.76000000
_cell_length_b   13.76000000
_cell_length_c   7.45620000
_cell_angle_alpha   74.42990000
_cell_angle_beta   105.57000000
_cell_angle_gamma   72.26080000
_symmetry_Int_Tables_number   1
_chemical_formula_structural   CuP2H5(C4O3)2
_chemical_formula_sum   'Cu4 P8 H20 C32 O24'
_cell_volume   1197.20888270
_cell_formula_units_Z   4
loop_
 _symmetry_equiv_pos_site_id
 _symmetry_equiv_pos_as_xyz
  1  'x, y, z'
loop_
 _atom_site_type_symbol
 _atom_site_label
 _atom_site_symmetry_multiplicity
 _atom_site_fract_x
 _atom_site_fract_y
 _atom_site_fract_z
 _atom_site_occupancy
 _atom_site_charge
Cu  Cu1  1  0.50000000  0.00000000  0.50000000  1.0 1.0597552084
Cu  Cu2  1  0.00000000  0.50000000  0.00000000  1.0 1.0597552084
Cu  Cu3  1  0.50000000  0.00000000  0.00000000  1.0 0.9539287113
Cu  Cu4  1  0.00000000  0.50000000  0.50000000  1.0 0.9539287113
P  P1  1  0.29688000  0.10680000  0.60609000  1.0 1.2577258967
P  P2  1  0.10680000  0.29688000  0.89391000  1.0 1.2577258967
P  P3  1  0.70312000  0.89320000  0.39391000  1.0 1.2577258967
P  P4  1  0.89320000  0.70312000  0.10609000  1.0 1.2577258967
P  P5  1  0.86669000  0.38757000  0.20383000  1.0 1.2499799154
P  P6  1  0.38757000  0.86669000  0.29617000  1.0 1.2499799154
P  P7  1  0.13331000  0.61243000  0.79617000  1.0 1.2499799154
P  P8  1  0.61243000  0.13331000  0.70383000  1.0 1.2499799154
H  H1  1  0.30570000  0.24906000  0.46777000  1.0 0.3932044528
H  H2  1  0.24906000  0.30570000  0.03223000  1.0 0.3932044528
H  H3  1  0.69430000  0.75094000  0.53223000  1.0 0.3932044528
H  H4  1  0.75094000  0.69430000  0.96777000  1.0 0.3932044528
H  H5  1  0.09340000  0.28540000  0.38994000  1.0 0.1258147493
H  H6  1  0.28540000  0.09340000  0.11006000  1.0 0.1258147493
H  H7  1  0.90660000  0.71460000  0.61006000  1.0 0.1258147493
H  H8  1  0.71460000  0.90660000  0.88994000  1.0 0.1258147493
H  H9  1  0.28394000  0.90456000  0.72389000  1.0 0.1428073294
H  H10  1  0.90456000  0.28394000  0.77611000  1.0 0.1428073294
H  H11  1  0.71606000  0.09544000  0.27611000  1.0 0.1428073294
H  H12  1  0.09544000  0.71606000  0.22389000  1.0 0.1428073294
H  H13  1  0.73460000  0.42000000  0.96774000  1.0 0.3790258191
H  H14  1  0.42000000  0.73460000  0.53226000  1.0 0.3790258191
H  H15  1  0.26540000  0.58000000  0.03226000  1.0 0.3790258191
H  H16  1  0.58000000  0.26540000  0.46774000  1.0 0.3790258191
H  H17  1  0.76508000  0.23980000  0.22353000  1.0 0.1192863829
H  H18  1  0.23980000  0.76508000  0.27647000  1.0 0.1192863829
H  H19  1  0.23492000  0.76020000  0.77647000  1.0 0.1192863829
H  H20  1  0.76020000  0.23492000  0.72353000  1.0 0.1192863829
C  C1  1  0.15666000  0.12046000  0.52170000  1.0 -0.2267014846
C  C2  1  0.12046000  0.15666000  0.97830000  1.0 -0.2267014846
C  C3  1  0.84334000  0.87954000  0.47830000  1.0 -0.2267014846
C  C4  1  0.87954000  0.84334000  0.02170000  1.0 -0.2267014846
C  C5  1  0.07389000  0.22549000  0.41230000  1.0 -0.0386687309
C  C6  1  0.22549000  0.07389000  0.08770000  1.0 -0.0386687309
C  C7  1  0.92611000  0.77451000  0.58770000  1.0 -0.0386687309
C  C8  1  0.77451000  0.92611000  0.91230000  1.0 -0.0386687309
C  C9  1  0.01482000  0.04622000  0.48190000  1.0 -0.0144509818
C  C10  1  0.04622000  0.01482000  0.01810000  1.0 -0.0144509818
C  C11  1  0.98518000  0.95378000  0.51810000  1.0 -0.0158762351
C  C12  1  0.95378000  0.98518000  0.98190000  1.0 -0.0144509818
C  C13  1  0.12864000  0.02804000  0.56020000  1.0 0.1075458158
C  C14  1  0.02804000  0.12864000  0.93980000  1.0 0.1075458158
C  C15  1  0.87136000  0.97196000  0.43980000  1.0 0.1075458158
C  C16  1  0.97196000  0.87136000  0.06020000  1.0 0.1075458158
C  C17  1  0.20967000  0.91747000  0.67220000  1.0 -0.1021991201
C  C18  1  0.91747000  0.20967000  0.82780000  1.0 -0.1021991201
C  C19  1  0.79033000  0.08253000  0.32780000  1.0 -0.1021991201
C  C20  1  0.08253000  0.79033000  0.17220000  1.0 -0.1021991201
C  C21  1  0.93183000  0.15503000  0.36840000  1.0 0.0972670711
C  C22  1  0.15503000  0.93183000  0.13160000  1.0 0.0972670711
C  C23  1  0.06817000  0.84497000  0.63160000  1.0 0.0972670711
C  C24  1  0.84497000  0.06817000  0.86840000  1.0 0.0972670711
C  C25  1  0.96275000  0.24515000  0.33430000  1.0 -0.2020733111
C  C26  1  0.24515000  0.96275000  0.16570000  1.0 -0.2020733111
C  C27  1  0.03725000  0.75485000  0.66570000  1.0 -0.2020733111
C  C28  1  0.75485000  0.03725000  0.83430000  1.0 -0.2020733111
C  C29  1  0.81998000  0.16878000  0.29580000  1.0 -0.122677093
C  C30  1  0.16878000  0.81998000  0.20420000  1.0 -0.122677093
C  C31  1  0.18002000  0.83122000  0.70420000  1.0 -0.122677093
C  C32  1  0.83122000  0.18002000  0.79580000  1.0 -0.122677093
O  O1  1  0.35093000  0.04413000  0.82860000  1.0 -0.729874713
O  O2  1  0.04413000  0.35093000  0.67140000  1.0 -0.729874713
O  O3  1  0.64907000  0.95587000  0.17140000  1.0 -0.729874713
O  O4  1  0.95587000  0.64907000  0.32860000  1.0 -0.729874713
O  O5  1  0.35237000  0.05817000  0.48250000  1.0 -0.7647637703
O  O6  1  0.05817000  0.35237000  0.01750000  1.0 -0.7647637703
O  O7  1  0.64763000  0.94183000  0.51750000  1.0 -0.7654855825
O  O8  1  0.94183000  0.64763000  0.98250000  1.0 -0.7647637703
O  O9  1  0.28846000  0.22866000  0.56390000  1.0 -0.5485661455
O  O10  1  0.22866000  0.28846000  0.93610000  1.0 -0.5485661455
O  O11  1  0.71154000  0.77134000  0.43610000  1.0 -0.5485661455
O  O12  1  0.77134000  0.71154000  0.06390000  1.0 -0.5485661455
O  O13  1  0.93350000  0.45790000  0.19490000  1.0 -0.8098781087
O  O14  1  0.45790000  0.93350000  0.30510000  1.0 -0.8098781087
O  O15  1  0.06650000  0.54210000  0.80510000  1.0 -0.8098781087
O  O16  1  0.54210000  0.06650000  0.69490000  1.0 -0.8098781087
O  O17  1  0.78941000  0.41681000  0.31230000  1.0 -0.7129831292
O  O18  1  0.41681000  0.78941000  0.18770000  1.0 -0.7129831292
O  O19  1  0.21059000  0.58319000  0.68770000  1.0 -0.7129831292
O  O20  1  0.58319000  0.21059000  0.81230000  1.0 -0.7129831292
O  O21  1  0.79926000  0.40646000  0.98310000  1.0 -0.606126038
O  O22  1  0.40646000  0.79926000  0.51690000  1.0 -0.606126038
O  O23  1  0.20074000  0.59354000  0.01690000  1.0 -0.606126038
O  O24  1  0.59354000  0.20074000  0.48310000  1.0 -0.606126038
