# DDEC6 charges by PACMAN v1.1 (https://github.com/mtap-research/PACMAN-charge/)
data_FIRNOL_ASR_pacman
_symmetry_space_group_name_H-M   'P 1'
_cell_length_a   15.63800000
_cell_length_b   15.63800000
_cell_length_c   18.49900000
_cell_angle_alpha   90.00000000
_cell_angle_beta   90.00000000
_cell_angle_gamma   120.00000000
_symmetry_Int_Tables_number   1
_chemical_formula_structural   NiH14C26(NO)8
_chemical_formula_sum   'Ni3 H42 C78 N24 O24'
_cell_volume   3917.79133775
_cell_formula_units_Z   3
loop_
 _symmetry_equiv_pos_site_id
 _symmetry_equiv_pos_as_xyz
  1  'x, y, z'
loop_
 _atom_site_type_symbol
 _atom_site_label
 _atom_site_symmetry_multiplicity
 _atom_site_fract_x
 _atom_site_fract_y
 _atom_site_fract_z
 _atom_site_occupancy
 _atom_site_charge
Ni  Ni1  1  0.00000000  0.82381000  0.83333000  1.0 0.6283390172
Ni  Ni2  1  0.17619000  0.17619000  0.50000000  1.0 0.6283390172
Ni  Ni3  1  0.82381000  0.00000000  0.16667000  1.0 0.6283390172
H  H1  1  0.80550000  0.65440000  0.78040000  1.0 0.1083531812
H  H2  1  0.34560000  0.15110000  0.44707000  1.0 0.1083531812
H  H3  1  0.84890000  0.19450000  0.11373000  1.0 0.1083531812
H  H4  1  0.65440000  0.80550000  0.21960000  1.0 0.1083531812
H  H5  1  0.19450000  0.84890000  0.88627000  1.0 0.1083531812
H  H6  1  0.15110000  0.34560000  0.55293000  1.0 0.1083531812
H  H7  1  0.70530000  0.60240000  0.68120000  1.0 0.1418126224
H  H8  1  0.39760000  0.10290000  0.34787000  1.0 0.1418126224
H  H9  1  0.89710000  0.29470000  0.01453000  1.0 0.1418126224
H  H10  1  0.60240000  0.70530000  0.31880000  1.0 0.1418126224
H  H11  1  0.29470000  0.89710000  0.98547000  1.0 0.1418126224
H  H12  1  0.10290000  0.39760000  0.65213000  1.0 0.1418126224
H  H13  1  0.89470000  0.85130000  0.58270000  1.0 0.1490301438
H  H14  1  0.14870000  0.04340000  0.24937000  1.0 0.1490301438
H  H15  1  0.95660000  0.10530000  0.91603000  1.0 0.1490301438
H  H16  1  0.85130000  0.89470000  0.41730000  1.0 0.1490301438
H  H17  1  0.10530000  0.95660000  0.08397000  1.0 0.1490301438
H  H18  1  0.04340000  0.14870000  0.75063000  1.0 0.1490301438
H  H19  1  0.98910000  0.89690000  0.68380000  1.0 0.1170336366
H  H20  1  0.10310000  0.09220000  0.35047000  1.0 0.1170336366
H  H21  1  0.90780000  0.01090000  0.01713000  1.0 0.1170336366
H  H22  1  0.89690000  0.98910000  0.31620000  1.0 0.1170336366
H  H23  1  0.01090000  0.90780000  0.98287000  1.0 0.1170336366
H  H24  1  0.09220000  0.10310000  0.64953000  1.0 0.1170336366
H  H25  1  0.29540000  0.35610000  0.40580000  1.0 0.1170336366
H  H26  1  0.64390000  0.93930000  0.07247000  1.0 0.1170336366
H  H27  1  0.06070000  0.70460000  0.73913000  1.0 0.1170336366
H  H28  1  0.35610000  0.29540000  0.59420000  1.0 0.1170336366
H  H29  1  0.70460000  0.06070000  0.26087000  1.0 0.1170336366
H  H30  1  0.93930000  0.64390000  0.92753000  1.0 0.1170336366
H  H31  1  0.43990000  0.49950000  0.40140000  1.0 0.1418126224
H  H32  1  0.50050000  0.94040000  0.06807000  1.0 0.1418126224
H  H33  1  0.05960000  0.56010000  0.73473000  1.0 0.1418126224
H  H34  1  0.49950000  0.43990000  0.59860000  1.0 0.1418126224
H  H35  1  0.56010000  0.05960000  0.26527000  1.0 0.1418126224
H  H36  1  0.94040000  0.50050000  0.93193000  1.0 0.1418126224
H  H37  1  0.68330000  0.62140000  0.88010000  1.0 0.1323469577
H  H38  1  0.37860000  0.06190000  0.54677000  1.0 0.1323469577
H  H39  1  0.93810000  0.31670000  0.21343000  1.0 0.1323469577
H  H40  1  0.62140000  0.68330000  0.11990000  1.0 0.1323469577
H  H41  1  0.31670000  0.93810000  0.78657000  1.0 0.1323469577
H  H42  1  0.06190000  0.37860000  0.45323000  1.0 0.1323469577
C  C1  1  0.82420000  0.69450000  0.73960000  1.0 0.0784451612
C  C2  1  0.30550000  0.12970000  0.40627000  1.0 0.0784451612
C  C3  1  0.87030000  0.17580000  0.07293000  1.0 0.0784451612
C  C4  1  0.69450000  0.82420000  0.26040000  1.0 0.0784451612
C  C5  1  0.17580000  0.87030000  0.92707000  1.0 0.0784451612
C  C6  1  0.12970000  0.30550000  0.59373000  1.0 0.0784451612
C  C7  1  0.76310000  0.66340000  0.68040000  1.0 -0.160950276
C  C8  1  0.33660000  0.09970000  0.34707000  1.0 -0.160950276
C  C9  1  0.90030000  0.23690000  0.01373000  1.0 -0.160950276
C  C10  1  0.66340000  0.76310000  0.31960000  1.0 -0.160950276
C  C11  1  0.23690000  0.90030000  0.98627000  1.0 -0.160950276
C  C12  1  0.09970000  0.33660000  0.65293000  1.0 -0.160950276
C  C13  1  0.78670000  0.72160000  0.62060000  1.0 0.0547878163
C  C14  1  0.27840000  0.06510000  0.28727000  1.0 0.0547878163
C  C15  1  0.93490000  0.21330000  0.95393000  1.0 0.0547878163
C  C16  1  0.72160000  0.78670000  0.37940000  1.0 0.0547878163
C  C17  1  0.21330000  0.93490000  0.04607000  1.0 0.0547878163
C  C18  1  0.06510000  0.27840000  0.71273000  1.0 0.0547878163
C  C19  1  0.87440000  0.80970000  0.62270000  1.0 -0.1436611192
C  C20  1  0.19030000  0.06470000  0.28937000  1.0 -0.1436611192
C  C21  1  0.93530000  0.12560000  0.95603000  1.0 -0.1436611192
C  C22  1  0.80970000  0.87440000  0.37730000  1.0 -0.1436611192
C  C23  1  0.12560000  0.93530000  0.04397000  1.0 -0.1436611192
C  C24  1  0.06470000  0.19030000  0.71063000  1.0 -0.1436611192
C  C25  1  0.93130000  0.83600000  0.68300000  1.0 0.0784451612
C  C26  1  0.16400000  0.09530000  0.34967000  1.0 0.0784451612
C  C27  1  0.90470000  0.06870000  0.01633000  1.0 0.0784451612
C  C28  1  0.83600000  0.93130000  0.31700000  1.0 0.0784451612
C  C29  1  0.06870000  0.90470000  0.98367000  1.0 0.0784451612
C  C30  1  0.09530000  0.16400000  0.65033000  1.0 0.0784451612
C  C31  1  0.72200000  0.68980000  0.55690000  1.0 0.3685897935
C  C32  1  0.31020000  0.03220000  0.22357000  1.0 0.3685897935
C  C33  1  0.96780000  0.27800000  0.89023000  1.0 0.3685897935
C  C34  1  0.68980000  0.72200000  0.44310000  1.0 0.3685897935
C  C35  1  0.27800000  0.96780000  0.10977000  1.0 0.3685897935
C  C36  1  0.03220000  0.31020000  0.77643000  1.0 0.3685897935
C  C37  1  0.58290000  0.58290000  0.50000000  1.0 0.3561239986
C  C38  1  0.41710000  0.00000000  0.16667000  1.0 0.3561239986
C  C39  1  0.00000000  0.41710000  0.83333000  1.0 0.3561239986
C  C40  1  0.33800000  0.37290000  0.44500000  1.0 0.0693041668
C  C41  1  0.62710000  0.96510000  0.11167000  1.0 0.0693041668
C  C42  1  0.03490000  0.66200000  0.77833000  1.0 0.0693041668
C  C43  1  0.37290000  0.33800000  0.55500000  1.0 0.0693041668
C  C44  1  0.66200000  0.03490000  0.22167000  1.0 0.0693041668
C  C45  1  0.96510000  0.62710000  0.88833000  1.0 0.0693041668
C  C46  1  0.42400000  0.45940000  0.44210000  1.0 -0.160950276
C  C47  1  0.54060000  0.96460000  0.10877000  1.0 -0.160950276
C  C48  1  0.03540000  0.57600000  0.77543000  1.0 -0.160950276
C  C49  1  0.45940000  0.42400000  0.55790000  1.0 -0.160950276
C  C50  1  0.57600000  0.03540000  0.22457000  1.0 -0.160950276
C  C51  1  0.96460000  0.54060000  0.89123000  1.0 -0.160950276
C  C52  1  0.48820000  0.48820000  0.50000000  1.0 0.0626653655
C  C53  1  0.51180000  0.00000000  0.16667000  1.0 0.0626653655
C  C54  1  0.00000000  0.51180000  0.83333000  1.0 0.0626653655
C  C55  1  0.82610000  0.78920000  0.92390000  1.0 0.5538071045
C  C56  1  0.21080000  0.03690000  0.59057000  1.0 0.5538071045
C  C57  1  0.96310000  0.17390000  0.25723000  1.0 0.5538071045
C  C58  1  0.78920000  0.82610000  0.07610000  1.0 0.5538071045
C  C59  1  0.17390000  0.96310000  0.74277000  1.0 0.5538071045
C  C60  1  0.03690000  0.21080000  0.40943000  1.0 0.5538071045
C  C61  1  0.73660000  0.71530000  0.96540000  1.0 -0.0049928627
C  C62  1  0.28470000  0.02130000  0.63207000  1.0 -0.0049928627
C  C63  1  0.97870000  0.26340000  0.29873000  1.0 -0.005396524
C  C64  1  0.71530000  0.73660000  0.03460000  1.0 -0.0049928627
C  C65  1  0.26340000  0.97870000  0.70127000  1.0 -0.0049928627
C  C66  1  0.02130000  0.28470000  0.36793000  1.0 -0.0049928627
C  C67  1  0.67120000  0.63100000  0.92780000  1.0 -0.1504101457
C  C68  1  0.36900000  0.04020000  0.59447000  1.0 -0.1504101457
C  C69  1  0.95980000  0.32880000  0.26113000  1.0 -0.1504101457
C  C70  1  0.63100000  0.67120000  0.07220000  1.0 -0.1504101457
C  C71  1  0.32880000  0.95980000  0.73887000  1.0 -0.1504101457
C  C72  1  0.04020000  0.36900000  0.40553000  1.0 -0.1504101457
C  C73  1  0.58620000  0.56090000  0.96410000  1.0 0.0338642769
C  C74  1  0.43910000  0.02530000  0.63077000  1.0 0.0338642769
C  C75  1  0.97470000  0.41380000  0.29743000  1.0 0.0338642769
C  C76  1  0.56090000  0.58620000  0.03590000  1.0 0.0414245748
C  C77  1  0.41380000  0.97470000  0.70257000  1.0 0.0414245748
C  C78  1  0.02530000  0.43910000  0.36923000  1.0 0.0414245748
N  N1  1  0.90820000  0.77860000  0.74101000  1.0 -0.1983748785
N  N2  1  0.22140000  0.12960000  0.40768000  1.0 -0.1983748785
N  N3  1  0.87040000  0.09180000  0.07434000  1.0 -0.1983748785
N  N4  1  0.77860000  0.90820000  0.25899000  1.0 -0.1983748785
N  N5  1  0.09180000  0.87040000  0.92566000  1.0 -0.1983748785
N  N6  1  0.12960000  0.22140000  0.59232000  1.0 -0.1983748785
N  N7  1  0.75160000  0.75160000  0.50000000  1.0 -0.4168085309
N  N8  1  0.24840000  0.00000000  0.16667000  1.0 -0.4168085309
N  N9  1  0.00000000  0.24840000  0.83333000  1.0 -0.4168085309
N  N10  1  0.63730000  0.60440000  0.55880000  1.0 -0.4126159004
N  N11  1  0.39560000  0.03290000  0.22547000  1.0 -0.4126159004
N  N12  1  0.96710000  0.36270000  0.89213000  1.0 -0.4126159004
N  N13  1  0.60440000  0.63730000  0.44120000  1.0 -0.4126159004
N  N14  1  0.36270000  0.96710000  0.10787000  1.0 -0.4126159004
N  N15  1  0.03290000  0.39560000  0.77453000  1.0 -0.4126159004
N  N16  1  0.31040000  0.31040000  0.50000000  1.0 -0.1983748785
N  N17  1  0.68960000  0.00000000  0.16667000  1.0 -0.1983748785
N  N18  1  0.00000000  0.68960000  0.83333000  1.0 -0.1983748785
N  N19  1  0.52600000  0.46340000  0.92920000  1.0 0.4790386556
N  N20  1  0.53660000  0.06260000  0.59587000  1.0 0.4790386556
N  N21  1  0.93740000  0.47400000  0.26253000  1.0 0.4790386556
N  N22  1  0.46340000  0.52600000  0.07080000  1.0 0.4790386556
N  N23  1  0.47400000  0.93740000  0.73747000  1.0 0.4790386556
N  N24  1  0.06260000  0.53660000  0.40413000  1.0 0.4790386556
O  O1  1  0.87520000  0.75620000  0.89737000  1.0 -0.5256692521
O  O2  1  0.24380000  0.11900000  0.56404000  1.0 -0.5256692521
O  O3  1  0.88100000  0.12480000  0.23070000  1.0 -0.5256692521
O  O4  1  0.75620000  0.87520000  0.10263000  1.0 -0.5256692521
O  O5  1  0.12480000  0.88100000  0.76930000  1.0 -0.5256692521
O  O6  1  0.11900000  0.24380000  0.43596000  1.0 -0.5256692521
O  O7  1  0.84240000  0.87410000  0.91950000  1.0 -0.523159976
O  O8  1  0.12590000  0.96830000  0.58617000  1.0 -0.523159976
O  O9  1  0.03170000  0.15760000  0.25283000  1.0 -0.523159976
O  O10  1  0.87410000  0.84240000  0.08050000  1.0 -0.523159976
O  O11  1  0.15760000  0.03170000  0.74717000  1.0 -0.523159976
O  O12  1  0.96830000  0.12590000  0.41383000  1.0 -0.523159976
O  O13  1  0.52800000  0.45400000  0.86370000  1.0 -0.3582492323
O  O14  1  0.54600000  0.07400000  0.53037000  1.0 -0.3582492323
O  O15  1  0.92600000  0.47200000  0.19703000  1.0 -0.3582492323
O  O16  1  0.45400000  0.52800000  0.13630000  1.0 -0.348791068
O  O17  1  0.47200000  0.92600000  0.80297000  1.0 -0.348791068
O  O18  1  0.07400000  0.54600000  0.46963000  1.0 -0.348791068
O  O19  1  0.46100000  0.40370000  0.96900000  1.0 -0.2112275741
O  O20  1  0.59630000  0.05730000  0.63567000  1.0 -0.2112275741
O  O21  1  0.94270000  0.53900000  0.30233000  1.0 -0.2112275741
O  O22  1  0.40370000  0.46100000  0.03100000  1.0 -0.2112275741
O  O23  1  0.53900000  0.94270000  0.69767000  1.0 -0.1983748785
O  O24  1  0.05730000  0.59630000  0.36433000  1.0 -0.2112275741
