# DDEC6 charges by PACMAN v1.1 (https://github.com/mtap-research/PACMAN-charge/)
data_FISTUZ_ASR_pacman
_symmetry_space_group_name_H-M   'P 1'
_cell_length_a   28.63080000
_cell_length_b   28.63080000
_cell_length_c   28.63080000
_cell_angle_alpha   60.00000000
_cell_angle_beta   60.00000000
_cell_angle_gamma   60.00000000
_symmetry_Int_Tables_number   1
_chemical_formula_structural   CuH10C19NO4
_chemical_formula_sum   'Cu12 H120 C228 N12 O48'
_cell_volume   16595.31314857
_cell_formula_units_Z   12
loop_
 _symmetry_equiv_pos_site_id
 _symmetry_equiv_pos_as_xyz
  1  'x, y, z'
loop_
 _atom_site_type_symbol
 _atom_site_label
 _atom_site_symmetry_multiplicity
 _atom_site_fract_x
 _atom_site_fract_y
 _atom_site_fract_z
 _atom_site_occupancy
 _atom_site_charge
Cu  Cu1  1  0.17185000  0.82815000  0.17185000  1.0 0.8481708816
Cu  Cu2  1  0.23683000  0.76317000  0.23683000  1.0 0.8677418879
Cu  Cu3  1  0.82815000  0.17185000  0.82815000  1.0 0.8481708816
Cu  Cu4  1  0.76317000  0.23683000  0.76317000  1.0 0.8677418879
Cu  Cu5  1  0.82815000  0.17185000  0.17185000  1.0 0.8481708816
Cu  Cu6  1  0.76317000  0.23683000  0.23683000  1.0 0.8677418879
Cu  Cu7  1  0.17185000  0.82815000  0.82815000  1.0 0.8481708816
Cu  Cu8  1  0.23683000  0.76317000  0.76317000  1.0 0.8677418879
Cu  Cu9  1  0.17185000  0.17185000  0.82815000  1.0 0.8481708816
Cu  Cu10  1  0.23683000  0.23683000  0.76317000  1.0 0.8677418879
Cu  Cu11  1  0.82815000  0.82815000  0.17185000  1.0 0.8481708816
Cu  Cu12  1  0.76317000  0.76317000  0.23683000  1.0 0.8677418879
H  H1  1  0.50144000  0.99520000  0.92012000  1.0 0.1111761066
H  H2  1  0.92012000  0.58324000  0.50144000  1.0 0.1111761066
H  H3  1  0.99520000  0.50144000  0.58324000  1.0 0.1111761066
H  H4  1  0.58324000  0.92012000  0.99520000  1.0 0.1111761066
H  H5  1  0.99520000  0.92012000  0.50144000  1.0 0.1111761066
H  H6  1  0.58324000  0.50144000  0.92012000  1.0 0.1111761066
H  H7  1  0.50144000  0.58324000  0.99520000  1.0 0.1111761066
H  H8  1  0.92012000  0.99520000  0.58324000  1.0 0.1111761066
H  H9  1  0.92012000  0.50144000  0.99520000  1.0 0.1111761066
H  H10  1  0.50144000  0.92012000  0.58324000  1.0 0.1111761066
H  H11  1  0.58324000  0.99520000  0.50144000  1.0 0.1111761066
H  H12  1  0.99520000  0.58324000  0.92012000  1.0 0.1111761066
H  H13  1  0.49856000  0.41676000  0.07988000  1.0 0.1111761066
H  H14  1  0.07988000  0.00480000  0.49856000  1.0 0.1111761066
H  H15  1  0.00480000  0.07988000  0.41676000  1.0 0.1111761066
H  H16  1  0.41676000  0.49856000  0.00480000  1.0 0.1111761066
H  H17  1  0.00480000  0.41676000  0.49856000  1.0 0.1111761066
H  H18  1  0.41676000  0.00480000  0.07988000  1.0 0.1111761066
H  H19  1  0.49856000  0.07988000  0.00480000  1.0 0.1111761066
H  H20  1  0.07988000  0.49856000  0.41676000  1.0 0.1111761066
H  H21  1  0.07988000  0.41676000  0.00480000  1.0 0.1111761066
H  H22  1  0.49856000  0.00480000  0.41676000  1.0 0.1111761066
H  H23  1  0.41676000  0.07988000  0.49856000  1.0 0.1111761066
H  H24  1  0.00480000  0.49856000  0.07988000  1.0 0.1111761066
H  H25  1  0.49856000  0.00480000  0.07988000  1.0 0.1111761066
H  H26  1  0.07988000  0.41676000  0.49856000  1.0 0.1111761066
H  H27  1  0.00480000  0.49856000  0.41676000  1.0 0.1111761066
H  H28  1  0.41676000  0.07988000  0.00480000  1.0 0.1111761066
H  H29  1  0.00480000  0.07988000  0.49856000  1.0 0.1111761066
H  H30  1  0.41676000  0.49856000  0.07988000  1.0 0.1111761066
H  H31  1  0.49856000  0.41676000  0.00480000  1.0 0.1111761066
H  H32  1  0.07988000  0.00480000  0.41676000  1.0 0.1111761066
H  H33  1  0.07988000  0.49856000  0.00480000  1.0 0.1111761066
H  H34  1  0.49856000  0.07988000  0.41676000  1.0 0.1111761066
H  H35  1  0.41676000  0.00480000  0.49856000  1.0 0.1111761066
H  H36  1  0.00480000  0.41676000  0.07988000  1.0 0.1111761066
H  H37  1  0.50144000  0.58324000  0.92012000  1.0 0.1111761066
H  H38  1  0.92012000  0.99520000  0.50144000  1.0 0.1111761066
H  H39  1  0.99520000  0.92012000  0.58324000  1.0 0.1111761066
H  H40  1  0.58324000  0.50144000  0.99520000  1.0 0.1111761066
H  H41  1  0.99520000  0.58324000  0.50144000  1.0 0.1111761066
H  H42  1  0.58324000  0.99520000  0.92012000  1.0 0.1111761066
H  H43  1  0.50144000  0.92012000  0.99520000  1.0 0.1111761066
H  H44  1  0.92012000  0.50144000  0.58324000  1.0 0.1111761066
H  H45  1  0.92012000  0.58324000  0.99520000  1.0 0.1111761066
H  H46  1  0.50144000  0.99520000  0.58324000  1.0 0.1111761066
H  H47  1  0.58324000  0.92012000  0.50144000  1.0 0.1111761066
H  H48  1  0.99520000  0.50144000  0.92012000  1.0 0.1111761066
H  H49  1  0.26064000  0.95056000  0.04944000  1.0 0.1450991632
H  H50  1  0.41759000  0.90483000  0.09517000  1.0 0.1270643325
H  H51  1  0.35864000  0.85012000  0.14988000  1.0 0.1270643325
H  H52  1  0.04944000  0.73936000  0.26064000  1.0 0.1450991632
H  H53  1  0.09517000  0.58241000  0.41759000  1.0 0.1270643325
H  H54  1  0.14988000  0.64136000  0.35864000  1.0 0.1270643325
H  H55  1  0.95056000  0.26064000  0.73936000  1.0 0.1444785596
H  H56  1  0.90483000  0.41759000  0.58241000  1.0 0.1270643325
H  H57  1  0.85012000  0.35864000  0.64136000  1.0 0.1270643325
H  H58  1  0.73936000  0.04944000  0.95056000  1.0 0.1444785596
H  H59  1  0.58241000  0.09517000  0.90483000  1.0 0.1270643325
H  H60  1  0.64136000  0.14988000  0.85012000  1.0 0.1270643325
H  H61  1  0.95056000  0.04944000  0.26064000  1.0 0.1444785596
H  H62  1  0.90483000  0.09517000  0.41759000  1.0 0.1270643325
H  H63  1  0.85012000  0.14988000  0.35864000  1.0 0.1270643325
H  H64  1  0.73936000  0.26064000  0.04944000  1.0 0.1450991632
H  H65  1  0.58241000  0.41759000  0.09517000  1.0 0.1270643325
H  H66  1  0.64136000  0.35864000  0.14988000  1.0 0.1270643325
H  H67  1  0.26064000  0.73936000  0.95056000  1.0 0.1444785596
H  H68  1  0.41759000  0.58241000  0.90483000  1.0 0.1270643325
H  H69  1  0.35864000  0.64136000  0.85012000  1.0 0.1270643325
H  H70  1  0.04944000  0.95056000  0.73936000  1.0 0.1444785596
H  H71  1  0.09517000  0.90483000  0.58241000  1.0 0.1270643325
H  H72  1  0.14988000  0.85012000  0.64136000  1.0 0.1270643325
H  H73  1  0.04944000  0.26064000  0.95056000  1.0 0.1444785596
H  H74  1  0.09517000  0.41759000  0.90483000  1.0 0.1270643325
H  H75  1  0.14988000  0.35864000  0.85012000  1.0 0.1270643325
H  H76  1  0.26064000  0.04944000  0.73936000  1.0 0.1444785596
H  H77  1  0.41759000  0.09517000  0.58241000  1.0 0.1270643325
H  H78  1  0.35864000  0.14988000  0.64136000  1.0 0.1270643325
H  H79  1  0.73936000  0.95056000  0.26064000  1.0 0.1450991632
H  H80  1  0.58241000  0.90483000  0.41759000  1.0 0.1270643325
H  H81  1  0.64136000  0.85012000  0.35864000  1.0 0.1270643325
H  H82  1  0.95056000  0.73936000  0.04944000  1.0 0.1450991632
H  H83  1  0.90483000  0.58241000  0.09517000  1.0 0.1270643325
H  H84  1  0.85012000  0.64136000  0.14988000  1.0 0.1270643325
H  H85  1  0.73936000  0.26064000  0.95056000  1.0 0.1444785596
H  H86  1  0.58241000  0.41759000  0.90483000  1.0 0.1270643325
H  H87  1  0.64136000  0.35864000  0.85012000  1.0 0.1270643325
H  H88  1  0.95056000  0.04944000  0.73936000  1.0 0.1444785596
H  H89  1  0.90483000  0.09517000  0.58241000  1.0 0.1270643325
H  H90  1  0.85012000  0.14988000  0.64136000  1.0 0.1270643325
H  H91  1  0.04944000  0.95056000  0.26064000  1.0 0.1450991632
H  H92  1  0.09517000  0.90483000  0.41759000  1.0 0.1270643325
H  H93  1  0.14988000  0.85012000  0.35864000  1.0 0.1270643325
H  H94  1  0.26064000  0.73936000  0.04944000  1.0 0.1450991632
H  H95  1  0.41759000  0.58241000  0.09517000  1.0 0.1270643325
H  H96  1  0.35864000  0.64136000  0.14988000  1.0 0.1270643325
H  H97  1  0.04944000  0.26064000  0.73936000  1.0 0.1444785596
H  H98  1  0.09517000  0.41759000  0.58241000  1.0 0.1270643325
H  H99  1  0.14988000  0.35864000  0.64136000  1.0 0.1270643325
H  H100  1  0.26064000  0.04944000  0.95056000  1.0 0.1444785596
H  H101  1  0.41759000  0.09517000  0.90483000  1.0 0.1270643325
H  H102  1  0.35864000  0.14988000  0.85012000  1.0 0.1270643325
H  H103  1  0.73936000  0.95056000  0.04944000  1.0 0.1444785596
H  H104  1  0.58241000  0.90483000  0.09517000  1.0 0.1270643325
H  H105  1  0.64136000  0.85012000  0.14988000  1.0 0.1270643325
H  H106  1  0.95056000  0.73936000  0.26064000  1.0 0.1444785596
H  H107  1  0.90483000  0.58241000  0.41759000  1.0 0.1270643325
H  H108  1  0.85012000  0.64136000  0.35864000  1.0 0.1270643325
H  H109  1  0.95056000  0.26064000  0.04944000  1.0 0.1444785596
H  H110  1  0.90483000  0.41759000  0.09517000  1.0 0.1270643325
H  H111  1  0.85012000  0.35864000  0.14988000  1.0 0.1270643325
H  H112  1  0.73936000  0.04944000  0.26064000  1.0 0.1444785596
H  H113  1  0.58241000  0.09517000  0.41759000  1.0 0.1270643325
H  H114  1  0.64136000  0.14988000  0.35864000  1.0 0.1270643325
H  H115  1  0.26064000  0.95056000  0.73936000  1.0 0.1444785596
H  H116  1  0.41759000  0.90483000  0.58241000  1.0 0.1270643325
H  H117  1  0.35864000  0.85012000  0.64136000  1.0 0.1270643325
H  H118  1  0.04944000  0.73936000  0.95056000  1.0 0.1444785596
H  H119  1  0.09517000  0.58241000  0.90483000  1.0 0.1270643325
H  H120  1  0.14988000  0.64136000  0.85012000  1.0 0.1270643325
C  C1  1  0.50122000  0.99708000  0.95172000  1.0 -0.1126273655
C  C2  1  0.95172000  0.54998000  0.50122000  1.0 -0.1126273655
C  C3  1  0.99708000  0.50122000  0.54998000  1.0 -0.1126273655
C  C4  1  0.54998000  0.95172000  0.99708000  1.0 -0.1126273655
C  C5  1  0.99708000  0.95172000  0.50122000  1.0 -0.1126273655
C  C6  1  0.54998000  0.50122000  0.95172000  1.0 -0.1126273655
C  C7  1  0.50122000  0.54998000  0.99708000  1.0 -0.1126273655
C  C8  1  0.95172000  0.99708000  0.54998000  1.0 -0.1126273655
C  C9  1  0.95172000  0.50122000  0.99708000  1.0 -0.1126273655
C  C10  1  0.50122000  0.95172000  0.54998000  1.0 -0.1126273655
C  C11  1  0.54998000  0.99708000  0.50122000  1.0 -0.1126273655
C  C12  1  0.99708000  0.54998000  0.95172000  1.0 -0.1126273655
C  C13  1  0.49878000  0.45002000  0.04828000  1.0 -0.1126273655
C  C14  1  0.04828000  0.00292000  0.49878000  1.0 -0.1126273655
C  C15  1  0.00292000  0.04828000  0.45002000  1.0 -0.1126273655
C  C16  1  0.45002000  0.49878000  0.00292000  1.0 -0.1126273655
C  C17  1  0.00292000  0.45002000  0.49878000  1.0 -0.1126273655
C  C18  1  0.45002000  0.00292000  0.04828000  1.0 -0.1126273655
C  C19  1  0.49878000  0.04828000  0.00292000  1.0 -0.1126273655
C  C20  1  0.04828000  0.49878000  0.45002000  1.0 -0.1126273655
C  C21  1  0.04828000  0.45002000  0.00292000  1.0 -0.1126273655
C  C22  1  0.49878000  0.00292000  0.45002000  1.0 -0.1126273655
C  C23  1  0.45002000  0.04828000  0.49878000  1.0 -0.1126273655
C  C24  1  0.00292000  0.49878000  0.04828000  1.0 -0.1126273655
C  C25  1  0.49878000  0.00292000  0.04828000  1.0 -0.1126273655
C  C26  1  0.04828000  0.45002000  0.49878000  1.0 -0.1126273655
C  C27  1  0.00292000  0.49878000  0.45002000  1.0 -0.1126273655
C  C28  1  0.45002000  0.04828000  0.00292000  1.0 -0.1126273655
C  C29  1  0.00292000  0.04828000  0.49878000  1.0 -0.1126273655
C  C30  1  0.45002000  0.49878000  0.04828000  1.0 -0.1126273655
C  C31  1  0.49878000  0.45002000  0.00292000  1.0 -0.1126273655
C  C32  1  0.04828000  0.00292000  0.45002000  1.0 -0.1126273655
C  C33  1  0.04828000  0.49878000  0.00292000  1.0 -0.1126273655
C  C34  1  0.49878000  0.04828000  0.45002000  1.0 -0.1126273655
C  C35  1  0.45002000  0.00292000  0.49878000  1.0 -0.1126273655
C  C36  1  0.00292000  0.45002000  0.04828000  1.0 -0.1126273655
C  C37  1  0.50122000  0.54998000  0.95172000  1.0 -0.1126273655
C  C38  1  0.95172000  0.99708000  0.50122000  1.0 -0.1126273655
C  C39  1  0.99708000  0.95172000  0.54998000  1.0 -0.1126273655
C  C40  1  0.54998000  0.50122000  0.99708000  1.0 -0.1126273655
C  C41  1  0.99708000  0.54998000  0.50122000  1.0 -0.1126273655
C  C42  1  0.54998000  0.99708000  0.95172000  1.0 -0.1126273655
C  C43  1  0.50122000  0.95172000  0.99708000  1.0 -0.1126273655
C  C44  1  0.95172000  0.50122000  0.54998000  1.0 -0.1126273655
C  C45  1  0.95172000  0.54998000  0.99708000  1.0 -0.1126273655
C  C46  1  0.50122000  0.99708000  0.54998000  1.0 -0.1126273655
C  C47  1  0.54998000  0.95172000  0.50122000  1.0 -0.1126273655
C  C48  1  0.99708000  0.50122000  0.95172000  1.0 -0.1126273655
C  C49  1  0.45212000  0.00000000  0.00000000  1.0 0.1111761066
C  C50  1  0.00000000  0.54788000  0.45212000  1.0 0.1111761066
C  C51  1  0.00000000  0.45212000  0.54788000  1.0 0.1111761066
C  C52  1  0.54788000  0.00000000  0.00000000  1.0 0.1111761066
C  C53  1  0.00000000  0.00000000  0.45212000  1.0 0.1111761066
C  C54  1  0.54788000  0.45212000  0.00000000  1.0 0.1111761066
C  C55  1  0.45212000  0.54788000  0.00000000  1.0 0.1111761066
C  C56  1  0.00000000  0.00000000  0.54788000  1.0 0.1111761066
C  C57  1  0.00000000  0.45212000  0.00000000  1.0 0.1111761066
C  C58  1  0.45212000  0.00000000  0.54788000  1.0 0.1111761066
C  C59  1  0.54788000  0.00000000  0.45212000  1.0 0.1111761066
C  C60  1  0.00000000  0.54788000  0.00000000  1.0 0.1111761066
C  C61  1  0.26691000  0.85815000  0.14185000  1.0 0.5808920936
C  C62  1  0.30364000  0.89460000  0.10540000  1.0 -0.0412724615
C  C63  1  0.29186000  0.94156000  0.05844000  1.0 -0.1195265268
C  C64  1  0.32660000  0.97480000  0.02520000  1.0 -0.0195519126
C  C65  1  0.37387000  0.96055000  0.03945000  1.0 0.1270643325
C  C66  1  0.38642000  0.91394000  0.08606000  1.0 -0.2065800614
C  C67  1  0.35103000  0.88169000  0.11831000  1.0 -0.071621403
C  C68  1  0.14185000  0.73309000  0.26691000  1.0 0.5808920936
C  C69  1  0.10540000  0.69636000  0.30364000  1.0 -0.0412724615
C  C70  1  0.05844000  0.70814000  0.29186000  1.0 -0.1195265268
C  C71  1  0.02520000  0.67340000  0.32660000  1.0 -0.0195519126
C  C72  1  0.03945000  0.62613000  0.37387000  1.0 0.1270643325
C  C73  1  0.08606000  0.61358000  0.38642000  1.0 -0.2065800614
C  C74  1  0.11831000  0.64897000  0.35103000  1.0 -0.071621403
C  C75  1  0.85815000  0.26691000  0.73309000  1.0 0.5808920936
C  C76  1  0.89460000  0.30364000  0.69636000  1.0 -0.0412724615
C  C77  1  0.94156000  0.29186000  0.70814000  1.0 -0.1195265268
C  C78  1  0.97480000  0.32660000  0.67340000  1.0 -0.0195519126
C  C79  1  0.96055000  0.37387000  0.62613000  1.0 0.1270643325
C  C80  1  0.91394000  0.38642000  0.61358000  1.0 -0.2046291752
C  C81  1  0.88169000  0.35103000  0.64897000  1.0 -0.071621403
C  C82  1  0.73309000  0.14185000  0.85815000  1.0 0.5808920936
C  C83  1  0.69636000  0.10540000  0.89460000  1.0 -0.0412724615
C  C84  1  0.70814000  0.05844000  0.94156000  1.0 -0.1195265268
C  C85  1  0.67340000  0.02520000  0.97480000  1.0 -0.0195519126
C  C86  1  0.62613000  0.03945000  0.96055000  1.0 0.1270643325
C  C87  1  0.61358000  0.08606000  0.91394000  1.0 -0.2065800614
C  C88  1  0.64897000  0.11831000  0.88169000  1.0 -0.071621403
C  C89  1  0.85815000  0.14185000  0.26691000  1.0 0.5808920936
C  C90  1  0.89460000  0.10540000  0.30364000  1.0 -0.0412724615
C  C91  1  0.94156000  0.05844000  0.29186000  1.0 -0.1195265268
C  C92  1  0.97480000  0.02520000  0.32660000  1.0 -0.0195519126
C  C93  1  0.96055000  0.03945000  0.37387000  1.0 0.1270643325
C  C94  1  0.91394000  0.08606000  0.38642000  1.0 -0.2046291752
C  C95  1  0.88169000  0.11831000  0.35103000  1.0 -0.071621403
C  C96  1  0.73309000  0.26691000  0.14185000  1.0 0.5808920936
C  C97  1  0.69636000  0.30364000  0.10540000  1.0 -0.0412724615
C  C98  1  0.70814000  0.29186000  0.05844000  1.0 -0.1195265268
C  C99  1  0.67340000  0.32660000  0.02520000  1.0 -0.0195519126
C  C100  1  0.62613000  0.37387000  0.03945000  1.0 0.1270643325
C  C101  1  0.61358000  0.38642000  0.08606000  1.0 -0.2046291752
C  C102  1  0.64897000  0.35103000  0.11831000  1.0 -0.071621403
C  C103  1  0.26691000  0.73309000  0.85815000  1.0 0.5808920936
C  C104  1  0.30364000  0.69636000  0.89460000  1.0 -0.0412724615
C  C105  1  0.29186000  0.70814000  0.94156000  1.0 -0.1195265268
C  C106  1  0.32660000  0.67340000  0.97480000  1.0 -0.0195519126
C  C107  1  0.37387000  0.62613000  0.96055000  1.0 0.1270643325
C  C108  1  0.38642000  0.61358000  0.91394000  1.0 -0.2065800614
C  C109  1  0.35103000  0.64897000  0.88169000  1.0 -0.071621403
C  C110  1  0.14185000  0.85815000  0.73309000  1.0 0.5808920936
C  C111  1  0.10540000  0.89460000  0.69636000  1.0 -0.0412724615
C  C112  1  0.05844000  0.94156000  0.70814000  1.0 -0.1195265268
C  C113  1  0.02520000  0.97480000  0.67340000  1.0 -0.0195519126
C  C114  1  0.03945000  0.96055000  0.62613000  1.0 0.1270643325
C  C115  1  0.08606000  0.91394000  0.61358000  1.0 -0.2046291752
C  C116  1  0.11831000  0.88169000  0.64897000  1.0 -0.071621403
C  C117  1  0.14185000  0.26691000  0.85815000  1.0 0.5808920936
C  C118  1  0.10540000  0.30364000  0.89460000  1.0 -0.0412724615
C  C119  1  0.05844000  0.29186000  0.94156000  1.0 -0.1195265268
C  C120  1  0.02520000  0.32660000  0.97480000  1.0 -0.0195519126
C  C121  1  0.03945000  0.37387000  0.96055000  1.0 0.1270643325
C  C122  1  0.08606000  0.38642000  0.91394000  1.0 -0.2065800614
C  C123  1  0.11831000  0.35103000  0.88169000  1.0 -0.071621403
C  C124  1  0.26691000  0.14185000  0.73309000  1.0 0.5808920936
C  C125  1  0.30364000  0.10540000  0.69636000  1.0 -0.0412724615
C  C126  1  0.29186000  0.05844000  0.70814000  1.0 -0.1195265268
C  C127  1  0.32660000  0.02520000  0.67340000  1.0 -0.0195519126
C  C128  1  0.37387000  0.03945000  0.62613000  1.0 0.1270643325
C  C129  1  0.38642000  0.08606000  0.61358000  1.0 -0.2065800614
C  C130  1  0.35103000  0.11831000  0.64897000  1.0 -0.071621403
C  C131  1  0.73309000  0.85815000  0.26691000  1.0 0.5808920936
C  C132  1  0.69636000  0.89460000  0.30364000  1.0 -0.0412724615
C  C133  1  0.70814000  0.94156000  0.29186000  1.0 -0.1195265268
C  C134  1  0.67340000  0.97480000  0.32660000  1.0 -0.0195519126
C  C135  1  0.62613000  0.96055000  0.37387000  1.0 0.1270643325
C  C136  1  0.61358000  0.91394000  0.38642000  1.0 -0.2065800614
C  C137  1  0.64897000  0.88169000  0.35103000  1.0 -0.071621403
C  C138  1  0.85815000  0.73309000  0.14185000  1.0 0.5808920936
C  C139  1  0.89460000  0.69636000  0.10540000  1.0 -0.0412724615
C  C140  1  0.94156000  0.70814000  0.05844000  1.0 -0.1195265268
C  C141  1  0.97480000  0.67340000  0.02520000  1.0 -0.0195519126
C  C142  1  0.96055000  0.62613000  0.03945000  1.0 0.1270643325
C  C143  1  0.91394000  0.61358000  0.08606000  1.0 -0.2065800614
C  C144  1  0.88169000  0.64897000  0.11831000  1.0 -0.071621403
C  C145  1  0.73309000  0.26691000  0.85815000  1.0 0.5808920936
C  C146  1  0.69636000  0.30364000  0.89460000  1.0 -0.0412724615
C  C147  1  0.70814000  0.29186000  0.94156000  1.0 -0.1195265268
C  C148  1  0.67340000  0.32660000  0.97480000  1.0 -0.0195519126
C  C149  1  0.62613000  0.37387000  0.96055000  1.0 0.1270643325
C  C150  1  0.61358000  0.38642000  0.91394000  1.0 -0.2065800614
C  C151  1  0.64897000  0.35103000  0.88169000  1.0 -0.071621403
C  C152  1  0.85815000  0.14185000  0.73309000  1.0 0.5808920936
C  C153  1  0.89460000  0.10540000  0.69636000  1.0 -0.0412724615
C  C154  1  0.94156000  0.05844000  0.70814000  1.0 -0.1195265268
C  C155  1  0.97480000  0.02520000  0.67340000  1.0 -0.0195519126
C  C156  1  0.96055000  0.03945000  0.62613000  1.0 0.1270643325
C  C157  1  0.91394000  0.08606000  0.61358000  1.0 -0.2046291752
C  C158  1  0.88169000  0.11831000  0.64897000  1.0 -0.071621403
C  C159  1  0.14185000  0.85815000  0.26691000  1.0 0.5808920936
C  C160  1  0.10540000  0.89460000  0.30364000  1.0 -0.0412724615
C  C161  1  0.05844000  0.94156000  0.29186000  1.0 -0.1195265268
C  C162  1  0.02520000  0.97480000  0.32660000  1.0 -0.0195519126
C  C163  1  0.03945000  0.96055000  0.37387000  1.0 0.1270643325
C  C164  1  0.08606000  0.91394000  0.38642000  1.0 -0.2046291752
C  C165  1  0.11831000  0.88169000  0.35103000  1.0 -0.071621403
C  C166  1  0.26691000  0.73309000  0.14185000  1.0 0.5808920936
C  C167  1  0.30364000  0.69636000  0.10540000  1.0 -0.0412724615
C  C168  1  0.29186000  0.70814000  0.05844000  1.0 -0.1195265268
C  C169  1  0.32660000  0.67340000  0.02520000  1.0 -0.0195519126
C  C170  1  0.37387000  0.62613000  0.03945000  1.0 0.1270643325
C  C171  1  0.38642000  0.61358000  0.08606000  1.0 -0.2065800614
C  C172  1  0.35103000  0.64897000  0.11831000  1.0 -0.071621403
C  C173  1  0.14185000  0.26691000  0.73309000  1.0 0.5808920936
C  C174  1  0.10540000  0.30364000  0.69636000  1.0 -0.0412724615
C  C175  1  0.05844000  0.29186000  0.70814000  1.0 -0.1195265268
C  C176  1  0.02520000  0.32660000  0.67340000  1.0 -0.0195519126
C  C177  1  0.03945000  0.37387000  0.62613000  1.0 0.1270643325
C  C178  1  0.08606000  0.38642000  0.61358000  1.0 -0.2065800614
C  C179  1  0.11831000  0.35103000  0.64897000  1.0 -0.071621403
C  C180  1  0.26691000  0.14185000  0.85815000  1.0 0.5808920936
C  C181  1  0.30364000  0.10540000  0.89460000  1.0 -0.0412724615
C  C182  1  0.29186000  0.05844000  0.94156000  1.0 -0.1195265268
C  C183  1  0.32660000  0.02520000  0.97480000  1.0 -0.0195519126
C  C184  1  0.37387000  0.03945000  0.96055000  1.0 0.1270643325
C  C185  1  0.38642000  0.08606000  0.91394000  1.0 -0.2065800614
C  C186  1  0.35103000  0.11831000  0.88169000  1.0 -0.071621403
C  C187  1  0.73309000  0.85815000  0.14185000  1.0 0.5808920936
C  C188  1  0.69636000  0.89460000  0.10540000  1.0 -0.0412724615
C  C189  1  0.70814000  0.94156000  0.05844000  1.0 -0.1195265268
C  C190  1  0.67340000  0.97480000  0.02520000  1.0 -0.0195519126
C  C191  1  0.62613000  0.96055000  0.03945000  1.0 0.1270643325
C  C192  1  0.61358000  0.91394000  0.08606000  1.0 -0.2065800614
C  C193  1  0.64897000  0.88169000  0.11831000  1.0 -0.071621403
C  C194  1  0.85815000  0.73309000  0.26691000  1.0 0.5808920936
C  C195  1  0.89460000  0.69636000  0.30364000  1.0 -0.0412724615
C  C196  1  0.94156000  0.70814000  0.29186000  1.0 -0.1195265268
C  C197  1  0.97480000  0.67340000  0.32660000  1.0 -0.0195519126
C  C198  1  0.96055000  0.62613000  0.37387000  1.0 0.1270643325
C  C199  1  0.91394000  0.61358000  0.38642000  1.0 -0.2065800614
C  C200  1  0.88169000  0.64897000  0.35103000  1.0 -0.071621403
C  C201  1  0.85815000  0.26691000  0.14185000  1.0 0.5808920936
C  C202  1  0.89460000  0.30364000  0.10540000  1.0 -0.0412724615
C  C203  1  0.94156000  0.29186000  0.05844000  1.0 -0.1195265268
C  C204  1  0.97480000  0.32660000  0.02520000  1.0 -0.0195519126
C  C205  1  0.96055000  0.37387000  0.03945000  1.0 0.1270643325
C  C206  1  0.91394000  0.38642000  0.08606000  1.0 -0.2065800614
C  C207  1  0.88169000  0.35103000  0.11831000  1.0 -0.071621403
C  C208  1  0.73309000  0.14185000  0.26691000  1.0 0.5808920936
C  C209  1  0.69636000  0.10540000  0.30364000  1.0 -0.0412724615
C  C210  1  0.70814000  0.05844000  0.29186000  1.0 -0.1195265268
C  C211  1  0.67340000  0.02520000  0.32660000  1.0 -0.0195519126
C  C212  1  0.62613000  0.03945000  0.37387000  1.0 0.1270643325
C  C213  1  0.61358000  0.08606000  0.38642000  1.0 -0.2046291752
C  C214  1  0.64897000  0.11831000  0.35103000  1.0 -0.071621403
C  C215  1  0.26691000  0.85815000  0.73309000  1.0 0.5808920936
C  C216  1  0.30364000  0.89460000  0.69636000  1.0 -0.0412724615
C  C217  1  0.29186000  0.94156000  0.70814000  1.0 -0.1195265268
C  C218  1  0.32660000  0.97480000  0.67340000  1.0 -0.0195519126
C  C219  1  0.37387000  0.96055000  0.62613000  1.0 0.1270643325
C  C220  1  0.38642000  0.91394000  0.61358000  1.0 -0.2046291752
C  C221  1  0.35103000  0.88169000  0.64897000  1.0 -0.071621403
C  C222  1  0.14185000  0.73309000  0.85815000  1.0 0.5808920936
C  C223  1  0.10540000  0.69636000  0.89460000  1.0 -0.0412724615
C  C224  1  0.05844000  0.70814000  0.94156000  1.0 -0.1195265268
C  C225  1  0.02520000  0.67340000  0.97480000  1.0 -0.0195519126
C  C226  1  0.03945000  0.62613000  0.96055000  1.0 0.1270643325
C  C227  1  0.08606000  0.61358000  0.91394000  1.0 -0.2065800614
C  C228  1  0.11831000  0.64897000  0.88169000  1.0 -0.071621403
N  N1  1  0.40176000  0.00000000  0.00000000  1.0 -0.1685968661
N  N2  1  0.00000000  0.59824000  0.40176000  1.0 -0.1685968661
N  N3  1  0.00000000  0.40176000  0.59824000  1.0 -0.1685968661
N  N4  1  0.59824000  0.00000000  0.00000000  1.0 -0.1685968661
N  N5  1  0.00000000  0.00000000  0.40176000  1.0 -0.1685968661
N  N6  1  0.59824000  0.40176000  0.00000000  1.0 -0.1685968661
N  N7  1  0.40176000  0.59824000  0.00000000  1.0 -0.1685968661
N  N8  1  0.00000000  0.00000000  0.59824000  1.0 -0.1685968661
N  N9  1  0.00000000  0.40176000  0.00000000  1.0 -0.1685968661
N  N10  1  0.40176000  0.00000000  0.59824000  1.0 -0.1685968661
N  N11  1  0.59824000  0.00000000  0.40176000  1.0 -0.1685968661
N  N12  1  0.00000000  0.59824000  0.00000000  1.0 -0.1685968661
O  O1  1  0.22519000  0.87175000  0.12825000  1.0 -0.5176569471
O  O2  1  0.28033000  0.81609000  0.18391000  1.0 -0.5285509377
O  O3  1  0.12825000  0.77481000  0.22519000  1.0 -0.5176569471
O  O4  1  0.18391000  0.71967000  0.28033000  1.0 -0.5285509377
O  O5  1  0.87175000  0.22519000  0.77481000  1.0 -0.5176569471
O  O6  1  0.81609000  0.28033000  0.71967000  1.0 -0.5285509377
O  O7  1  0.77481000  0.12825000  0.87175000  1.0 -0.5176569471
O  O8  1  0.71967000  0.18391000  0.81609000  1.0 -0.5285509377
O  O9  1  0.87175000  0.12825000  0.22519000  1.0 -0.5176569471
O  O10  1  0.81609000  0.18391000  0.28033000  1.0 -0.5285509377
O  O11  1  0.77481000  0.22519000  0.12825000  1.0 -0.5176569471
O  O12  1  0.71967000  0.28033000  0.18391000  1.0 -0.5285509377
O  O13  1  0.22519000  0.77481000  0.87175000  1.0 -0.5176569471
O  O14  1  0.28033000  0.71967000  0.81609000  1.0 -0.5285509377
O  O15  1  0.12825000  0.87175000  0.77481000  1.0 -0.5176569471
O  O16  1  0.18391000  0.81609000  0.71967000  1.0 -0.5285509377
O  O17  1  0.12825000  0.22519000  0.87175000  1.0 -0.5176569471
O  O18  1  0.18391000  0.28033000  0.81609000  1.0 -0.5285509377
O  O19  1  0.22519000  0.12825000  0.77481000  1.0 -0.5176569471
O  O20  1  0.28033000  0.18391000  0.71967000  1.0 -0.5285509377
O  O21  1  0.77481000  0.87175000  0.22519000  1.0 -0.5176569471
O  O22  1  0.71967000  0.81609000  0.28033000  1.0 -0.5285509377
O  O23  1  0.87175000  0.77481000  0.12825000  1.0 -0.5176569471
O  O24  1  0.81609000  0.71967000  0.18391000  1.0 -0.5285509377
O  O25  1  0.77481000  0.22519000  0.87175000  1.0 -0.5176569471
O  O26  1  0.71967000  0.28033000  0.81609000  1.0 -0.5285509377
O  O27  1  0.87175000  0.12825000  0.77481000  1.0 -0.5176569471
O  O28  1  0.81609000  0.18391000  0.71967000  1.0 -0.5285509377
O  O29  1  0.12825000  0.87175000  0.22519000  1.0 -0.5176569471
O  O30  1  0.18391000  0.81609000  0.28033000  1.0 -0.5285509377
O  O31  1  0.22519000  0.77481000  0.12825000  1.0 -0.5176569471
O  O32  1  0.28033000  0.71967000  0.18391000  1.0 -0.5285509377
O  O33  1  0.12825000  0.22519000  0.77481000  1.0 -0.5176569471
O  O34  1  0.18391000  0.28033000  0.71967000  1.0 -0.5285509377
O  O35  1  0.22519000  0.12825000  0.87175000  1.0 -0.5176569471
O  O36  1  0.28033000  0.18391000  0.81609000  1.0 -0.5285509377
O  O37  1  0.77481000  0.87175000  0.12825000  1.0 -0.5176569471
O  O38  1  0.71967000  0.81609000  0.18391000  1.0 -0.5285509377
O  O39  1  0.87175000  0.77481000  0.22519000  1.0 -0.5176569471
O  O40  1  0.81609000  0.71967000  0.28033000  1.0 -0.5285509377
O  O41  1  0.87175000  0.22519000  0.12825000  1.0 -0.5176569471
O  O42  1  0.81609000  0.28033000  0.18391000  1.0 -0.5285509377
O  O43  1  0.77481000  0.12825000  0.22519000  1.0 -0.5176569471
O  O44  1  0.71967000  0.18391000  0.28033000  1.0 -0.5285509377
O  O45  1  0.22519000  0.87175000  0.77481000  1.0 -0.5176569471
O  O46  1  0.28033000  0.81609000  0.71967000  1.0 -0.5285509377
O  O47  1  0.12825000  0.77481000  0.87175000  1.0 -0.5176569471
O  O48  1  0.18391000  0.71967000  0.81609000  1.0 -0.5285509377
