# DDEC6 charges by PACMAN v1.1 (https://github.com/mtap-research/PACMAN-charge/)
data_FIVYEP_ASR_pacman
_symmetry_space_group_name_H-M   'P 1'
_cell_length_a   12.06820000
_cell_length_b   12.06820000
_cell_length_c   14.61400000
_cell_angle_alpha   86.17390000
_cell_angle_beta   93.82610000
_cell_angle_gamma   115.71600000
_symmetry_Int_Tables_number   1
_chemical_formula_structural   KMgU(CO2)7
_chemical_formula_sum   'K4 Mg4 U4 C28 O56'
_cell_volume   1911.63432472
_cell_formula_units_Z   4
loop_
 _symmetry_equiv_pos_site_id
 _symmetry_equiv_pos_as_xyz
  1  'x, y, z'
loop_
 _atom_site_type_symbol
 _atom_site_label
 _atom_site_symmetry_multiplicity
 _atom_site_fract_x
 _atom_site_fract_y
 _atom_site_fract_z
 _atom_site_occupancy
 _atom_site_charge
K  K1  1  0.06128000  0.93872000  0.40900000  1.0 0.8816387039
K  K2  1  0.93872000  0.06128000  0.59100000  1.0 0.8727892817
K  K3  1  0.21228000  0.78772000  0.56500000  1.0 0.8816387039
K  K4  1  0.78772000  0.21228000  0.43500000  1.0 0.8816387039
Mg  Mg1  1  0.36900000  0.21280000  0.43320000  1.0 0.8291322173
Mg  Mg2  1  0.21280000  0.36900000  0.56680000  1.0 0.8291322173
Mg  Mg3  1  0.63100000  0.78720000  0.56680000  1.0 0.8291322173
Mg  Mg4  1  0.78720000  0.63100000  0.43320000  1.0 0.8291322173
U  U1  1  0.55640000  0.94582000  0.21096000  1.0 2.2231906833
U  U2  1  0.94582000  0.55640000  0.78904000  1.0 2.2231906833
U  U3  1  0.44360000  0.05418000  0.78904000  1.0 2.2231906833
U  U4  1  0.05418000  0.44360000  0.21096000  1.0 2.2231906833
C  C1  1  0.51570000  0.94770000  0.98610000  1.0 0.521483037
C  C2  1  0.94770000  0.51570000  0.01390000  1.0 0.521483037
C  C3  1  0.48430000  0.05230000  0.01390000  1.0 0.521483037
C  C4  1  0.05230000  0.48430000  0.98610000  1.0 0.521483037
C  C5  1  0.38560000  0.95240000  0.37160000  1.0 0.5083462989
C  C6  1  0.95240000  0.38560000  0.62840000  1.0 0.5083462989
C  C7  1  0.61440000  0.04760000  0.62840000  1.0 0.5083462989
C  C8  1  0.04760000  0.61440000  0.37160000  1.0 0.5083462989
C  C9  1  0.43510000  0.85930000  0.40940000  1.0 0.4996770502
C  C10  1  0.85930000  0.43510000  0.59060000  1.0 0.4996770502
C  C11  1  0.56490000  0.14070000  0.59060000  1.0 0.4996770502
C  C12  1  0.14070000  0.56490000  0.40940000  1.0 0.4996770502
C  C13  1  0.05450000  0.22650000  0.35290000  1.0 0.4939936182
C  C14  1  0.22650000  0.05450000  0.64710000  1.0 0.4939936182
C  C15  1  0.94550000  0.77350000  0.64710000  1.0 0.4939936182
C  C16  1  0.77350000  0.94550000  0.35290000  1.0 0.4939936182
C  C17  1  0.13300000  0.22260000  0.27610000  1.0 0.5083462989
C  C18  1  0.22260000  0.13300000  0.72390000  1.0 0.5083462989
C  C19  1  0.86700000  0.77740000  0.72390000  1.0 0.5083462989
C  C20  1  0.77740000  0.86700000  0.27610000  1.0 0.5083462989
C  C21  1  0.81190000  0.18810000  0.14870000  1.0 0.5083462989
C  C22  1  0.18810000  0.81190000  0.85130000  1.0 0.5083462989
C  C23  1  0.34600000  0.65400000  0.18620000  1.0 0.5083462989
C  C24  1  0.65400000  0.34600000  0.81380000  1.0 0.5083462989
C  C25  1  0.27080000  0.72920000  0.17380000  1.0 0.5083462989
C  C26  1  0.72920000  0.27080000  0.82620000  1.0 0.5083462989
C  C27  1  0.75810000  0.24190000  0.21590000  1.0 0.4939936182
C  C28  1  0.24190000  0.75810000  0.78410000  1.0 0.4939936182
O  O1  1  0.17660000  0.14680000  0.28270000  1.0 -0.5314298291
O  O2  1  0.14680000  0.17660000  0.71730000  1.0 -0.5353416919
O  O3  1  0.82340000  0.85320000  0.71730000  1.0 -0.5353416919
O  O4  1  0.85320000  0.82340000  0.28270000  1.0 -0.5314298291
O  O5  1  0.05740000  0.17520000  0.42830000  1.0 -0.5826354443
O  O6  1  0.17520000  0.05740000  0.57170000  1.0 -0.5826354443
O  O7  1  0.94260000  0.82480000  0.57170000  1.0 -0.5826354443
O  O8  1  0.82480000  0.94260000  0.42830000  1.0 -0.5826354443
O  O9  1  0.42700000  0.82460000  0.49110000  1.0 -0.5314298291
O  O10  1  0.82460000  0.42700000  0.50890000  1.0 -0.5314298291
O  O11  1  0.57300000  0.17540000  0.50890000  1.0 -0.5314298291
O  O12  1  0.17540000  0.57300000  0.49110000  1.0 -0.5314298291
O  O13  1  0.30330000  0.96310000  0.41090000  1.0 -0.5826354443
O  O14  1  0.96310000  0.30330000  0.58910000  1.0 -0.5826354443
O  O15  1  0.69670000  0.03690000  0.58910000  1.0 -0.5826354443
O  O16  1  0.03690000  0.69670000  0.41090000  1.0 -0.5826354443
O  O17  1  0.46100000  0.71400000  0.19020000  1.0 -0.4848613261
O  O18  1  0.71400000  0.46100000  0.80980000  1.0 -0.4853873669
O  O19  1  0.53900000  0.28600000  0.80980000  1.0 -0.4848613261
O  O20  1  0.28600000  0.53900000  0.19020000  1.0 -0.4848613261
O  O21  1  0.54350000  0.88870000  0.04980000  1.0 -0.4991764221
O  O22  1  0.88870000  0.54350000  0.95020000  1.0 -0.4991764221
O  O23  1  0.45650000  0.11130000  0.95020000  1.0 -0.4991764221
O  O24  1  0.11130000  0.45650000  0.04980000  1.0 -0.4991764221
O  O25  1  0.51010000  0.93030000  0.90210000  1.0 -0.4991764221
O  O26  1  0.93030000  0.51010000  0.09790000  1.0 -0.4991764221
O  O27  1  0.48990000  0.06970000  0.09790000  1.0 -0.4991764221
O  O28  1  0.06970000  0.48990000  0.90210000  1.0 -0.4991764221
O  O29  1  0.65200000  0.17440000  0.24120000  1.0 -0.5189742266
O  O30  1  0.17440000  0.65200000  0.75880000  1.0 -0.5189742266
O  O31  1  0.34800000  0.82560000  0.75880000  1.0 -0.5115315479
O  O32  1  0.82560000  0.34800000  0.24120000  1.0 -0.5189742266
O  O33  1  0.33020000  0.84340000  0.16950000  1.0 -0.5115315479
O  O34  1  0.84340000  0.33020000  0.83050000  1.0 -0.5115315479
O  O35  1  0.66980000  0.15660000  0.83050000  1.0 -0.5115315479
O  O36  1  0.15660000  0.66980000  0.16950000  1.0 -0.5115315479
O  O37  1  0.43760000  0.01220000  0.29990000  1.0 -0.5189742266
O  O38  1  0.01220000  0.43760000  0.70010000  1.0 -0.5189742266
O  O39  1  0.56240000  0.98780000  0.70010000  1.0 -0.5189742266
O  O40  1  0.98780000  0.56240000  0.29990000  1.0 -0.5189742266
O  O41  1  0.14660000  0.30120000  0.21040000  1.0 -0.4991764221
O  O42  1  0.30120000  0.14660000  0.78960000  1.0 -0.4991764221
O  O43  1  0.85340000  0.69880000  0.78960000  1.0 -0.4991764221
O  O44  1  0.69880000  0.85340000  0.21040000  1.0 -0.4991764221
O  O45  1  0.48300000  0.82580000  0.34790000  1.0 -0.5826354443
O  O46  1  0.82580000  0.48300000  0.65210000  1.0 -0.5860113918
O  O47  1  0.51700000  0.17420000  0.65210000  1.0 -0.5826354443
O  O48  1  0.17420000  0.51700000  0.34790000  1.0 -0.5826354443
O  O49  1  0.74500000  0.08080000  0.12470000  1.0 -0.5189742266
O  O50  1  0.08080000  0.74500000  0.87530000  1.0 -0.5115315479
O  O51  1  0.25500000  0.91920000  0.87530000  1.0 -0.5115315479
O  O52  1  0.91920000  0.25500000  0.12470000  1.0 -0.5189742266
O  O53  1  0.99130000  0.28610000  0.33010000  1.0 -0.614151579
O  O54  1  0.28610000  0.99130000  0.66990000  1.0 -0.614151579
O  O55  1  0.00870000  0.71390000  0.66990000  1.0 -0.614151579
O  O56  1  0.71390000  0.00870000  0.33010000  1.0 -0.614151579
