# DDEC6 charges by PACMAN v1.1 (https://github.com/mtap-research/PACMAN-charge/)
data_FIWGIE01_ASR_pacman
_symmetry_space_group_name_H-M   'P 1'
_cell_length_a   16.61500000
_cell_length_b   16.89800000
_cell_length_c   19.18800000
_cell_angle_alpha   80.34600000
_cell_angle_beta   112.57900000
_cell_angle_gamma   118.04600000
_symmetry_Int_Tables_number   1
_chemical_formula_structural   Cd3H42C66(NO7)2
_chemical_formula_sum   'Cd6 H84 C132 N4 O28'
_cell_volume   4389.62785527
_cell_formula_units_Z   2
loop_
 _symmetry_equiv_pos_site_id
 _symmetry_equiv_pos_as_xyz
  1  'x, y, z'
loop_
 _atom_site_type_symbol
 _atom_site_label
 _atom_site_symmetry_multiplicity
 _atom_site_fract_x
 _atom_site_fract_y
 _atom_site_fract_z
 _atom_site_occupancy
 _atom_site_charge
Cd  Cd1  1  0.71350000  0.94887000  0.06951000  1.0 0.9024234675
Cd  Cd2  1  0.79130000  0.82777000  0.25707000  1.0 1.0372153185
Cd  Cd3  1  0.87091000  0.70663000  0.44349000  1.0 0.8497326039
Cd  Cd4  1  0.28650000  0.05113000  0.93049000  1.0 0.9024234675
Cd  Cd5  1  0.20870000  0.17223000  0.74293000  1.0 1.0372153185
Cd  Cd6  1  0.12909000  0.29337000  0.55651000  1.0 0.8497326039
H  H1  1  0.65710000  0.95940000  0.89150000  1.0 0.1106358812
H  H2  1  0.53020000  0.94660000  0.77730000  1.0 0.1316731808
H  H3  1  0.35630000  0.87930000  0.90140000  1.0 0.1425955034
H  H4  1  0.49100000  0.89480000  0.00850000  1.0 0.1019065774
H  H5  1  0.36220000  0.94650000  0.71900000  1.0 0.1019065774
H  H6  1  0.29770000  0.92290000  0.77060000  1.0 0.1189010433
H  H7  1  0.26920000  0.76880000  0.77050000  1.0 0.1106358812
H  H8  1  0.32380000  0.79530000  0.71140000  1.0 0.1106358812
H  H9  1  0.19620000  0.91290000  0.65180000  1.0 0.1316731808
H  H10  1  0.05580000  0.87240000  0.53720000  1.0 0.1019065774
H  H11  1  0.99900000  0.62090000  0.56660000  1.0 0.0916958116
H  H12  1  0.14340000  0.65250000  0.66520000  1.0 0.1425955034
H  H13  1  0.47870000  0.66990000  0.21490000  1.0 0.1189010433
H  H14  1  0.31600000  0.60070000  0.21000000  1.0 0.1106358812
H  H15  1  0.27870000  0.81190000  0.09760000  1.0 0.1106358812
H  H16  1  0.44170000  0.88220000  0.10430000  1.0 0.1019065774
H  H17  1  0.84750000  0.22930000  0.18370000  1.0 0.1189010433
H  H18  1  0.91770000  0.38940000  0.19550000  1.0 0.1106358812
H  H19  1  0.03110000  0.39970000  0.04010000  1.0 0.1106358812
H  H20  1  0.93940000  0.24210000  0.02290000  1.0 0.1189010433
H  H21  1  0.97140000  0.86460000  0.19160000  1.0 0.1106358812
H  H22  1  0.06740000  0.79010000  0.20190000  1.0 0.1106358812
H  H23  1  0.85200000  0.62840000  0.02280000  1.0 0.1189010433
H  H24  1  0.76890000  0.71080000  0.00630000  1.0 0.1106358812
H  H25  1  0.16150000  0.52590000  0.12840000  1.0 0.1106358812
H  H26  1  0.91200000  0.52840000  0.11040000  1.0 0.1189010433
H  H27  1  0.15930000  0.76290000  0.13760000  1.0 0.1189010433
H  H28  1  0.61390000  0.79680000  0.32510000  1.0 0.1189010433
H  H29  1  0.51990000  0.86580000  0.31810000  1.0 0.1189010433
H  H30  1  0.72440000  0.01540000  0.49970000  1.0 0.1106358812
H  H31  1  0.81700000  0.93770000  0.51650000  1.0 0.1189010433
H  H32  1  0.10480000  0.99020000  0.30080000  1.0 0.1316731808
H  H33  1  0.26080000  0.05510000  0.30700000  1.0 0.1189010433
H  H34  1  0.29260000  0.83810000  0.41360000  1.0 0.1106358812
H  H35  1  0.13340000  0.77220000  0.40570000  1.0 0.1189010433
H  H36  1  0.82490000  0.40790000  0.48430000  1.0 0.1019065774
H  H37  1  0.74130000  0.25140000  0.47400000  1.0 0.1106358812
H  H38  1  0.49640000  0.26830000  0.33090000  1.0 0.1189010433
H  H39  1  0.58010000  0.42490000  0.34120000  1.0 0.1106358812
H  H40  1  0.42170000  0.89570000  0.36950000  1.0 0.1189010433
H  H41  1  0.42150000  0.13160000  0.37790000  1.0 0.1106358812
H  H42  1  0.67550000  0.12230000  0.42360000  1.0 0.1019065774
H  H43  1  0.34290000  0.04060000  0.10850000  1.0 0.1106358812
H  H44  1  0.46980000  0.05340000  0.22270000  1.0 0.1316731808
H  H45  1  0.64370000  0.12070000  0.09860000  1.0 0.1425955034
H  H46  1  0.50900000  0.10520000  0.99150000  1.0 0.1019065774
H  H47  1  0.63780000  0.05350000  0.28100000  1.0 0.1019065774
H  H48  1  0.70230000  0.07710000  0.22940000  1.0 0.1189010433
H  H49  1  0.73080000  0.23120000  0.22950000  1.0 0.1106358812
H  H50  1  0.67620000  0.20470000  0.28860000  1.0 0.1106358812
H  H51  1  0.80380000  0.08710000  0.34820000  1.0 0.1316731808
H  H52  1  0.94420000  0.12760000  0.46280000  1.0 0.1019065774
H  H53  1  0.00100000  0.37910000  0.43340000  1.0 0.0916958116
H  H54  1  0.85660000  0.34750000  0.33480000  1.0 0.1425955034
H  H55  1  0.52130000  0.33010000  0.78510000  1.0 0.1189010433
H  H56  1  0.68400000  0.39930000  0.79000000  1.0 0.1106358812
H  H57  1  0.72130000  0.18810000  0.90240000  1.0 0.1106358812
H  H58  1  0.55830000  0.11780000  0.89570000  1.0 0.1019065774
H  H59  1  0.15250000  0.77070000  0.81630000  1.0 0.1189010433
H  H60  1  0.08230000  0.61060000  0.80450000  1.0 0.1106358812
H  H61  1  0.96890000  0.60030000  0.95990000  1.0 0.1106358812
H  H62  1  0.06060000  0.75790000  0.97710000  1.0 0.1189010433
H  H63  1  0.02860000  0.13540000  0.80840000  1.0 0.1106358812
H  H64  1  0.93260000  0.20990000  0.79810000  1.0 0.1106358812
H  H65  1  0.14800000  0.37160000  0.97720000  1.0 0.1189010433
H  H66  1  0.23110000  0.28920000  0.99370000  1.0 0.1106358812
H  H67  1  0.83850000  0.47410000  0.87160000  1.0 0.1106358812
H  H68  1  0.08800000  0.47160000  0.88960000  1.0 0.1189010433
H  H69  1  0.84070000  0.23710000  0.86240000  1.0 0.1189010433
H  H70  1  0.38610000  0.20320000  0.67490000  1.0 0.1189010433
H  H71  1  0.48010000  0.13420000  0.68190000  1.0 0.1189010433
H  H72  1  0.27560000  0.98460000  0.50030000  1.0 0.1106358812
H  H73  1  0.18300000  0.06230000  0.48350000  1.0 0.1189010433
H  H74  1  0.89520000  0.00980000  0.69920000  1.0 0.1316731808
H  H75  1  0.73920000  0.94490000  0.69300000  1.0 0.1189010433
H  H76  1  0.70740000  0.16190000  0.58640000  1.0 0.1106358812
H  H77  1  0.86660000  0.22780000  0.59430000  1.0 0.1189010433
H  H78  1  0.17510000  0.59210000  0.51570000  1.0 0.1019065774
H  H79  1  0.25870000  0.74860000  0.52600000  1.0 0.1106358812
H  H80  1  0.50360000  0.73170000  0.66910000  1.0 0.1189010433
H  H81  1  0.41990000  0.57510000  0.65880000  1.0 0.1106358812
H  H82  1  0.57830000  0.10430000  0.63050000  1.0 0.1189010433
H  H83  1  0.57850000  0.86840000  0.62210000  1.0 0.1106358812
H  H84  1  0.32450000  0.87770000  0.57640000  1.0 0.1019065774
C  C1  1  0.59510000  0.94400000  0.89340000  1.0 0.1019065774
C  C2  1  0.52060000  0.93700000  0.82430000  1.0 -0.219886262
C  C3  1  0.42920000  0.91440000  0.82980000  1.0 0.1719391458
C  C4  1  0.41780000  0.89730000  0.89730000  1.0 -0.1793604195
C  C5  1  0.49870000  0.90660000  0.96070000  1.0 0.0330351069
C  C6  1  0.33990000  0.90560000  0.75820000  1.0 -0.2418479361
C  C7  1  0.28210000  0.80900000  0.72810000  1.0 -0.2418479361
C  C8  1  0.18980000  0.78700000  0.66610000  1.0 0.1555007361
C  C9  1  0.16000000  0.85310000  0.63240000  1.0 -0.2012703791
C  C10  1  0.07130000  0.82690000  0.56650000  1.0 0.1106358812
C  C11  1  0.04100000  0.68170000  0.58250000  1.0 0.0643163137
C  C12  1  0.12720000  0.69980000  0.64160000  1.0 -0.2090506442
C  C13  1  0.58150000  0.82830000  0.16460000  1.0 0.5686093829
C  C14  1  0.47920000  0.78460000  0.16240000  1.0 -0.0548548289
C  C15  1  0.43920000  0.70010000  0.19160000  1.0 -0.0978675092
C  C16  1  0.34140000  0.65760000  0.18770000  1.0 -0.1608248661
C  C17  1  0.28180000  0.70110000  0.15010000  1.0 0.0807258545
C  C18  1  0.31870000  0.78240000  0.12140000  1.0 -0.1516010352
C  C19  1  0.41720000  0.82490000  0.12620000  1.0 -0.1094884935
C  C20  1  0.82840000  0.12610000  0.09220000  1.0 0.5526516102
C  C21  1  0.88050000  0.23350000  0.09960000  1.0 0.0067955125
C  C22  1  0.87910000  0.26690000  0.15020000  1.0 -0.0918649153
C  C23  1  0.92440000  0.36200000  0.16000000  1.0 -0.1793604195
C  C24  1  0.98080000  0.41390000  0.11300000  1.0 0.0686014845
C  C25  1  0.98810000  0.36740000  0.06720000  1.0 -0.1608248661
C  C26  1  0.93570000  0.27390000  0.05710000  1.0 -0.1094884935
C  C27  1  0.80540000  0.84430000  0.08830000  1.0 0.5686093829
C  C28  1  0.86130000  0.79610000  0.09790000  1.0 -0.070239828
C  C29  1  0.94860000  0.81890000  0.15620000  1.0 -0.0918649153
C  C30  1  0.00530000  0.77270000  0.16320000  1.0 -0.1516010352
C  C31  1  0.96970000  0.70220000  0.11350000  1.0 0.0807258545
C  C32  1  0.87850000  0.67760000  0.05570000  1.0 -0.1608248661
C  C33  1  0.82850000  0.72540000  0.04760000  1.0 -0.070239828
C  C34  1  0.17540000  0.65320000  0.13980000  1.0 0.0916958116
C  C35  1  0.12710000  0.55740000  0.12900000  1.0 -0.2090506442
C  C36  1  0.03010000  0.51300000  0.11960000  1.0 0.0807258545
C  C37  1  0.97920000  0.56010000  0.11680000  1.0 -0.2012703791
C  C38  1  0.02520000  0.65220000  0.12330000  1.0 0.0807258545
C  C39  1  0.12680000  0.69930000  0.13430000  1.0 -0.1944598295
C  C40  1  0.78310000  0.81230000  0.42530000  1.0 0.560238149
C  C41  1  0.72610000  0.86270000  0.42130000  1.0 -0.0152841853
C  C42  1  0.63640000  0.84070000  0.36190000  1.0 -0.1094884935
C  C43  1  0.58170000  0.88260000  0.35720000  1.0 -0.1389851757
C  C44  1  0.61390000  0.94810000  0.40770000  1.0 0.0686014845
C  C45  1  0.70120000  0.96900000  0.46490000  1.0 -0.1608248661
C  C46  1  0.75840000  0.92470000  0.47450000  1.0 -0.0978675092
C  C47  1  0.99940000  0.83540000  0.34950000  1.0 0.560238149
C  C48  1  0.10300000  0.87560000  0.35330000  1.0 -0.040068036
C  C49  1  0.14360000  0.95950000  0.32460000  1.0 -0.0978675092
C  C50  1  0.23660000  0.99840000  0.32980000  1.0 -0.1516010352
C  C51  1  0.30110000  0.95970000  0.36740000  1.0 0.0686014845
C  C52  1  0.25540000  0.87060000  0.39230000  1.0 -0.1608248661
C  C53  1  0.16070000  0.83080000  0.38670000  1.0 -0.0978675092
C  C54  1  0.76360000  0.52530000  0.42120000  1.0 0.3724745773
C  C55  1  0.71030000  0.43110000  0.41370000  1.0 -0.0978675092
C  C56  1  0.75820000  0.37960000  0.45320000  1.0 -0.0918649153
C  C57  1  0.70850000  0.28660000  0.44700000  1.0 -0.1608248661
C  C58  1  0.61100000  0.24510000  0.40150000  1.0 0.0807258545
C  C59  1  0.56310000  0.29670000  0.36200000  1.0 -0.1608248661
C  C60  1  0.61280000  0.38970000  0.36820000  1.0 -0.0769457463
C  C61  1  0.55640000  0.99690000  0.40210000  1.0 0.0807258545
C  C62  1  0.45730000  0.95800000  0.38160000  1.0 -0.2012703791
C  C63  1  0.40500000  0.00590000  0.37760000  1.0 0.0686014845
C  C64  1  0.45590000  0.09780000  0.38350000  1.0 -0.2090506442
C  C65  1  0.55740000  0.14430000  0.39750000  1.0 0.0807258545
C  C66  1  0.60670000  0.09300000  0.40980000  1.0 -0.2012703791
C  C67  1  0.40490000  0.05600000  0.10660000  1.0 0.1019065774
C  C68  1  0.47940000  0.06300000  0.17570000  1.0 -0.219886262
C  C69  1  0.57080000  0.08560000  0.17020000  1.0 0.1719391458
C  C70  1  0.58220000  0.10270000  0.10270000  1.0 -0.1793604195
C  C71  1  0.50130000  0.09340000  0.03930000  1.0 0.0330351069
C  C72  1  0.66010000  0.09440000  0.24180000  1.0 -0.2418479361
C  C73  1  0.71790000  0.19100000  0.27190000  1.0 -0.2418479361
C  C74  1  0.81020000  0.21300000  0.33390000  1.0 0.1555007361
C  C75  1  0.84000000  0.14690000  0.36760000  1.0 -0.2012703791
C  C76  1  0.92870000  0.17310000  0.43350000  1.0 0.1106358812
C  C77  1  0.95900000  0.31830000  0.41750000  1.0 0.0686014845
C  C78  1  0.87280000  0.30020000  0.35840000  1.0 -0.2090506442
C  C79  1  0.41850000  0.17170000  0.83540000  1.0 0.5686093829
C  C80  1  0.52080000  0.21540000  0.83760000  1.0 -0.0550424755
C  C81  1  0.56080000  0.29990000  0.80840000  1.0 -0.0978675092
C  C82  1  0.65860000  0.34240000  0.81230000  1.0 -0.1608248661
C  C83  1  0.71820000  0.29890000  0.84990000  1.0 0.0807258545
C  C84  1  0.68130000  0.21760000  0.87860000  1.0 -0.1516010352
C  C85  1  0.58280000  0.17510000  0.87380000  1.0 -0.1094884935
C  C86  1  0.17160000  0.87390000  0.90780000  1.0 0.5526516102
C  C87  1  0.11950000  0.76650000  0.90040000  1.0 0.0067955125
C  C88  1  0.12090000  0.73310000  0.84980000  1.0 -0.0918649153
C  C89  1  0.07560000  0.63800000  0.84000000  1.0 -0.1793604195
C  C90  1  0.01920000  0.58610000  0.88700000  1.0 0.0686014845
C  C91  1  0.01190000  0.63260000  0.93280000  1.0 -0.1608248661
C  C92  1  0.06430000  0.72610000  0.94290000  1.0 -0.1094884935
C  C93  1  0.19460000  0.15570000  0.91170000  1.0 0.5686093829
C  C94  1  0.13870000  0.20390000  0.90210000  1.0 -0.070239828
C  C95  1  0.05140000  0.18110000  0.84380000  1.0 -0.0918649153
C  C96  1  0.99470000  0.22730000  0.83680000  1.0 -0.1516010352
C  C97  1  0.03030000  0.29780000  0.88650000  1.0 0.0807258545
C  C98  1  0.12150000  0.32240000  0.94430000  1.0 -0.1608248661
C  C99  1  0.17150000  0.27460000  0.95240000  1.0 -0.070239828
C  C100  1  0.82460000  0.34680000  0.86020000  1.0 0.0916958116
C  C101  1  0.87290000  0.44260000  0.87100000  1.0 -0.2090506442
C  C102  1  0.96990000  0.48700000  0.88040000  1.0 0.0807258545
C  C103  1  0.02080000  0.43990000  0.88320000  1.0 -0.2012703791
C  C104  1  0.97480000  0.34780000  0.87670000  1.0 0.0807258545
C  C105  1  0.87320000  0.30070000  0.86570000  1.0 -0.1944598295
C  C106  1  0.21690000  0.18770000  0.57470000  1.0 0.560238149
C  C107  1  0.27390000  0.13730000  0.57870000  1.0 -0.014975817
C  C108  1  0.36360000  0.15930000  0.63810000  1.0 -0.1094884935
C  C109  1  0.41830000  0.11740000  0.64280000  1.0 -0.1389851757
C  C110  1  0.38610000  0.05190000  0.59230000  1.0 0.0686014845
C  C111  1  0.29880000  0.03100000  0.53510000  1.0 -0.1608248661
C  C112  1  0.24160000  0.07530000  0.52550000  1.0 -0.0978675092
C  C113  1  0.00060000  0.16460000  0.65050000  1.0 0.560238149
C  C114  1  0.89700000  0.12440000  0.64670000  1.0 -0.040068036
C  C115  1  0.85640000  0.04050000  0.67540000  1.0 -0.0918649153
C  C116  1  0.76340000  0.00160000  0.67020000  1.0 -0.1516010352
C  C117  1  0.69890000  0.04030000  0.63260000  1.0 0.0686014845
C  C118  1  0.74460000  0.12940000  0.60770000  1.0 -0.1608248661
C  C119  1  0.83930000  0.16920000  0.61330000  1.0 -0.0978675092
C  C120  1  0.23640000  0.47470000  0.57880000  1.0 0.3724745773
C  C121  1  0.28970000  0.56890000  0.58630000  1.0 -0.0978675092
C  C122  1  0.24180000  0.62040000  0.54680000  1.0 -0.0918649153
C  C123  1  0.29150000  0.71340000  0.55300000  1.0 -0.1608248661
C  C124  1  0.38900000  0.75490000  0.59850000  1.0 0.0807258545
C  C125  1  0.43690000  0.70330000  0.63800000  1.0 -0.1608248661
C  C126  1  0.38720000  0.61030000  0.63180000  1.0 -0.0769457463
C  C127  1  0.44360000  0.00310000  0.59790000  1.0 0.0807258545
C  C128  1  0.54270000  0.04200000  0.61840000  1.0 -0.2012703791
C  C129  1  0.59500000  0.99410000  0.62240000  1.0 0.0686014845
C  C130  1  0.54410000  0.90220000  0.61650000  1.0 -0.2090506442
C  C131  1  0.44260000  0.85570000  0.60250000  1.0 0.0807258545
C  C132  1  0.39330000  0.90700000  0.59020000  1.0 -0.2012703791
N  N1  1  0.58790000  0.93150000  0.95850000  1.0 -0.2418479361
N  N2  1  0.01200000  0.74320000  0.54600000  1.0 -0.2608485259
N  N3  1  0.41210000  0.06850000  0.04150000  1.0 -0.2418479361
N  N4  1  0.98800000  0.25680000  0.45400000  1.0 -0.2608485259
O  O1  1  0.60980000  0.89870000  0.13210000  1.0 -0.5296977895
O  O2  1  0.63340000  0.78650000  0.20290000  1.0 -0.5931651928
O  O3  1  0.81230000  0.08940000  0.03400000  1.0 -0.5388951637
O  O4  1  0.79610000  0.07830000  0.14440000  1.0 -0.572083477
O  O5  1  0.74720000  0.84970000  0.02480000  1.0 -0.5296977895
O  O6  1  0.81610000  0.88360000  0.14530000  1.0 -0.5969332494
O  O7  1  0.76940000  0.77500000  0.37100000  1.0 -0.5296977895
O  O8  1  0.84830000  0.81310000  0.48940000  1.0 -0.5476642587
O  O9  1  0.96620000  0.75650000  0.37230000  1.0 -0.5605144836
O  O10  1  0.95300000  0.87820000  0.32180000  1.0 -0.5476642587
O  O11  1  0.82310000  0.56820000  0.48410000  1.0 -0.1157888994
O  O12  1  0.74410000  0.57690000  0.36570000  1.0 -0.1389851757
O  O13  1  0.85790000  0.56380000  0.44470000  1.0 -0.1608248661
O  O14  1  0.72780000  0.58050000  0.41500000  1.0 -0.0769457463
O  O15  1  0.39020000  0.10130000  0.86790000  1.0 -0.5296977895
O  O16  1  0.36660000  0.21350000  0.79710000  1.0 -0.5931651928
O  O17  1  0.18770000  0.91060000  0.96600000  1.0 -0.5388951637
O  O18  1  0.20390000  0.92170000  0.85560000  1.0 -0.572083477
O  O19  1  0.25280000  0.15030000  0.97520000  1.0 -0.5296977895
O  O20  1  0.18390000  0.11640000  0.85470000  1.0 -0.5969332494
O  O21  1  0.23060000  0.22500000  0.62900000  1.0 -0.5296977895
O  O22  1  0.15170000  0.18690000  0.51060000  1.0 -0.5476642587
O  O23  1  0.03380000  0.24350000  0.62770000  1.0 -0.5605144836
O  O24  1  0.04700000  0.12180000  0.67820000  1.0 -0.5476642587
O  O25  1  0.17690000  0.43180000  0.51590000  1.0 -0.1157888994
O  O26  1  0.25590000  0.42310000  0.63430000  1.0 -0.1389851757
O  O27  1  0.14210000  0.43620000  0.55530000  1.0 -0.1608248661
O  O28  1  0.27220000  0.41950000  0.58500000  1.0 -0.0769457463
