# DDEC6 charges by PACMAN v1.1 (https://github.com/mtap-research/PACMAN-charge/)
data_FIWJIG_ASR_pacman
_symmetry_space_group_name_H-M   'P 1'
_cell_length_a   21.55990000
_cell_length_b   21.55990000
_cell_length_c   12.89740000
_cell_angle_alpha   90.00000000
_cell_angle_beta   90.00000000
_cell_angle_gamma   90.00000000
_symmetry_Int_Tables_number   1
_chemical_formula_structural   Cu3H70C46(NO2)4
_chemical_formula_sum   'Cu12 H280 C184 N16 O32'
_cell_volume   5995.08925918
_cell_formula_units_Z   4
loop_
 _symmetry_equiv_pos_site_id
 _symmetry_equiv_pos_as_xyz
  1  'x, y, z'
loop_
 _atom_site_type_symbol
 _atom_site_label
 _atom_site_symmetry_multiplicity
 _atom_site_fract_x
 _atom_site_fract_y
 _atom_site_fract_z
 _atom_site_occupancy
 _atom_site_charge
Cu  Cu1  1  0.20947000  0.20947000  0.50000000  1.0 0.6916419291
Cu  Cu2  1  0.70947000  0.29053000  0.50000000  1.0 0.6916419291
Cu  Cu3  1  0.79053000  0.79053000  0.50000000  1.0 0.6916419291
Cu  Cu4  1  0.29053000  0.70947000  0.50000000  1.0 0.6916419291
Cu  Cu5  1  0.31314000  0.05812000  0.68584000  1.0 0.7865331941
Cu  Cu6  1  0.55812000  0.18686000  0.68584000  1.0 0.7865331941
Cu  Cu7  1  0.68686000  0.94188000  0.68584000  1.0 0.7865331941
Cu  Cu8  1  0.44188000  0.81314000  0.68584000  1.0 0.7865331941
Cu  Cu9  1  0.18686000  0.55812000  0.31416000  1.0 0.7865331941
Cu  Cu10  1  0.81314000  0.44188000  0.31416000  1.0 0.7865331941
Cu  Cu11  1  0.05812000  0.31314000  0.31416000  1.0 0.7865331941
Cu  Cu12  1  0.94188000  0.68686000  0.31416000  1.0 0.7865331941
H  H1  1  0.19350000  0.16320000  0.32430000  1.0 0.2609595233
H  H2  1  0.66320000  0.30650000  0.32430000  1.0 0.2609595233
H  H3  1  0.80650000  0.83680000  0.32430000  1.0 0.2609595233
H  H4  1  0.33680000  0.69350000  0.32430000  1.0 0.2609595233
H  H5  1  0.30650000  0.66320000  0.67570000  1.0 0.2609595233
H  H6  1  0.69350000  0.33680000  0.67570000  1.0 0.2609595233
H  H7  1  0.16320000  0.19350000  0.67570000  1.0 0.2609595233
H  H8  1  0.83680000  0.80650000  0.67570000  1.0 0.2609595233
H  H9  1  0.28200000  0.12130000  0.83270000  1.0 0.2399010235
H  H10  1  0.62130000  0.21800000  0.83270000  1.0 0.2399010235
H  H11  1  0.71800000  0.87870000  0.83270000  1.0 0.2399010235
H  H12  1  0.37870000  0.78200000  0.83270000  1.0 0.2399010235
H  H13  1  0.21800000  0.62130000  0.16730000  1.0 0.2399010235
H  H14  1  0.78200000  0.37870000  0.16730000  1.0 0.2399010235
H  H15  1  0.12130000  0.28200000  0.16730000  1.0 0.2399010235
H  H16  1  0.87870000  0.71800000  0.16730000  1.0 0.2399010235
H  H17  1  0.27300000  0.07930000  0.34520000  1.0 0.1100111196
H  H18  1  0.57930000  0.22700000  0.34520000  1.0 0.1100111196
H  H19  1  0.72700000  0.92070000  0.34520000  1.0 0.1100111196
H  H20  1  0.42070000  0.77300000  0.34520000  1.0 0.1100111196
H  H21  1  0.22700000  0.57930000  0.65480000  1.0 0.1100111196
H  H22  1  0.77300000  0.42070000  0.65480000  1.0 0.1100111196
H  H23  1  0.07930000  0.27300000  0.65480000  1.0 0.1100111196
H  H24  1  0.92070000  0.72700000  0.65480000  1.0 0.1100111196
H  H25  1  0.27080000  0.23530000  0.28940000  1.0 0.1100111196
H  H26  1  0.73530000  0.22920000  0.28940000  1.0 0.1100111196
H  H27  1  0.72920000  0.76470000  0.28940000  1.0 0.1100111196
H  H28  1  0.26470000  0.77080000  0.28940000  1.0 0.1100111196
H  H29  1  0.22920000  0.73530000  0.71060000  1.0 0.1100111196
H  H30  1  0.77080000  0.26470000  0.71060000  1.0 0.1100111196
H  H31  1  0.23530000  0.27080000  0.71060000  1.0 0.1100111196
H  H32  1  0.76470000  0.72920000  0.71060000  1.0 0.1100111196
H  H33  1  0.31910000  0.19000000  0.34550000  1.0 0.1100111196
H  H34  1  0.69000000  0.18090000  0.34550000  1.0 0.1100111196
H  H35  1  0.68090000  0.81000000  0.34550000  1.0 0.1100111196
H  H36  1  0.31000000  0.81910000  0.34550000  1.0 0.1100111196
H  H37  1  0.18090000  0.69000000  0.65450000  1.0 0.1100111196
H  H38  1  0.81910000  0.31000000  0.65450000  1.0 0.1100111196
H  H39  1  0.19000000  0.31910000  0.65450000  1.0 0.1100111196
H  H40  1  0.81000000  0.68090000  0.65450000  1.0 0.1100111196
H  H41  1  0.20790000  0.17510000  0.13790000  1.0 0.1100111196
H  H42  1  0.67510000  0.29210000  0.13790000  1.0 0.1100111196
H  H43  1  0.79210000  0.82490000  0.13790000  1.0 0.1100111196
H  H44  1  0.32490000  0.70790000  0.13790000  1.0 0.1100111196
H  H45  1  0.29210000  0.67510000  0.86210000  1.0 0.1100111196
H  H46  1  0.70790000  0.32490000  0.86210000  1.0 0.1100111196
H  H47  1  0.17510000  0.20790000  0.86210000  1.0 0.1100111196
H  H48  1  0.82490000  0.79210000  0.86210000  1.0 0.1100111196
H  H49  1  0.22180000  0.11920000  0.98870000  1.0 0.1100111196
H  H50  1  0.61920000  0.27820000  0.98870000  1.0 0.1100111196
H  H51  1  0.77820000  0.88080000  0.98870000  1.0 0.1100111196
H  H52  1  0.38080000  0.72180000  0.98870000  1.0 0.1100111196
H  H53  1  0.27820000  0.61920000  0.01130000  1.0 0.1100111196
H  H54  1  0.72180000  0.38080000  0.01130000  1.0 0.1100111196
H  H55  1  0.11920000  0.22180000  0.01130000  1.0 0.1100111196
H  H56  1  0.88080000  0.77820000  0.01130000  1.0 0.1100111196
H  H57  1  0.39490000  0.07610000  0.08070000  1.0 0.1198084987
H  H58  1  0.57610000  0.10510000  0.08070000  1.0 0.1198084987
H  H59  1  0.60510000  0.92390000  0.08070000  1.0 0.1198084987
H  H60  1  0.42390000  0.89490000  0.08070000  1.0 0.1198084987
H  H61  1  0.10510000  0.57610000  0.91930000  1.0 0.1198084987
H  H62  1  0.89490000  0.42390000  0.91930000  1.0 0.1198084987
H  H63  1  0.07610000  0.39490000  0.91930000  1.0 0.1198084987
H  H64  1  0.92390000  0.60510000  0.91930000  1.0 0.1198084987
H  H65  1  0.37980000  0.13130000  0.23050000  1.0 0.1306483285
H  H66  1  0.63130000  0.12020000  0.23050000  1.0 0.1306483285
H  H67  1  0.62020000  0.86870000  0.23050000  1.0 0.1306483285
H  H68  1  0.36870000  0.87980000  0.23050000  1.0 0.1306483285
H  H69  1  0.12020000  0.63130000  0.76950000  1.0 0.1306483285
H  H70  1  0.87980000  0.36870000  0.76950000  1.0 0.1306483285
H  H71  1  0.13130000  0.37980000  0.76950000  1.0 0.1306483285
H  H72  1  0.86870000  0.62020000  0.76950000  1.0 0.1306483285
H  H73  1  0.39230000  0.14120000  0.89320000  1.0 0.0901944087
H  H74  1  0.64120000  0.10770000  0.89320000  1.0 0.0901944087
H  H75  1  0.60770000  0.85880000  0.89320000  1.0 0.0901944087
H  H76  1  0.35880000  0.89230000  0.89320000  1.0 0.0901944087
H  H77  1  0.10770000  0.64120000  0.10680000  1.0 0.0901944087
H  H78  1  0.89230000  0.35880000  0.10680000  1.0 0.0901944087
H  H79  1  0.14120000  0.39230000  0.10680000  1.0 0.0901944087
H  H80  1  0.85880000  0.60770000  0.10680000  1.0 0.0901944087
H  H81  1  0.30400000  0.21280000  0.85340000  1.0 0.0901944087
H  H82  1  0.71280000  0.19600000  0.85340000  1.0 0.0901944087
H  H83  1  0.69600000  0.78720000  0.85340000  1.0 0.0901944087
H  H84  1  0.28720000  0.80400000  0.85340000  1.0 0.0901944087
H  H85  1  0.19600000  0.71280000  0.14660000  1.0 0.0901944087
H  H86  1  0.80400000  0.28720000  0.14660000  1.0 0.0901944087
H  H87  1  0.21280000  0.30400000  0.14660000  1.0 0.0901944087
H  H88  1  0.78720000  0.69600000  0.14660000  1.0 0.0901944087
H  H89  1  0.33210000  0.21590000  0.73910000  1.0 0.1100111196
H  H90  1  0.71590000  0.16790000  0.73910000  1.0 0.1100111196
H  H91  1  0.66790000  0.78410000  0.73910000  1.0 0.1100111196
H  H92  1  0.28410000  0.83210000  0.73910000  1.0 0.1100111196
H  H93  1  0.16790000  0.71590000  0.26090000  1.0 0.1100111196
H  H94  1  0.83210000  0.28410000  0.26090000  1.0 0.1100111196
H  H95  1  0.21590000  0.33210000  0.26090000  1.0 0.1100111196
H  H96  1  0.78410000  0.66790000  0.26090000  1.0 0.1100111196
H  H97  1  0.42480000  0.25770000  0.80780000  1.0 0.0531328003
H  H98  1  0.75770000  0.07520000  0.80780000  1.0 0.0531328003
H  H99  1  0.57520000  0.74230000  0.80780000  1.0 0.0531328003
H  H100  1  0.24230000  0.92480000  0.80780000  1.0 0.0531328003
H  H101  1  0.07520000  0.75770000  0.19220000  1.0 0.0531328003
H  H102  1  0.92480000  0.24230000  0.19220000  1.0 0.0531328003
H  H103  1  0.25770000  0.42480000  0.19220000  1.0 0.0531328003
H  H104  1  0.74230000  0.57520000  0.19220000  1.0 0.0531328003
H  H105  1  0.42590000  0.29790000  0.97570000  1.0 0.1306483285
H  H106  1  0.79790000  0.07410000  0.97570000  1.0 0.1306483285
H  H107  1  0.57410000  0.70210000  0.97570000  1.0 0.1306483285
H  H108  1  0.20210000  0.92590000  0.97570000  1.0 0.1306483285
H  H109  1  0.07410000  0.79790000  0.02430000  1.0 0.1306483285
H  H110  1  0.92590000  0.20210000  0.02430000  1.0 0.1306483285
H  H111  1  0.29790000  0.42590000  0.02430000  1.0 0.1306483285
H  H112  1  0.70210000  0.57410000  0.02430000  1.0 0.1306483285
H  H113  1  0.36000000  0.26660000  0.99870000  1.0 0.1306483285
H  H114  1  0.76660000  0.14000000  0.99870000  1.0 0.1306483285
H  H115  1  0.64000000  0.73340000  0.99870000  1.0 0.1306483285
H  H116  1  0.23340000  0.86000000  0.99870000  1.0 0.1306483285
H  H117  1  0.14000000  0.76660000  0.00130000  1.0 0.1306483285
H  H118  1  0.86000000  0.23340000  0.00130000  1.0 0.1306483285
H  H119  1  0.26660000  0.36000000  0.00130000  1.0 0.1306483285
H  H120  1  0.73340000  0.64000000  0.00130000  1.0 0.1306483285
H  H121  1  0.41950000  0.22390000  0.97830000  1.0 0.1100111196
H  H122  1  0.72390000  0.08050000  0.97830000  1.0 0.1100111196
H  H123  1  0.58050000  0.77610000  0.97830000  1.0 0.1100111196
H  H124  1  0.27610000  0.91950000  0.97830000  1.0 0.1100111196
H  H125  1  0.08050000  0.72390000  0.02170000  1.0 0.1100111196
H  H126  1  0.91950000  0.27610000  0.02170000  1.0 0.1100111196
H  H127  1  0.22390000  0.41950000  0.02170000  1.0 0.1100111196
H  H128  1  0.77610000  0.58050000  0.02170000  1.0 0.1100111196
H  H129  1  0.38370000  0.35750000  0.83390000  1.0 0.1306483285
H  H130  1  0.85750000  0.11630000  0.83390000  1.0 0.1306483285
H  H131  1  0.61630000  0.64250000  0.83390000  1.0 0.1306483285
H  H132  1  0.14250000  0.88370000  0.83390000  1.0 0.1306483285
H  H133  1  0.11630000  0.85750000  0.16610000  1.0 0.1306483285
H  H134  1  0.88370000  0.14250000  0.16610000  1.0 0.1306483285
H  H135  1  0.35750000  0.38370000  0.16610000  1.0 0.1306483285
H  H136  1  0.64250000  0.61630000  0.16610000  1.0 0.1306483285
H  H137  1  0.35190000  0.32390000  0.73690000  1.0 0.1198084987
H  H138  1  0.82390000  0.14810000  0.73690000  1.0 0.1198084987
H  H139  1  0.64810000  0.67610000  0.73690000  1.0 0.1198084987
H  H140  1  0.17610000  0.85190000  0.73690000  1.0 0.1198084987
H  H141  1  0.14810000  0.82390000  0.26310000  1.0 0.1198084987
H  H142  1  0.85190000  0.17610000  0.26310000  1.0 0.1198084987
H  H143  1  0.32390000  0.35190000  0.26310000  1.0 0.1198084987
H  H144  1  0.67610000  0.64810000  0.26310000  1.0 0.1198084987
H  H145  1  0.31580000  0.32840000  0.84510000  1.0 0.1198084987
H  H146  1  0.82840000  0.18420000  0.84510000  1.0 0.1198084987
H  H147  1  0.68420000  0.67160000  0.84510000  1.0 0.1198084987
H  H148  1  0.17160000  0.81580000  0.84510000  1.0 0.1198084987
H  H149  1  0.18420000  0.82840000  0.15490000  1.0 0.1198084987
H  H150  1  0.81580000  0.17160000  0.15490000  1.0 0.1198084987
H  H151  1  0.32840000  0.31580000  0.15490000  1.0 0.1198084987
H  H152  1  0.67160000  0.68420000  0.15490000  1.0 0.1198084987
H  H153  1  0.28650000  0.02460000  0.90980000  1.0 0.1100111196
H  H154  1  0.52460000  0.21350000  0.90980000  1.0 0.1100111196
H  H155  1  0.71350000  0.97540000  0.90980000  1.0 0.1100111196
H  H156  1  0.47540000  0.78650000  0.90980000  1.0 0.1100111196
H  H157  1  0.21350000  0.52460000  0.09020000  1.0 0.1100111196
H  H158  1  0.78650000  0.47540000  0.09020000  1.0 0.1100111196
H  H159  1  0.02460000  0.28650000  0.09020000  1.0 0.1100111196
H  H160  1  0.97540000  0.71350000  0.09020000  1.0 0.1100111196
H  H161  1  0.35980000  0.03470000  0.92000000  1.0 0.1100111196
H  H162  1  0.53470000  0.14020000  0.92000000  1.0 0.1100111196
H  H163  1  0.64020000  0.96530000  0.92000000  1.0 0.1100111196
H  H164  1  0.46530000  0.85980000  0.92000000  1.0 0.1100111196
H  H165  1  0.14020000  0.53470000  0.08000000  1.0 0.1100111196
H  H166  1  0.85980000  0.46530000  0.08000000  1.0 0.1100111196
H  H167  1  0.03470000  0.35980000  0.08000000  1.0 0.1100111196
H  H168  1  0.96530000  0.64020000  0.08000000  1.0 0.1100111196
H  H169  1  0.15090000  0.05640000  0.25440000  1.0 0.0688253013
H  H170  1  0.55640000  0.34910000  0.25440000  1.0 0.0688253013
H  H171  1  0.84910000  0.94360000  0.25440000  1.0 0.0688253013
H  H172  1  0.44360000  0.65090000  0.25440000  1.0 0.0688253013
H  H173  1  0.34910000  0.55640000  0.74560000  1.0 0.0688253013
H  H174  1  0.65090000  0.44360000  0.74560000  1.0 0.0688253013
H  H175  1  0.05640000  0.15090000  0.74560000  1.0 0.0688253013
H  H176  1  0.94360000  0.84910000  0.74560000  1.0 0.0688253013
H  H177  1  0.23780000  0.96010000  0.28770000  1.0 0.0199003453
H  H178  1  0.46010000  0.26220000  0.28770000  1.0 0.0199003453
H  H179  1  0.76220000  0.03990000  0.28770000  1.0 0.0199003453
H  H180  1  0.53990000  0.73780000  0.28770000  1.0 0.0199003453
H  H181  1  0.26220000  0.46010000  0.71230000  1.0 0.0199003453
H  H182  1  0.73780000  0.53990000  0.71230000  1.0 0.0199003453
H  H183  1  0.96010000  0.23780000  0.71230000  1.0 0.0199003453
H  H184  1  0.03990000  0.76220000  0.71230000  1.0 0.0199003453
H  H185  1  0.19650000  0.96630000  0.18510000  1.0 0.0803744891
H  H186  1  0.46630000  0.30350000  0.18510000  1.0 0.0803744891
H  H187  1  0.80350000  0.03370000  0.18510000  1.0 0.0803744891
H  H188  1  0.53370000  0.69650000  0.18510000  1.0 0.0803744891
H  H189  1  0.30350000  0.46630000  0.81490000  1.0 0.0803744891
H  H190  1  0.69650000  0.53370000  0.81490000  1.0 0.0803744891
H  H191  1  0.96630000  0.19650000  0.81490000  1.0 0.0803744891
H  H192  1  0.03370000  0.80350000  0.81490000  1.0 0.0803744891
H  H193  1  0.24610000  0.01890000  0.21320000  1.0 0.0531328003
H  H194  1  0.51890000  0.25390000  0.21320000  1.0 0.0531328003
H  H195  1  0.75390000  0.98110000  0.21320000  1.0 0.0531328003
H  H196  1  0.48110000  0.74610000  0.21320000  1.0 0.0531328003
H  H197  1  0.25390000  0.51890000  0.78680000  1.0 0.0531328003
H  H198  1  0.74610000  0.48110000  0.78680000  1.0 0.0531328003
H  H199  1  0.01890000  0.24610000  0.78680000  1.0 0.0531328003
H  H200  1  0.98110000  0.75390000  0.78680000  1.0 0.0531328003
H  H201  1  0.07950000  0.00270000  0.36080000  1.0 0.0531328003
H  H202  1  0.50270000  0.42050000  0.36080000  1.0 0.0531328003
H  H203  1  0.92050000  0.99730000  0.36080000  1.0 0.0531328003
H  H204  1  0.49730000  0.57950000  0.36080000  1.0 0.0531328003
H  H205  1  0.42050000  0.50270000  0.63920000  1.0 0.0531328003
H  H206  1  0.57950000  0.49730000  0.63920000  1.0 0.0531328003
H  H207  1  0.00270000  0.07950000  0.63920000  1.0 0.0531328003
H  H208  1  0.99730000  0.92050000  0.63920000  1.0 0.0531328003
H  H209  1  0.09430000  0.96840000  0.25350000  1.0 0.0688253013
H  H210  1  0.46840000  0.40570000  0.25350000  1.0 0.0688253013
H  H211  1  0.90570000  0.03160000  0.25350000  1.0 0.0688253013
H  H212  1  0.53160000  0.59430000  0.25350000  1.0 0.0688253013
H  H213  1  0.40570000  0.46840000  0.74650000  1.0 0.0688253013
H  H214  1  0.59430000  0.53160000  0.74650000  1.0 0.0688253013
H  H215  1  0.96840000  0.09430000  0.74650000  1.0 0.0688253013
H  H216  1  0.03160000  0.90570000  0.74650000  1.0 0.0688253013
H  H217  1  0.12510000  0.94410000  0.35890000  1.0 0.0286974335
H  H218  1  0.44410000  0.37490000  0.35890000  1.0 0.0286974335
H  H219  1  0.87490000  0.05590000  0.35890000  1.0 0.0286974335
H  H220  1  0.55590000  0.62510000  0.35890000  1.0 0.0286974335
H  H221  1  0.37490000  0.44410000  0.64110000  1.0 0.0286974335
H  H222  1  0.62510000  0.55590000  0.64110000  1.0 0.0286974335
H  H223  1  0.94410000  0.12510000  0.64110000  1.0 0.0286974335
H  H224  1  0.05590000  0.87490000  0.64110000  1.0 0.0286974335
H  H225  1  0.20560000  0.97850000  0.45730000  1.0 0.0901944087
H  H226  1  0.47850000  0.29440000  0.45730000  1.0 0.0901944087
H  H227  1  0.79440000  0.02150000  0.45730000  1.0 0.0901944087
H  H228  1  0.52150000  0.70560000  0.45730000  1.0 0.0901944087
H  H229  1  0.29440000  0.47850000  0.54270000  1.0 0.0901944087
H  H230  1  0.70560000  0.52150000  0.54270000  1.0 0.0901944087
H  H231  1  0.97850000  0.20560000  0.54270000  1.0 0.0901944087
H  H232  1  0.02150000  0.79440000  0.54270000  1.0 0.0901944087
H  H233  1  0.09240000  0.98390000  0.34200000  1.0 0.0095548011
H  H234  1  0.48390000  0.40760000  0.34200000  1.0 0.0095548011
H  H235  1  0.90760000  0.01610000  0.34200000  1.0 0.0095548011
H  H236  1  0.51610000  0.59240000  0.34200000  1.0 0.0095548011
H  H237  1  0.40760000  0.48390000  0.65800000  1.0 0.0095548011
H  H238  1  0.59240000  0.51610000  0.65800000  1.0 0.0095548011
H  H239  1  0.98390000  0.09240000  0.65800000  1.0 0.0095548011
H  H240  1  0.01610000  0.90760000  0.65800000  1.0 0.0095548011
H  H241  1  0.11540000  0.92520000  0.40750000  1.0 0.0901944087
H  H242  1  0.42520000  0.38460000  0.40750000  1.0 0.0901944087
H  H243  1  0.88460000  0.07480000  0.40750000  1.0 0.0901944087
H  H244  1  0.57480000  0.61540000  0.40750000  1.0 0.0901944087
H  H245  1  0.38460000  0.42520000  0.59250000  1.0 0.0901944087
H  H246  1  0.61540000  0.57480000  0.59250000  1.0 0.0901944087
H  H247  1  0.92520000  0.11540000  0.59250000  1.0 0.0901944087
H  H248  1  0.07480000  0.88460000  0.59250000  1.0 0.0901944087
H  H249  1  0.09720000  0.98820000  0.46560000  1.0 0.1027919227
H  H250  1  0.48820000  0.40280000  0.46560000  1.0 0.1027919227
H  H251  1  0.90280000  0.01180000  0.46560000  1.0 0.1027919227
H  H252  1  0.51180000  0.59720000  0.46560000  1.0 0.1027919227
H  H253  1  0.40280000  0.48820000  0.53440000  1.0 0.1027919227
H  H254  1  0.59720000  0.51180000  0.53440000  1.0 0.1027919227
H  H255  1  0.98820000  0.09720000  0.53440000  1.0 0.1027919227
H  H256  1  0.01180000  0.90280000  0.53440000  1.0 0.1027919227
H  H257  1  0.26100000  0.99580000  0.29740000  1.0 0.036360188
H  H258  1  0.49580000  0.23900000  0.29740000  1.0 0.036360188
H  H259  1  0.73900000  0.00420000  0.29740000  1.0 0.036360188
H  H260  1  0.50420000  0.76100000  0.29740000  1.0 0.036360188
H  H261  1  0.23900000  0.49580000  0.70260000  1.0 0.036360188
H  H262  1  0.76100000  0.50420000  0.70260000  1.0 0.036360188
H  H263  1  0.99580000  0.26100000  0.70260000  1.0 0.036360188
H  H264  1  0.00420000  0.73900000  0.70260000  1.0 0.036360188
H  H265  1  0.23370000  0.92730000  0.31150000  1.0 0.0803744891
H  H266  1  0.42730000  0.26630000  0.31150000  1.0 0.0803744891
H  H267  1  0.76630000  0.07270000  0.31150000  1.0 0.0803744891
H  H268  1  0.57270000  0.73370000  0.31150000  1.0 0.0803744891
H  H269  1  0.26630000  0.42730000  0.68850000  1.0 0.0803744891
H  H270  1  0.73370000  0.57270000  0.68850000  1.0 0.0803744891
H  H271  1  0.92730000  0.23370000  0.68850000  1.0 0.0803744891
H  H272  1  0.07270000  0.76630000  0.68850000  1.0 0.0803744891
H  H273  1  0.19920000  0.97580000  0.23740000  1.0 0.0286974335
H  H274  1  0.47580000  0.30080000  0.23740000  1.0 0.0286974335
H  H275  1  0.80080000  0.02420000  0.23740000  1.0 0.0286974335
H  H276  1  0.52420000  0.69920000  0.23740000  1.0 0.0286974335
H  H277  1  0.30080000  0.47580000  0.76260000  1.0 0.0286974335
H  H278  1  0.69920000  0.52420000  0.76260000  1.0 0.0286974335
H  H279  1  0.97580000  0.19920000  0.76260000  1.0 0.0286974335
H  H280  1  0.02420000  0.80080000  0.76260000  1.0 0.0286974335
C  C1  1  0.27183000  0.09960000  0.50210000  1.0 0.5327312299
C  C2  1  0.59960000  0.22817000  0.50210000  1.0 0.5327312299
C  C3  1  0.72817000  0.90040000  0.50210000  1.0 0.5327312299
C  C4  1  0.40040000  0.77183000  0.50210000  1.0 0.5327312299
C  C5  1  0.22817000  0.59960000  0.49790000  1.0 0.5327312299
C  C6  1  0.77183000  0.40040000  0.49790000  1.0 0.5327312299
C  C7  1  0.09960000  0.27183000  0.49790000  1.0 0.5327312299
C  C8  1  0.90040000  0.72817000  0.49790000  1.0 0.5327312299
C  C9  1  0.24310000  0.09797000  0.39570000  1.0 -0.0883582294
C  C10  1  0.59797000  0.25690000  0.39570000  1.0 -0.0883582294
C  C11  1  0.75690000  0.90203000  0.39570000  1.0 -0.0883582294
C  C12  1  0.40203000  0.74310000  0.39570000  1.0 -0.0883582294
C  C13  1  0.25690000  0.59797000  0.60430000  1.0 -0.0883582294
C  C14  1  0.74310000  0.40203000  0.60430000  1.0 -0.0883582294
C  C15  1  0.09797000  0.24310000  0.60430000  1.0 -0.0883582294
C  C16  1  0.90203000  0.75690000  0.60430000  1.0 -0.0883582294
C  C17  1  0.18430000  0.05970000  0.39890000  1.0 -0.0883582294
C  C18  1  0.55970000  0.31570000  0.39890000  1.0 -0.0883582294
C  C19  1  0.81570000  0.94030000  0.39890000  1.0 -0.0883582294
C  C20  1  0.44030000  0.68430000  0.39890000  1.0 -0.0883582294
C  C21  1  0.31570000  0.55970000  0.60110000  1.0 -0.0883582294
C  C22  1  0.68430000  0.44030000  0.60110000  1.0 -0.0883582294
C  C23  1  0.05970000  0.18430000  0.60110000  1.0 -0.0883582294
C  C24  1  0.94030000  0.81570000  0.60110000  1.0 -0.0883582294
C  C25  1  0.28050000  0.19123000  0.30380000  1.0 -0.1788043794
C  C26  1  0.69123000  0.21950000  0.30380000  1.0 -0.1788043794
C  C27  1  0.71950000  0.80877000  0.30380000  1.0 -0.1788043794
C  C28  1  0.30877000  0.78050000  0.30380000  1.0 -0.1788043794
C  C29  1  0.21950000  0.69123000  0.69620000  1.0 -0.1788043794
C  C30  1  0.78050000  0.30877000  0.69620000  1.0 -0.1788043794
C  C31  1  0.19123000  0.28050000  0.69620000  1.0 -0.1788043794
C  C32  1  0.80877000  0.71950000  0.69620000  1.0 -0.1788043794
C  C33  1  0.29140000  0.15759000  0.20200000  1.0 0.0803744891
C  C34  1  0.65759000  0.20860000  0.20200000  1.0 0.0803744891
C  C35  1  0.70860000  0.84241000  0.20200000  1.0 0.0803744891
C  C36  1  0.34241000  0.79140000  0.20200000  1.0 0.0803744891
C  C37  1  0.20860000  0.65759000  0.79800000  1.0 0.0803744891
C  C38  1  0.79140000  0.34241000  0.79800000  1.0 0.0803744891
C  C39  1  0.15759000  0.29140000  0.79800000  1.0 0.0803744891
C  C40  1  0.84241000  0.70860000  0.79800000  1.0 0.0803744891
C  C41  1  0.24610000  0.15410000  0.12720000  1.0 -0.1583864895
C  C42  1  0.65410000  0.25390000  0.12720000  1.0 -0.1583864895
C  C43  1  0.75390000  0.84590000  0.12720000  1.0 -0.1583864895
C  C44  1  0.34590000  0.74610000  0.12720000  1.0 -0.1583864895
C  C45  1  0.25390000  0.65410000  0.87280000  1.0 -0.1583864895
C  C46  1  0.74610000  0.34590000  0.87280000  1.0 -0.1583864895
C  C47  1  0.15410000  0.24610000  0.87280000  1.0 -0.1583864895
C  C48  1  0.84590000  0.75390000  0.87280000  1.0 -0.1583864895
C  C49  1  0.25450000  0.12130000  0.03800000  1.0 -0.1583864895
C  C50  1  0.62130000  0.24550000  0.03800000  1.0 -0.1583864895
C  C51  1  0.74550000  0.87870000  0.03800000  1.0 -0.1583864895
C  C52  1  0.37870000  0.75450000  0.03800000  1.0 -0.1583864895
C  C53  1  0.24550000  0.62130000  0.96200000  1.0 -0.1583864895
C  C54  1  0.75450000  0.37870000  0.96200000  1.0 -0.1583864895
C  C55  1  0.12130000  0.25450000  0.96200000  1.0 -0.1583864895
C  C56  1  0.87870000  0.74550000  0.96200000  1.0 -0.1583864895
C  C57  1  0.30950000  0.09101000  0.01790000  1.0 0.0901944087
C  C58  1  0.59101000  0.19050000  0.01790000  1.0 0.0901944087
C  C59  1  0.69050000  0.90899000  0.01790000  1.0 0.0901944087
C  C60  1  0.40899000  0.80950000  0.01790000  1.0 0.0901944087
C  C61  1  0.19050000  0.59101000  0.98210000  1.0 0.0901944087
C  C62  1  0.80950000  0.40899000  0.98210000  1.0 0.0901944087
C  C63  1  0.09101000  0.30950000  0.98210000  1.0 0.0901944087
C  C64  1  0.90899000  0.69050000  0.98210000  1.0 0.0901944087
C  C65  1  0.35620000  0.09590000  0.09230000  1.0 -0.1583864895
C  C66  1  0.59590000  0.14380000  0.09230000  1.0 -0.1583864895
C  C67  1  0.64380000  0.90410000  0.09230000  1.0 -0.1583864895
C  C68  1  0.40410000  0.85620000  0.09230000  1.0 -0.1583864895
C  C69  1  0.14380000  0.59590000  0.90770000  1.0 -0.1583864895
C  C70  1  0.85620000  0.40410000  0.90770000  1.0 -0.1583864895
C  C71  1  0.09590000  0.35620000  0.90770000  1.0 -0.1583864895
C  C72  1  0.90410000  0.64380000  0.90770000  1.0 -0.1583864895
C  C73  1  0.34700000  0.12850000  0.18140000  1.0 -0.1548023983
C  C74  1  0.62850000  0.15300000  0.18140000  1.0 -0.1548023983
C  C75  1  0.65300000  0.87150000  0.18140000  1.0 -0.1548023983
C  C76  1  0.37150000  0.84700000  0.18140000  1.0 -0.1548023983
C  C77  1  0.15300000  0.62850000  0.81860000  1.0 -0.1548023983
C  C78  1  0.84700000  0.37150000  0.81860000  1.0 -0.1548023983
C  C79  1  0.12850000  0.34700000  0.81860000  1.0 -0.1548023983
C  C80  1  0.87150000  0.65300000  0.81860000  1.0 -0.1548023983
C  C81  1  0.41378000  0.12908000  0.73680000  1.0 0.5545772934
C  C82  1  0.62908000  0.08622000  0.73680000  1.0 0.5545772934
C  C83  1  0.58622000  0.87092000  0.73680000  1.0 0.5545772934
C  C84  1  0.37092000  0.91378000  0.73680000  1.0 0.5545772934
C  C85  1  0.08622000  0.62908000  0.26320000  1.0 0.5545772934
C  C86  1  0.91378000  0.37092000  0.26320000  1.0 0.5545772934
C  C87  1  0.12908000  0.41378000  0.26320000  1.0 0.5545772934
C  C88  1  0.87092000  0.58622000  0.26320000  1.0 0.5545772934
C  C89  1  0.36931000  0.14388000  0.82600000  1.0 -0.0483971848
C  C90  1  0.64388000  0.13069000  0.82600000  1.0 -0.0483971848
C  C91  1  0.63069000  0.85612000  0.82600000  1.0 -0.0483971848
C  C92  1  0.35612000  0.86931000  0.82600000  1.0 -0.0483971848
C  C93  1  0.13069000  0.64388000  0.17400000  1.0 -0.0483971848
C  C94  1  0.86931000  0.35612000  0.17400000  1.0 -0.0483971848
C  C95  1  0.14388000  0.36931000  0.17400000  1.0 -0.0483971848
C  C96  1  0.85612000  0.63069000  0.17400000  1.0 -0.0483971848
C  C97  1  0.34300000  0.20992000  0.81300000  1.0 -0.2780658728
C  C98  1  0.70992000  0.15700000  0.81300000  1.0 -0.2780658728
C  C99  1  0.65700000  0.79008000  0.81300000  1.0 -0.2780658728
C  C100  1  0.29008000  0.84300000  0.81300000  1.0 -0.2780658728
C  C101  1  0.15700000  0.70992000  0.18700000  1.0 -0.2780658728
C  C102  1  0.84300000  0.29008000  0.18700000  1.0 -0.2780658728
C  C103  1  0.20992000  0.34300000  0.18700000  1.0 -0.2780658728
C  C104  1  0.79008000  0.65700000  0.18700000  1.0 -0.2780658728
C  C105  1  0.38460000  0.26250000  0.84560000  1.0 0.142007614
C  C106  1  0.76250000  0.11540000  0.84560000  1.0 0.142007614
C  C107  1  0.61540000  0.73750000  0.84560000  1.0 0.142007614
C  C108  1  0.23750000  0.88460000  0.84560000  1.0 0.142007614
C  C109  1  0.11540000  0.76250000  0.15440000  1.0 0.142007614
C  C110  1  0.88460000  0.23750000  0.15440000  1.0 0.142007614
C  C111  1  0.26250000  0.38460000  0.15440000  1.0 0.142007614
C  C112  1  0.73750000  0.61540000  0.15440000  1.0 0.142007614
C  C113  1  0.39870000  0.26270000  0.95940000  1.0 -0.4809843763
C  C114  1  0.76270000  0.10130000  0.95940000  1.0 -0.4809843763
C  C115  1  0.60130000  0.73730000  0.95940000  1.0 -0.4809843763
C  C116  1  0.23730000  0.89870000  0.95940000  1.0 -0.4809843763
C  C117  1  0.10130000  0.76270000  0.04060000  1.0 -0.4809843763
C  C118  1  0.89870000  0.23730000  0.04060000  1.0 -0.4809843763
C  C119  1  0.26270000  0.39870000  0.04060000  1.0 -0.4809843763
C  C120  1  0.73730000  0.60130000  0.04060000  1.0 -0.4809843763
C  C121  1  0.35650000  0.32340000  0.81250000  1.0 -0.4926659739
C  C122  1  0.82340000  0.14350000  0.81250000  1.0 -0.4926659739
C  C123  1  0.64350000  0.67660000  0.81250000  1.0 -0.4926659739
C  C124  1  0.17660000  0.85650000  0.81250000  1.0 -0.4926659739
C  C125  1  0.14350000  0.82340000  0.18750000  1.0 -0.4926659739
C  C126  1  0.85650000  0.17660000  0.18750000  1.0 -0.4926659739
C  C127  1  0.32340000  0.35650000  0.18750000  1.0 -0.4926659739
C  C128  1  0.67660000  0.64350000  0.18750000  1.0 -0.4926659739
C  C129  1  0.31930000  0.05630000  0.91750000  1.0 -0.1788043794
C  C130  1  0.55630000  0.18070000  0.91750000  1.0 -0.1788043794
C  C131  1  0.68070000  0.94370000  0.91750000  1.0 -0.1788043794
C  C132  1  0.44370000  0.81930000  0.91750000  1.0 -0.1788043794
C  C133  1  0.18070000  0.55630000  0.08250000  1.0 -0.1788043794
C  C134  1  0.81930000  0.44370000  0.08250000  1.0 -0.1788043794
C  C135  1  0.05630000  0.31930000  0.08250000  1.0 -0.1788043794
C  C136  1  0.94370000  0.68070000  0.08250000  1.0 -0.1788043794
C  C137  1  0.16670000  0.02420000  0.30350000  1.0 0.0095548011
C  C138  1  0.52420000  0.33333333  0.30350000  1.0 0.0095548011
C  C139  1  0.83330000  0.97580000  0.30350000  1.0 0.0095548011
C  C140  1  0.47580000  0.66666667  0.30350000  1.0 0.0095548011
C  C141  1  0.33333333  0.52420000  0.69650000  1.0 0.0095548011
C  C142  1  0.66666667  0.47580000  0.69650000  1.0 0.0095548011
C  C143  1  0.02420000  0.16670000  0.69650000  1.0 0.0095548011
C  C144  1  0.97580000  0.83330000  0.69650000  1.0 0.0095548011
C  C145  1  0.21620000  0.98920000  0.24180000  1.0 -0.2022437653
C  C146  1  0.48920000  0.28380000  0.24180000  1.0 -0.2022437653
C  C147  1  0.78380000  0.01080000  0.24180000  1.0 -0.2022437653
C  C148  1  0.51080000  0.71620000  0.24180000  1.0 -0.2022437653
C  C149  1  0.28380000  0.48920000  0.75820000  1.0 -0.2022437653
C  C150  1  0.71620000  0.51080000  0.75820000  1.0 -0.2022437653
C  C151  1  0.98920000  0.21620000  0.75820000  1.0 -0.2022437653
C  C152  1  0.01080000  0.78380000  0.75820000  1.0 -0.2022437653
C  C153  1  0.11150000  0.98100000  0.32070000  1.0 -0.1694338447
C  C154  1  0.48100000  0.38850000  0.32070000  1.0 -0.1694338447
C  C155  1  0.88850000  0.01900000  0.32070000  1.0 -0.1694338447
C  C156  1  0.51900000  0.61150000  0.32070000  1.0 -0.1694338447
C  C157  1  0.38850000  0.48100000  0.67930000  1.0 -0.1694338447
C  C158  1  0.61150000  0.51900000  0.67930000  1.0 -0.1694338447
C  C159  1  0.98100000  0.11150000  0.67930000  1.0 -0.1694338447
C  C160  1  0.01900000  0.88850000  0.67930000  1.0 -0.1694338447
C  C161  1  0.18380000  0.99340000  0.39350000  1.0 -0.0080019562
C  C162  1  0.49340000  0.31620000  0.39350000  1.0 -0.0080019562
C  C163  1  0.81620000  0.00660000  0.39350000  1.0 -0.0080019562
C  C164  1  0.50660000  0.68380000  0.39350000  1.0 -0.0080019562
C  C165  1  0.31620000  0.49340000  0.60650000  1.0 -0.0080019562
C  C166  1  0.68380000  0.50660000  0.60650000  1.0 -0.0080019562
C  C167  1  0.99340000  0.18380000  0.60650000  1.0 -0.0080019562
C  C168  1  0.00660000  0.81620000  0.60650000  1.0 -0.0080019562
C  C169  1  0.11600000  0.97060000  0.40300000  1.0 -0.2409321232
C  C170  1  0.47060000  0.38400000  0.40300000  1.0 -0.2409321232
C  C171  1  0.88400000  0.02940000  0.40300000  1.0 -0.2409321232
C  C172  1  0.52940000  0.61600000  0.40300000  1.0 -0.2409321232
C  C173  1  0.38400000  0.47060000  0.59700000  1.0 -0.2409321232
C  C174  1  0.61600000  0.52940000  0.59700000  1.0 -0.2409321232
C  C175  1  0.97060000  0.11600000  0.59700000  1.0 -0.2409321232
C  C176  1  0.02940000  0.88400000  0.59700000  1.0 -0.2409321232
C  C177  1  0.22290000  0.97100000  0.30170000  1.0 -0.1324713589
C  C178  1  0.47100000  0.27710000  0.30170000  1.0 -0.1324713589
C  C179  1  0.77710000  0.02900000  0.30170000  1.0 -0.1324713589
C  C180  1  0.52900000  0.72290000  0.30170000  1.0 -0.1324713589
C  C181  1  0.27710000  0.47100000  0.69830000  1.0 -0.1324713589
C  C182  1  0.72290000  0.52900000  0.69830000  1.0 -0.1324713589
C  C183  1  0.97100000  0.22290000  0.69830000  1.0 -0.1324713589
C  C184  1  0.02900000  0.77710000  0.69830000  1.0 -0.1324713589
N  N1  1  0.22898000  0.16338000  0.36520000  1.0 -0.32124008
N  N2  1  0.66338000  0.27102000  0.36520000  1.0 -0.32124008
N  N3  1  0.77102000  0.83662000  0.36520000  1.0 -0.32124008
N  N4  1  0.33662000  0.72898000  0.36520000  1.0 -0.32124008
N  N5  1  0.27102000  0.66338000  0.63480000  1.0 -0.32124008
N  N6  1  0.72898000  0.33662000  0.63480000  1.0 -0.32124008
N  N7  1  0.16338000  0.22898000  0.63480000  1.0 -0.32124008
N  N8  1  0.83662000  0.77102000  0.63480000  1.0 -0.32124008
N  N9  1  0.31818000  0.09811000  0.82610000  1.0 -0.3524273387
N  N10  1  0.59811000  0.18182000  0.82610000  1.0 -0.3524273387
N  N11  1  0.68182000  0.90189000  0.82610000  1.0 -0.3524273387
N  N12  1  0.40189000  0.81818000  0.82610000  1.0 -0.3524273387
N  N13  1  0.18182000  0.59811000  0.17390000  1.0 -0.3524273387
N  N14  1  0.81818000  0.40189000  0.17390000  1.0 -0.3524273387
N  N15  1  0.09811000  0.31818000  0.17390000  1.0 -0.3524273387
N  N16  1  0.90189000  0.68182000  0.17390000  1.0 -0.3524273387
O  O1  1  0.26221000  0.14595000  0.56020000  1.0 -0.5612781471
O  O2  1  0.64595000  0.23779000  0.56020000  1.0 -0.5612781471
O  O3  1  0.73779000  0.85405000  0.56020000  1.0 -0.5612781471
O  O4  1  0.35405000  0.76221000  0.56020000  1.0 -0.5612781471
O  O5  1  0.23779000  0.64595000  0.43980000  1.0 -0.5612781471
O  O6  1  0.76221000  0.35405000  0.43980000  1.0 -0.5612781471
O  O7  1  0.14595000  0.26221000  0.43980000  1.0 -0.5612781471
O  O8  1  0.85405000  0.73779000  0.43980000  1.0 -0.5612781471
O  O9  1  0.30172000  0.05305000  0.53160000  1.0 -0.4639197117
O  O10  1  0.55305000  0.19828000  0.53160000  1.0 -0.4639197117
O  O11  1  0.69828000  0.94695000  0.53160000  1.0 -0.4639197117
O  O12  1  0.44695000  0.80172000  0.53160000  1.0 -0.4639197117
O  O13  1  0.19828000  0.55305000  0.46840000  1.0 -0.4653993672
O  O14  1  0.80172000  0.44695000  0.46840000  1.0 -0.4653993672
O  O15  1  0.05305000  0.30172000  0.46840000  1.0 -0.4653993672
O  O16  1  0.94695000  0.69828000  0.46840000  1.0 -0.4653993672
O  O17  1  0.39404000  0.09439000  0.66540000  1.0 -0.4809843763
O  O18  1  0.59439000  0.10596000  0.66540000  1.0 -0.4809843763
O  O19  1  0.60596000  0.90561000  0.66540000  1.0 -0.4809843763
O  O20  1  0.40561000  0.89404000  0.66540000  1.0 -0.4809843763
O  O21  1  0.10596000  0.59439000  0.33460000  1.0 -0.4809843763
O  O22  1  0.89404000  0.40561000  0.33460000  1.0 -0.4809843763
O  O23  1  0.09439000  0.39404000  0.33460000  1.0 -0.4809843763
O  O24  1  0.90561000  0.60596000  0.33460000  1.0 -0.4809843763
O  O25  1  0.46528000  0.15396000  0.73810000  1.0 -0.5612781471
O  O26  1  0.65396000  0.03472000  0.73810000  1.0 -0.5612781471
O  O27  1  0.53472000  0.84604000  0.73810000  1.0 -0.5612781471
O  O28  1  0.34604000  0.96528000  0.73810000  1.0 -0.5612781471
O  O29  1  0.03472000  0.65396000  0.26190000  1.0 -0.5612781471
O  O30  1  0.96528000  0.34604000  0.26190000  1.0 -0.5612781471
O  O31  1  0.15396000  0.46528000  0.26190000  1.0 -0.5612781471
O  O32  1  0.84604000  0.53472000  0.26190000  1.0 -0.5612781471
