# DDEC6 charges by PACMAN v1.1 (https://github.com/mtap-research/PACMAN-charge/)
data_FIWKUT_ASR_pacman
_symmetry_space_group_name_H-M   'P 1'
_cell_length_a   28.32590000
_cell_length_b   28.32590000
_cell_length_c   28.32590000
_cell_angle_alpha   139.13900000
_cell_angle_beta   119.28800000
_cell_angle_gamma   75.78910000
_symmetry_Int_Tables_number   1
_chemical_formula_structural   Zn4H6(C6O5)3
_chemical_formula_sum   'Zn48 H72 C216 O180'
_cell_volume   12655.83515646
_cell_formula_units_Z   12
loop_
 _symmetry_equiv_pos_site_id
 _symmetry_equiv_pos_as_xyz
  1  'x, y, z'
loop_
 _atom_site_type_symbol
 _atom_site_label
 _atom_site_symmetry_multiplicity
 _atom_site_fract_x
 _atom_site_fract_y
 _atom_site_fract_z
 _atom_site_occupancy
 _atom_site_charge
Zn  Zn1  1  0.51349000  0.84160000  0.82185000  1.0 0.9405559791
Zn  Zn2  1  0.98025000  0.15840000  0.67189000  1.0 0.9405559791
Zn  Zn3  1  0.98651000  0.30836000  0.82811000  1.0 0.9405559791
Zn  Zn4  1  0.51975000  0.69164000  0.67815000  1.0 0.9405559791
Zn  Zn5  1  0.48651000  0.15840000  0.17815000  1.0 0.9405559791
Zn  Zn6  1  0.01975000  0.84160000  0.32811000  1.0 0.9405559791
Zn  Zn7  1  0.01349000  0.69164000  0.17189000  1.0 0.9405559791
Zn  Zn8  1  0.48025000  0.30836000  0.32185000  1.0 0.9405559791
Zn  Zn9  1  0.78286000  0.53286000  0.25000000  1.0 0.9405559791
Zn  Zn10  1  0.71714000  0.46714000  0.25000000  1.0 0.9405559791
Zn  Zn11  1  0.21714000  0.46714000  0.75000000  1.0 0.9405559791
Zn  Zn12  1  0.28286000  0.53286000  0.75000000  1.0 0.9405559791
Zn  Zn13  1  0.90744000  0.10828000  0.20084000  1.0 0.8817702723
Zn  Zn14  1  0.09256000  0.89172000  0.79916000  1.0 0.8817702723
Zn  Zn15  1  0.59256000  0.29340000  0.70084000  1.0 0.8817702723
Zn  Zn16  1  0.40744000  0.70660000  0.29916000  1.0 0.8817702723
Zn  Zn17  1  0.92527000  0.76863000  0.84336000  1.0 1.0465663267
Zn  Zn18  1  0.07473000  0.23137000  0.15664000  1.0 1.0465663267
Zn  Zn19  1  0.57473000  0.91809000  0.34336000  1.0 1.0465663267
Zn  Zn20  1  0.42527000  0.08191000  0.65664000  1.0 1.0465663267
Zn  Zn21  1  0.81776000  0.62653000  0.67665000  1.0 0.9208777366
Zn  Zn22  1  0.05012000  0.37347000  0.19123000  1.0 0.9208777366
Zn  Zn23  1  0.68224000  0.85889000  0.30877000  1.0 0.9208777366
Zn  Zn24  1  0.44988000  0.14111000  0.82335000  1.0 0.9208777366
Zn  Zn25  1  0.18224000  0.37347000  0.32335000  1.0 0.9208777366
Zn  Zn26  1  0.94988000  0.62653000  0.80877000  1.0 0.9208777366
Zn  Zn27  1  0.31776000  0.14111000  0.69123000  1.0 0.9208777366
Zn  Zn28  1  0.55012000  0.85889000  0.17665000  1.0 0.9208777366
Zn  Zn29  1  0.89708000  0.26012000  0.36304000  1.0 0.8073556615
Zn  Zn30  1  0.10292000  0.73988000  0.63696000  1.0 0.8073556615
Zn  Zn31  1  0.60292000  0.46596000  0.86304000  1.0 0.8073556615
Zn  Zn32  1  0.39708000  0.53404000  0.13696000  1.0 0.8073556615
Zn  Zn33  1  0.88145000  0.11024000  0.30053000  1.0 0.5808520764
Zn  Zn34  1  0.19029000  0.88976000  0.77121000  1.0 0.5808520764
Zn  Zn35  1  0.61855000  0.41908000  0.72879000  1.0 0.5808520764
Zn  Zn36  1  0.30971000  0.58092000  0.19947000  1.0 0.5808520764
Zn  Zn37  1  0.11855000  0.88976000  0.69947000  1.0 0.5808520764
Zn  Zn38  1  0.80971000  0.11024000  0.22879000  1.0 0.5808520764
Zn  Zn39  1  0.38145000  0.58092000  0.27121000  1.0 0.5916524769
Zn  Zn40  1  0.69029000  0.41908000  0.80053000  1.0 0.5808520764
Zn  Zn41  1  0.94669000  0.14845000  0.34692000  1.0 0.5916524769
Zn  Zn42  1  0.19847000  0.85155000  0.79824000  1.0 0.5916524769
Zn  Zn43  1  0.55331000  0.40023000  0.70176000  1.0 0.5916524769
Zn  Zn44  1  0.30153000  0.59977000  0.15308000  1.0 0.5916524769
Zn  Zn45  1  0.05331000  0.85155000  0.65308000  1.0 0.5916524769
Zn  Zn46  1  0.80153000  0.14845000  0.20176000  1.0 0.5916524769
Zn  Zn47  1  0.44669000  0.59977000  0.29824000  1.0 0.5916524769
Zn  Zn48  1  0.69847000  0.40023000  0.84692000  1.0 0.5916524769
H  H1  1  0.79530000  0.39030000  0.46520000  1.0 0.1310317606
H  H2  1  0.07490000  0.60970000  0.40500000  1.0 0.1310317606
H  H3  1  0.70470000  0.66990000  0.09500000  1.0 0.1358009172
H  H4  1  0.42510000  0.33010000  0.03480000  1.0 0.1310317606
H  H5  1  0.20470000  0.60970000  0.53480000  1.0 0.1310317606
H  H6  1  0.92510000  0.39030000  0.59500000  1.0 0.1310317606
H  H7  1  0.29530000  0.33010000  0.90500000  1.0 0.1310317606
H  H8  1  0.57490000  0.66990000  0.96520000  1.0 0.1310317606
H  H9  1  0.83410000  0.89800000  0.95730000  1.0 0.1310317606
H  H10  1  0.05930000  0.10200000  0.93610000  1.0 0.1310317606
H  H11  1  0.66590000  0.12320000  0.56390000  1.0 0.1310317606
H  H12  1  0.44070000  0.87680000  0.54270000  1.0 0.1310317606
H  H13  1  0.16590000  0.10200000  0.04270000  1.0 0.1310317606
H  H14  1  0.94070000  0.89800000  0.06390000  1.0 0.1310317606
H  H15  1  0.33410000  0.87680000  0.43610000  1.0 0.1310317606
H  H16  1  0.55930000  0.12320000  0.45730000  1.0 0.1310317606
H  H17  1  0.69450000  0.73540000  0.75790000  1.0 0.1310317606
H  H18  1  0.02250000  0.26460000  0.95910000  1.0 0.1310317606
H  H19  1  0.80550000  0.06340000  0.54090000  1.0 0.1310317606
H  H20  1  0.47750000  0.93660000  0.74210000  1.0 0.1310317606
H  H21  1  0.30550000  0.26460000  0.24210000  1.0 0.1310317606
H  H22  1  0.97750000  0.73540000  0.04090000  1.0 0.1310317606
H  H23  1  0.19450000  0.93660000  0.45910000  1.0 0.1310317606
H  H24  1  0.52250000  0.06340000  0.25790000  1.0 0.1310317606
H  H25  1  0.68810000  0.93340000  0.96250000  1.0 0.1310317606
H  H26  1  0.02910000  0.06660000  0.75470000  1.0 0.1310317606
H  H27  1  0.81190000  0.27440000  0.74530000  1.0 0.1310317606
H  H28  1  0.47090000  0.72560000  0.53750000  1.0 0.1310317606
H  H29  1  0.31190000  0.06660000  0.03750000  1.0 0.1310317606
H  H30  1  0.97090000  0.93340000  0.24530000  1.0 0.1310317606
H  H31  1  0.18810000  0.72560000  0.25470000  1.0 0.1310317606
H  H32  1  0.52910000  0.27440000  0.46250000  1.0 0.1310317606
H  H33  1  0.90270000  0.69130000  0.50180000  1.0 0.1310317606
H  H34  1  0.81050000  0.30870000  0.21140000  1.0 0.1310317606
H  H35  1  0.59730000  0.59910000  0.28860000  1.0 0.1310317606
H  H36  1  0.68950000  0.40090000  0.99820000  1.0 0.1310317606
H  H37  1  0.09730000  0.30870000  0.49820000  1.0 0.1310317606
H  H38  1  0.18950000  0.69130000  0.78860000  1.0 0.1310317606
H  H39  1  0.40270000  0.40090000  0.71140000  1.0 0.1310317606
H  H40  1  0.31050000  0.59910000  0.00180000  1.0 0.1310317606
H  H41  1  0.80900000  0.61760000  0.51400000  1.0 0.1310317606
H  H42  1  0.89640000  0.38240000  0.19140000  1.0 0.1310317606
H  H43  1  0.69100000  0.70500000  0.30860000  1.0 0.1310317606
H  H44  1  0.60360000  0.29500000  0.98600000  1.0 0.1310317606
H  H45  1  0.19100000  0.38240000  0.48600000  1.0 0.1310317606
H  H46  1  0.10360000  0.61760000  0.80860000  1.0 0.1310317606
H  H47  1  0.30900000  0.29500000  0.69140000  1.0 0.1310317606
H  H48  1  0.39640000  0.70500000  0.01400000  1.0 0.1310317606
H  H49  1  0.64470000  0.40830000  0.45460000  1.0 0.1188682211
H  H50  1  0.04630000  0.59170000  0.23640000  1.0 0.1188682211
H  H51  1  0.85530000  0.80990000  0.26360000  1.0 0.1188682211
H  H52  1  0.45370000  0.19010000  0.04540000  1.0 0.1188682211
H  H53  1  0.35530000  0.59170000  0.54540000  1.0 0.1188682211
H  H54  1  0.95370000  0.40830000  0.76360000  1.0 0.1188682211
H  H55  1  0.14470000  0.19010000  0.73640000  1.0 0.1188682211
H  H56  1  0.54630000  0.80990000  0.95460000  1.0 0.1188682211
H  H57  1  0.66760000  0.21140000  0.27020000  1.0 0.1310317606
H  H58  1  0.05880000  0.78860000  0.45620000  1.0 0.1310317606
H  H59  1  0.83240000  0.60260000  0.04380000  1.0 0.1310317606
H  H60  1  0.44120000  0.39740000  0.22980000  1.0 0.1310317606
H  H61  1  0.33240000  0.78860000  0.72980000  1.0 0.1310317606
H  H62  1  0.94120000  0.21140000  0.54380000  1.0 0.1310317606
H  H63  1  0.16760000  0.39740000  0.95620000  1.0 0.1310317606
H  H64  1  0.55880000  0.60260000  0.77020000  1.0 0.1310317606
H  H65  1  0.94860000  0.77930000  0.71890000  1.0 0.1310317606
H  H66  1  0.93960000  0.22070000  0.16930000  1.0 0.1310317606
H  H67  1  0.55140000  0.77030000  0.33070000  1.0 0.1310317606
H  H68  1  0.56040000  0.22970000  0.78110000  1.0 0.1310317606
H  H69  1  0.05140000  0.22070000  0.28110000  1.0 0.1310317606
H  H70  1  0.06040000  0.77930000  0.83070000  1.0 0.1310317606
H  H71  1  0.44860000  0.22970000  0.66930000  1.0 0.1310317606
H  H72  1  0.43960000  0.77030000  0.21890000  1.0 0.1310317606
C  C1  1  0.75753000  0.36893000  0.43760000  1.0 -0.120754125
C  C2  1  0.06867000  0.63107000  0.38860000  1.0 -0.120754125
C  C3  1  0.74247000  0.68007000  0.11140000  1.0 -0.120754125
C  C4  1  0.43133000  0.31993000  0.06240000  1.0 -0.120754125
C  C5  1  0.24247000  0.63107000  0.56240000  1.0 -0.120754125
C  C6  1  0.93133000  0.36893000  0.61140000  1.0 -0.120754125
C  C7  1  0.25753000  0.31993000  0.88860000  1.0 -0.120754125
C  C8  1  0.56867000  0.68007000  0.93760000  1.0 -0.120754125
C  C9  1  0.79544000  0.88104000  0.93100000  1.0 -0.1008746005
C  C10  1  0.04996000  0.11896000  0.91440000  1.0 -0.1008746005
C  C11  1  0.70456000  0.13556000  0.58560000  1.0 -0.1008746005
C  C12  1  0.45004000  0.86444000  0.56900000  1.0 -0.1008746005
C  C13  1  0.20456000  0.11896000  0.06900000  1.0 -0.1008746005
C  C14  1  0.95004000  0.88104000  0.08560000  1.0 -0.1008746005
C  C15  1  0.29544000  0.86444000  0.41440000  1.0 -0.1008746005
C  C16  1  0.54996000  0.13556000  0.43100000  1.0 -0.1008746005
C  C17  1  0.64788000  0.30468000  0.35640000  1.0 -0.0304041448
C  C18  1  0.05172000  0.69532000  0.34320000  1.0 -0.0304041448
C  C19  1  0.85212000  0.70852000  0.15680000  1.0 -0.0304041448
C  C20  1  0.44828000  0.29148000  0.14360000  1.0 -0.0304041448
C  C21  1  0.35212000  0.69532000  0.64360000  1.0 -0.0304041448
C  C22  1  0.94828000  0.30468000  0.65680000  1.0 -0.0304041448
C  C23  1  0.14788000  0.29148000  0.84320000  1.0 -0.0304041448
C  C24  1  0.55172000  0.70852000  0.85640000  1.0 -0.0304041448
C  C25  1  0.71258000  0.78438000  0.81220000  1.0 -0.1008746005
C  C26  1  0.02782000  0.21562000  0.92820000  1.0 -0.1008746005
C  C27  1  0.78742000  0.09962000  0.57180000  1.0 -0.1008746005
C  C28  1  0.47218000  0.90038000  0.68780000  1.0 -0.1008746005
C  C29  1  0.28742000  0.21562000  0.18780000  1.0 -0.1008746005
C  C30  1  0.97218000  0.78438000  0.07180000  1.0 -0.1008746005
C  C31  1  0.21258000  0.90038000  0.42820000  1.0 -0.1008746005
C  C32  1  0.52782000  0.09962000  0.31220000  1.0 -0.1008746005
C  C33  1  0.73691000  0.29371000  0.36280000  1.0 -0.0304041448
C  C34  1  0.06909000  0.70629000  0.44320000  1.0 -0.0304041448
C  C35  1  0.76309000  0.62589000  0.05680000  1.0 -0.0304041448
C  C36  1  0.43091000  0.37411000  0.13720000  1.0 -0.0304041448
C  C37  1  0.26309000  0.70629000  0.63720000  1.0 -0.0304041448
C  C38  1  0.93091000  0.29371000  0.55680000  1.0 -0.0304041448
C  C39  1  0.23691000  0.37411000  0.94320000  1.0 -0.0304041448
C  C40  1  0.56909000  0.62589000  0.86280000  1.0 -0.0304041448
C  C41  1  0.70871000  0.90231000  0.93380000  1.0 -0.1008746005
C  C42  1  0.03149000  0.09769000  0.80640000  1.0 -0.1008746005
C  C43  1  0.79129000  0.22509000  0.69360000  1.0 -0.1008746005
C  C44  1  0.46851000  0.77491000  0.56620000  1.0 -0.1008746005
C  C45  1  0.29129000  0.09769000  0.06620000  1.0 -0.1008746005
C  C46  1  0.96851000  0.90231000  0.19360000  1.0 -0.1008746005
C  C47  1  0.20871000  0.77491000  0.30640000  1.0 -0.1008746005
C  C48  1  0.53149000  0.22509000  0.43380000  1.0 -0.1008746005
C  C49  1  0.87748000  0.69918000  0.62450000  1.0 -0.0304041448
C  C50  1  0.92532000  0.30082000  0.17830000  1.0 -0.0304041448
C  C51  1  0.62252000  0.74702000  0.32170000  1.0 -0.0304041448
C  C52  1  0.57468000  0.25298000  0.87550000  1.0 -0.0304041448
C  C53  1  0.12252000  0.30082000  0.37550000  1.0 -0.0304041448
C  C54  1  0.07468000  0.69918000  0.82170000  1.0 -0.0304041448
C  C55  1  0.37748000  0.25298000  0.67830000  1.0 -0.0304041448
C  C56  1  0.42532000  0.74702000  0.12450000  1.0 -0.0304041448
C  C57  1  0.76904000  0.80924000  0.85080000  1.0 -0.0304041448
C  C58  1  0.04156000  0.19076000  0.95980000  1.0 -0.0304041448
C  C59  1  0.73096000  0.08176000  0.54020000  1.0 -0.0304041448
C  C60  1  0.45844000  0.91824000  0.64920000  1.0 -0.0304041448
C  C61  1  0.23096000  0.19076000  0.14920000  1.0 -0.0304041448
C  C62  1  0.95844000  0.80924000  0.04020000  1.0 -0.0304041448
C  C63  1  0.26904000  0.91824000  0.45980000  1.0 -0.0304041448
C  C64  1  0.54156000  0.08176000  0.35080000  1.0 -0.0304041448
C  C65  1  0.76520000  0.92790000  0.97250000  1.0 -0.0304041448
C  C66  1  0.04460000  0.07210000  0.83730000  1.0 -0.0304041448
C  C67  1  0.73480000  0.20730000  0.66270000  1.0 -0.0304041448
C  C68  1  0.45540000  0.79270000  0.52750000  1.0 -0.0304041448
C  C69  1  0.23480000  0.07210000  0.02750000  1.0 -0.0304041448
C  C70  1  0.95540000  0.92790000  0.16270000  1.0 -0.0304041448
C  C71  1  0.26520000  0.79270000  0.33730000  1.0 -0.0304041448
C  C72  1  0.54460000  0.20730000  0.47250000  1.0 -0.0304041448
C  C73  1  0.68257000  0.83207000  0.85410000  1.0 -0.0234997974
C  C74  1  0.02203000  0.16793000  0.85050000  1.0 -0.0234997974
C  C75  1  0.81743000  0.17153000  0.64950000  1.0 -0.0234997974
C  C76  1  0.47797000  0.82847000  0.64590000  1.0 -0.0234997974
C  C77  1  0.31743000  0.16793000  0.14590000  1.0 -0.0234997974
C  C78  1  0.97797000  0.83207000  0.14950000  1.0 -0.0304041448
C  C79  1  0.18257000  0.82847000  0.35050000  1.0 -0.0304041448
C  C80  1  0.52203000  0.17153000  0.35410000  1.0 -0.0234997974
C  C81  1  0.89692000  0.69272000  0.53320000  1.0 -0.081217822
C  C82  1  0.84048000  0.30728000  0.20420000  1.0 -0.081217822
C  C83  1  0.60308000  0.63628000  0.29580000  1.0 -0.081217822
C  C84  1  0.65952000  0.36372000  0.96680000  1.0 -0.081217822
C  C85  1  0.10308000  0.30728000  0.46680000  1.0 -0.081217822
C  C86  1  0.15952000  0.69272000  0.79580000  1.0 -0.081217822
C  C87  1  0.39692000  0.36372000  0.70420000  1.0 -0.081217822
C  C88  1  0.34048000  0.63628000  0.03320000  1.0 -0.081217822
C  C89  1  0.80406000  0.76126000  0.80960000  1.0 0.5916524769
C  C90  1  0.04834000  0.23874000  0.04280000  1.0 0.5916524769
C  C91  1  0.69594000  0.00554000  0.45720000  1.0 0.5916524769
C  C92  1  0.45166000  0.99446000  0.69040000  1.0 0.5916524769
C  C93  1  0.19594000  0.23874000  0.19040000  1.0 0.5916524769
C  C94  1  0.95166000  0.76126000  0.95720000  1.0 0.5916524769
C  C95  1  0.30406000  0.99446000  0.54280000  1.0 0.5916524769
C  C96  1  0.54834000  0.00554000  0.30960000  1.0 0.5916524769
C  C97  1  0.74294000  0.49454000  0.54940000  1.0 0.4399256235
C  C98  1  0.05486000  0.50546000  0.24840000  1.0 0.4399256235
C  C99  1  0.75706000  0.80646000  0.25160000  1.0 0.4399256235
C  C100  1  0.44514000  0.19354000  0.95060000  1.0 0.4399256235
C  C101  1  0.25706000  0.50546000  0.45060000  1.0 0.4399256235
C  C102  1  0.94514000  0.49454000  0.75160000  1.0 0.4399256235
C  C103  1  0.24294000  0.19354000  0.74840000  1.0 0.4399256235
C  C104  1  0.55486000  0.80646000  0.04940000  1.0 0.4399256235
C  C105  1  0.72372000  0.41282000  0.47230000  1.0 -0.0415622941
C  C106  1  0.05948000  0.58718000  0.31090000  1.0 -0.0415622941
C  C107  1  0.77628000  0.74858000  0.18910000  1.0 -0.0415622941
C  C108  1  0.44052000  0.25142000  0.02770000  1.0 -0.0415622941
C  C109  1  0.27628000  0.58718000  0.52770000  1.0 -0.0415622941
C  C110  1  0.94052000  0.41282000  0.68910000  1.0 -0.0415622941
C  C111  1  0.22372000  0.25142000  0.81090000  1.0 -0.0415622941
C  C112  1  0.55948000  0.74858000  0.97230000  1.0 -0.0415622941
C  C113  1  0.58811000  0.27241000  0.31230000  1.0 0.5979051086
C  C114  1  0.03989000  0.72759000  0.31570000  1.0 0.5979051086
C  C115  1  0.91189000  0.72419000  0.18430000  1.0 0.5979051086
C  C116  1  0.46011000  0.27581000  0.18770000  1.0 0.5979051086
C  C117  1  0.41189000  0.72759000  0.68770000  1.0 0.5979051086
C  C118  1  0.96011000  0.27241000  0.68430000  1.0 0.5979051086
C  C119  1  0.08811000  0.27581000  0.81570000  1.0 0.5979051086
C  C120  1  0.53989000  0.72419000  0.81230000  1.0 0.5979051086
C  C121  1  0.84103000  0.64913000  0.54030000  1.0 -0.0912739653
C  C122  1  0.89117000  0.35087000  0.19190000  1.0 -0.0912739653
C  C123  1  0.65897000  0.69927000  0.30810000  1.0 -0.0912739653
C  C124  1  0.60883000  0.30073000  0.95970000  1.0 -0.0912739653
C  C125  1  0.15897000  0.35087000  0.45970000  1.0 -0.0912739653
C  C126  1  0.10883000  0.64913000  0.80810000  1.0 -0.0912739653
C  C127  1  0.34103000  0.30073000  0.69190000  1.0 -0.0912739653
C  C128  1  0.39117000  0.69927000  0.04030000  1.0 -0.0912739653
C  C129  1  0.66829000  0.37929000  0.43100000  1.0 -0.1008746005
C  C130  1  0.05171000  0.62071000  0.28900000  1.0 -0.1063773602
C  C131  1  0.83171000  0.76271000  0.21100000  1.0 -0.1063773602
C  C132  1  0.44829000  0.23729000  0.06900000  1.0 -0.1063773602
C  C133  1  0.33171000  0.62071000  0.56900000  1.0 -0.1063773602
C  C134  1  0.94829000  0.37929000  0.71100000  1.0 -0.1063773602
C  C135  1  0.16829000  0.23729000  0.78900000  1.0 -0.1063773602
C  C136  1  0.55171000  0.76271000  0.93100000  1.0 -0.1008746005
C  C137  1  0.68189000  0.26239000  0.32210000  1.0 -0.1008746005
C  C138  1  0.05971000  0.73761000  0.41950000  1.0 -0.1008746005
C  C139  1  0.81811000  0.64021000  0.08050000  1.0 -0.1008746005
C  C140  1  0.44029000  0.35979000  0.17790000  1.0 -0.1008746005
C  C141  1  0.31811000  0.73761000  0.67790000  1.0 -0.1008746005
C  C142  1  0.94029000  0.26239000  0.58050000  1.0 -0.1008746005
C  C143  1  0.18189000  0.35979000  0.91950000  1.0 -0.1008746005
C  C144  1  0.55971000  0.64021000  0.82210000  1.0 -0.1008746005
C  C145  1  0.92362000  0.74522000  0.66180000  1.0 -0.0912739653
C  C146  1  0.91658000  0.25478000  0.17840000  1.0 -0.0912739653
C  C147  1  0.57638000  0.73818000  0.32160000  1.0 -0.0912739653
C  C148  1  0.58342000  0.26182000  0.83820000  1.0 -0.0912739653
C  C149  1  0.07638000  0.25478000  0.33820000  1.0 -0.0912739653
C  C150  1  0.08342000  0.74522000  0.82160000  1.0 -0.0912739653
C  C151  1  0.42362000  0.26182000  0.67840000  1.0 -0.0912739653
C  C152  1  0.41658000  0.73818000  0.16180000  1.0 -0.0912739653
C  C153  1  0.93327000  0.74077000  0.61390000  1.0 -0.0234997974
C  C154  1  0.87313000  0.25923000  0.19250000  1.0 -0.0234997974
C  C155  1  0.56673000  0.68063000  0.30750000  1.0 -0.0234997974
C  C156  1  0.62687000  0.31937000  0.88610000  1.0 -0.0234997974
C  C157  1  0.06673000  0.25923000  0.38610000  1.0 -0.0234997974
C  C158  1  0.12687000  0.74077000  0.80750000  1.0 -0.0234997974
C  C159  1  0.43327000  0.31937000  0.69250000  1.0 -0.0234997974
C  C160  1  0.37313000  0.68063000  0.11390000  1.0 -0.0234997974
C  C161  1  0.62060000  0.80480000  0.81140000  1.0 0.5916524769
C  C162  1  0.00660000  0.19520000  0.81580000  1.0 0.5916524769
C  C163  1  0.87940000  0.19080000  0.68420000  1.0 0.5916524769
C  C164  1  0.49340000  0.80920000  0.68860000  1.0 0.5916524769
C  C165  1  0.37940000  0.19520000  0.18860000  1.0 0.5916524769
C  C166  1  0.99340000  0.80480000  0.18420000  1.0 0.5916524769
C  C167  1  0.12060000  0.80920000  0.31580000  1.0 0.5916524769
C  C168  1  0.50660000  0.19080000  0.31140000  1.0 0.5916524769
C  C169  1  0.86887000  0.69847000  0.67200000  1.0 0.5979051086
C  C170  1  0.97353000  0.30153000  0.17040000  1.0 0.5979051086
C  C171  1  0.63113000  0.80313000  0.32960000  1.0 0.5979051086
C  C172  1  0.52647000  0.19687000  0.82800000  1.0 0.5979051086
C  C173  1  0.13113000  0.30153000  0.32800000  1.0 0.5979051086
C  C174  1  0.02647000  0.69847000  0.82960000  1.0 0.5979051086
C  C175  1  0.36887000  0.19687000  0.67040000  1.0 0.5979051086
C  C176  1  0.47353000  0.80313000  0.17200000  1.0 0.5979051086
C  C177  1  0.77440000  0.25110000  0.32430000  1.0 0.4470449196
C  C178  1  0.07320000  0.74890000  0.52330000  1.0 0.4470449196
C  C179  1  0.72560000  0.54990000  0.97670000  1.0 0.4470449196
C  C180  1  0.42680000  0.45010000  0.17570000  1.0 0.4399256235
C  C181  1  0.22560000  0.74890000  0.67570000  1.0 0.4470449196
C  C182  1  0.92680000  0.25110000  0.47670000  1.0 0.4470449196
C  C183  1  0.27440000  0.45010000  0.02330000  1.0 0.4470449196
C  C184  1  0.57320000  0.54990000  0.82430000  1.0 0.4470449196
C  C185  1  0.81325000  0.59355000  0.40590000  1.0 0.5979051086
C  C186  1  0.81235000  0.40645000  0.21970000  1.0 0.5979051086
C  C187  1  0.68675000  0.59265000  0.28030000  1.0 0.5979051086
C  C188  1  0.68765000  0.40735000  0.09410000  1.0 0.5979051086
C  C189  1  0.18675000  0.40645000  0.59410000  1.0 0.5979051086
C  C190  1  0.18765000  0.59355000  0.78030000  1.0 0.5979051086
C  C191  1  0.31325000  0.40735000  0.71970000  1.0 0.5979051086
C  C192  1  0.31235000  0.59265000  0.90590000  1.0 0.5979051086
C  C193  1  0.85248000  0.64628000  0.49580000  1.0 -0.0304041448
C  C194  1  0.84952000  0.35372000  0.20620000  1.0 -0.0304041448
C  C195  1  0.64752000  0.64332000  0.29380000  1.0 -0.0304041448
C  C196  1  0.65048000  0.35668000  0.00420000  1.0 -0.0304041448
C  C197  1  0.14752000  0.35372000  0.50420000  1.0 -0.0304041448
C  C198  1  0.15048000  0.64628000  0.79380000  1.0 -0.0304041448
C  C199  1  0.35248000  0.35668000  0.70620000  1.0 -0.0304041448
C  C200  1  0.34952000  0.64332000  0.99580000  1.0 -0.0304041448
C  C201  1  0.79455000  0.00425000  0.06030000  1.0 0.563477729
C  C202  1  0.05605000  0.99575000  0.79030000  1.0 0.563477729
C  C203  1  0.70545000  0.26575000  0.70970000  1.0 0.563477729
C  C204  1  0.44395000  0.73425000  0.43970000  1.0 0.563477729
C  C205  1  0.20545000  0.99575000  0.93970000  1.0 0.563477729
C  C206  1  0.94395000  0.00425000  0.20970000  1.0 0.563477729
C  C207  1  0.29455000  0.73425000  0.29030000  1.0 0.563477729
C  C208  1  0.55605000  0.26575000  0.56030000  1.0 0.563477729
C  C209  1  0.98620000  0.78810000  0.65590000  1.0 0.4864737285
C  C210  1  0.86780000  0.21190000  0.19810000  1.0 0.4864737285
C  C211  1  0.51380000  0.66970000  0.30190000  1.0 0.4864737285
C  C212  1  0.63220000  0.33030000  0.84410000  1.0 0.4864737285
C  C213  1  0.01380000  0.21190000  0.34410000  1.0 0.4864737285
C  C214  1  0.13220000  0.78810000  0.80190000  1.0 0.4864737285
C  C215  1  0.48620000  0.33030000  0.69810000  1.0 0.4864737285
C  C216  1  0.36780000  0.66970000  0.15590000  1.0 0.4864737285
O  O1  1  0.85031000  0.79061000  0.84030000  1.0 -0.5267297769
O  O2  1  0.04969000  0.20939000  0.05970000  1.0 -0.5217062429
O  O3  1  0.64969000  0.98999000  0.44030000  1.0 -0.5217062429
O  O4  1  0.45031000  0.01001000  0.65970000  1.0 -0.5217062429
O  O5  1  0.14969000  0.20939000  0.15970000  1.0 -0.5217062429
O  O6  1  0.95031000  0.79061000  0.94030000  1.0 -0.5267297769
O  O7  1  0.35031000  0.01001000  0.55970000  1.0 -0.5217062429
O  O8  1  0.54969000  0.98999000  0.34030000  1.0 -0.5217062429
O  O9  1  0.59990000  0.73876000  0.74014000  1.0 -0.5503289031
O  O10  1  0.00138000  0.26124000  0.86114000  1.0 -0.5503289031
O  O11  1  0.90010000  0.14024000  0.63886000  1.0 -0.5503289031
O  O12  1  0.49862000  0.85976000  0.75986000  1.0 -0.5503289031
O  O13  1  0.40010000  0.26124000  0.25986000  1.0 -0.5503289031
O  O14  1  0.99862000  0.73876000  0.13886000  1.0 -0.5503289031
O  O15  1  0.09990000  0.85976000  0.36114000  1.0 -0.5503289031
O  O16  1  0.50138000  0.14024000  0.24014000  1.0 -0.5503289031
O  O17  1  0.56983000  0.20403000  0.24540000  1.0 -0.5267297769
O  O18  1  0.04137000  0.79597000  0.36580000  1.0 -0.5267297769
O  O19  1  0.93017000  0.67557000  0.13420000  1.0 -0.5217062429
O  O20  1  0.45863000  0.32443000  0.25460000  1.0 -0.5217062429
O  O21  1  0.43017000  0.79597000  0.75460000  1.0 -0.5267297769
O  O22  1  0.95863000  0.20403000  0.63420000  1.0 -0.5267297769
O  O23  1  0.06983000  0.32443000  0.86580000  1.0 -0.5267297769
O  O24  1  0.54137000  0.67557000  0.74540000  1.0 -0.5217062429
O  O25  1  0.59536000  0.85027000  0.85109000  1.0 -0.5597839164
O  O26  1  0.00082000  0.14973000  0.74509000  1.0 -0.5503289031
O  O27  1  0.90464000  0.25573000  0.75491000  1.0 -0.5597839164
O  O28  1  0.49918000  0.74427000  0.64891000  1.0 -0.5597839164
O  O29  1  0.40464000  0.14973000  0.14891000  1.0 -0.5597839164
O  O30  1  0.99918000  0.85027000  0.25491000  1.0 -0.5597839164
O  O31  1  0.09536000  0.74427000  0.24509000  1.0 -0.5503289031
O  O32  1  0.50082000  0.25573000  0.35109000  1.0 -0.5597839164
O  O33  1  0.78081000  0.69291000  0.74250000  1.0 -0.5383960154
O  O34  1  0.04959000  0.30709000  0.08790000  1.0 -0.5383960154
O  O35  1  0.71919000  0.96169000  0.41210000  1.0 -0.5383960154
O  O36  1  0.45041000  0.03831000  0.75750000  1.0 -0.5383960154
O  O37  1  0.21919000  0.30709000  0.25750000  1.0 -0.5383960154
O  O38  1  0.95041000  0.69291000  0.91210000  1.0 -0.5383960154
O  O39  1  0.28081000  0.03831000  0.58790000  1.0 -0.5383960154
O  O40  1  0.54959000  0.96169000  0.24250000  1.0 -0.5267297769
O  O41  1  0.87897000  0.15467000  0.27570000  1.0 -0.8297265577
O  O42  1  0.12103000  0.84533000  0.72430000  1.0 -0.8297265577
O  O43  1  0.62103000  0.39673000  0.77570000  1.0 -0.8297265577
O  O44  1  0.37897000  0.60327000  0.22430000  1.0 -0.8297265577
O  O45  1  0.01245000  0.83775000  0.72970000  1.0 -0.4210659302
O  O46  1  0.89195000  0.16225000  0.17470000  1.0 -0.4210659302
O  O47  1  0.48755000  0.71725000  0.32530000  1.0 -0.4210659302
O  O48  1  0.60805000  0.28275000  0.77030000  1.0 -0.4210659302
O  O49  1  0.98755000  0.16225000  0.27030000  1.0 -0.4210659302
O  O50  1  0.10805000  0.83775000  0.82530000  1.0 -0.4210659302
O  O51  1  0.51245000  0.28275000  0.67470000  1.0 -0.4210659302
O  O52  1  0.39195000  0.71725000  0.22970000  1.0 -0.4210659302
O  O53  1  0.82670000  0.58977000  0.36713000  1.0 -0.5383960154
O  O54  1  0.77736000  0.41023000  0.23693000  1.0 -0.5383960154
O  O55  1  0.67330000  0.54043000  0.26307000  1.0 -0.5383960154
O  O56  1  0.72264000  0.45957000  0.13287000  1.0 -0.5383960154
O  O57  1  0.17330000  0.41023000  0.63287000  1.0 -0.5383960154
O  O58  1  0.22264000  0.58977000  0.76307000  1.0 -0.5383960154
O  O59  1  0.32670000  0.45957000  0.73693000  1.0 -0.5383960154
O  O60  1  0.27736000  0.54043000  0.86713000  1.0 -0.5383960154
O  O61  1  0.83068000  0.65080000  0.63408000  1.0 -0.5217062429
O  O62  1  0.98328000  0.34920000  0.17988000  1.0 -0.5217062429
O  O63  1  0.66932000  0.80340000  0.32012000  1.0 -0.5217062429
O  O64  1  0.51672000  0.19660000  0.86592000  1.0 -0.5217062429
O  O65  1  0.16932000  0.34920000  0.36592000  1.0 -0.5217062429
O  O66  1  0.01672000  0.65080000  0.82012000  1.0 -0.5217062429
O  O67  1  0.33068000  0.19660000  0.67988000  1.0 -0.5217062429
O  O68  1  0.48328000  0.80340000  0.13408000  1.0 -0.5217062429
O  O69  1  0.77179000  0.55341000  0.37378000  1.0 -0.5267297769
O  O70  1  0.82037000  0.44659000  0.21838000  1.0 -0.5267297769
O  O71  1  0.72821000  0.60199000  0.28162000  1.0 -0.5267297769
O  O72  1  0.67963000  0.39801000  0.12622000  1.0 -0.5267297769
O  O73  1  0.22821000  0.44659000  0.62622000  1.0 -0.5267297769
O  O74  1  0.17963000  0.55341000  0.78162000  1.0 -0.5267297769
O  O75  1  0.27179000  0.39801000  0.71838000  1.0 -0.5267297769
O  O76  1  0.32037000  0.60199000  0.87378000  1.0 -0.5267297769
O  O77  1  0.55896000  0.31764000  0.34512000  1.0 -0.5597839164
O  O78  1  0.02748000  0.68236000  0.24132000  1.0 -0.5597839164
O  O79  1  0.94104000  0.78616000  0.25868000  1.0 -0.5597839164
O  O80  1  0.47252000  0.21384000  0.15488000  1.0 -0.5597839164
O  O81  1  0.44104000  0.68236000  0.65488000  1.0 -0.5597839164
O  O82  1  0.97252000  0.31764000  0.75868000  1.0 -0.5597839164
O  O83  1  0.05896000  0.21384000  0.74132000  1.0 -0.5597839164
O  O84  1  0.52748000  0.78616000  0.84512000  1.0 -0.5597839164
O  O85  1  0.79362000  0.52042000  0.58860000  1.0 -0.4253684432
O  O86  1  0.06818000  0.47958000  0.27320000  1.0 -0.4210659302
O  O87  1  0.70638000  0.79498000  0.22680000  1.0 -0.4210659302
O  O88  1  0.43182000  0.20502000  0.91140000  1.0 -0.4210659302
O  O89  1  0.20638000  0.47958000  0.41140000  1.0 -0.4210659302
O  O90  1  0.93182000  0.52042000  0.72680000  1.0 -0.4210659302
O  O91  1  0.29362000  0.20502000  0.77320000  1.0 -0.4210659302
O  O92  1  0.56818000  0.79498000  0.08860000  1.0 -0.4253684432
O  O93  1  0.84312000  0.02552000  0.08660000  1.0 -0.5063199891
O  O94  1  0.06108000  0.97448000  0.81760000  1.0 -0.5063199891
O  O95  1  0.65688000  0.24348000  0.68240000  1.0 -0.5048483717
O  O96  1  0.43892000  0.75652000  0.41340000  1.0 -0.5063199891
O  O97  1  0.15688000  0.97448000  0.91340000  1.0 -0.5063199891
O  O98  1  0.93892000  0.02552000  0.18240000  1.0 -0.5063199891
O  O99  1  0.34312000  0.75652000  0.31760000  1.0 -0.5063199891
O  O100  1  0.56108000  0.24348000  0.58660000  1.0 -0.5063199891
O  O101  1  0.82045000  0.28345000  0.36080000  1.0 -0.4253684432
O  O102  1  0.07735000  0.71655000  0.53700000  1.0 -0.4253684432
O  O103  1  0.67955000  0.54035000  0.96300000  1.0 -0.4210659302
O  O104  1  0.42265000  0.45965000  0.13920000  1.0 -0.4210659302
O  O105  1  0.17955000  0.71655000  0.63920000  1.0 -0.4253684432
O  O106  1  0.92265000  0.28345000  0.46300000  1.0 -0.4253684432
O  O107  1  0.32045000  0.45965000  0.03700000  1.0 -0.4210659302
O  O108  1  0.57735000  0.54035000  0.86080000  1.0 -0.4253684432
O  O109  1  0.98591000  0.79521000  0.61150000  1.0 -0.2112621548
O  O110  1  0.81629000  0.20479000  0.19070000  1.0 -0.2112621548
O  O111  1  0.51409000  0.62559000  0.30930000  1.0 -0.2112621548
O  O112  1  0.68371000  0.37441000  0.88850000  1.0 -0.2112621548
O  O113  1  0.01409000  0.20479000  0.38850000  1.0 -0.2112621548
O  O114  1  0.18371000  0.79521000  0.80930000  1.0 -0.2112621548
O  O115  1  0.48591000  0.37441000  0.69070000  1.0 -0.2112621548
O  O116  1  0.31629000  0.62559000  0.11150000  1.0 -0.2112621548
O  O117  1  0.74910000  0.19300000  0.24410000  1.0 -0.1714586536
O  O118  1  0.05110000  0.80700000  0.55610000  1.0 -0.1714586536
O  O119  1  0.75090000  0.49500000  0.94390000  1.0 -0.1714586536
O  O120  1  0.44890000  0.50500000  0.25590000  1.0 -0.1714586536
O  O121  1  0.25090000  0.80700000  0.75590000  1.0 -0.1714586536
O  O122  1  0.94890000  0.19300000  0.44390000  1.0 -0.1714586536
O  O123  1  0.24910000  0.50500000  0.05610000  1.0 -0.1714586536
O  O124  1  0.55110000  0.49500000  0.74410000  1.0 -0.1714586536
O  O125  1  0.70930000  0.53650000  0.55800000  1.0 -0.069931323
O  O126  1  0.02150000  0.46350000  0.17280000  1.0 -0.069931323
O  O127  1  0.79070000  0.84870000  0.32720000  1.0 -0.069931323
O  O128  1  0.47850000  0.15130000  0.94200000  1.0 -0.069931323
O  O129  1  0.29070000  0.46350000  0.44200000  1.0 -0.069931323
O  O130  1  0.97850000  0.53650000  0.82720000  1.0 -0.069931323
O  O131  1  0.20930000  0.15130000  0.67280000  1.0 -0.069931323
O  O132  1  0.52150000  0.84870000  0.05800000  1.0 -0.081217822
O  O133  1  0.89569000  0.65119000  0.75550000  1.0 -0.8538471269
O  O134  1  0.10431000  0.34881000  0.24450000  1.0 -0.8565962123
O  O135  1  0.60431000  0.85981000  0.25550000  1.0 -0.8538471269
O  O136  1  0.39569000  0.14019000  0.74450000  1.0 -0.8538471269
O  O137  1  0.90212000  0.74822000  0.74870000  1.0 -0.5383960154
O  O138  1  0.00048000  0.25178000  0.15390000  1.0 -0.5383960154
O  O139  1  0.59788000  0.84658000  0.34610000  1.0 -0.5383960154
O  O140  1  0.49952000  0.15342000  0.75130000  1.0 -0.5383960154
O  O141  1  0.09788000  0.25178000  0.25130000  1.0 -0.5383960154
O  O142  1  0.99952000  0.74822000  0.84610000  1.0 -0.5383960154
O  O143  1  0.40212000  0.15342000  0.65390000  1.0 -0.5383960154
O  O144  1  0.50048000  0.84658000  0.24870000  1.0 -0.5383960154
O  O145  1  0.76730000  0.04310000  0.09520000  1.0 -0.4474405455
O  O146  1  0.05210000  0.95690000  0.72420000  1.0 -0.4474405455
O  O147  1  0.73270000  0.32790000  0.77580000  1.0 -0.4474405455
O  O148  1  0.44790000  0.67210000  0.40480000  1.0 -0.4474405455
O  O149  1  0.23270000  0.95690000  0.90480000  1.0 -0.4474405455
O  O150  1  0.94790000  0.04310000  0.27580000  1.0 -0.4474405455
O  O151  1  0.26730000  0.67210000  0.22420000  1.0 -0.4474405455
O  O152  1  0.55210000  0.32790000  0.59520000  1.0 -0.4474405455
O  O153  1  0.81060000  0.05480000  0.24420000  1.0 -0.7919130134
O  O154  1  0.18940000  0.94520000  0.75580000  1.0 -0.7919130134
O  O155  1  0.68940000  0.43360000  0.74420000  1.0 -0.7919130134
O  O156  1  0.31060000  0.56640000  0.25580000  1.0 -0.8026264714
O  O157  1  0.01030000  0.74780000  0.60870000  1.0 -0.2894231039
O  O158  1  0.86090000  0.25220000  0.26250000  1.0 -0.2894231039
O  O159  1  0.48970000  0.59840000  0.23750000  1.0 -0.2894231039
O  O160  1  0.63910000  0.40160000  0.89130000  1.0 -0.2894231039
O  O161  1  0.98970000  0.25220000  0.39130000  1.0 -0.2894231039
O  O162  1  0.13910000  0.74780000  0.73750000  1.0 -0.2894231039
O  O163  1  0.51030000  0.40160000  0.76250000  1.0 -0.2894231039
O  O164  1  0.36090000  0.59840000  0.10870000  1.0 -0.2894231039
O  O165  1  0.71780000  0.52580000  0.59040000  1.0 -0.0573714271
O  O166  1  0.06460000  0.47420000  0.19200000  1.0 -0.0507177735
O  O167  1  0.78220000  0.87260000  0.30800000  1.0 -0.0573714271
O  O168  1  0.43540000  0.12740000  0.90960000  1.0 -0.0507177735
O  O169  1  0.28220000  0.47420000  0.40960000  1.0 -0.0507177735
O  O170  1  0.93540000  0.52580000  0.80800000  1.0 -0.0507177735
O  O171  1  0.21780000  0.12740000  0.69200000  1.0 -0.0507177735
O  O172  1  0.56460000  0.87260000  0.09040000  1.0 -0.0573714271
O  O173  1  0.75990000  0.18250000  0.26660000  1.0 -0.1539569306
O  O174  1  0.08410000  0.81750000  0.57740000  1.0 -0.1539569306
O  O175  1  0.74010000  0.50670000  0.92260000  1.0 -0.1539569306
O  O176  1  0.41590000  0.49330000  0.23340000  1.0 -0.1565369772
O  O177  1  0.24010000  0.81750000  0.73340000  1.0 -0.1539569306
O  O178  1  0.91590000  0.18250000  0.42260000  1.0 -0.1539569306
O  O179  1  0.25990000  0.49330000  0.07740000  1.0 -0.1539569306
O  O180  1  0.58410000  0.50670000  0.76660000  1.0 -0.1539569306
