# DDEC6 charges by PACMAN v1.1 (https://github.com/mtap-research/PACMAN-charge/)
data_FIXLEG_ion_pacman
_symmetry_space_group_name_H-M   'P 1'
_cell_length_a   13.00310000
_cell_length_b   20.19040000
_cell_length_c   29.57400000
_cell_angle_alpha   90.00000000
_cell_angle_beta   116.04800000
_cell_angle_gamma   90.00000000
_symmetry_Int_Tables_number   1
_chemical_formula_structural   Cd3H54C60N10Cl2O21
_chemical_formula_sum   'Cd12 H216 C240 N40 Cl8 O84'
_cell_volume   6975.64609341
_cell_formula_units_Z   4
loop_
 _symmetry_equiv_pos_site_id
 _symmetry_equiv_pos_as_xyz
  1  'x, y, z'
loop_
 _atom_site_type_symbol
 _atom_site_label
 _atom_site_symmetry_multiplicity
 _atom_site_fract_x
 _atom_site_fract_y
 _atom_site_fract_z
 _atom_site_occupancy
 _atom_site_charge
Cd  Cd1  1  0.70323000  0.44739000  0.48494000  1.0 1.0469134485
Cd  Cd2  1  0.56556000  0.55122000  0.79713000  1.0 0.860825259
Cd  Cd3  1  0.70323000  0.05261000  0.98494000  1.0 1.0469134485
Cd  Cd4  1  0.56556000  0.94878000  0.29713000  1.0 0.860825259
Cd  Cd5  1  0.29677000  0.94739000  0.01506000  1.0 1.0469134485
Cd  Cd6  1  0.43444000  0.05122000  0.70287000  1.0 0.860825259
Cd  Cd7  1  0.29677000  0.55261000  0.51506000  1.0 1.0469134485
Cd  Cd8  1  0.43444000  0.44878000  0.20287000  1.0 0.860825259
Cd  Cd9  1  0.94010000  0.96816000  0.65743000  1.0 0.860825259
Cd  Cd10  1  0.05990000  0.46816000  0.84257000  1.0 0.860825259
Cd  Cd11  1  0.05990000  0.03184000  0.34257000  1.0 0.860825259
Cd  Cd12  1  0.94010000  0.53184000  0.15743000  1.0 0.860825259
H  H1  1  0.97452000  0.48141000  0.66195000  1.0 0.0807827895
H  H2  1  0.11249000  0.49169000  0.56246000  1.0 0.1413410587
H  H3  1  0.71858000  0.20668000  0.47554000  1.0 0.1107471896
H  H4  1  0.28758000  0.52009000  0.62820000  1.0 0.1301888519
H  H5  1  0.69633000  0.10378000  0.43620000  1.0 0.1214252478
H  H6  1  0.57072000  0.19604000  0.30081000  1.0 0.1214252478
H  H7  1  0.56529000  0.30871000  0.29832000  1.0 0.2897985871
H  H8  1  0.56490000  0.34395000  0.34014000  1.0 0.2897985871
H  H9  1  0.11325000  0.47626000  0.75057000  1.0 0.1497420744
H  H10  1  0.22287000  0.50034000  0.75885000  1.0 0.1697302011
H  H11  1  0.67054000  0.71154000  0.93017000  1.0 0.1107471896
H  H12  1  0.51325000  0.79995000  0.79295000  1.0 0.1214252478
H  H13  1  0.69713000  0.81627000  0.96772000  1.0 0.1107471896
H  H14  1  0.49869000  0.90985000  0.78942000  1.0 0.2897985871
H  H15  1  0.53161000  0.95301000  0.83196000  1.0 0.2897985871
H  H16  1  0.96904000  0.46923000  0.70014000  1.0 0.161901706
H  H17  1  0.87266000  0.47911000  0.65366000  1.0 0.2043530777
H  H18  1  0.15199000  0.50822000  0.72743000  1.0 0.0807827895
H  H19  1  0.97452000  0.01859000  0.16195000  1.0 0.0807827895
H  H20  1  0.11249000  0.00831000  0.06246000  1.0 0.1413410587
H  H21  1  0.71858000  0.29332000  0.97554000  1.0 0.1107471896
H  H22  1  0.28758000  0.97991000  0.12820000  1.0 0.1301888519
H  H23  1  0.69633000  0.39622000  0.93620000  1.0 0.1214252478
H  H24  1  0.57072000  0.30396000  0.80081000  1.0 0.1214252478
H  H25  1  0.56529000  0.19129000  0.79832000  1.0 0.2897985871
H  H26  1  0.56490000  0.15605000  0.84014000  1.0 0.2897985871
H  H27  1  0.11325000  0.02374000  0.25057000  1.0 0.1497420744
H  H28  1  0.22287000  0.99966000  0.25885000  1.0 0.1697302011
H  H29  1  0.67054000  0.78846000  0.43017000  1.0 0.1107471896
H  H30  1  0.51325000  0.70005000  0.29295000  1.0 0.1214252478
H  H31  1  0.69713000  0.68373000  0.46772000  1.0 0.1107471896
H  H32  1  0.49869000  0.59015000  0.28942000  1.0 0.2897985871
H  H33  1  0.53161000  0.54699000  0.33196000  1.0 0.2897985871
H  H34  1  0.96904000  0.03077000  0.20014000  1.0 0.161901706
H  H35  1  0.87266000  0.02089000  0.15366000  1.0 0.2043530777
H  H36  1  0.15199000  0.99178000  0.22743000  1.0 0.0807827895
H  H37  1  0.02548000  0.98141000  0.83805000  1.0 0.0807827895
H  H38  1  0.88751000  0.99169000  0.93754000  1.0 0.1413410587
H  H39  1  0.28142000  0.70668000  0.02446000  1.0 0.1107471896
H  H40  1  0.71242000  0.02009000  0.87180000  1.0 0.1301888519
H  H41  1  0.30367000  0.60378000  0.06380000  1.0 0.1214252478
H  H42  1  0.42928000  0.69604000  0.19919000  1.0 0.1301888519
H  H43  1  0.43471000  0.80871000  0.20168000  1.0 0.2897985871
H  H44  1  0.43510000  0.84395000  0.15986000  1.0 0.2897985871
H  H45  1  0.88675000  0.97626000  0.74943000  1.0 0.1497420744
H  H46  1  0.77713000  0.00034000  0.74115000  1.0 0.1697302011
H  H47  1  0.32946000  0.21154000  0.56983000  1.0 0.1107471896
H  H48  1  0.48675000  0.29995000  0.70705000  1.0 0.1214252478
H  H49  1  0.30287000  0.31627000  0.53228000  1.0 0.1107471896
H  H50  1  0.50131000  0.40985000  0.71058000  1.0 0.2897985871
H  H51  1  0.46839000  0.45301000  0.66804000  1.0 0.2897985871
H  H52  1  0.03096000  0.96923000  0.79986000  1.0 0.161901706
H  H53  1  0.12734000  0.97911000  0.84634000  1.0 0.2053446209
H  H54  1  0.84801000  0.00822000  0.77257000  1.0 0.0807827895
H  H55  1  0.02548000  0.51859000  0.33805000  1.0 0.0807827895
H  H56  1  0.88751000  0.50831000  0.43754000  1.0 0.1413410587
H  H57  1  0.28142000  0.79332000  0.52446000  1.0 0.1107471896
H  H58  1  0.71242000  0.47991000  0.37180000  1.0 0.1301888519
H  H59  1  0.30367000  0.89622000  0.56380000  1.0 0.1214252478
H  H60  1  0.42928000  0.80396000  0.69919000  1.0 0.1214252478
H  H61  1  0.43471000  0.69129000  0.70168000  1.0 0.3017009159
H  H62  1  0.43510000  0.65605000  0.65986000  1.0 0.2897985871
H  H63  1  0.88675000  0.52374000  0.24943000  1.0 0.1497420744
H  H64  1  0.77713000  0.49966000  0.24115000  1.0 0.1697302011
H  H65  1  0.32946000  0.28846000  0.06983000  1.0 0.1107471896
H  H66  1  0.48675000  0.20005000  0.20705000  1.0 0.1214252478
H  H67  1  0.30287000  0.18373000  0.03228000  1.0 0.1107471896
H  H68  1  0.50131000  0.09015000  0.21058000  1.0 0.2897985871
H  H69  1  0.46839000  0.04699000  0.16804000  1.0 0.2897985871
H  H70  1  0.03096000  0.53077000  0.29986000  1.0 0.161901706
H  H71  1  0.12734000  0.52089000  0.34634000  1.0 0.2043530777
H  H72  1  0.84801000  0.49178000  0.27257000  1.0 0.0807827895
H  H73  1  0.09218000  0.12071000  0.80263000  1.0 0.1301888519
H  H74  1  0.11021000  0.22441000  0.84063000  1.0 0.1107471896
H  H75  1  0.93538000  0.20946000  0.66549000  1.0 0.1214252478
H  H76  1  0.66364000  0.99532000  0.48628000  1.0 0.1301888519
H  H77  1  0.87994000  0.32094000  0.66958000  1.0 0.2695399409
H  H78  1  0.94884000  0.36308000  0.70988000  1.0 0.2695399409
H  H79  1  0.45633000  0.98059000  0.59703000  1.0 0.2814233226
H  H80  1  0.57701000  0.97005000  0.61649000  1.0 0.2814233226
H  H81  1  0.90782000  0.62071000  0.69737000  1.0 0.1301888519
H  H82  1  0.88979000  0.72441000  0.65937000  1.0 0.1107471896
H  H83  1  0.06462000  0.70946000  0.83451000  1.0 0.1214252478
H  H84  1  0.33636000  0.49532000  0.01372000  1.0 0.1301888519
H  H85  1  0.12006000  0.82094000  0.83042000  1.0 0.2695399409
H  H86  1  0.05116000  0.86308000  0.79012000  1.0 0.2695399409
H  H87  1  0.54367000  0.48059000  0.90297000  1.0 0.2814233226
H  H88  1  0.42299000  0.47005000  0.88351000  1.0 0.2814233226
H  H89  1  0.90782000  0.87929000  0.19737000  1.0 0.1301888519
H  H90  1  0.88979000  0.77559000  0.15937000  1.0 0.1107471896
H  H91  1  0.06462000  0.79054000  0.33451000  1.0 0.1214252478
H  H92  1  0.33636000  0.00468000  0.51372000  1.0 0.1301888519
H  H93  1  0.12006000  0.67906000  0.33042000  1.0 0.2695399409
H  H94  1  0.05116000  0.63692000  0.29012000  1.0 0.2695399409
H  H95  1  0.54367000  0.01941000  0.40297000  1.0 0.2814233226
H  H96  1  0.42299000  0.02995000  0.38351000  1.0 0.2814233226
H  H97  1  0.09218000  0.37929000  0.30263000  1.0 0.1301888519
H  H98  1  0.11021000  0.27559000  0.34063000  1.0 0.1107471896
H  H99  1  0.93538000  0.29054000  0.16549000  1.0 0.1214252478
H  H100  1  0.66364000  0.50468000  0.98628000  1.0 0.1301888519
H  H101  1  0.87994000  0.17906000  0.16958000  1.0 0.2695399409
H  H102  1  0.94884000  0.13692000  0.20988000  1.0 0.2695399409
H  H103  1  0.45633000  0.51941000  0.09703000  1.0 0.2814233226
H  H104  1  0.57701000  0.52995000  0.11649000  1.0 0.2814233226
H  H105  1  0.50933000  0.14056000  0.51102000  1.0 0.1497420744
H  H106  1  0.46064000  0.21465000  0.50159000  1.0 0.1497420744
H  H107  1  0.58230000  0.19899000  0.50262000  1.0 0.1497420744
H  H108  1  0.57306000  0.10660000  0.59202000  1.0 0.1214252478
H  H109  1  0.66410000  0.12393000  0.68034000  1.0 0.1497420744
H  H110  1  0.69785000  0.31835000  0.65267000  1.0 0.1413410587
H  H111  1  0.61318000  0.29601000  0.56644000  1.0 0.1301888519
H  H112  1  0.80450000  0.35684000  0.81151000  1.0 0.1027235265
H  H113  1  0.71878000  0.33800000  0.72432000  1.0 0.1413410587
H  H114  1  0.78413000  0.14146000  0.75385000  1.0 0.1413410587
H  H115  1  0.87180000  0.16529000  0.84019000  1.0 0.1301888519
H  H116  1  0.93294000  0.23692000  0.90569000  1.0 0.1497420744
H  H117  1  0.96928000  0.30805000  0.89363000  1.0 0.1497420744
H  H118  1  0.85053000  0.29934000  0.89701000  1.0 0.1301888519
H  H119  1  0.00648000  0.27474000  0.50221000  1.0 0.161901706
H  H120  1  0.06142000  0.20228000  0.50969000  1.0 0.1497420744
H  H121  1  0.94318000  0.21318000  0.51315000  1.0 0.1497420744
H  H122  1  0.08580000  0.15116000  0.59472000  1.0 0.1214252478
H  H123  1  0.18018000  0.17087000  0.68175000  1.0 0.1214252478
H  H124  1  0.18844000  0.36512000  0.65304000  1.0 0.1413410587
H  H125  1  0.09395000  0.34262000  0.56771000  1.0 0.1413410587
H  H126  1  0.37384000  0.21015000  0.84077000  1.0 0.1214252478
H  H127  1  0.30368000  0.18893000  0.75520000  1.0 0.1214252478
H  H128  1  0.21872000  0.38296000  0.72832000  1.0 0.1301888519
H  H129  1  0.29604000  0.40055000  0.81475000  1.0 0.1301888519
H  H130  1  0.40757000  0.27591000  0.90622000  1.0 0.1497420744
H  H131  1  0.44160000  0.35022000  0.89959000  1.0 0.1413410587
H  H132  1  0.31660000  0.33448000  0.89481000  1.0 0.161901706
H  H133  1  0.49067000  0.64056000  0.98898000  1.0 0.1497420744
H  H134  1  0.53936000  0.71465000  0.99841000  1.0 0.1497420744
H  H135  1  0.41770000  0.69899000  0.99738000  1.0 0.1497420744
H  H136  1  0.42694000  0.60660000  0.90798000  1.0 0.1214252478
H  H137  1  0.33590000  0.62393000  0.81966000  1.0 0.1497420744
H  H138  1  0.30215000  0.81835000  0.84733000  1.0 0.1413410587
H  H139  1  0.38682000  0.79601000  0.93356000  1.0 0.1301888519
H  H140  1  0.19550000  0.85684000  0.68849000  1.0 0.1027235265
H  H141  1  0.28122000  0.83800000  0.77568000  1.0 0.1413410587
H  H142  1  0.21587000  0.64146000  0.74615000  1.0 0.1413410587
H  H143  1  0.12820000  0.66529000  0.65981000  1.0 0.1301888519
H  H144  1  0.06706000  0.73692000  0.59431000  1.0 0.1497420744
H  H145  1  0.03072000  0.80805000  0.60637000  1.0 0.1497420744
H  H146  1  0.14947000  0.79934000  0.60299000  1.0 0.1301888519
H  H147  1  0.99352000  0.77474000  0.99779000  1.0 0.161901706
H  H148  1  0.93858000  0.70228000  0.99031000  1.0 0.1497420744
H  H149  1  0.05682000  0.71318000  0.98685000  1.0 0.1497420744
H  H150  1  0.91420000  0.65116000  0.90528000  1.0 0.1214252478
H  H151  1  0.81982000  0.67087000  0.81825000  1.0 0.1214252478
H  H152  1  0.81156000  0.86512000  0.84696000  1.0 0.1413410587
H  H153  1  0.90605000  0.84262000  0.93229000  1.0 0.1413410587
H  H154  1  0.62616000  0.71015000  0.65923000  1.0 0.1214252478
H  H155  1  0.69632000  0.68893000  0.74480000  1.0 0.1214252478
H  H156  1  0.78128000  0.88296000  0.77168000  1.0 0.1301888519
H  H157  1  0.70396000  0.90055000  0.68525000  1.0 0.1301888519
H  H158  1  0.59243000  0.77591000  0.59378000  1.0 0.1497420744
H  H159  1  0.55840000  0.85022000  0.60041000  1.0 0.1413410587
H  H160  1  0.68340000  0.83448000  0.60519000  1.0 0.161901706
H  H161  1  0.49067000  0.85944000  0.48898000  1.0 0.1497420744
H  H162  1  0.53936000  0.78535000  0.49841000  1.0 0.1497420744
H  H163  1  0.41770000  0.80101000  0.49738000  1.0 0.1497420744
H  H164  1  0.42694000  0.89340000  0.40798000  1.0 0.1214252478
H  H165  1  0.33590000  0.87607000  0.31966000  1.0 0.1497420744
H  H166  1  0.30215000  0.68165000  0.34733000  1.0 0.1413410587
H  H167  1  0.38682000  0.70399000  0.43356000  1.0 0.1301888519
H  H168  1  0.19550000  0.64316000  0.18849000  1.0 0.1027235265
H  H169  1  0.28122000  0.66200000  0.27568000  1.0 0.1413410587
H  H170  1  0.21587000  0.85854000  0.24615000  1.0 0.1413410587
H  H171  1  0.12820000  0.83471000  0.15981000  1.0 0.1301888519
H  H172  1  0.06706000  0.76308000  0.09431000  1.0 0.1497420744
H  H173  1  0.03072000  0.69195000  0.10637000  1.0 0.1497420744
H  H174  1  0.14947000  0.70066000  0.10299000  1.0 0.1301888519
H  H175  1  0.99352000  0.72526000  0.49779000  1.0 0.161901706
H  H176  1  0.93858000  0.79772000  0.49031000  1.0 0.1497420744
H  H177  1  0.05682000  0.78682000  0.48685000  1.0 0.1497420744
H  H178  1  0.91420000  0.84884000  0.40528000  1.0 0.1214252478
H  H179  1  0.81982000  0.82913000  0.31825000  1.0 0.1214252478
H  H180  1  0.81156000  0.63488000  0.34696000  1.0 0.1413410587
H  H181  1  0.90605000  0.65738000  0.43229000  1.0 0.1413410587
H  H182  1  0.62616000  0.78985000  0.15923000  1.0 0.1214252478
H  H183  1  0.69632000  0.81107000  0.24480000  1.0 0.1214252478
H  H184  1  0.78128000  0.61704000  0.27168000  1.0 0.1301888519
H  H185  1  0.70396000  0.59945000  0.18525000  1.0 0.1301888519
H  H186  1  0.59243000  0.72409000  0.09378000  1.0 0.1497420744
H  H187  1  0.55840000  0.64978000  0.10041000  1.0 0.1413410587
H  H188  1  0.68340000  0.66552000  0.10519000  1.0 0.161901706
H  H189  1  0.50933000  0.35944000  0.01102000  1.0 0.1497420744
H  H190  1  0.46064000  0.28535000  0.00159000  1.0 0.1497420744
H  H191  1  0.58230000  0.30101000  0.00262000  1.0 0.1497420744
H  H192  1  0.57306000  0.39340000  0.09202000  1.0 0.1214252478
H  H193  1  0.66410000  0.37607000  0.18034000  1.0 0.1497420744
H  H194  1  0.69785000  0.18165000  0.15267000  1.0 0.1413410587
H  H195  1  0.61318000  0.20399000  0.06644000  1.0 0.1413410587
H  H196  1  0.80450000  0.14316000  0.31151000  1.0 0.1027235265
H  H197  1  0.71878000  0.16200000  0.22432000  1.0 0.1413410587
H  H198  1  0.78413000  0.35854000  0.25385000  1.0 0.1413410587
H  H199  1  0.87180000  0.33471000  0.34019000  1.0 0.1301888519
H  H200  1  0.93294000  0.26308000  0.40569000  1.0 0.1497420744
H  H201  1  0.96928000  0.19195000  0.39363000  1.0 0.1497420744
H  H202  1  0.85053000  0.20066000  0.39701000  1.0 0.1301888519
H  H203  1  0.00648000  0.22526000  0.00221000  1.0 0.161901706
H  H204  1  0.06142000  0.29772000  0.00969000  1.0 0.1497420744
H  H205  1  0.94318000  0.28682000  0.01315000  1.0 0.1497420744
H  H206  1  0.08580000  0.34884000  0.09472000  1.0 0.1214252478
H  H207  1  0.18018000  0.32913000  0.18175000  1.0 0.1214252478
H  H208  1  0.18844000  0.13488000  0.15304000  1.0 0.1413410587
H  H209  1  0.09395000  0.15738000  0.06771000  1.0 0.1413410587
H  H210  1  0.37384000  0.28985000  0.34077000  1.0 0.1214252478
H  H211  1  0.30368000  0.31107000  0.25520000  1.0 0.1214252478
H  H212  1  0.21872000  0.11704000  0.22832000  1.0 0.1301888519
H  H213  1  0.29604000  0.09945000  0.31475000  1.0 0.1301888519
H  H214  1  0.40757000  0.22409000  0.40622000  1.0 0.1497420744
H  H215  1  0.44160000  0.14978000  0.39959000  1.0 0.1413410587
H  H216  1  0.31660000  0.16552000  0.39481000  1.0 0.161901706
C  C1  1  0.91240000  0.46530000  0.56320000  1.0 0.5370393047
C  C2  1  0.68100000  0.32680000  0.44060000  1.0 0.5325962867
C  C3  1  0.02470000  0.48220000  0.60540000  1.0 -0.0774841013
C  C4  1  0.66400000  0.26320000  0.41260000  1.0 -0.1410379442
C  C5  1  0.03710000  0.48840000  0.65520000  1.0 0.0406119784
C  C6  1  0.11980000  0.49480000  0.59580000  1.0 -0.1023130792
C  C7  1  0.69000000  0.20470000  0.44000000  1.0 -0.1309084046
C  C8  1  0.62020000  0.26110000  0.35920000  1.0 0.2313356733
C  C9  1  0.14390000  0.50500000  0.69470000  1.0 0.054649919
C  C10  1  0.22380000  0.51170000  0.63500000  1.0 -0.1023130792
C  C11  1  0.67520000  0.14330000  0.41680000  1.0 -0.1813518136
C  C12  1  0.60220000  0.19860000  0.33650000  1.0 -0.2506555061
C  C13  1  0.23750000  0.51670000  0.68460000  1.0 -0.1309084046
C  C14  1  0.62850000  0.14080000  0.36400000  1.0 -0.0213034933
C  C15  1  0.35270000  0.53300000  0.72440000  1.0 0.5325962867
C  C16  1  0.60950000  0.07560000  0.33740000  1.0 0.5101835465
C  C17  1  0.57800000  0.68080000  0.83110000  1.0 0.5223687326
C  C18  1  0.58940000  0.74660000  0.85670000  1.0 -0.0136549363
C  C19  1  0.64410000  0.75030000  0.91020000  1.0 -0.1883454093
C  C20  1  0.54870000  0.80310000  0.82860000  1.0 -0.2506555061
C  C21  1  0.65740000  0.81250000  0.93210000  1.0 -0.1309084046
C  C22  1  0.55800000  0.86550000  0.85110000  1.0 0.2313356733
C  C23  1  0.61400000  0.86990000  0.90330000  1.0 -0.1245301405
C  C24  1  0.63330000  0.93500000  0.93050000  1.0 0.5325962867
C  C25  1  0.91240000  0.03470000  0.06320000  1.0 0.5370393047
C  C26  1  0.68100000  0.17320000  0.94060000  1.0 0.5325962867
C  C27  1  0.02470000  0.01780000  0.10540000  1.0 -0.0774841013
C  C28  1  0.66400000  0.23680000  0.91260000  1.0 -0.1410379442
C  C29  1  0.03710000  0.01160000  0.15520000  1.0 0.0406119784
C  C30  1  0.11980000  0.00520000  0.09580000  1.0 -0.1023130792
C  C31  1  0.69000000  0.29530000  0.94000000  1.0 -0.1309084046
C  C32  1  0.62020000  0.23890000  0.85920000  1.0 0.2313356733
C  C33  1  0.14390000  0.99500000  0.19470000  1.0 0.054649919
C  C34  1  0.22380000  0.98830000  0.13500000  1.0 -0.1023130792
C  C35  1  0.67520000  0.35670000  0.91680000  1.0 -0.1813518136
C  C36  1  0.60220000  0.30140000  0.83650000  1.0 -0.2506555061
C  C37  1  0.23750000  0.98330000  0.18460000  1.0 -0.1410379442
C  C38  1  0.62850000  0.35920000  0.86400000  1.0 -0.0213034933
C  C39  1  0.35270000  0.96700000  0.22440000  1.0 0.5370393047
C  C40  1  0.60950000  0.42440000  0.83740000  1.0 0.5101835465
C  C41  1  0.57800000  0.81920000  0.33110000  1.0 0.5223687326
C  C42  1  0.58940000  0.75340000  0.35670000  1.0 -0.0136549363
C  C43  1  0.64410000  0.74970000  0.41020000  1.0 -0.1883454093
C  C44  1  0.54870000  0.69690000  0.32860000  1.0 -0.2506555061
C  C45  1  0.65740000  0.68750000  0.43210000  1.0 -0.1309084046
C  C46  1  0.55800000  0.63450000  0.35110000  1.0 0.2313356733
C  C47  1  0.61400000  0.63010000  0.40330000  1.0 -0.1245301405
C  C48  1  0.63330000  0.56500000  0.43050000  1.0 0.5325962867
C  C49  1  0.08760000  0.96530000  0.93680000  1.0 0.5370393047
C  C50  1  0.31900000  0.82680000  0.05940000  1.0 0.5325962867
C  C51  1  0.97530000  0.98220000  0.89460000  1.0 -0.0774841013
C  C52  1  0.33600000  0.76320000  0.08740000  1.0 -0.1410379442
C  C53  1  0.96290000  0.98840000  0.84480000  1.0 0.0406119784
C  C54  1  0.88020000  0.99480000  0.90420000  1.0 -0.1023130792
C  C55  1  0.31000000  0.70470000  0.06000000  1.0 -0.1309084046
C  C56  1  0.37980000  0.76110000  0.14080000  1.0 0.2313356733
C  C57  1  0.85610000  0.00500000  0.80530000  1.0 0.054649919
C  C58  1  0.77620000  0.01170000  0.86500000  1.0 -0.1023130792
C  C59  1  0.32480000  0.64330000  0.08320000  1.0 -0.1813518136
C  C60  1  0.39780000  0.69860000  0.16350000  1.0 -0.2506555061
C  C61  1  0.76250000  0.01670000  0.81540000  1.0 -0.1410379442
C  C62  1  0.37150000  0.64080000  0.13600000  1.0 -0.0213034933
C  C63  1  0.64730000  0.03300000  0.77560000  1.0 0.5370393047
C  C64  1  0.39050000  0.57560000  0.16260000  1.0 0.5101835465
C  C65  1  0.42200000  0.18080000  0.66890000  1.0 0.5223687326
C  C66  1  0.41060000  0.24660000  0.64330000  1.0 -0.0136549363
C  C67  1  0.35590000  0.25030000  0.58980000  1.0 -0.1883454093
C  C68  1  0.45130000  0.30310000  0.67140000  1.0 -0.2506555061
C  C69  1  0.34260000  0.31250000  0.56790000  1.0 -0.1309084046
C  C70  1  0.44200000  0.36550000  0.64890000  1.0 0.2313356733
C  C71  1  0.38600000  0.36990000  0.59670000  1.0 -0.1245301405
C  C72  1  0.36670000  0.43500000  0.56950000  1.0 0.5325962867
C  C73  1  0.08760000  0.53470000  0.43680000  1.0 0.5370393047
C  C74  1  0.31900000  0.67320000  0.55940000  1.0 0.5325962867
C  C75  1  0.97530000  0.51780000  0.39460000  1.0 -0.0774841013
C  C76  1  0.33600000  0.73680000  0.58740000  1.0 -0.1410379442
C  C77  1  0.96290000  0.51160000  0.34480000  1.0 0.0406119784
C  C78  1  0.88020000  0.50520000  0.40420000  1.0 -0.1023130792
C  C79  1  0.31000000  0.79530000  0.56000000  1.0 -0.1309084046
C  C80  1  0.37980000  0.73890000  0.64080000  1.0 0.2313356733
C  C81  1  0.85610000  0.49500000  0.30530000  1.0 0.054649919
C  C82  1  0.77620000  0.48830000  0.36500000  1.0 -0.1023130792
C  C83  1  0.32480000  0.85670000  0.58320000  1.0 -0.1813518136
C  C84  1  0.39780000  0.80140000  0.66350000  1.0 -0.2506555061
C  C85  1  0.76250000  0.48330000  0.31540000  1.0 -0.1410379442
C  C86  1  0.37150000  0.85920000  0.63600000  1.0 -0.0213034933
C  C87  1  0.64730000  0.46700000  0.27560000  1.0 0.5370393047
C  C88  1  0.39050000  0.92440000  0.66260000  1.0 0.5101835465
C  C89  1  0.42200000  0.31920000  0.16890000  1.0 0.5223687326
C  C90  1  0.41060000  0.25340000  0.14330000  1.0 -0.0136549363
C  C91  1  0.35590000  0.24970000  0.08980000  1.0 -0.1883454093
C  C92  1  0.45130000  0.19690000  0.17140000  1.0 -0.2506555061
C  C93  1  0.34260000  0.18750000  0.06790000  1.0 -0.1309084046
C  C94  1  0.44200000  0.13450000  0.14890000  1.0 0.2313356733
C  C95  1  0.38600000  0.13010000  0.09670000  1.0 -0.1245301405
C  C96  1  0.36670000  0.06500000  0.06950000  1.0 0.5325962867
C  C97  1  0.98910000  0.09010000  0.70410000  1.0 0.5223687326
C  C98  1  0.00950000  0.15530000  0.72990000  1.0 -0.0213034933
C  C99  1  0.06400000  0.15940000  0.78260000  1.0 -0.1696101988
C  C100  1  0.07590000  0.22140000  0.80500000  1.0 -0.1138971152
C  C101  1  0.03910000  0.27910000  0.77670000  1.0 -0.1612775682
C  C102  1  0.98710000  0.27530000  0.72370000  1.0 0.2370578554
C  C103  1  0.97200000  0.21280000  0.70120000  1.0 -0.2367793435
C  C104  1  0.05180000  0.34310000  0.80360000  1.0 0.5325962867
C  C105  1  0.72380000  0.98110000  0.58330000  1.0 0.5540756767
C  C106  1  0.60920000  0.99070000  0.54100000  1.0 -0.1410379442
C  C107  1  0.59720000  0.99720000  0.49190000  1.0 -0.2339183393
C  C108  1  0.50970000  0.99370000  0.54930000  1.0 0.2176760582
C  C109  1  0.01090000  0.59010000  0.79590000  1.0 0.5223687326
C  C110  1  0.99050000  0.65530000  0.77010000  1.0 -0.0213034933
C  C111  1  0.93600000  0.65940000  0.71740000  1.0 -0.1696101988
C  C112  1  0.92410000  0.72140000  0.69500000  1.0 -0.1138971152
C  C113  1  0.96090000  0.77910000  0.72330000  1.0 -0.1612775682
C  C114  1  0.01290000  0.77530000  0.77630000  1.0 0.2370578554
C  C115  1  0.02800000  0.71280000  0.79880000  1.0 -0.2367793435
C  C116  1  0.94820000  0.84310000  0.69640000  1.0 0.5325962867
C  C117  1  0.27620000  0.48110000  0.91670000  1.0 0.5540756767
C  C118  1  0.39080000  0.49070000  0.95900000  1.0 -0.1410379442
C  C119  1  0.40280000  0.49720000  0.00810000  1.0 -0.2339183393
C  C120  1  0.49030000  0.49370000  0.95070000  1.0 0.2176760582
C  C121  1  0.01090000  0.90990000  0.29590000  1.0 0.5223687326
C  C122  1  0.99050000  0.84470000  0.27010000  1.0 -0.0213034933
C  C123  1  0.93600000  0.84060000  0.21740000  1.0 -0.1696101988
C  C124  1  0.92410000  0.77860000  0.19500000  1.0 -0.1138971152
C  C125  1  0.96090000  0.72090000  0.22330000  1.0 -0.1612775682
C  C126  1  0.01290000  0.72470000  0.27630000  1.0 0.2370578554
C  C127  1  0.02800000  0.78720000  0.29880000  1.0 -0.2367793435
C  C128  1  0.94820000  0.65690000  0.19640000  1.0 0.5325962867
C  C129  1  0.27620000  0.01890000  0.41670000  1.0 0.5540756767
C  C130  1  0.39080000  0.00930000  0.45900000  1.0 -0.1410379442
C  C131  1  0.40280000  0.00280000  0.50810000  1.0 -0.2339183393
C  C132  1  0.49030000  0.00630000  0.45070000  1.0 0.2176760582
C  C133  1  0.98910000  0.40990000  0.20410000  1.0 0.5223687326
C  C134  1  0.00950000  0.34470000  0.22990000  1.0 -0.0213034933
C  C135  1  0.06400000  0.34060000  0.28260000  1.0 -0.1696101988
C  C136  1  0.07590000  0.27860000  0.30500000  1.0 -0.1138971152
C  C137  1  0.03910000  0.22090000  0.27670000  1.0 -0.1612775682
C  C138  1  0.98710000  0.22470000  0.22370000  1.0 0.2370578554
C  C139  1  0.97200000  0.28720000  0.20120000  1.0 -0.2367793435
C  C140  1  0.05180000  0.15690000  0.30360000  1.0 0.5325962867
C  C141  1  0.72380000  0.51890000  0.08330000  1.0 0.5540756767
C  C142  1  0.60920000  0.50930000  0.04100000  1.0 -0.1410379442
C  C143  1  0.59720000  0.50280000  0.99190000  1.0 -0.2339183393
C  C144  1  0.50970000  0.50630000  0.04930000  1.0 0.2176760582
C  C145  1  0.53000000  0.18750000  0.51720000  1.0 -0.368599769
C  C146  1  0.60030000  0.14940000  0.60520000  1.0 0.0406119784
C  C147  1  0.65320000  0.15950000  0.65760000  1.0 -0.1612775682
C  C148  1  0.68930000  0.22440000  0.67510000  1.0 0.1027235265
C  C149  1  0.67370000  0.27460000  0.64100000  1.0 -0.1966810434
C  C150  1  0.62300000  0.26140000  0.58980000  1.0 0.0291238319
C  C151  1  0.80090000  0.31310000  0.79900000  1.0 0.02273251
C  C152  1  0.74930000  0.30230000  0.74730000  1.0 -0.1966810434
C  C153  1  0.74350000  0.23700000  0.73000000  1.0 0.1214252478
C  C154  1  0.78870000  0.18590000  0.76500000  1.0 -0.1612775682
C  C155  1  0.84050000  0.19990000  0.81620000  1.0 0.0406119784
C  C156  1  0.90470000  0.27810000  0.88670000  1.0 -0.3760616745
C  C157  1  0.01770000  0.23280000  0.52040000  1.0 -0.3618521209
C  C158  1  0.10640000  0.19500000  0.60700000  1.0 0.0406119784
C  C159  1  0.16270000  0.20670000  0.65870000  1.0 -0.1883454093
C  C160  1  0.19280000  0.27010000  0.67600000  1.0 0.1107471896
C  C161  1  0.16730000  0.32090000  0.64170000  1.0 -0.1612775682
C  C162  1  0.11160000  0.30760000  0.59140000  1.0 0.0105862708
C  C163  1  0.34160000  0.24510000  0.81730000  1.0 0.0291238319
C  C164  1  0.29940000  0.23240000  0.76660000  1.0 -0.1883454093
C  C165  1  0.24990000  0.28410000  0.73170000  1.0 0.1301888519
C  C166  1  0.25010000  0.34680000  0.75080000  1.0 -0.1813518136
C  C167  1  0.29520000  0.35720000  0.80210000  1.0 0.0291238319
C  C168  1  0.37930000  0.31770000  0.88810000  1.0 -0.3618521209
C  C169  1  0.47000000  0.68750000  0.98280000  1.0 -0.368599769
C  C170  1  0.39970000  0.64940000  0.89480000  1.0 0.0406119784
C  C171  1  0.34680000  0.65950000  0.84240000  1.0 -0.1612775682
C  C172  1  0.31070000  0.72440000  0.82490000  1.0 0.1027235265
C  C173  1  0.32630000  0.77460000  0.85900000  1.0 -0.1966810434
C  C174  1  0.37700000  0.76140000  0.91020000  1.0 0.0291238319
C  C175  1  0.19910000  0.81310000  0.70100000  1.0 0.02273251
C  C176  1  0.25070000  0.80230000  0.75270000  1.0 -0.1966810434
C  C177  1  0.25650000  0.73700000  0.77000000  1.0 0.1214252478
C  C178  1  0.21130000  0.68590000  0.73500000  1.0 -0.1612775682
C  C179  1  0.15950000  0.69990000  0.68380000  1.0 0.0406119784
C  C180  1  0.09530000  0.77810000  0.61330000  1.0 -0.3760616745
C  C181  1  0.98230000  0.73280000  0.97960000  1.0 -0.3618521209
C  C182  1  0.89360000  0.69500000  0.89300000  1.0 0.0406119784
C  C183  1  0.83730000  0.70670000  0.84130000  1.0 -0.1883454093
C  C184  1  0.80720000  0.77010000  0.82400000  1.0 0.1107471896
C  C185  1  0.83270000  0.82090000  0.85830000  1.0 -0.1612775682
C  C186  1  0.88840000  0.80760000  0.90860000  1.0 0.0105862708
C  C187  1  0.65840000  0.74510000  0.68270000  1.0 0.0291238319
C  C188  1  0.70060000  0.73240000  0.73340000  1.0 -0.1883454093
C  C189  1  0.75010000  0.78410000  0.76830000  1.0 0.1301888519
C  C190  1  0.74990000  0.84680000  0.74920000  1.0 -0.1883454093
C  C191  1  0.70480000  0.85720000  0.69790000  1.0 0.0291238319
C  C192  1  0.62070000  0.81770000  0.61190000  1.0 -0.3618521209
C  C193  1  0.47000000  0.81250000  0.48280000  1.0 -0.368599769
C  C194  1  0.39970000  0.85060000  0.39480000  1.0 0.0406119784
C  C195  1  0.34680000  0.84050000  0.34240000  1.0 -0.1612775682
C  C196  1  0.31070000  0.77560000  0.32490000  1.0 0.1027235265
C  C197  1  0.32630000  0.72540000  0.35900000  1.0 -0.1966810434
C  C198  1  0.37700000  0.73860000  0.41020000  1.0 0.0291238319
C  C199  1  0.19910000  0.68690000  0.20100000  1.0 0.02273251
C  C200  1  0.25070000  0.69770000  0.25270000  1.0 -0.1966810434
C  C201  1  0.25650000  0.76300000  0.27000000  1.0 0.1214252478
C  C202  1  0.21130000  0.81410000  0.23500000  1.0 -0.1612775682
C  C203  1  0.15950000  0.80010000  0.18380000  1.0 0.0406119784
C  C204  1  0.09530000  0.72190000  0.11330000  1.0 -0.3760616745
C  C205  1  0.98230000  0.76720000  0.47960000  1.0 -0.3618521209
C  C206  1  0.89360000  0.80500000  0.39300000  1.0 0.0406119784
C  C207  1  0.83730000  0.79330000  0.34130000  1.0 -0.1883454093
C  C208  1  0.80720000  0.72990000  0.32400000  1.0 0.1107471896
C  C209  1  0.83270000  0.67910000  0.35830000  1.0 -0.1612775682
C  C210  1  0.88840000  0.69240000  0.40860000  1.0 0.0105862708
C  C211  1  0.65840000  0.75490000  0.18270000  1.0 0.0291238319
C  C212  1  0.70060000  0.76760000  0.23340000  1.0 -0.1883454093
C  C213  1  0.75010000  0.71590000  0.26830000  1.0 0.1301888519
C  C214  1  0.74990000  0.65320000  0.24920000  1.0 -0.1813518136
C  C215  1  0.70480000  0.64280000  0.19790000  1.0 0.0291238319
C  C216  1  0.62070000  0.68230000  0.11190000  1.0 -0.3618521209
C  C217  1  0.53000000  0.31250000  0.01720000  1.0 -0.368599769
C  C218  1  0.60030000  0.35060000  0.10520000  1.0 0.0406119784
C  C219  1  0.65320000  0.34050000  0.15760000  1.0 -0.1612775682
C  C220  1  0.68930000  0.27560000  0.17510000  1.0 0.1027235265
C  C221  1  0.67370000  0.22540000  0.14100000  1.0 -0.1966810434
C  C222  1  0.62300000  0.23860000  0.08980000  1.0 0.0291238319
C  C223  1  0.80090000  0.18690000  0.29900000  1.0 0.02273251
C  C224  1  0.74930000  0.19770000  0.24730000  1.0 -0.1966810434
C  C225  1  0.74350000  0.26300000  0.23000000  1.0 0.1214252478
C  C226  1  0.78870000  0.31410000  0.26500000  1.0 -0.1612775682
C  C227  1  0.84050000  0.30010000  0.31620000  1.0 0.0406119784
C  C228  1  0.90470000  0.22190000  0.38670000  1.0 -0.3760616745
C  C229  1  0.01770000  0.26720000  0.02040000  1.0 -0.3618521209
C  C230  1  0.10640000  0.30500000  0.10700000  1.0 0.0406119784
C  C231  1  0.16270000  0.29330000  0.15870000  1.0 -0.1883454093
C  C232  1  0.19280000  0.22990000  0.17600000  1.0 0.1107471896
C  C233  1  0.16730000  0.17910000  0.14170000  1.0 -0.1612775682
C  C234  1  0.11160000  0.19240000  0.09140000  1.0 0.0105862708
C  C235  1  0.34160000  0.25490000  0.31730000  1.0 0.0291238319
C  C236  1  0.29940000  0.26760000  0.26660000  1.0 -0.1883454093
C  C237  1  0.24990000  0.21590000  0.23170000  1.0 0.1301888519
C  C238  1  0.25010000  0.15320000  0.25080000  1.0 -0.1813518136
C  C239  1  0.29520000  0.14280000  0.30210000  1.0 0.0291238319
C  C240  1  0.37930000  0.18230000  0.38810000  1.0 -0.3618521209
N  N1  1  0.59800000  0.31600000  0.32990000  1.0 -0.537872565
N  N2  1  0.15050000  0.50580000  0.74270000  1.0 -0.451082092
N  N3  1  0.50330000  0.91630000  0.81850000  1.0 -0.5588213081
N  N4  1  0.94520000  0.48120000  0.66960000  1.0 -0.451082092
N  N5  1  0.59800000  0.18400000  0.82990000  1.0 -0.537872565
N  N6  1  0.15050000  0.99420000  0.24270000  1.0 -0.451082092
N  N7  1  0.50330000  0.58370000  0.31850000  1.0 -0.5588213081
N  N8  1  0.94520000  0.01880000  0.16960000  1.0 -0.451082092
N  N9  1  0.40200000  0.81600000  0.17010000  1.0 -0.537872565
N  N10  1  0.84950000  0.00580000  0.75730000  1.0 -0.451082092
N  N11  1  0.49670000  0.41630000  0.68150000  1.0 -0.5588213081
N  N12  1  0.05480000  0.98120000  0.83040000  1.0 -0.451082092
N  N13  1  0.40200000  0.68400000  0.67010000  1.0 -0.537872565
N  N14  1  0.84950000  0.49420000  0.25730000  1.0 -0.451082092
N  N15  1  0.49670000  0.08370000  0.18150000  1.0 -0.5588213081
N  N16  1  0.05480000  0.51880000  0.33040000  1.0 -0.451082092
N  N17  1  0.94950000  0.32910000  0.69170000  1.0 -0.5509427612
N  N18  1  0.51910000  0.99230000  0.59710000  1.0 -0.5588213081
N  N19  1  0.05050000  0.82910000  0.80830000  1.0 -0.5588213081
N  N20  1  0.48090000  0.49230000  0.90290000  1.0 -0.5588213081
N  N21  1  0.05050000  0.67090000  0.30830000  1.0 -0.5509427612
N  N22  1  0.48090000  0.00770000  0.40290000  1.0 -0.5588213081
N  N23  1  0.94950000  0.17090000  0.19170000  1.0 -0.5509427612
N  N24  1  0.51910000  0.50770000  0.09710000  1.0 -0.5588213081
N  N25  1  0.58810000  0.20030000  0.57340000  1.0 0.1497420744
N  N26  1  0.84570000  0.26290000  0.83140000  1.0 0.1413410587
N  N27  1  0.08170000  0.24510000  0.57530000  1.0 0.1497420744
N  N28  1  0.33770000  0.30650000  0.83390000  1.0 0.1413410587
N  N29  1  0.41190000  0.70030000  0.92660000  1.0 0.1497420744
N  N30  1  0.15430000  0.76290000  0.66860000  1.0 0.1413410587
N  N31  1  0.91830000  0.74510000  0.92470000  1.0 0.1497420744
N  N32  1  0.66230000  0.80650000  0.66610000  1.0 0.1413410587
N  N33  1  0.41190000  0.79970000  0.42660000  1.0 0.1497420744
N  N34  1  0.15430000  0.73710000  0.16860000  1.0 0.1413410587
N  N35  1  0.91830000  0.75490000  0.42470000  1.0 0.1497420744
N  N36  1  0.66230000  0.69350000  0.16610000  1.0 0.1413410587
N  N37  1  0.58810000  0.29970000  0.07340000  1.0 0.1497420744
N  N38  1  0.84570000  0.23710000  0.33140000  1.0 0.1413410587
N  N39  1  0.08170000  0.25490000  0.07530000  1.0 0.1497420744
N  N40  1  0.33770000  0.19350000  0.33390000  1.0 0.1413410587
Cl  Cl1  1  0.73450000  0.55840000  0.77320000  1.0 0.2370578554
Cl  Cl2  1  0.73450000  0.94160000  0.27320000  1.0 0.2370578554
Cl  Cl3  1  0.26550000  0.05840000  0.72680000  1.0 0.2473372256
Cl  Cl4  1  0.26550000  0.44160000  0.22680000  1.0 0.2370578554
Cl  Cl5  1  0.10830000  0.96720000  0.63160000  1.0 0.3017009159
Cl  Cl6  1  0.89170000  0.46720000  0.86840000  1.0 0.3017009159
Cl  Cl7  1  0.89170000  0.03280000  0.36840000  1.0 0.3100557064
Cl  Cl8  1  0.10830000  0.53280000  0.13160000  1.0 0.3017009159
O  O1  1  0.90870000  0.45070000  0.52050000  1.0 -0.5588213081
O  O2  1  0.82310000  0.46620000  0.56950000  1.0 -0.5313380027
O  O3  1  0.70750000  0.32650000  0.48720000  1.0 -0.5807267094
O  O4  1  0.66270000  0.38120000  0.41730000  1.0 -0.537872565
O  O5  1  0.55390000  0.43520000  0.50830000  1.0 -0.0530871925
O  O6  1  0.71810000  0.55810000  0.47100000  1.0 -0.537872565
O  O7  1  0.56330000  0.51840000  0.41020000  1.0 -0.5313380027
O  O8  1  0.36630000  0.53650000  0.77050000  1.0 -0.5509427612
O  O9  1  0.43250000  0.54380000  0.71350000  1.0 -0.4844223301
O  O10  1  0.57200000  0.07380000  0.29150000  1.0 -0.5176798369
O  O11  1  0.63040000  0.02330000  0.36400000  1.0 -0.5313380027
O  O12  1  0.53190000  0.67850000  0.78410000  1.0 -0.5588213081
O  O13  1  0.61330000  0.62950000  0.85820000  1.0 -0.537872565
O  O14  1  0.71170000  0.55970000  0.78250000  1.0 -0.1023130792
O  O15  1  0.90870000  0.04930000  0.02050000  1.0 -0.5588213081
O  O16  1  0.82310000  0.03380000  0.06950000  1.0 -0.5313380027
O  O17  1  0.70750000  0.17350000  0.98720000  1.0 -0.5807267094
O  O18  1  0.66270000  0.11880000  0.91730000  1.0 -0.537872565
O  O19  1  0.55390000  0.06480000  0.00830000  1.0 -0.0530871925
O  O20  1  0.71810000  0.94190000  0.97100000  1.0 -0.537872565
O  O21  1  0.56330000  0.98160000  0.91020000  1.0 -0.5313380027
O  O22  1  0.36630000  0.96350000  0.27050000  1.0 -0.5509427612
O  O23  1  0.43250000  0.95620000  0.21350000  1.0 -0.4844223301
O  O24  1  0.57200000  0.42620000  0.79150000  1.0 -0.5176798369
O  O25  1  0.63040000  0.47670000  0.86400000  1.0 -0.5313380027
O  O26  1  0.53190000  0.82150000  0.28410000  1.0 -0.5588213081
O  O27  1  0.61330000  0.87050000  0.35820000  1.0 -0.537872565
O  O28  1  0.71170000  0.94030000  0.28250000  1.0 -0.1023130792
O  O29  1  0.09130000  0.95070000  0.97950000  1.0 -0.5588213081
O  O30  1  0.17690000  0.96620000  0.93050000  1.0 -0.537872565
O  O31  1  0.29250000  0.82650000  0.01280000  1.0 -0.5807267094
O  O32  1  0.33730000  0.88120000  0.08270000  1.0 -0.537872565
O  O33  1  0.44610000  0.93520000  0.99170000  1.0 -0.0550978484
O  O34  1  0.28190000  0.05810000  0.02900000  1.0 -0.537872565
O  O35  1  0.43670000  0.01840000  0.08980000  1.0 -0.5313380027
O  O36  1  0.63370000  0.03650000  0.72950000  1.0 -0.5509427612
O  O37  1  0.56750000  0.04380000  0.78650000  1.0 -0.4844223301
O  O38  1  0.42800000  0.57380000  0.20850000  1.0 -0.5176798369
O  O39  1  0.36960000  0.52330000  0.13600000  1.0 -0.5313380027
O  O40  1  0.46810000  0.17850000  0.71590000  1.0 -0.5588213081
O  O41  1  0.38670000  0.12950000  0.64180000  1.0 -0.537872565
O  O42  1  0.28830000  0.05970000  0.71750000  1.0 -0.1023130792
O  O43  1  0.09130000  0.54930000  0.47950000  1.0 -0.5588213081
O  O44  1  0.17690000  0.53380000  0.43050000  1.0 -0.5313380027
O  O45  1  0.29250000  0.67350000  0.51280000  1.0 -0.5807267094
O  O46  1  0.33730000  0.61880000  0.58270000  1.0 -0.537872565
O  O47  1  0.44610000  0.56480000  0.49170000  1.0 -0.0530871925
O  O48  1  0.28190000  0.44190000  0.52900000  1.0 -0.537872565
O  O49  1  0.43670000  0.48160000  0.58980000  1.0 -0.5313380027
O  O50  1  0.63370000  0.46350000  0.22950000  1.0 -0.5509427612
O  O51  1  0.56750000  0.45620000  0.28650000  1.0 -0.4844223301
O  O52  1  0.42800000  0.92620000  0.70850000  1.0 -0.5176798369
O  O53  1  0.36960000  0.97670000  0.63600000  1.0 -0.5313380027
O  O54  1  0.46810000  0.32150000  0.21590000  1.0 -0.5588213081
O  O55  1  0.38670000  0.37050000  0.14180000  1.0 -0.537872565
O  O56  1  0.28830000  0.44030000  0.21750000  1.0 -0.1023130792
O  O57  1  0.10200000  0.95570000  0.64610000  1.0 -0.0382365093
O  O58  1  0.02330000  0.03810000  0.72950000  1.0 -0.5176798369
O  O59  1  0.93830000  0.08690000  0.65650000  1.0 -0.5509427612
O  O60  1  0.73510000  0.97890000  0.62820000  1.0 -0.537872565
O  O61  1  0.80920000  0.97550000  0.57390000  1.0 -0.5509427612
O  O62  1  0.01820000  0.39550000  0.77770000  1.0 -0.5313380027
O  O63  1  0.09500000  0.34460000  0.85110000  1.0 -0.5588213081
O  O64  1  0.89800000  0.45570000  0.85390000  1.0 -0.0382365093
O  O65  1  0.97670000  0.53810000  0.77050000  1.0 -0.5176798369
O  O66  1  0.06170000  0.58690000  0.84350000  1.0 -0.5509427612
O  O67  1  0.26490000  0.47890000  0.87180000  1.0 -0.537872565
O  O68  1  0.19080000  0.47550000  0.92610000  1.0 -0.5509427612
O  O69  1  0.98180000  0.89550000  0.72230000  1.0 -0.5313380027
O  O70  1  0.90500000  0.84460000  0.64890000  1.0 -0.5588213081
O  O71  1  0.89800000  0.04430000  0.35390000  1.0 -0.0382365093
O  O72  1  0.97670000  0.96190000  0.27050000  1.0 -0.5176798369
O  O73  1  0.06170000  0.91310000  0.34350000  1.0 -0.5509427612
O  O74  1  0.26490000  0.02110000  0.37180000  1.0 -0.537872565
O  O75  1  0.19080000  0.02450000  0.42610000  1.0 -0.5509427612
O  O76  1  0.98180000  0.60450000  0.22230000  1.0 -0.5313380027
O  O77  1  0.90500000  0.65540000  0.14890000  1.0 -0.5588213081
O  O78  1  0.10200000  0.54430000  0.14610000  1.0 -0.0382365093
O  O79  1  0.02330000  0.46190000  0.22950000  1.0 -0.5176798369
O  O80  1  0.93830000  0.41310000  0.15650000  1.0 -0.5509427612
O  O81  1  0.73510000  0.52110000  0.12820000  1.0 -0.537872565
O  O82  1  0.80920000  0.52450000  0.07390000  1.0 -0.5509427612
O  O83  1  0.01820000  0.10450000  0.27770000  1.0 -0.5313380027
O  O84  1  0.09500000  0.15540000  0.35110000  1.0 -0.5650771523
