# DDEC6 charges by PACMAN v1.1 (https://github.com/mtap-research/PACMAN-charge/)
data_FIXVUE_ion_pacman
_symmetry_space_group_name_H-M   'P 1'
_cell_length_a   32.74900000
_cell_length_b   32.74900000
_cell_length_c   32.74900000
_cell_angle_alpha   90.00000000
_cell_angle_beta   90.00000000
_cell_angle_gamma   90.00000000
_symmetry_Int_Tables_number   1
_chemical_formula_structural   Cu12Ag18Au12C120S24N24(ClO12)5
_chemical_formula_sum   'Cu48 Ag72 Au48 C480 S96 N96 Cl20 O240'
_cell_volume   35123.20428575
_cell_formula_units_Z   4
loop_
 _symmetry_equiv_pos_site_id
 _symmetry_equiv_pos_as_xyz
  1  'x, y, z'
loop_
 _atom_site_type_symbol
 _atom_site_label
 _atom_site_symmetry_multiplicity
 _atom_site_fract_x
 _atom_site_fract_y
 _atom_site_fract_z
 _atom_site_occupancy
 _atom_site_charge
Cu  Cu1  1  0.38951000  0.13320000  0.44933000  1.0 0.9912517952
Cu  Cu2  1  0.44933000  0.38951000  0.13320000  1.0 0.9912517952
Cu  Cu3  1  0.13320000  0.44933000  0.38951000  1.0 0.9912517952
Cu  Cu4  1  0.88951000  0.36680000  0.55067000  1.0 0.9912517952
Cu  Cu5  1  0.94933000  0.11049000  0.86680000  1.0 0.9912517952
Cu  Cu6  1  0.63320000  0.05067000  0.61049000  1.0 0.9912517952
Cu  Cu7  1  0.61049000  0.63320000  0.05067000  1.0 0.9912517952
Cu  Cu8  1  0.55067000  0.88951000  0.36680000  1.0 0.9912517952
Cu  Cu9  1  0.86680000  0.94933000  0.11049000  1.0 0.9912517952
Cu  Cu10  1  0.11049000  0.86680000  0.94933000  1.0 0.9912517952
Cu  Cu11  1  0.05067000  0.61049000  0.63320000  1.0 0.9912517952
Cu  Cu12  1  0.36680000  0.55067000  0.88951000  1.0 0.9912517952
Cu  Cu13  1  0.28245000  0.02532000  0.64517000  1.0 0.9964898017
Cu  Cu14  1  0.64517000  0.28245000  0.02532000  1.0 0.9964898017
Cu  Cu15  1  0.02532000  0.64517000  0.28245000  1.0 0.9964898017
Cu  Cu16  1  0.78245000  0.47468000  0.35483000  1.0 0.9964898017
Cu  Cu17  1  0.14517000  0.21755000  0.97468000  1.0 0.9964898017
Cu  Cu18  1  0.52532000  0.85483000  0.71755000  1.0 0.9964898017
Cu  Cu19  1  0.71755000  0.52532000  0.85483000  1.0 0.9964898017
Cu  Cu20  1  0.35483000  0.78245000  0.47468000  1.0 0.9964898017
Cu  Cu21  1  0.97468000  0.14517000  0.21755000  1.0 0.9964898017
Cu  Cu22  1  0.21755000  0.97468000  0.14517000  1.0 0.9964898017
Cu  Cu23  1  0.85483000  0.71755000  0.52532000  1.0 0.9964898017
Cu  Cu24  1  0.47468000  0.35483000  0.78245000  1.0 0.9964898017
Cu  Cu25  1  0.02664000  0.10928000  0.71995000  1.0 1.0118065165
Cu  Cu26  1  0.71995000  0.02664000  0.10928000  1.0 1.0118065165
Cu  Cu27  1  0.10928000  0.71995000  0.02664000  1.0 1.0118065165
Cu  Cu28  1  0.52664000  0.39072000  0.28005000  1.0 1.0118065165
Cu  Cu29  1  0.21995000  0.47336000  0.89072000  1.0 1.0118065165
Cu  Cu30  1  0.60928000  0.78005000  0.97336000  1.0 1.0118065165
Cu  Cu31  1  0.97336000  0.60928000  0.78005000  1.0 1.0118065165
Cu  Cu32  1  0.28005000  0.52664000  0.39072000  1.0 1.0118065165
Cu  Cu33  1  0.89072000  0.21995000  0.47336000  1.0 1.0118065165
Cu  Cu34  1  0.47336000  0.89072000  0.21995000  1.0 1.0118065165
Cu  Cu35  1  0.78005000  0.97336000  0.60928000  1.0 1.0118065165
Cu  Cu36  1  0.39072000  0.28005000  0.52664000  1.0 1.0118065165
Cu  Cu37  1  0.17744000  0.03124000  0.53469000  1.0 0.9533444878
Cu  Cu38  1  0.53469000  0.17744000  0.03124000  1.0 0.9533444878
Cu  Cu39  1  0.03124000  0.53469000  0.17744000  1.0 0.9533444878
Cu  Cu40  1  0.67744000  0.46876000  0.46531000  1.0 0.9533444878
Cu  Cu41  1  0.03469000  0.32256000  0.96876000  1.0 0.9533444878
Cu  Cu42  1  0.53124000  0.96531000  0.82256000  1.0 0.9533444878
Cu  Cu43  1  0.82256000  0.53124000  0.96531000  1.0 0.9533444878
Cu  Cu44  1  0.46531000  0.67744000  0.46876000  1.0 0.9533444878
Cu  Cu45  1  0.96876000  0.03469000  0.32256000  1.0 0.9533444878
Cu  Cu46  1  0.32256000  0.96876000  0.03469000  1.0 0.9533444878
Cu  Cu47  1  0.96531000  0.82256000  0.53124000  1.0 0.9533444878
Cu  Cu48  1  0.46876000  0.46531000  0.67744000  1.0 0.9533444878
Ag  Ag1  1  0.33264000  0.08223000  0.54810000  1.0 0.352682843
Ag  Ag2  1  0.54810000  0.33264000  0.08223000  1.0 0.352682843
Ag  Ag3  1  0.08223000  0.54810000  0.33264000  1.0 0.352682843
Ag  Ag4  1  0.83264000  0.41777000  0.45190000  1.0 0.352682843
Ag  Ag5  1  0.04810000  0.16736000  0.91777000  1.0 0.352682843
Ag  Ag6  1  0.58223000  0.95190000  0.66736000  1.0 0.352682843
Ag  Ag7  1  0.66736000  0.58223000  0.95190000  1.0 0.352682843
Ag  Ag8  1  0.45190000  0.83264000  0.41777000  1.0 0.352682843
Ag  Ag9  1  0.91777000  0.04810000  0.16736000  1.0 0.3551633146
Ag  Ag10  1  0.16736000  0.91777000  0.04810000  1.0 0.352682843
Ag  Ag11  1  0.95190000  0.66736000  0.58223000  1.0 0.352682843
Ag  Ag12  1  0.41777000  0.45190000  0.83264000  1.0 0.352682843
Ag  Ag13  1  0.42204000  0.00949000  0.47605000  1.0 0.2598019425
Ag  Ag14  1  0.47605000  0.42204000  0.00949000  1.0 0.2598019425
Ag  Ag15  1  0.00949000  0.47605000  0.42204000  1.0 0.2598019425
Ag  Ag16  1  0.92204000  0.49051000  0.52395000  1.0 0.2598019425
Ag  Ag17  1  0.97605000  0.07796000  0.99051000  1.0 0.2598019425
Ag  Ag18  1  0.50949000  0.02395000  0.57796000  1.0 0.2598019425
Ag  Ag19  1  0.57796000  0.50949000  0.02395000  1.0 0.2598019425
Ag  Ag20  1  0.52395000  0.92204000  0.49051000  1.0 0.2598019425
Ag  Ag21  1  0.99051000  0.97605000  0.07796000  1.0 0.2598019425
Ag  Ag22  1  0.07796000  0.99051000  0.97605000  1.0 0.2598019425
Ag  Ag23  1  0.02395000  0.57796000  0.50949000  1.0 0.2598019425
Ag  Ag24  1  0.49051000  0.52395000  0.92204000  1.0 0.2598019425
Ag  Ag25  1  0.40430000  0.98768000  0.61674000  1.0 0.2598019425
Ag  Ag26  1  0.61674000  0.40430000  0.98768000  1.0 0.2598019425
Ag  Ag27  1  0.98768000  0.61674000  0.40430000  1.0 0.2598019425
Ag  Ag28  1  0.90430000  0.51232000  0.38326000  1.0 0.2598019425
Ag  Ag29  1  0.11674000  0.09570000  0.01232000  1.0 0.2710122115
Ag  Ag30  1  0.48768000  0.88326000  0.59570000  1.0 0.2598019425
Ag  Ag31  1  0.59570000  0.48768000  0.88326000  1.0 0.2598019425
Ag  Ag32  1  0.38326000  0.90430000  0.51232000  1.0 0.2598019425
Ag  Ag33  1  0.01232000  0.11674000  0.09570000  1.0 0.2710122115
Ag  Ag34  1  0.09570000  0.01232000  0.11674000  1.0 0.2710122115
Ag  Ag35  1  0.88326000  0.59570000  0.48768000  1.0 0.2598019425
Ag  Ag36  1  0.51232000  0.38326000  0.90430000  1.0 0.2598019425
Ag  Ag37  1  0.10963000  0.07415000  0.62699000  1.0 0.3849864092
Ag  Ag38  1  0.62699000  0.10963000  0.07415000  1.0 0.3870517549
Ag  Ag39  1  0.07415000  0.62699000  0.10963000  1.0 0.3870517549
Ag  Ag40  1  0.60963000  0.42585000  0.37301000  1.0 0.3870517549
Ag  Ag41  1  0.12699000  0.39037000  0.92585000  1.0 0.3849864092
Ag  Ag42  1  0.57415000  0.87301000  0.89037000  1.0 0.3849864092
Ag  Ag43  1  0.89037000  0.57415000  0.87301000  1.0 0.3849864092
Ag  Ag44  1  0.37301000  0.60963000  0.42585000  1.0 0.3870517549
Ag  Ag45  1  0.92585000  0.12699000  0.39037000  1.0 0.3870517549
Ag  Ag46  1  0.39037000  0.92585000  0.12699000  1.0 0.3870517549
Ag  Ag47  1  0.87301000  0.89037000  0.57415000  1.0 0.3870517549
Ag  Ag48  1  0.42585000  0.37301000  0.60963000  1.0 0.3870517549
Ag  Ag49  1  0.97626000  0.03763000  0.62628000  1.0 0.2801152678
Ag  Ag50  1  0.62628000  0.97626000  0.03763000  1.0 0.2801152678
Ag  Ag51  1  0.03763000  0.62628000  0.97626000  1.0 0.2801152678
Ag  Ag52  1  0.47626000  0.46237000  0.37372000  1.0 0.2801152678
Ag  Ag53  1  0.12628000  0.52374000  0.96237000  1.0 0.2801152678
Ag  Ag54  1  0.53763000  0.87372000  0.02374000  1.0 0.2801152678
Ag  Ag55  1  0.02374000  0.53763000  0.87372000  1.0 0.2801152678
Ag  Ag56  1  0.37372000  0.47626000  0.46237000  1.0 0.2801152678
Ag  Ag57  1  0.96237000  0.12628000  0.52374000  1.0 0.2801152678
Ag  Ag58  1  0.52374000  0.96237000  0.12628000  1.0 0.2801152678
Ag  Ag59  1  0.87372000  0.02374000  0.53763000  1.0 0.2801152678
Ag  Ag60  1  0.46237000  0.37372000  0.47626000  1.0 0.2801152678
Ag  Ag61  1  0.05701000  0.05794000  0.50362000  1.0 0.2710122115
Ag  Ag62  1  0.50362000  0.05701000  0.05794000  1.0 0.2710122115
Ag  Ag63  1  0.05794000  0.50362000  0.05701000  1.0 0.2710122115
Ag  Ag64  1  0.55701000  0.44206000  0.49638000  1.0 0.2710122115
Ag  Ag65  1  0.00362000  0.44299000  0.94206000  1.0 0.2710122115
Ag  Ag66  1  0.55794000  0.99638000  0.94299000  1.0 0.2710122115
Ag  Ag67  1  0.94299000  0.55794000  0.99638000  1.0 0.2710122115
Ag  Ag68  1  0.49638000  0.55701000  0.44206000  1.0 0.2710122115
Ag  Ag69  1  0.94206000  0.00362000  0.44299000  1.0 0.2710122115
Ag  Ag70  1  0.44299000  0.94206000  0.00362000  1.0 0.2710122115
Ag  Ag71  1  0.99638000  0.94299000  0.55794000  1.0 0.2710122115
Ag  Ag72  1  0.44206000  0.49638000  0.55701000  1.0 0.2710122115
Au  Au1  1  0.34797000  0.99657000  0.52165000  1.0 -0.0387807018
Au  Au2  1  0.52165000  0.34797000  0.99657000  1.0 -0.0387807018
Au  Au3  1  0.99657000  0.52165000  0.34797000  1.0 -0.0387807018
Au  Au4  1  0.84797000  0.50343000  0.47835000  1.0 -0.0387807018
Au  Au5  1  0.02165000  0.15203000  0.00343000  1.0 -0.0387807018
Au  Au6  1  0.49657000  0.97835000  0.65203000  1.0 -0.0387807018
Au  Au7  1  0.65203000  0.49657000  0.97835000  1.0 -0.0387807018
Au  Au8  1  0.47835000  0.84797000  0.50343000  1.0 -0.0348409924
Au  Au9  1  0.00343000  0.02165000  0.15203000  1.0 -0.0387807018
Au  Au10  1  0.15203000  0.00343000  0.02165000  1.0 -0.0387807018
Au  Au11  1  0.97835000  0.65203000  0.49657000  1.0 -0.0387807018
Au  Au12  1  0.50343000  0.47835000  0.84797000  1.0 -0.0387807018
Au  Au13  1  0.41875000  0.06230000  0.57131000  1.0 -0.0387807018
Au  Au14  1  0.57131000  0.41875000  0.06230000  1.0 -0.0387807018
Au  Au15  1  0.06230000  0.57131000  0.41875000  1.0 -0.0387807018
Au  Au16  1  0.91875000  0.43770000  0.42869000  1.0 -0.0387807018
Au  Au17  1  0.07131000  0.08125000  0.93770000  1.0 -0.0387807018
Au  Au18  1  0.56230000  0.92869000  0.58125000  1.0 -0.0387807018
Au  Au19  1  0.58125000  0.56230000  0.92869000  1.0 -0.0387807018
Au  Au20  1  0.42869000  0.91875000  0.43770000  1.0 -0.0387807018
Au  Au21  1  0.93770000  0.07131000  0.08125000  1.0 -0.0387807018
Au  Au22  1  0.08125000  0.93770000  0.07131000  1.0 -0.0387807018
Au  Au23  1  0.92869000  0.58125000  0.56230000  1.0 -0.0387807018
Au  Au24  1  0.43770000  0.42869000  0.91875000  1.0 -0.0387807018
Au  Au25  1  0.05554000  0.00613000  0.59969000  1.0 -0.0507830668
Au  Au26  1  0.59969000  0.05554000  0.00613000  1.0 -0.0507830668
Au  Au27  1  0.00613000  0.59969000  0.05554000  1.0 -0.0507830668
Au  Au28  1  0.55554000  0.49387000  0.40031000  1.0 -0.0507830668
Au  Au29  1  0.09969000  0.44446000  0.99387000  1.0 -0.0507830668
Au  Au30  1  0.50613000  0.90031000  0.94446000  1.0 -0.0507830668
Au  Au31  1  0.94446000  0.50613000  0.90031000  1.0 -0.0507830668
Au  Au32  1  0.40031000  0.55554000  0.49387000  1.0 -0.0507830668
Au  Au33  1  0.99387000  0.09969000  0.44446000  1.0 -0.0507830668
Au  Au34  1  0.44446000  0.99387000  0.09969000  1.0 -0.0507830668
Au  Au35  1  0.90031000  0.94446000  0.50613000  1.0 -0.0507830668
Au  Au36  1  0.49387000  0.40031000  0.55554000  1.0 -0.0507830668
Au  Au37  1  0.04397000  0.11043000  0.57455000  1.0 -0.0387807018
Au  Au38  1  0.57455000  0.04397000  0.11043000  1.0 -0.0387807018
Au  Au39  1  0.11043000  0.57455000  0.04397000  1.0 -0.0387807018
Au  Au40  1  0.54397000  0.38957000  0.42545000  1.0 -0.0387807018
Au  Au41  1  0.07455000  0.45603000  0.88957000  1.0 -0.0387807018
Au  Au42  1  0.61043000  0.92545000  0.95603000  1.0 -0.0387807018
Au  Au43  1  0.95603000  0.61043000  0.92545000  1.0 -0.0387807018
Au  Au44  1  0.42545000  0.54397000  0.38957000  1.0 -0.0387807018
Au  Au45  1  0.88957000  0.07455000  0.45603000  1.0 -0.0387807018
Au  Au46  1  0.45603000  0.88957000  0.07455000  1.0 -0.0387807018
Au  Au47  1  0.92545000  0.95603000  0.61043000  1.0 -0.0387807018
Au  Au48  1  0.38957000  0.42545000  0.54397000  1.0 -0.0387807018
C  C1  1  0.35860000  0.09400000  0.38650000  1.0 0.5073992398
C  C2  1  0.38650000  0.35860000  0.09400000  1.0 0.5073992398
C  C3  1  0.09400000  0.38650000  0.35860000  1.0 0.5073992398
C  C4  1  0.85860000  0.40600000  0.61350000  1.0 0.5238550723
C  C5  1  0.88650000  0.14140000  0.90600000  1.0 0.5073992398
C  C6  1  0.59400000  0.11350000  0.64140000  1.0 0.528477737
C  C7  1  0.64140000  0.59400000  0.11350000  1.0 0.528477737
C  C8  1  0.61350000  0.85860000  0.40600000  1.0 0.5238550723
C  C9  1  0.90600000  0.88650000  0.14140000  1.0 0.5073992398
C  C10  1  0.14140000  0.90600000  0.88650000  1.0 0.5073992398
C  C11  1  0.11350000  0.64140000  0.59400000  1.0 0.528477737
C  C12  1  0.40600000  0.61350000  0.85860000  1.0 0.5238550723
C  C13  1  0.32080000  0.09430000  0.41560000  1.0 0.2598019425
C  C14  1  0.41560000  0.32080000  0.09430000  1.0 0.2598019425
C  C15  1  0.09430000  0.41560000  0.32080000  1.0 0.2598019425
C  C16  1  0.82080000  0.40570000  0.58440000  1.0 0.2598019425
C  C17  1  0.91560000  0.17920000  0.90570000  1.0 0.2598019425
C  C18  1  0.59430000  0.08440000  0.67920000  1.0 0.2598019425
C  C19  1  0.67920000  0.59430000  0.08440000  1.0 0.2598019425
C  C20  1  0.58440000  0.82080000  0.40570000  1.0 0.2598019425
C  C21  1  0.90570000  0.91560000  0.17920000  1.0 0.2598019425
C  C22  1  0.17920000  0.90570000  0.91560000  1.0 0.2504587677
C  C23  1  0.08440000  0.67920000  0.59430000  1.0 0.2598019425
C  C24  1  0.40570000  0.58440000  0.82080000  1.0 0.2598019425
C  C25  1  0.31720000  0.05540000  0.44050000  1.0 0.0620886772
C  C26  1  0.44050000  0.31720000  0.05540000  1.0 0.0620886772
C  C27  1  0.05540000  0.44050000  0.31720000  1.0 0.0620886772
C  C28  1  0.81720000  0.44460000  0.55950000  1.0 0.0620886772
C  C29  1  0.94050000  0.18280000  0.94460000  1.0 0.0620886772
C  C30  1  0.55540000  0.05950000  0.68280000  1.0 0.0620886772
C  C31  1  0.68280000  0.55540000  0.05950000  1.0 0.0620886772
C  C32  1  0.55950000  0.81720000  0.44460000  1.0 0.0620886772
C  C33  1  0.94460000  0.94050000  0.18280000  1.0 0.0620886772
C  C34  1  0.18280000  0.94460000  0.94050000  1.0 0.0659014648
C  C35  1  0.05950000  0.68280000  0.55540000  1.0 0.0620886772
C  C36  1  0.44460000  0.55950000  0.81720000  1.0 0.0659014648
C  C37  1  0.27520000  0.05440000  0.46260000  1.0 0.2192453977
C  C38  1  0.46260000  0.27520000  0.05440000  1.0 0.2192453977
C  C39  1  0.05440000  0.46260000  0.27520000  1.0 0.2192453977
C  C40  1  0.77520000  0.44560000  0.53740000  1.0 0.2192453977
C  C41  1  0.96260000  0.22480000  0.94560000  1.0 0.2192453977
C  C42  1  0.55440000  0.03740000  0.72480000  1.0 0.2192453977
C  C43  1  0.72480000  0.55440000  0.03740000  1.0 0.2192453977
C  C44  1  0.53740000  0.77520000  0.44560000  1.0 0.2192453977
C  C45  1  0.94560000  0.96260000  0.22480000  1.0 0.2192453977
C  C46  1  0.22480000  0.94560000  0.96260000  1.0 0.2192453977
C  C47  1  0.03740000  0.72480000  0.55440000  1.0 0.2192453977
C  C48  1  0.44560000  0.53740000  0.77520000  1.0 0.2192453977
C  C49  1  0.32050000  0.01600000  0.41350000  1.0 0.1897818265
C  C50  1  0.41350000  0.32050000  0.01600000  1.0 0.1897818265
C  C51  1  0.01600000  0.41350000  0.32050000  1.0 0.1897818265
C  C52  1  0.82050000  0.48400000  0.58650000  1.0 0.1897818265
C  C53  1  0.91350000  0.17950000  0.98400000  1.0 0.1814711947
C  C54  1  0.51600000  0.08650000  0.67950000  1.0 0.1897818265
C  C55  1  0.67950000  0.51600000  0.08650000  1.0 0.1897818265
C  C56  1  0.58650000  0.82050000  0.48400000  1.0 0.1897818265
C  C57  1  0.98400000  0.91350000  0.17950000  1.0 0.1814711947
C  C58  1  0.17950000  0.98400000  0.91350000  1.0 0.1814711947
C  C59  1  0.08650000  0.67950000  0.51600000  1.0 0.1897818265
C  C60  1  0.48400000  0.58650000  0.82050000  1.0 0.1897818265
C  C61  1  0.42440000  0.15430000  0.52270000  1.0 0.528477737
C  C62  1  0.52270000  0.42440000  0.15430000  1.0 0.528477737
C  C63  1  0.15430000  0.52270000  0.42440000  1.0 0.528477737
C  C64  1  0.92440000  0.34570000  0.47730000  1.0 0.5238550723
C  C65  1  0.02270000  0.07560000  0.84570000  1.0 0.528477737
C  C66  1  0.65430000  0.97730000  0.57560000  1.0 0.528477737
C  C67  1  0.57560000  0.65430000  0.97730000  1.0 0.528477737
C  C68  1  0.47730000  0.92440000  0.34570000  1.0 0.5238550723
C  C69  1  0.84570000  0.02270000  0.07560000  1.0 0.528477737
C  C70  1  0.07560000  0.84570000  0.02270000  1.0 0.528477737
C  C71  1  0.97730000  0.57560000  0.65430000  1.0 0.528477737
C  C72  1  0.34570000  0.47730000  0.92440000  1.0 0.528477737
C  C73  1  0.46310000  0.14030000  0.49790000  1.0 0.2192453977
C  C74  1  0.49790000  0.46310000  0.14030000  1.0 0.2192453977
C  C75  1  0.14030000  0.49790000  0.46310000  1.0 0.2192453977
C  C76  1  0.96310000  0.35970000  0.50210000  1.0 0.2192453977
C  C77  1  0.99790000  0.03690000  0.85970000  1.0 0.2192453977
C  C78  1  0.64030000  0.00210000  0.53690000  1.0 0.2192453977
C  C79  1  0.53690000  0.64030000  0.00210000  1.0 0.2192453977
C  C80  1  0.50210000  0.96310000  0.35970000  1.0 0.2192453977
C  C81  1  0.85970000  0.99790000  0.03690000  1.0 0.2192453977
C  C82  1  0.03690000  0.85970000  0.99790000  1.0 0.2192453977
C  C83  1  0.00210000  0.53690000  0.64030000  1.0 0.2192453977
C  C84  1  0.35970000  0.50210000  0.96310000  1.0 0.2192453977
C  C85  1  0.49400000  0.11250000  0.51910000  1.0 0.0076738564
C  C86  1  0.51910000  0.49400000  0.11250000  1.0 0.0076738564
C  C87  1  0.11250000  0.51910000  0.49400000  1.0 0.0076738564
C  C88  1  0.99400000  0.38750000  0.48090000  1.0 0.0076738564
C  C89  1  0.01910000  0.00600000  0.88750000  1.0 0.0076738564
C  C90  1  0.61250000  0.98090000  0.50600000  1.0 0.0076738564
C  C91  1  0.50600000  0.61250000  0.98090000  1.0 0.0076738564
C  C92  1  0.48090000  0.99400000  0.38750000  1.0 0.0076738564
C  C93  1  0.88750000  0.01910000  0.00600000  1.0 0.0076738564
C  C94  1  0.00600000  0.88750000  0.01910000  1.0 0.0076738564
C  C95  1  0.98090000  0.50600000  0.61250000  1.0 0.0076738564
C  C96  1  0.38750000  0.48090000  0.99400000  1.0 0.0076738564
C  C97  1  0.53050000  0.10830000  0.49000000  1.0 0.1897818265
C  C98  1  0.49000000  0.53050000  0.10830000  1.0 0.1897818265
C  C99  1  0.10830000  0.49000000  0.53050000  1.0 0.1897818265
C  C100  1  0.03050000  0.39170000  0.51000000  1.0 0.1897818265
C  C101  1  0.99000000  0.96950000  0.89170000  1.0 0.1814711947
C  C102  1  0.60830000  0.01000000  0.46950000  1.0 0.1814711947
C  C103  1  0.46950000  0.60830000  0.01000000  1.0 0.1814711947
C  C104  1  0.51000000  0.03050000  0.39170000  1.0 0.1897818265
C  C105  1  0.89170000  0.99000000  0.96950000  1.0 0.1814711947
C  C106  1  0.96950000  0.89170000  0.99000000  1.0 0.1814711947
C  C107  1  0.01000000  0.46950000  0.60830000  1.0 0.1814711947
C  C108  1  0.39170000  0.51000000  0.03050000  1.0 0.1897818265
C  C109  1  0.50630000  0.13120000  0.56080000  1.0 0.1814711947
C  C110  1  0.56080000  0.50630000  0.13120000  1.0 0.1814711947
C  C111  1  0.13120000  0.56080000  0.50630000  1.0 0.1814711947
C  C112  1  0.00630000  0.36880000  0.43920000  1.0 0.1814711947
C  C113  1  0.06080000  0.99370000  0.86880000  1.0 0.1814711947
C  C114  1  0.63120000  0.93920000  0.49370000  1.0 0.1897818265
C  C115  1  0.49370000  0.63120000  0.93920000  1.0 0.1897818265
C  C116  1  0.43920000  0.00630000  0.36880000  1.0 0.1814711947
C  C117  1  0.86880000  0.06080000  0.99370000  1.0 0.1814711947
C  C118  1  0.99370000  0.86880000  0.06080000  1.0 0.1814711947
C  C119  1  0.93920000  0.49370000  0.63120000  1.0 0.1897818265
C  C120  1  0.36880000  0.43920000  0.00630000  1.0 0.1814711947
C  C121  1  0.25750000  0.99550000  0.57240000  1.0 0.528477737
C  C122  1  0.57240000  0.25750000  0.99550000  1.0 0.528477737
C  C123  1  0.99550000  0.57240000  0.25750000  1.0 0.528477737
C  C124  1  0.75750000  0.50450000  0.42760000  1.0 0.528477737
C  C125  1  0.07240000  0.24250000  0.00450000  1.0 0.528477737
C  C126  1  0.49550000  0.92760000  0.74250000  1.0 0.528477737
C  C127  1  0.74250000  0.49550000  0.92760000  1.0 0.528477737
C  C128  1  0.42760000  0.75750000  0.50450000  1.0 0.528477737
C  C129  1  0.00450000  0.07240000  0.24250000  1.0 0.528477737
C  C130  1  0.24250000  0.00450000  0.07240000  1.0 0.528477737
C  C131  1  0.92760000  0.74250000  0.49550000  1.0 0.528477737
C  C132  1  0.50450000  0.42760000  0.75750000  1.0 0.528477737
C  C133  1  0.26940000  0.95490000  0.59500000  1.0 0.1984221336
C  C134  1  0.59500000  0.26940000  0.95490000  1.0 0.1984221336
C  C135  1  0.95490000  0.59500000  0.26940000  1.0 0.1984221336
C  C136  1  0.76940000  0.54510000  0.40500000  1.0 0.1984221336
C  C137  1  0.09500000  0.23060000  0.04510000  1.0 0.1984221336
C  C138  1  0.45490000  0.90500000  0.73060000  1.0 0.2085902794
C  C139  1  0.73060000  0.45490000  0.90500000  1.0 0.1984221336
C  C140  1  0.40500000  0.76940000  0.54510000  1.0 0.1984221336
C  C141  1  0.04510000  0.09500000  0.23060000  1.0 0.1984221336
C  C142  1  0.23060000  0.04510000  0.09500000  1.0 0.1984221336
C  C143  1  0.90500000  0.73060000  0.45490000  1.0 0.2085902794
C  C144  1  0.54510000  0.40500000  0.76940000  1.0 0.1984221336
C  C145  1  0.29400000  0.92300000  0.57200000  1.0 0.0076738564
C  C146  1  0.57200000  0.29400000  0.92300000  1.0 0.0076738564
C  C147  1  0.92300000  0.57200000  0.29400000  1.0 0.0076738564
C  C148  1  0.79400000  0.57700000  0.42800000  1.0 0.0076738564
C  C149  1  0.07200000  0.20600000  0.07700000  1.0 0.0076738564
C  C150  1  0.42300000  0.92800000  0.70600000  1.0 0.0076738564
C  C151  1  0.70600000  0.42300000  0.92800000  1.0 0.0076738564
C  C152  1  0.42800000  0.79400000  0.57700000  1.0 0.0076738564
C  C153  1  0.07700000  0.07200000  0.20600000  1.0 0.0076738564
C  C154  1  0.20600000  0.07700000  0.07200000  1.0 0.0076738564
C  C155  1  0.92800000  0.70600000  0.42300000  1.0 0.0076738564
C  C156  1  0.57700000  0.42800000  0.79400000  1.0 0.0076738564
C  C157  1  0.29730000  0.88500000  0.60080000  1.0 0.1984221336
C  C158  1  0.60080000  0.29730000  0.88500000  1.0 0.1984221336
C  C159  1  0.88500000  0.60080000  0.29730000  1.0 0.1984221336
C  C160  1  0.79730000  0.61500000  0.39920000  1.0 0.1897818265
C  C161  1  0.10080000  0.20270000  0.11500000  1.0 0.1984221336
C  C162  1  0.38500000  0.89920000  0.70270000  1.0 0.1984221336
C  C163  1  0.70270000  0.38500000  0.89920000  1.0 0.1984221336
C  C164  1  0.39920000  0.79730000  0.61500000  1.0 0.1897818265
C  C165  1  0.11500000  0.10080000  0.20270000  1.0 0.1984221336
C  C166  1  0.20270000  0.11500000  0.10080000  1.0 0.1984221336
C  C167  1  0.89920000  0.70270000  0.38500000  1.0 0.1984221336
C  C168  1  0.61500000  0.39920000  0.79730000  1.0 0.1897818265
C  C169  1  0.27570000  0.91130000  0.52950000  1.0 0.2192453977
C  C170  1  0.52950000  0.27570000  0.91130000  1.0 0.2192453977
C  C171  1  0.91130000  0.52950000  0.27570000  1.0 0.2192453977
C  C172  1  0.77570000  0.58870000  0.47050000  1.0 0.2192453977
C  C173  1  0.02950000  0.22430000  0.08870000  1.0 0.2192453977
C  C174  1  0.41130000  0.97050000  0.72430000  1.0 0.2192453977
C  C175  1  0.72430000  0.41130000  0.97050000  1.0 0.2192453977
C  C176  1  0.47050000  0.77570000  0.58870000  1.0 0.2192453977
C  C177  1  0.08870000  0.02950000  0.22430000  1.0 0.2192453977
C  C178  1  0.22430000  0.08870000  0.02950000  1.0 0.2192453977
C  C179  1  0.97050000  0.72430000  0.41130000  1.0 0.2192453977
C  C180  1  0.58870000  0.47050000  0.77570000  1.0 0.2192453977
C  C181  1  0.32410000  0.05280000  0.70960000  1.0 0.537229328
C  C182  1  0.70960000  0.32410000  0.05280000  1.0 0.537229328
C  C183  1  0.05280000  0.70960000  0.32410000  1.0 0.537229328
C  C184  1  0.82410000  0.44720000  0.29040000  1.0 0.537229328
C  C185  1  0.20960000  0.17590000  0.94720000  1.0 0.537229328
C  C186  1  0.55280000  0.79040000  0.67590000  1.0 0.537229328
C  C187  1  0.67590000  0.55280000  0.79040000  1.0 0.537229328
C  C188  1  0.29040000  0.82410000  0.44720000  1.0 0.537229328
C  C189  1  0.94720000  0.20960000  0.17590000  1.0 0.537229328
C  C190  1  0.17590000  0.94720000  0.20960000  1.0 0.537229328
C  C191  1  0.79040000  0.67590000  0.55280000  1.0 0.537229328
C  C192  1  0.44720000  0.29040000  0.82410000  1.0 0.537229328
C  C193  1  0.32670000  0.08880000  0.67800000  1.0 0.2504587677
C  C194  1  0.67800000  0.32670000  0.08880000  1.0 0.2504587677
C  C195  1  0.08880000  0.67800000  0.32670000  1.0 0.2504587677
C  C196  1  0.82670000  0.41120000  0.32200000  1.0 0.2504587677
C  C197  1  0.17800000  0.17330000  0.91120000  1.0 0.2598019425
C  C198  1  0.58880000  0.82200000  0.67330000  1.0 0.2598019425
C  C199  1  0.67330000  0.58880000  0.82200000  1.0 0.2598019425
C  C200  1  0.32200000  0.82670000  0.41120000  1.0 0.2504587677
C  C201  1  0.91120000  0.17800000  0.17330000  1.0 0.2598019425
C  C202  1  0.17330000  0.91120000  0.17800000  1.0 0.2504587677
C  C203  1  0.82200000  0.67330000  0.58880000  1.0 0.2598019425
C  C204  1  0.41120000  0.32200000  0.82670000  1.0 0.2504587677
C  C205  1  0.36550000  0.09500000  0.65270000  1.0 0.0620886772
C  C206  1  0.65270000  0.36550000  0.09500000  1.0 0.0620886772
C  C207  1  0.09500000  0.65270000  0.36550000  1.0 0.0620886772
C  C208  1  0.86550000  0.40500000  0.34730000  1.0 0.0620886772
C  C209  1  0.15270000  0.13450000  0.90500000  1.0 0.0620886772
C  C210  1  0.59500000  0.84730000  0.63450000  1.0 0.0620886772
C  C211  1  0.63450000  0.59500000  0.84730000  1.0 0.0620886772
C  C212  1  0.34730000  0.86550000  0.40500000  1.0 0.0620886772
C  C213  1  0.90500000  0.15270000  0.13450000  1.0 0.0620886772
C  C214  1  0.13450000  0.90500000  0.15270000  1.0 0.0620886772
C  C215  1  0.84730000  0.63450000  0.59500000  1.0 0.0620886772
C  C216  1  0.40500000  0.34730000  0.86550000  1.0 0.0620886772
C  C217  1  0.36720000  0.13630000  0.62990000  1.0 0.2192453977
C  C218  1  0.62990000  0.36720000  0.13630000  1.0 0.2192453977
C  C219  1  0.13630000  0.62990000  0.36720000  1.0 0.2192453977
C  C220  1  0.86720000  0.36370000  0.37010000  1.0 0.2192453977
C  C221  1  0.12990000  0.13280000  0.86370000  1.0 0.2192453977
C  C222  1  0.63630000  0.87010000  0.63280000  1.0 0.2299130183
C  C223  1  0.63280000  0.63630000  0.87010000  1.0 0.2299130183
C  C224  1  0.37010000  0.86720000  0.36370000  1.0 0.2192453977
C  C225  1  0.86370000  0.12990000  0.13280000  1.0 0.2299130183
C  C226  1  0.13280000  0.86370000  0.12990000  1.0 0.2192453977
C  C227  1  0.87010000  0.63280000  0.63630000  1.0 0.2299130183
C  C228  1  0.36370000  0.37010000  0.86720000  1.0 0.2192453977
C  C229  1  0.40500000  0.09120000  0.67820000  1.0 0.1897818265
C  C230  1  0.67820000  0.40500000  0.09120000  1.0 0.1897818265
C  C231  1  0.09120000  0.67820000  0.40500000  1.0 0.1897818265
C  C232  1  0.90500000  0.40880000  0.32180000  1.0 0.1897818265
C  C233  1  0.17820000  0.09500000  0.90880000  1.0 0.1897818265
C  C234  1  0.59120000  0.82180000  0.59500000  1.0 0.1897818265
C  C235  1  0.59500000  0.59120000  0.82180000  1.0 0.1897818265
C  C236  1  0.32180000  0.90500000  0.40880000  1.0 0.1897818265
C  C237  1  0.90880000  0.17820000  0.09500000  1.0 0.1897818265
C  C238  1  0.09500000  0.90880000  0.17820000  1.0 0.1897818265
C  C239  1  0.82180000  0.59500000  0.59120000  1.0 0.1897818265
C  C240  1  0.40880000  0.32180000  0.90500000  1.0 0.1897818265
C  C241  1  0.00530000  0.03550000  0.75170000  1.0 0.537229328
C  C242  1  0.75170000  0.00530000  0.03550000  1.0 0.537229328
C  C243  1  0.03550000  0.75170000  0.00530000  1.0 0.537229328
C  C244  1  0.50530000  0.46450000  0.24830000  1.0 0.528477737
C  C245  1  0.25170000  0.49470000  0.96450000  1.0 0.537229328
C  C246  1  0.53550000  0.74830000  0.99470000  1.0 0.537229328
C  C247  1  0.99470000  0.53550000  0.74830000  1.0 0.537229328
C  C248  1  0.24830000  0.50530000  0.46450000  1.0 0.528477737
C  C249  1  0.96450000  0.25170000  0.49470000  1.0 0.537229328
C  C250  1  0.49470000  0.96450000  0.25170000  1.0 0.537229328
C  C251  1  0.74830000  0.99470000  0.53550000  1.0 0.537229328
C  C252  1  0.46450000  0.24830000  0.50530000  1.0 0.528477737
C  C253  1  0.05130000  0.03020000  0.74060000  1.0 0.2085902794
C  C254  1  0.74060000  0.05130000  0.03020000  1.0 0.2085902794
C  C255  1  0.03020000  0.74060000  0.05130000  1.0 0.2085902794
C  C256  1  0.55130000  0.46980000  0.25940000  1.0 0.2085902794
C  C257  1  0.24060000  0.44870000  0.96980000  1.0 0.2085902794
C  C258  1  0.53020000  0.75940000  0.94870000  1.0 0.2085902794
C  C259  1  0.94870000  0.53020000  0.75940000  1.0 0.2085902794
C  C260  1  0.25940000  0.55130000  0.46980000  1.0 0.2085902794
C  C261  1  0.96980000  0.24060000  0.44870000  1.0 0.2085902794
C  C262  1  0.44870000  0.96980000  0.24060000  1.0 0.2085902794
C  C263  1  0.75940000  0.94870000  0.53020000  1.0 0.2085902794
C  C264  1  0.46980000  0.25940000  0.55130000  1.0 0.2085902794
C  C265  1  0.06110000  0.00920000  0.70030000  1.0 0.0659014648
C  C266  1  0.70030000  0.06110000  0.00920000  1.0 0.0620886772
C  C267  1  0.00920000  0.70030000  0.06110000  1.0 0.0659014648
C  C268  1  0.56110000  0.49080000  0.29970000  1.0 0.0620886772
C  C269  1  0.20030000  0.43890000  0.99080000  1.0 0.0659014648
C  C270  1  0.50920000  0.79970000  0.93890000  1.0 0.0620886772
C  C271  1  0.93890000  0.50920000  0.79970000  1.0 0.0620886772
C  C272  1  0.29970000  0.56110000  0.49080000  1.0 0.0620886772
C  C273  1  0.99080000  0.20030000  0.43890000  1.0 0.0659014648
C  C274  1  0.43890000  0.99080000  0.20030000  1.0 0.0659014648
C  C275  1  0.79970000  0.93890000  0.50920000  1.0 0.0620886772
C  C276  1  0.49080000  0.29970000  0.56110000  1.0 0.0620886772
C  C277  1  0.10750000  0.00240000  0.69790000  1.0 0.1814711947
C  C278  1  0.69790000  0.10750000  0.00240000  1.0 0.1814711947
C  C279  1  0.00240000  0.69790000  0.10750000  1.0 0.1814711947
C  C280  1  0.60750000  0.49760000  0.30210000  1.0 0.1814711947
C  C281  1  0.19790000  0.39250000  0.99760000  1.0 0.1814711947
C  C282  1  0.50240000  0.80210000  0.89250000  1.0 0.1814711947
C  C283  1  0.89250000  0.50240000  0.80210000  1.0 0.1814711947
C  C284  1  0.30210000  0.60750000  0.49760000  1.0 0.1814711947
C  C285  1  0.99760000  0.19790000  0.39250000  1.0 0.1814711947
C  C286  1  0.39250000  0.99760000  0.19790000  1.0 0.1814711947
C  C287  1  0.80210000  0.89250000  0.50240000  1.0 0.1814711947
C  C288  1  0.49760000  0.30210000  0.60750000  1.0 0.1814711947
C  C289  1  0.03740000  0.96830000  0.69770000  1.0 0.1601257644
C  C290  1  0.69770000  0.03740000  0.96830000  1.0 0.1601257644
C  C291  1  0.96830000  0.69770000  0.03740000  1.0 0.1601257644
C  C292  1  0.53740000  0.53170000  0.30230000  1.0 0.1601257644
C  C293  1  0.19770000  0.46260000  0.03170000  1.0 0.1601257644
C  C294  1  0.46830000  0.80230000  0.96260000  1.0 0.1601257644
C  C295  1  0.96260000  0.46830000  0.80230000  1.0 0.1601257644
C  C296  1  0.30230000  0.53740000  0.53170000  1.0 0.1601257644
C  C297  1  0.03170000  0.19770000  0.46260000  1.0 0.1601257644
C  C298  1  0.46260000  0.03170000  0.19770000  1.0 0.1601257644
C  C299  1  0.80230000  0.96260000  0.46830000  1.0 0.1601257644
C  C300  1  0.53170000  0.30230000  0.53740000  1.0 0.1601257644
C  C301  1  0.04510000  0.16800000  0.66420000  1.0 0.5018936416
C  C302  1  0.66420000  0.04510000  0.16800000  1.0 0.5018936416
C  C303  1  0.16800000  0.66420000  0.04510000  1.0 0.5018936416
C  C304  1  0.54510000  0.33200000  0.33580000  1.0 0.5018936416
C  C305  1  0.16420000  0.45490000  0.83200000  1.0 0.5018936416
C  C306  1  0.66800000  0.83580000  0.95490000  1.0 0.4924286094
C  C307  1  0.95490000  0.66800000  0.83580000  1.0 0.4924286094
C  C308  1  0.33580000  0.54510000  0.33200000  1.0 0.5018936416
C  C309  1  0.83200000  0.16420000  0.45490000  1.0 0.5018936416
C  C310  1  0.45490000  0.83200000  0.16420000  1.0 0.5018936416
C  C311  1  0.83580000  0.95490000  0.66800000  1.0 0.4924286094
C  C312  1  0.33200000  0.33580000  0.54510000  1.0 0.5018936416
C  C313  1  0.99700000  0.17200000  0.66470000  1.0 0.2504587677
C  C314  1  0.66470000  0.99700000  0.17200000  1.0 0.2504587677
C  C315  1  0.17200000  0.66470000  0.99700000  1.0 0.2504587677
C  C316  1  0.49700000  0.32800000  0.33530000  1.0 0.2504587677
C  C317  1  0.16470000  0.50300000  0.82800000  1.0 0.2504587677
C  C318  1  0.67200000  0.83530000  0.00300000  1.0 0.2504587677
C  C319  1  0.00300000  0.67200000  0.83530000  1.0 0.2504587677
C  C320  1  0.33530000  0.49700000  0.32800000  1.0 0.2504587677
C  C321  1  0.82800000  0.16470000  0.50300000  1.0 0.2504587677
C  C322  1  0.50300000  0.82800000  0.16470000  1.0 0.2504587677
C  C323  1  0.83530000  0.00300000  0.67200000  1.0 0.2504587677
C  C324  1  0.32800000  0.33530000  0.49700000  1.0 0.2504587677
C  C325  1  0.97680000  0.17410000  0.62270000  1.0 -0.0188627223
C  C326  1  0.62270000  0.97680000  0.17410000  1.0 -0.0188627223
C  C327  1  0.17410000  0.62270000  0.97680000  1.0 -0.0188627223
C  C328  1  0.47680000  0.32590000  0.37730000  1.0 -0.0188627223
C  C329  1  0.12270000  0.52320000  0.82590000  1.0 -0.0188627223
C  C330  1  0.67410000  0.87730000  0.02320000  1.0 -0.0188627223
C  C331  1  0.02320000  0.67410000  0.87730000  1.0 -0.0188627223
C  C332  1  0.37730000  0.47680000  0.32590000  1.0 -0.0188627223
C  C333  1  0.82590000  0.12270000  0.52320000  1.0 -0.0188627223
C  C334  1  0.52320000  0.82590000  0.12270000  1.0 -0.0188627223
C  C335  1  0.87730000  0.02320000  0.67410000  1.0 -0.0188627223
C  C336  1  0.32590000  0.37730000  0.47680000  1.0 -0.0188627223
C  C337  1  0.99350000  0.20580000  0.59280000  1.0 0.2368670006
C  C338  1  0.59280000  0.99350000  0.20580000  1.0 0.2368670006
C  C339  1  0.20580000  0.59280000  0.99350000  1.0 0.2368670006
C  C340  1  0.49350000  0.29420000  0.40720000  1.0 0.2299130183
C  C341  1  0.09280000  0.50650000  0.79420000  1.0 0.2368670006
C  C342  1  0.70580000  0.90720000  0.00650000  1.0 0.2368670006
C  C343  1  0.00650000  0.70580000  0.90720000  1.0 0.2299130183
C  C344  1  0.40720000  0.49350000  0.29420000  1.0 0.2299130183
C  C345  1  0.79420000  0.09280000  0.50650000  1.0 0.2368670006
C  C346  1  0.50650000  0.79420000  0.09280000  1.0 0.2368670006
C  C347  1  0.90720000  0.00650000  0.70580000  1.0 0.2368670006
C  C348  1  0.29420000  0.40720000  0.49350000  1.0 0.2299130183
C  C349  1  0.93040000  0.18150000  0.63110000  1.0 0.2299130183
C  C350  1  0.63110000  0.93040000  0.18150000  1.0 0.2299130183
C  C351  1  0.18150000  0.63110000  0.93040000  1.0 0.2299130183
C  C352  1  0.43040000  0.31850000  0.36890000  1.0 0.2299130183
C  C353  1  0.13110000  0.56960000  0.81850000  1.0 0.2299130183
C  C354  1  0.68150000  0.86890000  0.06960000  1.0 0.2299130183
C  C355  1  0.06960000  0.68150000  0.86890000  1.0 0.2299130183
C  C356  1  0.36890000  0.43040000  0.31850000  1.0 0.2299130183
C  C357  1  0.81850000  0.13110000  0.56960000  1.0 0.2299130183
C  C358  1  0.56960000  0.81850000  0.13110000  1.0 0.2299130183
C  C359  1  0.86890000  0.06960000  0.68150000  1.0 0.2299130183
C  C360  1  0.31850000  0.36890000  0.43040000  1.0 0.2299130183
C  C361  1  0.15450000  0.97220000  0.58870000  1.0 0.528477737
C  C362  1  0.58870000  0.15450000  0.97220000  1.0 0.528477737
C  C363  1  0.97220000  0.58870000  0.15450000  1.0 0.528477737
C  C364  1  0.65450000  0.52780000  0.41130000  1.0 0.528477737
C  C365  1  0.08870000  0.34550000  0.02780000  1.0 0.528477737
C  C366  1  0.47220000  0.91130000  0.84550000  1.0 0.528477737
C  C367  1  0.84550000  0.47220000  0.91130000  1.0 0.528477737
C  C368  1  0.41130000  0.65450000  0.52780000  1.0 0.528477737
C  C369  1  0.02780000  0.08870000  0.34550000  1.0 0.528477737
C  C370  1  0.34550000  0.02780000  0.08870000  1.0 0.528477737
C  C371  1  0.91130000  0.84550000  0.47220000  1.0 0.5238550723
C  C372  1  0.52780000  0.41130000  0.65450000  1.0 0.528477737
C  C373  1  0.14400000  0.95230000  0.54720000  1.0 0.2085902794
C  C374  1  0.54720000  0.14400000  0.95230000  1.0 0.2085902794
C  C375  1  0.95230000  0.54720000  0.14400000  1.0 0.2085902794
C  C376  1  0.64400000  0.54770000  0.45280000  1.0 0.2085902794
C  C377  1  0.04720000  0.35600000  0.04770000  1.0 0.2085902794
C  C378  1  0.45230000  0.95280000  0.85600000  1.0 0.2085902794
C  C379  1  0.85600000  0.45230000  0.95280000  1.0 0.2085902794
C  C380  1  0.45280000  0.64400000  0.54770000  1.0 0.2085902794
C  C381  1  0.04770000  0.04720000  0.35600000  1.0 0.2085902794
C  C382  1  0.35600000  0.04770000  0.04720000  1.0 0.2085902794
C  C383  1  0.95280000  0.85600000  0.45230000  1.0 0.2085902794
C  C384  1  0.54770000  0.45280000  0.64400000  1.0 0.2085902794
C  C385  1  0.10180000  0.93160000  0.54430000  1.0 0.0225993509
C  C386  1  0.54430000  0.10180000  0.93160000  1.0 0.0225993509
C  C387  1  0.93160000  0.54430000  0.10180000  1.0 0.0225993509
C  C388  1  0.60180000  0.56840000  0.45570000  1.0 0.0225993509
C  C389  1  0.04430000  0.39820000  0.06840000  1.0 0.0225993509
C  C390  1  0.43160000  0.95570000  0.89820000  1.0 0.0225993509
C  C391  1  0.89820000  0.43160000  0.95570000  1.0 0.0225993509
C  C392  1  0.45570000  0.60180000  0.56840000  1.0 0.0225993509
C  C393  1  0.06840000  0.04430000  0.39820000  1.0 0.0225993509
C  C394  1  0.39820000  0.06840000  0.04430000  1.0 0.0225993509
C  C395  1  0.95570000  0.89820000  0.43160000  1.0 0.0225993509
C  C396  1  0.56840000  0.45570000  0.60180000  1.0 0.0225993509
C  C397  1  0.08990000  0.90540000  0.58310000  1.0 0.1814711947
C  C398  1  0.58310000  0.08990000  0.90540000  1.0 0.1814711947
C  C399  1  0.90540000  0.58310000  0.08990000  1.0 0.1814711947
C  C400  1  0.58990000  0.59460000  0.41690000  1.0 0.1814711947
C  C401  1  0.08310000  0.41010000  0.09460000  1.0 0.1814711947
C  C402  1  0.40540000  0.91690000  0.91010000  1.0 0.1814711947
C  C403  1  0.91010000  0.40540000  0.91690000  1.0 0.1814711947
C  C404  1  0.41690000  0.58990000  0.59460000  1.0 0.1814711947
C  C405  1  0.09460000  0.08310000  0.41010000  1.0 0.1814711947
C  C406  1  0.41010000  0.09460000  0.08310000  1.0 0.1814711947
C  C407  1  0.91690000  0.91010000  0.40540000  1.0 0.1814711947
C  C408  1  0.59460000  0.41690000  0.58990000  1.0 0.1814711947
C  C409  1  0.09830000  0.90640000  0.50390000  1.0 0.1984221336
C  C410  1  0.50390000  0.09830000  0.90640000  1.0 0.1984221336
C  C411  1  0.90640000  0.50390000  0.09830000  1.0 0.1984221336
C  C412  1  0.59830000  0.59360000  0.49610000  1.0 0.1984221336
C  C413  1  0.00390000  0.40170000  0.09360000  1.0 0.1984221336
C  C414  1  0.40640000  0.99610000  0.90170000  1.0 0.1897818265
C  C415  1  0.90170000  0.40640000  0.99610000  1.0 0.1897818265
C  C416  1  0.49610000  0.59830000  0.59360000  1.0 0.1984221336
C  C417  1  0.09360000  0.00390000  0.40170000  1.0 0.1984221336
C  C418  1  0.40170000  0.09360000  0.00390000  1.0 0.1984221336
C  C419  1  0.99610000  0.90170000  0.40640000  1.0 0.1897818265
C  C420  1  0.59360000  0.49610000  0.59830000  1.0 0.1984221336
C  C421  1  0.18230000  0.09670000  0.48080000  1.0 0.528477737
C  C422  1  0.48080000  0.18230000  0.09670000  1.0 0.528477737
C  C423  1  0.09670000  0.48080000  0.18230000  1.0 0.528477737
C  C424  1  0.68230000  0.40330000  0.51920000  1.0 0.528477737
C  C425  1  0.98080000  0.31770000  0.90330000  1.0 0.528477737
C  C426  1  0.59670000  0.01920000  0.81770000  1.0 0.5238550723
C  C427  1  0.81770000  0.59670000  0.01920000  1.0 0.5238550723
C  C428  1  0.51920000  0.68230000  0.40330000  1.0 0.528477737
C  C429  1  0.90330000  0.98080000  0.31770000  1.0 0.528477737
C  C430  1  0.31770000  0.90330000  0.98080000  1.0 0.528477737
C  C431  1  0.01920000  0.81770000  0.59670000  1.0 0.5238550723
C  C432  1  0.40330000  0.51920000  0.68230000  1.0 0.528477737
C  C433  1  0.18130000  0.11680000  0.52410000  1.0 0.2299130183
C  C434  1  0.52410000  0.18130000  0.11680000  1.0 0.2299130183
C  C435  1  0.11680000  0.52410000  0.18130000  1.0 0.2299130183
C  C436  1  0.68130000  0.38320000  0.47590000  1.0 0.2299130183
C  C437  1  0.02410000  0.31870000  0.88320000  1.0 0.2299130183
C  C438  1  0.61680000  0.97590000  0.81870000  1.0 0.2192453977
C  C439  1  0.81870000  0.61680000  0.97590000  1.0 0.2299130183
C  C440  1  0.47590000  0.68130000  0.38320000  1.0 0.2299130183
C  C441  1  0.88320000  0.02410000  0.31870000  1.0 0.2299130183
C  C442  1  0.31870000  0.88320000  0.02410000  1.0 0.2299130183
C  C443  1  0.97590000  0.81870000  0.61680000  1.0 0.2192453977
C  C444  1  0.38320000  0.47590000  0.68130000  1.0 0.2299130183
C  C445  1  0.13890000  0.13100000  0.53640000  1.0 0.0520366057
C  C446  1  0.53640000  0.13890000  0.13100000  1.0 0.0520366057
C  C447  1  0.13100000  0.53640000  0.13890000  1.0 0.0520366057
C  C448  1  0.63890000  0.36900000  0.46360000  1.0 0.0520366057
C  C449  1  0.03640000  0.36110000  0.86900000  1.0 0.0520366057
C  C450  1  0.63100000  0.96360000  0.86110000  1.0 0.0520366057
C  C451  1  0.86110000  0.63100000  0.96360000  1.0 0.0520366057
C  C452  1  0.46360000  0.63890000  0.36900000  1.0 0.0520366057
C  C453  1  0.86900000  0.03640000  0.36110000  1.0 0.0520366057
C  C454  1  0.36110000  0.86900000  0.03640000  1.0 0.0520366057
C  C455  1  0.96360000  0.86110000  0.63100000  1.0 0.0520366057
C  C456  1  0.36900000  0.46360000  0.63890000  1.0 0.0520366057
C  C457  1  0.14170000  0.15820000  0.57480000  1.0 0.1814711947
C  C458  1  0.57480000  0.14170000  0.15820000  1.0 0.1814711947
C  C459  1  0.15820000  0.57480000  0.14170000  1.0 0.1814711947
C  C460  1  0.64170000  0.34180000  0.42520000  1.0 0.1814711947
C  C461  1  0.07480000  0.35830000  0.84180000  1.0 0.1814711947
C  C462  1  0.65820000  0.92520000  0.85830000  1.0 0.1700841349
C  C463  1  0.85830000  0.65820000  0.92520000  1.0 0.1814711947
C  C464  1  0.42520000  0.64170000  0.34180000  1.0 0.1814711947
C  C465  1  0.84180000  0.07480000  0.35830000  1.0 0.1814711947
C  C466  1  0.35830000  0.84180000  0.07480000  1.0 0.1814711947
C  C467  1  0.92520000  0.85830000  0.65820000  1.0 0.1814711947
C  C468  1  0.34180000  0.42520000  0.64170000  1.0 0.1814711947
C  C469  1  0.11900000  0.15690000  0.50190000  1.0 0.1601257644
C  C470  1  0.50190000  0.11900000  0.15690000  1.0 0.1601257644
C  C471  1  0.15690000  0.50190000  0.11900000  1.0 0.1601257644
C  C472  1  0.61900000  0.34310000  0.49810000  1.0 0.1601257644
C  C473  1  0.00190000  0.38100000  0.84310000  1.0 0.1601257644
C  C474  1  0.65690000  0.99810000  0.88100000  1.0 0.1601257644
C  C475  1  0.88100000  0.65690000  0.99810000  1.0 0.1601257644
C  C476  1  0.49810000  0.61900000  0.34310000  1.0 0.1601257644
C  C477  1  0.84310000  0.00190000  0.38100000  1.0 0.1700841349
C  C478  1  0.38100000  0.84310000  0.00190000  1.0 0.1601257644
C  C479  1  0.99810000  0.88100000  0.65690000  1.0 0.1601257644
C  C480  1  0.34310000  0.49810000  0.61900000  1.0 0.1601257644
S  S1  1  0.35836000  0.05291000  0.48036000  1.0 -0.2670206137
S  S2  1  0.48036000  0.35836000  0.05291000  1.0 -0.2670206137
S  S3  1  0.05291000  0.48036000  0.35836000  1.0 -0.2670206137
S  S4  1  0.85836000  0.44709000  0.51964000  1.0 -0.2670206137
S  S5  1  0.98036000  0.14164000  0.94709000  1.0 -0.2640319232
S  S6  1  0.55291000  0.01964000  0.64164000  1.0 -0.2670206137
S  S7  1  0.64164000  0.55291000  0.01964000  1.0 -0.2670206137
S  S8  1  0.51964000  0.85836000  0.44709000  1.0 -0.2670206137
S  S9  1  0.94709000  0.98036000  0.14164000  1.0 -0.2640319232
S  S10  1  0.14164000  0.94709000  0.98036000  1.0 -0.2640319232
S  S11  1  0.01964000  0.64164000  0.55291000  1.0 -0.2670206137
S  S12  1  0.44709000  0.51964000  0.85836000  1.0 -0.2670206137
S  S13  1  0.34673000  0.94207000  0.56534000  1.0 -0.1408861904
S  S14  1  0.56534000  0.34673000  0.94207000  1.0 -0.1408861904
S  S15  1  0.94207000  0.56534000  0.34673000  1.0 -0.1408861904
S  S16  1  0.84673000  0.55793000  0.43466000  1.0 -0.1408861904
S  S17  1  0.06534000  0.15327000  0.05793000  1.0 -0.1453784916
S  S18  1  0.44207000  0.93466000  0.65327000  1.0 -0.1408861904
S  S19  1  0.65327000  0.44207000  0.93466000  1.0 -0.1408861904
S  S20  1  0.43466000  0.84673000  0.55793000  1.0 -0.1408861904
S  S21  1  0.05793000  0.06534000  0.15327000  1.0 -0.1453784916
S  S22  1  0.15327000  0.05793000  0.06534000  1.0 -0.1453784916
S  S23  1  0.93466000  0.65327000  0.44207000  1.0 -0.1408861904
S  S24  1  0.55793000  0.43466000  0.84673000  1.0 -0.1408861904
S  S25  1  0.36326000  0.05341000  0.61381000  1.0 -0.2670206137
S  S26  1  0.61381000  0.36326000  0.05341000  1.0 -0.2670206137
S  S27  1  0.05341000  0.61381000  0.36326000  1.0 -0.2670206137
S  S28  1  0.86326000  0.44659000  0.38619000  1.0 -0.2670206137
S  S29  1  0.11381000  0.13674000  0.94659000  1.0 -0.2640319232
S  S30  1  0.55341000  0.88619000  0.63674000  1.0 -0.2640319232
S  S31  1  0.63674000  0.55341000  0.88619000  1.0 -0.2640319232
S  S32  1  0.38619000  0.86326000  0.44659000  1.0 -0.2640319232
S  S33  1  0.94659000  0.11381000  0.13674000  1.0 -0.2670206137
S  S34  1  0.13674000  0.94659000  0.11381000  1.0 -0.2670206137
S  S35  1  0.88619000  0.63674000  0.55341000  1.0 -0.2670206137
S  S36  1  0.44659000  0.38619000  0.86326000  1.0 -0.2640319232
S  S37  1  0.47224000  0.06138000  0.52600000  1.0 -0.1328719924
S  S38  1  0.52600000  0.47224000  0.06138000  1.0 -0.1408861904
S  S39  1  0.06138000  0.52600000  0.47224000  1.0 -0.1328719924
S  S40  1  0.97224000  0.43862000  0.47400000  1.0 -0.1328719924
S  S41  1  0.02600000  0.02776000  0.93862000  1.0 -0.1328719924
S  S42  1  0.56138000  0.97400000  0.52776000  1.0 -0.1328719924
S  S43  1  0.52776000  0.56138000  0.97400000  1.0 -0.1328719924
S  S44  1  0.47400000  0.97224000  0.43862000  1.0 -0.1328719924
S  S45  1  0.93862000  0.02600000  0.02776000  1.0 -0.1328719924
S  S46  1  0.02776000  0.93862000  0.02600000  1.0 -0.1328719924
S  S47  1  0.97400000  0.52776000  0.56138000  1.0 -0.1328719924
S  S48  1  0.43862000  0.47400000  0.97224000  1.0 -0.1328719924
S  S49  1  0.04575000  0.04305000  0.65864000  1.0 -0.2902142146
S  S50  1  0.65864000  0.04575000  0.04305000  1.0 -0.2902142146
S  S51  1  0.04305000  0.65864000  0.04575000  1.0 -0.2902142146
S  S52  1  0.54575000  0.45695000  0.34136000  1.0 -0.2902142146
S  S53  1  0.15864000  0.45425000  0.95695000  1.0 -0.2902142146
S  S54  1  0.54305000  0.84136000  0.95425000  1.0 -0.2902142146
S  S55  1  0.95425000  0.54305000  0.84136000  1.0 -0.2902142146
S  S56  1  0.34136000  0.54575000  0.45695000  1.0 -0.2902142146
S  S57  1  0.95695000  0.15864000  0.45425000  1.0 -0.2902142146
S  S58  1  0.45425000  0.95695000  0.15864000  1.0 -0.2902142146
S  S59  1  0.84136000  0.95425000  0.54305000  1.0 -0.2902142146
S  S60  1  0.45695000  0.34136000  0.54575000  1.0 -0.2902142146
S  S61  1  0.06246000  0.97244000  0.53888000  1.0 -0.1408861904
S  S62  1  0.53888000  0.06246000  0.97244000  1.0 -0.1408861904
S  S63  1  0.97244000  0.53888000  0.06246000  1.0 -0.1408861904
S  S64  1  0.56246000  0.52756000  0.46112000  1.0 -0.1408861904
S  S65  1  0.03888000  0.43754000  0.02756000  1.0 -0.1408861904
S  S66  1  0.47244000  0.96112000  0.93754000  1.0 -0.1408861904
S  S67  1  0.93754000  0.47244000  0.96112000  1.0 -0.1408861904
S  S68  1  0.46112000  0.56246000  0.52756000  1.0 -0.1408861904
S  S69  1  0.02756000  0.03888000  0.43754000  1.0 -0.1408861904
S  S70  1  0.43754000  0.02756000  0.03888000  1.0 -0.1408861904
S  S71  1  0.96112000  0.93754000  0.47244000  1.0 -0.1408861904
S  S72  1  0.52756000  0.46112000  0.56246000  1.0 -0.1408861904
S  S73  1  0.10665000  0.08794000  0.55130000  1.0 -0.2786060287
S  S74  1  0.55130000  0.10665000  0.08794000  1.0 -0.2786060287
S  S75  1  0.08794000  0.55130000  0.10665000  1.0 -0.2786060287
S  S76  1  0.60665000  0.41206000  0.44870000  1.0 -0.2786060287
S  S77  1  0.05130000  0.39335000  0.91206000  1.0 -0.2786060287
S  S78  1  0.58794000  0.94870000  0.89335000  1.0 -0.2786060287
S  S79  1  0.89335000  0.58794000  0.94870000  1.0 -0.2786060287
S  S80  1  0.44870000  0.60665000  0.41206000  1.0 -0.2786060287
S  S81  1  0.91206000  0.05130000  0.39335000  1.0 -0.2786060287
S  S82  1  0.39335000  0.91206000  0.05130000  1.0 -0.2786060287
S  S83  1  0.94870000  0.89335000  0.58794000  1.0 -0.2786060287
S  S84  1  0.41206000  0.44870000  0.60665000  1.0 -0.2786060287
S  S85  1  0.97861000  0.12202000  0.59698000  1.0 -0.1685161802
S  S86  1  0.59698000  0.97861000  0.12202000  1.0 -0.1685161802
S  S87  1  0.12202000  0.59698000  0.97861000  1.0 -0.1685161802
S  S88  1  0.47861000  0.37798000  0.40302000  1.0 -0.1685161802
S  S89  1  0.09698000  0.52139000  0.87798000  1.0 -0.1685161802
S  S90  1  0.62202000  0.90302000  0.02139000  1.0 -0.1685161802
S  S91  1  0.02139000  0.62202000  0.90302000  1.0 -0.1685161802
S  S92  1  0.40302000  0.47861000  0.37798000  1.0 -0.1685161802
S  S93  1  0.87798000  0.09698000  0.52139000  1.0 -0.1685161802
S  S94  1  0.52139000  0.87798000  0.09698000  1.0 -0.1685161802
S  S95  1  0.90302000  0.02139000  0.62202000  1.0 -0.1685161802
S  S96  1  0.37798000  0.40302000  0.47861000  1.0 -0.1685161802
N  N1  1  0.32960000  0.12960000  0.44300000  1.0 -0.5317126669
N  N2  1  0.44300000  0.32960000  0.12960000  1.0 -0.5416192724
N  N3  1  0.12960000  0.44300000  0.32960000  1.0 -0.5317126669
N  N4  1  0.82960000  0.37040000  0.55700000  1.0 -0.5317126669
N  N5  1  0.94300000  0.17040000  0.87040000  1.0 -0.5317126669
N  N6  1  0.62960000  0.05700000  0.67040000  1.0 -0.5317126669
N  N7  1  0.67040000  0.62960000  0.05700000  1.0 -0.5317126669
N  N8  1  0.55700000  0.82960000  0.37040000  1.0 -0.5416192724
N  N9  1  0.87040000  0.94300000  0.17040000  1.0 -0.5416192724
N  N10  1  0.17040000  0.87040000  0.94300000  1.0 -0.5317126669
N  N11  1  0.05700000  0.67040000  0.62960000  1.0 -0.5317126669
N  N12  1  0.37040000  0.55700000  0.82960000  1.0 -0.5317126669
N  N13  1  0.44910000  0.12380000  0.45740000  1.0 -0.5194761899
N  N14  1  0.45740000  0.44910000  0.12380000  1.0 -0.5194761899
N  N15  1  0.12380000  0.45740000  0.44910000  1.0 -0.5194761899
N  N16  1  0.94910000  0.37620000  0.54260000  1.0 -0.5194761899
N  N17  1  0.95740000  0.05090000  0.87620000  1.0 -0.5194761899
N  N18  1  0.62380000  0.04260000  0.55090000  1.0 -0.5194761899
N  N19  1  0.55090000  0.62380000  0.04260000  1.0 -0.5194761899
N  N20  1  0.54260000  0.94910000  0.37620000  1.0 -0.5194761899
N  N21  1  0.87620000  0.95740000  0.05090000  1.0 -0.5194761899
N  N22  1  0.05090000  0.87620000  0.95740000  1.0 -0.5194761899
N  N23  1  0.04260000  0.55090000  0.62380000  1.0 -0.5194761899
N  N24  1  0.37620000  0.54260000  0.94910000  1.0 -0.5194761899
N  N25  1  0.28800000  0.96650000  0.63600000  1.0 -0.5463713768
N  N26  1  0.63600000  0.28800000  0.96650000  1.0 -0.5463713768
N  N27  1  0.96650000  0.63600000  0.28800000  1.0 -0.5463713768
N  N28  1  0.78800000  0.53350000  0.36400000  1.0 -0.5463713768
N  N29  1  0.13600000  0.21200000  0.03350000  1.0 -0.5416192724
N  N30  1  0.46650000  0.86400000  0.71200000  1.0 -0.5463713768
N  N31  1  0.71200000  0.46650000  0.86400000  1.0 -0.5463713768
N  N32  1  0.36400000  0.78800000  0.53350000  1.0 -0.5463713768
N  N33  1  0.03350000  0.13600000  0.21200000  1.0 -0.5416192724
N  N34  1  0.21200000  0.03350000  0.13600000  1.0 -0.5463713768
N  N35  1  0.86400000  0.71200000  0.46650000  1.0 -0.5463713768
N  N36  1  0.53350000  0.36400000  0.78800000  1.0 -0.5463713768
N  N37  1  0.28840000  0.08610000  0.65320000  1.0 -0.5317126669
N  N38  1  0.65320000  0.28840000  0.08610000  1.0 -0.5317126669
N  N39  1  0.08610000  0.65320000  0.28840000  1.0 -0.5317126669
N  N40  1  0.78840000  0.41390000  0.34680000  1.0 -0.5317126669
N  N41  1  0.15320000  0.21160000  0.91390000  1.0 -0.5317126669
N  N42  1  0.58610000  0.84680000  0.71160000  1.0 -0.5317126669
N  N43  1  0.71160000  0.58610000  0.84680000  1.0 -0.5317126669
N  N44  1  0.34680000  0.78840000  0.41390000  1.0 -0.5317126669
N  N45  1  0.91390000  0.15320000  0.21160000  1.0 -0.5317126669
N  N46  1  0.21160000  0.91390000  0.15320000  1.0 -0.5317126669
N  N47  1  0.84680000  0.71160000  0.58610000  1.0 -0.5317126669
N  N48  1  0.41390000  0.34680000  0.78840000  1.0 -0.5317126669
N  N49  1  0.06920000  0.07250000  0.74240000  1.0 -0.4698044795
N  N50  1  0.74240000  0.06920000  0.07250000  1.0 -0.4698044795
N  N51  1  0.07250000  0.74240000  0.06920000  1.0 -0.4698044795
N  N52  1  0.56920000  0.42750000  0.25760000  1.0 -0.4698044795
N  N53  1  0.24240000  0.43080000  0.92750000  1.0 -0.4698044795
N  N54  1  0.57250000  0.75760000  0.93080000  1.0 -0.4698044795
N  N55  1  0.93080000  0.57250000  0.75760000  1.0 -0.4698044795
N  N56  1  0.25760000  0.56920000  0.42750000  1.0 -0.4698044795
N  N57  1  0.92750000  0.24240000  0.43080000  1.0 -0.4698044795
N  N58  1  0.43080000  0.92750000  0.24240000  1.0 -0.4698044795
N  N59  1  0.75760000  0.93080000  0.57250000  1.0 -0.4698044795
N  N60  1  0.42750000  0.25760000  0.56920000  1.0 -0.4698044795
N  N61  1  0.98280000  0.13650000  0.69110000  1.0 -0.5416192724
N  N62  1  0.69110000  0.98280000  0.13650000  1.0 -0.5416192724
N  N63  1  0.13650000  0.69110000  0.98280000  1.0 -0.5416192724
N  N64  1  0.48280000  0.36350000  0.30890000  1.0 -0.5416192724
N  N65  1  0.19110000  0.51720000  0.86350000  1.0 -0.5463713768
N  N66  1  0.63650000  0.80890000  0.01720000  1.0 -0.5416192724
N  N67  1  0.01720000  0.63650000  0.80890000  1.0 -0.5416192724
N  N68  1  0.30890000  0.48280000  0.36350000  1.0 -0.5416192724
N  N69  1  0.86350000  0.19110000  0.51720000  1.0 -0.5416192724
N  N70  1  0.51720000  0.86350000  0.19110000  1.0 -0.5463713768
N  N71  1  0.80890000  0.01720000  0.63650000  1.0 -0.5416192724
N  N72  1  0.36350000  0.30890000  0.48280000  1.0 -0.5416192724
N  N73  1  0.15160000  0.98280000  0.51350000  1.0 -0.5416192724
N  N74  1  0.51350000  0.15160000  0.98280000  1.0 -0.5416192724
N  N75  1  0.98280000  0.51350000  0.15160000  1.0 -0.5416192724
N  N76  1  0.65160000  0.51720000  0.48650000  1.0 -0.5416192724
N  N77  1  0.01350000  0.34840000  0.01720000  1.0 -0.5416192724
N  N78  1  0.48280000  0.98650000  0.84840000  1.0 -0.5416192724
N  N79  1  0.84840000  0.48280000  0.98650000  1.0 -0.5416192724
N  N80  1  0.48650000  0.65160000  0.51720000  1.0 -0.5416192724
N  N81  1  0.01720000  0.01350000  0.34840000  1.0 -0.5416192724
N  N82  1  0.34840000  0.01720000  0.01350000  1.0 -0.5416192724
N  N83  1  0.98650000  0.84840000  0.48280000  1.0 -0.5416192724
N  N84  1  0.51720000  0.48650000  0.65160000  1.0 -0.5416192724
N  N85  1  0.19700000  0.08600000  0.55490000  1.0 -0.4080351869
N  N86  1  0.55490000  0.19700000  0.08600000  1.0 -0.4080351869
N  N87  1  0.08600000  0.55490000  0.19700000  1.0 -0.4080351869
N  N88  1  0.69700000  0.41400000  0.44510000  1.0 -0.4044315311
N  N89  1  0.05490000  0.30300000  0.91400000  1.0 -0.4080351869
N  N90  1  0.58600000  0.94510000  0.80300000  1.0 -0.4044315311
N  N91  1  0.80300000  0.58600000  0.94510000  1.0 -0.4044315311
N  N92  1  0.44510000  0.69700000  0.41400000  1.0 -0.4044315311
N  N93  1  0.91400000  0.05490000  0.30300000  1.0 -0.4080351869
N  N94  1  0.30300000  0.91400000  0.05490000  1.0 -0.4080351869
N  N95  1  0.94510000  0.80300000  0.58600000  1.0 -0.4044315311
N  N96  1  0.41400000  0.44510000  0.69700000  1.0 -0.4080351869
Cl  Cl1  1  0.28240000  0.13580000  0.54990000  1.0 -0.3113517973
Cl  Cl2  1  0.54990000  0.28240000  0.13580000  1.0 -0.3113517973
Cl  Cl3  1  0.13580000  0.54990000  0.28240000  1.0 -0.3113517973
Cl  Cl4  1  0.78240000  0.36420000  0.45010000  1.0 -0.31685673
Cl  Cl5  1  0.04990000  0.21760000  0.86420000  1.0 -0.31685673
Cl  Cl6  1  0.63580000  0.95010000  0.71760000  1.0 -0.31685673
Cl  Cl7  1  0.71760000  0.63580000  0.95010000  1.0 -0.31685673
Cl  Cl8  1  0.45010000  0.78240000  0.36420000  1.0 -0.31685673
Cl  Cl9  1  0.86420000  0.04990000  0.21760000  1.0 -0.31685673
Cl  Cl10  1  0.21760000  0.86420000  0.04990000  1.0 -0.31685673
Cl  Cl11  1  0.95010000  0.71760000  0.63580000  1.0 -0.31685673
Cl  Cl12  1  0.36420000  0.45010000  0.78240000  1.0 -0.31685673
Cl  Cl13  1  0.46764000  0.46764000  0.46764000  1.0 -0.4307979259
Cl  Cl14  1  0.03236000  0.53236000  0.96764000  1.0 -0.4080351869
Cl  Cl15  1  0.53236000  0.96764000  0.03236000  1.0 -0.4080351869
Cl  Cl16  1  0.96764000  0.03236000  0.53236000  1.0 -0.4163902316
Cl  Cl17  1  0.04581000  0.04581000  0.04581000  1.0 -0.4575290594
Cl  Cl18  1  0.95419000  0.54581000  0.45419000  1.0 -0.4575290594
Cl  Cl19  1  0.54581000  0.45419000  0.95419000  1.0 -0.4575290594
Cl  Cl20  1  0.45419000  0.95419000  0.54581000  1.0 -0.4575290594
O  O1  1  0.39180000  0.10810000  0.39900000  1.0 -0.6309272213
O  O2  1  0.39900000  0.39180000  0.10810000  1.0 -0.6309272213
O  O3  1  0.10810000  0.39900000  0.39180000  1.0 -0.6309272213
O  O4  1  0.89180000  0.39190000  0.60100000  1.0 -0.6309272213
O  O5  1  0.89900000  0.10820000  0.89190000  1.0 -0.6309272213
O  O6  1  0.60810000  0.10100000  0.60820000  1.0 -0.6388770156
O  O7  1  0.60820000  0.60810000  0.10100000  1.0 -0.6388770156
O  O8  1  0.60100000  0.89180000  0.39190000  1.0 -0.6309272213
O  O9  1  0.89190000  0.89900000  0.10820000  1.0 -0.6309272213
O  O10  1  0.10820000  0.89190000  0.89900000  1.0 -0.6309272213
O  O11  1  0.10100000  0.60820000  0.60810000  1.0 -0.6388770156
O  O12  1  0.39190000  0.60100000  0.89180000  1.0 -0.6309272213
O  O13  1  0.35230000  0.07630000  0.35160000  1.0 -0.5798149851
O  O14  1  0.35160000  0.35230000  0.07630000  1.0 -0.5798149851
O  O15  1  0.07630000  0.35160000  0.35230000  1.0 -0.5798149851
O  O16  1  0.85230000  0.42370000  0.64840000  1.0 -0.5798149851
O  O17  1  0.85160000  0.14770000  0.92370000  1.0 -0.5798149851
O  O18  1  0.57630000  0.14840000  0.64770000  1.0 -0.5879155172
O  O19  1  0.64770000  0.57630000  0.14840000  1.0 -0.5879155172
O  O20  1  0.64840000  0.85230000  0.42370000  1.0 -0.5798149851
O  O21  1  0.92370000  0.85160000  0.14770000  1.0 -0.5798149851
O  O22  1  0.14770000  0.92370000  0.85160000  1.0 -0.5798149851
O  O23  1  0.14840000  0.64770000  0.57630000  1.0 -0.5879155172
O  O24  1  0.42370000  0.64840000  0.85230000  1.0 -0.5798149851
O  O25  1  0.38990000  0.15250000  0.50540000  1.0 -0.5798149851
O  O26  1  0.50540000  0.38990000  0.15250000  1.0 -0.5798149851
O  O27  1  0.15250000  0.50540000  0.38990000  1.0 -0.5798149851
O  O28  1  0.88990000  0.34750000  0.49460000  1.0 -0.5676419242
O  O29  1  0.00540000  0.11010000  0.84750000  1.0 -0.5798149851
O  O30  1  0.65250000  0.99460000  0.61010000  1.0 -0.5798149851
O  O31  1  0.61010000  0.65250000  0.99460000  1.0 -0.5798149851
O  O32  1  0.49460000  0.88990000  0.34750000  1.0 -0.5676419242
O  O33  1  0.84750000  0.00540000  0.11010000  1.0 -0.5798149851
O  O34  1  0.11010000  0.84750000  0.00540000  1.0 -0.5798149851
O  O35  1  0.99460000  0.61010000  0.65250000  1.0 -0.5798149851
O  O36  1  0.34750000  0.49460000  0.88990000  1.0 -0.5676419242
O  O37  1  0.42880000  0.17100000  0.55750000  1.0 -0.4939064819
O  O38  1  0.55750000  0.42880000  0.17100000  1.0 -0.4939064819
O  O39  1  0.17100000  0.55750000  0.42880000  1.0 -0.4939064819
O  O40  1  0.92880000  0.32900000  0.44250000  1.0 -0.4939064819
O  O41  1  0.05750000  0.07120000  0.82900000  1.0 -0.4939064819
O  O42  1  0.67100000  0.94250000  0.57120000  1.0 -0.496626443
O  O43  1  0.57120000  0.67100000  0.94250000  1.0 -0.496626443
O  O44  1  0.44250000  0.92880000  0.32900000  1.0 -0.496626443
O  O45  1  0.82900000  0.05750000  0.07120000  1.0 -0.4939064819
O  O46  1  0.07120000  0.82900000  0.05750000  1.0 -0.4939064819
O  O47  1  0.94250000  0.57120000  0.67100000  1.0 -0.496626443
O  O48  1  0.32900000  0.44250000  0.92880000  1.0 -0.4939064819
O  O49  1  0.26580000  0.02900000  0.59080000  1.0 -0.5798149851
O  O50  1  0.59080000  0.26580000  0.02900000  1.0 -0.5798149851
O  O51  1  0.02900000  0.59080000  0.26580000  1.0 -0.5798149851
O  O52  1  0.76580000  0.47100000  0.40920000  1.0 -0.5798149851
O  O53  1  0.09080000  0.23420000  0.97100000  1.0 -0.5798149851
O  O54  1  0.52900000  0.90920000  0.73420000  1.0 -0.5798149851
O  O55  1  0.73420000  0.52900000  0.90920000  1.0 -0.5798149851
O  O56  1  0.40920000  0.76580000  0.47100000  1.0 -0.5798149851
O  O57  1  0.97100000  0.09080000  0.23420000  1.0 -0.5798149851
O  O58  1  0.23420000  0.97100000  0.09080000  1.0 -0.5798149851
O  O59  1  0.90920000  0.73420000  0.52900000  1.0 -0.5798149851
O  O60  1  0.47100000  0.40920000  0.76580000  1.0 -0.5798149851
O  O61  1  0.23810000  0.99140000  0.53810000  1.0 -0.5879155172
O  O62  1  0.53810000  0.23810000  0.99140000  1.0 -0.5879155172
O  O63  1  0.99140000  0.53810000  0.23810000  1.0 -0.5879155172
O  O64  1  0.73810000  0.50860000  0.46190000  1.0 -0.5879155172
O  O65  1  0.03810000  0.26190000  0.00860000  1.0 -0.5879155172
O  O66  1  0.49140000  0.96190000  0.76190000  1.0 -0.5879155172
O  O67  1  0.76190000  0.49140000  0.96190000  1.0 -0.5879155172
O  O68  1  0.46190000  0.73810000  0.50860000  1.0 -0.5879155172
O  O69  1  0.00860000  0.03810000  0.26190000  1.0 -0.5879155172
O  O70  1  0.26190000  0.00860000  0.03810000  1.0 -0.5879155172
O  O71  1  0.96190000  0.76190000  0.49140000  1.0 -0.5879155172
O  O72  1  0.50860000  0.46190000  0.73810000  1.0 -0.5879155172
O  O73  1  0.30960000  0.01880000  0.69790000  1.0 -0.6388770156
O  O74  1  0.69790000  0.30960000  0.01880000  1.0 -0.6388770156
O  O75  1  0.01880000  0.69790000  0.30960000  1.0 -0.6388770156
O  O76  1  0.80960000  0.48120000  0.30210000  1.0 -0.6388770156
O  O77  1  0.19790000  0.19040000  0.98120000  1.0 -0.6309272213
O  O78  1  0.51880000  0.80210000  0.69040000  1.0 -0.6388770156
O  O79  1  0.69040000  0.51880000  0.80210000  1.0 -0.6388770156
O  O80  1  0.30210000  0.80960000  0.48120000  1.0 -0.6388770156
O  O81  1  0.98120000  0.19790000  0.19040000  1.0 -0.6309272213
O  O82  1  0.19040000  0.98120000  0.19790000  1.0 -0.6309272213
O  O83  1  0.80210000  0.69040000  0.51880000  1.0 -0.6388770156
O  O84  1  0.48120000  0.30210000  0.80960000  1.0 -0.6388770156
O  O85  1  0.34380000  0.05920000  0.74300000  1.0 -0.6037416438
O  O86  1  0.74300000  0.34380000  0.05920000  1.0 -0.6078114821
O  O87  1  0.05920000  0.74300000  0.34380000  1.0 -0.6078114821
O  O88  1  0.84380000  0.44080000  0.25700000  1.0 -0.6078114821
O  O89  1  0.24300000  0.15620000  0.94080000  1.0 -0.6037416438
O  O90  1  0.55920000  0.75700000  0.65620000  1.0 -0.5879155172
O  O91  1  0.65620000  0.55920000  0.75700000  1.0 -0.5879155172
O  O92  1  0.25700000  0.84380000  0.44080000  1.0 -0.6078114821
O  O93  1  0.94080000  0.24300000  0.15620000  1.0 -0.6078114821
O  O94  1  0.15620000  0.94080000  0.24300000  1.0 -0.6078114821
O  O95  1  0.75700000  0.65620000  0.55920000  1.0 -0.5879155172
O  O96  1  0.44080000  0.25700000  0.84380000  1.0 -0.6037416438
O  O97  1  0.98870000  0.06960000  0.74420000  1.0 -0.5879155172
O  O98  1  0.74420000  0.98870000  0.06960000  1.0 -0.5879155172
O  O99  1  0.06960000  0.74420000  0.98870000  1.0 -0.5879155172
O  O100  1  0.48870000  0.43040000  0.25580000  1.0 -0.5879155172
O  O101  1  0.24420000  0.51130000  0.93040000  1.0 -0.5879155172
O  O102  1  0.56960000  0.75580000  0.01130000  1.0 -0.5879155172
O  O103  1  0.01130000  0.56960000  0.75580000  1.0 -0.5879155172
O  O104  1  0.25580000  0.48870000  0.43040000  1.0 -0.5879155172
O  O105  1  0.93040000  0.24420000  0.51130000  1.0 -0.5879155172
O  O106  1  0.51130000  0.93040000  0.24420000  1.0 -0.5879155172
O  O107  1  0.75580000  0.01130000  0.56960000  1.0 -0.5879155172
O  O108  1  0.43040000  0.25580000  0.48870000  1.0 -0.5879155172
O  O109  1  0.98750000  0.00440000  0.76630000  1.0 -0.5676419242
O  O110  1  0.76630000  0.98750000  0.00440000  1.0 -0.5676419242
O  O111  1  0.00440000  0.76630000  0.98750000  1.0 -0.5676419242
O  O112  1  0.48750000  0.49560000  0.23370000  1.0 -0.5618213594
O  O113  1  0.26630000  0.51250000  0.99560000  1.0 -0.5676419242
O  O114  1  0.50440000  0.73370000  0.01250000  1.0 -0.5676419242
O  O115  1  0.01250000  0.50440000  0.73370000  1.0 -0.5676419242
O  O116  1  0.23370000  0.48750000  0.49560000  1.0 -0.5618213594
O  O117  1  0.99560000  0.26630000  0.51250000  1.0 -0.5676419242
O  O118  1  0.51250000  0.99560000  0.26630000  1.0 -0.5676419242
O  O119  1  0.73370000  0.01250000  0.50440000  1.0 -0.5676419242
O  O120  1  0.49560000  0.23370000  0.48750000  1.0 -0.5618213594
O  O121  1  0.06200000  0.14140000  0.68650000  1.0 -0.6078114821
O  O122  1  0.68650000  0.06200000  0.14140000  1.0 -0.6078114821
O  O123  1  0.14140000  0.68650000  0.06200000  1.0 -0.6078114821
O  O124  1  0.56200000  0.35860000  0.31350000  1.0 -0.6037416438
O  O125  1  0.18650000  0.43800000  0.85860000  1.0 -0.6078114821
O  O126  1  0.64140000  0.81350000  0.93800000  1.0 -0.6037416438
O  O127  1  0.93800000  0.64140000  0.81350000  1.0 -0.6037416438
O  O128  1  0.31350000  0.56200000  0.35860000  1.0 -0.6037416438
O  O129  1  0.85860000  0.18650000  0.43800000  1.0 -0.6078114821
O  O130  1  0.43800000  0.85860000  0.18650000  1.0 -0.6078114821
O  O131  1  0.81350000  0.93800000  0.64140000  1.0 -0.6037416438
O  O132  1  0.35860000  0.31350000  0.56200000  1.0 -0.6037416438
O  O133  1  0.06500000  0.19380000  0.64350000  1.0 -0.5194761899
O  O134  1  0.64350000  0.06500000  0.19380000  1.0 -0.5194761899
O  O135  1  0.19380000  0.64350000  0.06500000  1.0 -0.5194761899
O  O136  1  0.56500000  0.30620000  0.35650000  1.0 -0.5317126669
O  O137  1  0.14350000  0.43500000  0.80620000  1.0 -0.5317126669
O  O138  1  0.69380000  0.85650000  0.93500000  1.0 -0.5194761899
O  O139  1  0.93500000  0.69380000  0.85650000  1.0 -0.5194761899
O  O140  1  0.35650000  0.56500000  0.30620000  1.0 -0.5317126669
O  O141  1  0.80620000  0.14350000  0.43500000  1.0 -0.5317126669
O  O142  1  0.43500000  0.80620000  0.14350000  1.0 -0.5317126669
O  O143  1  0.85650000  0.93500000  0.69380000  1.0 -0.5194761899
O  O144  1  0.30620000  0.35650000  0.56500000  1.0 -0.5317126669
O  O145  1  0.16330000  0.00920000  0.58780000  1.0 -0.5798149851
O  O146  1  0.58780000  0.16330000  0.00920000  1.0 -0.5798149851
O  O147  1  0.00920000  0.58780000  0.16330000  1.0 -0.5798149851
O  O148  1  0.66330000  0.49080000  0.41220000  1.0 -0.5798149851
O  O149  1  0.08780000  0.33670000  0.99080000  1.0 -0.5798149851
O  O150  1  0.50920000  0.91220000  0.83670000  1.0 -0.5798149851
O  O151  1  0.83670000  0.50920000  0.91220000  1.0 -0.5798149851
O  O152  1  0.41220000  0.66330000  0.49080000  1.0 -0.5798149851
O  O153  1  0.99080000  0.08780000  0.33670000  1.0 -0.5798149851
O  O154  1  0.33670000  0.99080000  0.08780000  1.0 -0.5798149851
O  O155  1  0.91220000  0.83670000  0.50920000  1.0 -0.5676419242
O  O156  1  0.49080000  0.41220000  0.66330000  1.0 -0.5798149851
O  O157  1  0.15640000  0.94800000  0.61940000  1.0 -0.5416192724
O  O158  1  0.61940000  0.15640000  0.94800000  1.0 -0.5416192724
O  O159  1  0.94800000  0.61940000  0.15640000  1.0 -0.5416192724
O  O160  1  0.65640000  0.55200000  0.38060000  1.0 -0.5416192724
O  O161  1  0.11940000  0.34360000  0.05200000  1.0 -0.5416192724
O  O162  1  0.44800000  0.88060000  0.84360000  1.0 -0.5416192724
O  O163  1  0.84360000  0.44800000  0.88060000  1.0 -0.5416192724
O  O164  1  0.38060000  0.65640000  0.55200000  1.0 -0.5416192724
O  O165  1  0.05200000  0.11940000  0.34360000  1.0 -0.5416192724
O  O166  1  0.34360000  0.05200000  0.11940000  1.0 -0.5416192724
O  O167  1  0.88060000  0.84360000  0.44800000  1.0 -0.5416192724
O  O168  1  0.55200000  0.38060000  0.65640000  1.0 -0.5416192724
O  O169  1  0.17960000  0.05790000  0.48130000  1.0 -0.5618213594
O  O170  1  0.48130000  0.17960000  0.05790000  1.0 -0.5618213594
O  O171  1  0.05790000  0.48130000  0.17960000  1.0 -0.5618213594
O  O172  1  0.67960000  0.44210000  0.51870000  1.0 -0.5618213594
O  O173  1  0.98130000  0.32040000  0.94210000  1.0 -0.5618213594
O  O174  1  0.55790000  0.01870000  0.82040000  1.0 -0.5618213594
O  O175  1  0.82040000  0.55790000  0.01870000  1.0 -0.5618213594
O  O176  1  0.51870000  0.67960000  0.44210000  1.0 -0.5618213594
O  O177  1  0.94210000  0.98130000  0.32040000  1.0 -0.5618213594
O  O178  1  0.32040000  0.94210000  0.98130000  1.0 -0.5618213594
O  O179  1  0.01870000  0.82040000  0.55790000  1.0 -0.5618213594
O  O180  1  0.44210000  0.51870000  0.67960000  1.0 -0.5618213594
O  O181  1  0.18580000  0.11850000  0.44940000  1.0 -0.5676419242
O  O182  1  0.44940000  0.18580000  0.11850000  1.0 -0.5676419242
O  O183  1  0.11850000  0.44940000  0.18580000  1.0 -0.5676419242
O  O184  1  0.68580000  0.38150000  0.55060000  1.0 -0.5676419242
O  O185  1  0.94940000  0.31420000  0.88150000  1.0 -0.5676419242
O  O186  1  0.61850000  0.05060000  0.81420000  1.0 -0.5618213594
O  O187  1  0.81420000  0.61850000  0.05060000  1.0 -0.5618213594
O  O188  1  0.55060000  0.68580000  0.38150000  1.0 -0.5676419242
O  O189  1  0.88150000  0.94940000  0.31420000  1.0 -0.5676419242
O  O190  1  0.31420000  0.88150000  0.94940000  1.0 -0.5676419242
O  O191  1  0.05060000  0.81420000  0.61850000  1.0 -0.5618213594
O  O192  1  0.38150000  0.55060000  0.68580000  1.0 -0.5676419242
O  O193  1  0.17680000  0.09010000  0.64570000  1.0 0.0887451213
O  O194  1  0.64570000  0.17680000  0.09010000  1.0 0.0887451213
O  O195  1  0.09010000  0.64570000  0.17680000  1.0 0.0887451213
O  O196  1  0.67680000  0.40990000  0.35430000  1.0 0.0887451213
O  O197  1  0.14570000  0.32320000  0.90990000  1.0 0.0887451213
O  O198  1  0.59010000  0.85430000  0.82320000  1.0 0.0887451213
O  O199  1  0.82320000  0.59010000  0.85430000  1.0 0.0953753975
O  O200  1  0.35430000  0.67680000  0.40990000  1.0 0.0887451213
O  O201  1  0.90990000  0.14570000  0.32320000  1.0 0.0887451213
O  O202  1  0.32320000  0.90990000  0.14570000  1.0 0.0887451213
O  O203  1  0.85430000  0.82320000  0.59010000  1.0 0.0953753975
O  O204  1  0.40990000  0.35430000  0.67680000  1.0 0.0887451213
O  O205  1  0.40360000  0.20330000  0.42600000  1.0 0.1984221336
O  O206  1  0.42600000  0.40360000  0.20330000  1.0 0.1984221336
O  O207  1  0.20330000  0.42600000  0.40360000  1.0 0.1984221336
O  O208  1  0.90360000  0.29670000  0.57400000  1.0 0.1897818265
O  O209  1  0.92600000  0.09640000  0.79670000  1.0 0.1897818265
O  O210  1  0.70330000  0.07400000  0.59640000  1.0 0.1897818265
O  O211  1  0.59640000  0.70330000  0.07400000  1.0 0.1984221336
O  O212  1  0.57400000  0.90360000  0.29670000  1.0 0.1897818265
O  O213  1  0.79670000  0.92600000  0.09640000  1.0 0.1984221336
O  O214  1  0.09640000  0.79670000  0.92600000  1.0 0.1897818265
O  O215  1  0.07400000  0.59640000  0.70330000  1.0 0.1897818265
O  O216  1  0.29670000  0.57400000  0.90360000  1.0 0.1897818265
O  O217  1  0.21240000  0.01610000  0.66650000  1.0 0.1814711947
O  O218  1  0.66650000  0.21240000  0.01610000  1.0 0.1897818265
O  O219  1  0.01610000  0.66650000  0.21240000  1.0 0.1897818265
O  O220  1  0.71240000  0.48390000  0.33350000  1.0 0.1897818265
O  O221  1  0.16650000  0.28760000  0.98390000  1.0 0.1897818265
O  O222  1  0.51610000  0.83350000  0.78760000  1.0 0.1984221336
O  O223  1  0.78760000  0.51610000  0.83350000  1.0 0.1984221336
O  O224  1  0.33350000  0.71240000  0.48390000  1.0 0.1897818265
O  O225  1  0.98390000  0.16650000  0.28760000  1.0 0.1984221336
O  O226  1  0.28760000  0.98390000  0.16650000  1.0 0.1984221336
O  O227  1  0.83350000  0.78760000  0.51610000  1.0 0.1984221336
O  O228  1  0.48390000  0.33350000  0.71240000  1.0 0.1897818265
O  O229  1  0.02510000  0.15340000  0.77460000  1.0 0.1178297189
O  O230  1  0.77460000  0.02510000  0.15340000  1.0 0.1178297189
O  O231  1  0.15340000  0.77460000  0.02510000  1.0 0.1178297189
O  O232  1  0.52510000  0.34660000  0.22540000  1.0 0.1178297189
O  O233  1  0.27460000  0.47490000  0.84660000  1.0 0.1178297189
O  O234  1  0.65340000  0.72540000  0.97490000  1.0 0.1178297189
O  O235  1  0.97490000  0.65340000  0.72540000  1.0 0.1178297189
O  O236  1  0.22540000  0.52510000  0.34660000  1.0 0.1178297189
O  O237  1  0.84660000  0.27460000  0.47490000  1.0 0.1178297189
O  O238  1  0.47490000  0.84660000  0.27460000  1.0 0.1178297189
O  O239  1  0.72540000  0.97490000  0.65340000  1.0 0.1178297189
O  O240  1  0.34660000  0.22540000  0.52510000  1.0 0.1178297189
