# DDEC6 charges by PACMAN v1.1 (https://github.com/mtap-research/PACMAN-charge/)
data_FIYDOH_ASR_pacman
_symmetry_space_group_name_H-M   'P 1'
_cell_length_a   16.24700000
_cell_length_b   16.24700000
_cell_length_c   11.58360000
_cell_angle_alpha   74.53060000
_cell_angle_beta   105.46900000
_cell_angle_gamma   139.09600000
_symmetry_Int_Tables_number   1
_chemical_formula_structural   V2CoH12C15N3O4
_chemical_formula_sum   'V8 Co4 H48 C60 N12 O16'
_cell_volume   1919.30562855
_cell_formula_units_Z   4
loop_
 _symmetry_equiv_pos_site_id
 _symmetry_equiv_pos_as_xyz
  1  'x, y, z'
loop_
 _atom_site_type_symbol
 _atom_site_label
 _atom_site_symmetry_multiplicity
 _atom_site_fract_x
 _atom_site_fract_y
 _atom_site_fract_z
 _atom_site_occupancy
 _atom_site_charge
V  V1  1  0.55450000  0.26488000  0.93938000  1.0 1.7558178247
V  V2  1  0.26488000  0.55450000  0.56062000  1.0 1.7558178247
V  V3  1  0.44550000  0.73512000  0.06062000  1.0 1.753491515
V  V4  1  0.73512000  0.44550000  0.43938000  1.0 1.753491515
V  V5  1  0.69676000  0.48154000  0.68140000  1.0 1.7419986368
V  V6  1  0.48154000  0.69676000  0.81860000  1.0 1.7419986368
V  V7  1  0.30324000  0.51846000  0.31860000  1.0 1.7419986368
V  V8  1  0.51846000  0.30324000  0.18140000  1.0 1.7419986368
Co  Co1  1  0.50000000  0.00000000  0.00000000  1.0 0.7812345565
Co  Co2  1  0.00000000  0.50000000  0.50000000  1.0 0.7812345565
Co  Co3  1  0.50000000  0.50000000  0.00000000  1.0 0.7531253636
Co  Co4  1  0.50000000  0.50000000  0.50000000  1.0 0.7531253636
H  H1  1  0.22970000  0.81350000  0.86480000  1.0 0.0818452786
H  H2  1  0.81350000  0.22970000  0.63520000  1.0 0.0818452786
H  H3  1  0.77030000  0.18650000  0.13520000  1.0 0.0818452786
H  H4  1  0.18650000  0.77030000  0.36480000  1.0 0.0818452786
H  H5  1  0.03080000  0.71960000  0.86130000  1.0 0.1024313734
H  H6  1  0.71960000  0.03080000  0.63870000  1.0 0.1024313734
H  H7  1  0.96920000  0.28040000  0.13870000  1.0 0.1024313734
H  H8  1  0.28040000  0.96920000  0.36130000  1.0 0.1024313734
H  H9  1  0.15860000  0.90140000  0.14580000  1.0 0.1096328615
H  H10  1  0.90140000  0.15860000  0.35420000  1.0 0.1096328615
H  H11  1  0.84140000  0.09860000  0.85420000  1.0 0.1096328615
H  H12  1  0.09860000  0.84140000  0.64580000  1.0 0.1096328615
H  H13  1  0.35440000  0.99380000  0.13670000  1.0 0.0691267608
H  H14  1  0.99380000  0.35440000  0.36330000  1.0 0.0691267608
H  H15  1  0.64560000  0.00620000  0.86330000  1.0 0.0691267608
H  H16  1  0.00620000  0.64560000  0.63670000  1.0 0.0691267608
H  H17  1  0.36800000  0.81380000  0.80650000  1.0 0.0818452786
H  H18  1  0.81380000  0.36800000  0.69350000  1.0 0.0818452786
H  H19  1  0.63200000  0.18620000  0.19350000  1.0 0.0818452786
H  H20  1  0.18620000  0.63200000  0.30650000  1.0 0.0818452786
H  H21  1  0.38070000  0.81230000  0.61480000  1.0 0.1096328615
H  H22  1  0.81230000  0.38070000  0.88520000  1.0 0.1096328615
H  H23  1  0.61930000  0.18770000  0.38520000  1.0 0.1096328615
H  H24  1  0.18770000  0.61930000  0.11480000  1.0 0.1096328615
H  H25  1  0.58920000  0.17940000  0.55510000  1.0 0.1164788843
H  H26  1  0.17940000  0.58920000  0.94490000  1.0 0.1164788843
H  H27  1  0.41080000  0.82060000  0.44490000  1.0 0.1164788843
H  H28  1  0.82060000  0.41080000  0.05510000  1.0 0.1164788843
H  H29  1  0.56920000  0.17020000  0.74800000  1.0 0.0893242468
H  H30  1  0.17020000  0.56920000  0.75200000  1.0 0.0893242468
H  H31  1  0.43080000  0.82980000  0.25200000  1.0 0.0893242468
H  H32  1  0.82980000  0.43080000  0.24800000  1.0 0.0893242468
H  H33  1  0.73610000  0.60950000  0.18060000  1.0 0.0818452786
H  H34  1  0.60950000  0.73610000  0.31940000  1.0 0.0818452786
H  H35  1  0.26390000  0.39050000  0.81940000  1.0 0.0818452786
H  H36  1  0.39050000  0.26390000  0.68060000  1.0 0.0818452786
H  H37  1  0.93950000  0.71290000  0.18770000  1.0 0.1096328615
H  H38  1  0.71290000  0.93950000  0.31230000  1.0 0.1096328615
H  H39  1  0.06050000  0.28710000  0.81230000  1.0 0.1096328615
H  H40  1  0.28710000  0.06050000  0.68770000  1.0 0.1096328615
H  H41  1  0.89430000  0.73550000  0.82690000  1.0 0.1096328615
H  H42  1  0.73550000  0.89430000  0.67310000  1.0 0.1096328615
H  H43  1  0.10570000  0.26450000  0.17310000  1.0 0.1096328615
H  H44  1  0.26450000  0.10570000  0.32690000  1.0 0.1096328615
H  H45  1  0.69080000  0.62560000  0.83160000  1.0 0.0893242468
H  H46  1  0.62560000  0.69080000  0.66840000  1.0 0.0893242468
H  H47  1  0.30920000  0.37440000  0.16840000  1.0 0.0893242468
H  H48  1  0.37440000  0.30920000  0.33160000  1.0 0.0893242468
C  C1  1  0.21512000  0.83148000  0.92160000  1.0 0.0617267753
C  C2  1  0.83148000  0.21512000  0.57840000  1.0 0.0617267753
C  C3  1  0.78488000  0.16852000  0.07840000  1.0 0.0617267753
C  C4  1  0.16852000  0.78488000  0.42160000  1.0 0.0617267753
C  C5  1  0.09452000  0.77368000  0.91940000  1.0 -0.218302552
C  C6  1  0.77368000  0.09452000  0.58060000  1.0 -0.218302552
C  C7  1  0.90548000  0.22632000  0.08060000  1.0 -0.218302552
C  C8  1  0.22632000  0.90548000  0.41940000  1.0 -0.218302552
C  C9  1  0.06958000  0.79742000  0.00520000  1.0 0.0893242468
C  C10  1  0.79742000  0.06958000  0.49480000  1.0 0.0893242468
C  C11  1  0.93042000  0.20258000  0.99480000  1.0 0.0893242468
C  C12  1  0.20258000  0.93042000  0.50520000  1.0 0.0893242468
C  C13  1  0.17030000  0.88190000  0.08750000  1.0 -0.218302552
C  C14  1  0.88190000  0.17030000  0.41250000  1.0 -0.2140923417
C  C15  1  0.82970000  0.11810000  0.91250000  1.0 -0.218302552
C  C16  1  0.11810000  0.82970000  0.58750000  1.0 -0.218302552
C  C17  1  0.28812000  0.93668000  0.08180000  1.0 0.0495835651
C  C18  1  0.93668000  0.28812000  0.41820000  1.0 0.0495835651
C  C19  1  0.71188000  0.06332000  0.91820000  1.0 0.0495835651
C  C20  1  0.06332000  0.71188000  0.58180000  1.0 0.0495835651
C  C21  1  0.41463000  0.88897000  0.75590000  1.0 0.0301165056
C  C22  1  0.88897000  0.41463000  0.74410000  1.0 0.0301165056
C  C23  1  0.58537000  0.11103000  0.24410000  1.0 0.0301165056
C  C24  1  0.11103000  0.58537000  0.25590000  1.0 0.0301165056
C  C25  1  0.42207000  0.88713000  0.64000000  1.0 -0.2251399069
C  C26  1  0.88713000  0.42207000  0.86000000  1.0 -0.2251399069
C  C27  1  0.57793000  0.11287000  0.36000000  1.0 -0.218302552
C  C28  1  0.11287000  0.57793000  0.14000000  1.0 -0.2251399069
C  C29  1  0.49201000  0.99819000  0.56160000  1.0 0.0818452786
C  C30  1  0.99819000  0.49201000  0.93840000  1.0 0.0818452786
C  C31  1  0.50799000  0.00181000  0.43840000  1.0 0.0818452786
C  C32  1  0.00181000  0.50799000  0.06160000  1.0 0.0818452786
C  C33  1  0.54509000  0.10391000  0.60490000  1.0 -0.2140923417
C  C34  1  0.10391000  0.54509000  0.89510000  1.0 -0.2140923417
C  C35  1  0.45491000  0.89609000  0.39510000  1.0 -0.2140923417
C  C36  1  0.89609000  0.45491000  0.10490000  1.0 -0.2140923417
C  C37  1  0.53265000  0.09775000  0.72200000  1.0 0.0495835651
C  C38  1  0.09775000  0.53265000  0.77800000  1.0 0.0495835651
C  C39  1  0.46735000  0.90225000  0.27800000  1.0 0.0495835651
C  C40  1  0.90225000  0.46735000  0.22200000  1.0 0.0495835651
C  C41  1  0.76834000  0.63446000  0.10860000  1.0 0.0617267753
C  C42  1  0.63446000  0.76834000  0.39140000  1.0 0.0617267753
C  C43  1  0.23166000  0.36554000  0.89140000  1.0 0.0617267753
C  C44  1  0.36554000  0.23166000  0.60860000  1.0 0.0617267753
C  C45  1  0.89133000  0.69687000  0.11390000  1.0 -0.2035704016
C  C46  1  0.69687000  0.89133000  0.38610000  1.0 -0.2035704016
C  C47  1  0.10867000  0.30313000  0.88610000  1.0 -0.2035704016
C  C48  1  0.30313000  0.10867000  0.61390000  1.0 -0.2035704016
C  C49  1  0.94130000  0.73510000  0.00710000  1.0 0.0893242468
C  C50  1  0.73510000  0.94130000  0.49290000  1.0 0.0893242468
C  C51  1  0.05870000  0.26490000  0.99290000  1.0 0.0893242468
C  C52  1  0.26490000  0.05870000  0.50710000  1.0 0.0893242468
C  C53  1  0.86391000  0.70929000  0.90050000  1.0 -0.2140923417
C  C54  1  0.70929000  0.86391000  0.59950000  1.0 -0.2140923417
C  C55  1  0.13609000  0.29071000  0.09950000  1.0 -0.2140923417
C  C56  1  0.29071000  0.13609000  0.40050000  1.0 -0.2140923417
C  C57  1  0.74186000  0.64474000  0.90390000  1.0 0.0691267608
C  C58  1  0.64474000  0.74186000  0.59610000  1.0 0.0691267608
C  C59  1  0.25814000  0.35526000  0.09610000  1.0 0.0691267608
C  C60  1  0.35526000  0.25814000  0.40390000  1.0 0.0617267753
N  N1  1  0.31216000  0.91224000  0.00200000  1.0 -0.2555880605
N  N2  1  0.91224000  0.31216000  0.49800000  1.0 -0.2555880605
N  N3  1  0.68784000  0.08776000  0.99800000  1.0 -0.2555880605
N  N4  1  0.08776000  0.68784000  0.50200000  1.0 -0.2555880605
N  N5  1  0.47045000  0.99235000  0.79940000  1.0 -0.2690788194
N  N6  1  0.99235000  0.47045000  0.70060000  1.0 -0.2690788194
N  N7  1  0.52955000  0.00765000  0.20060000  1.0 -0.2690788194
N  N8  1  0.00765000  0.52955000  0.29940000  1.0 -0.2690788194
N  N9  1  0.69353000  0.60827000  0.00590000  1.0 -0.2690788194
N  N10  1  0.60827000  0.69353000  0.49410000  1.0 -0.2690788194
N  N11  1  0.30647000  0.39173000  0.99410000  1.0 -0.2690788194
N  N12  1  0.39173000  0.30647000  0.50590000  1.0 -0.2690788194
O  O1  1  0.57371000  0.17309000  0.97287000  1.0 -0.9108276426
O  O2  1  0.17309000  0.57371000  0.52713000  1.0 -0.9108276426
O  O3  1  0.42629000  0.82691000  0.02713000  1.0 -0.9108276426
O  O4  1  0.82691000  0.42629000  0.47287000  1.0 -0.9108276426
O  O5  1  0.65143000  0.38537000  0.82350000  1.0 -1.0269138872
O  O6  1  0.38537000  0.65143000  0.67650000  1.0 -1.0269138872
O  O7  1  0.34857000  0.61463000  0.17650000  1.0 -1.0269138872
O  O8  1  0.61463000  0.34857000  0.32350000  1.0 -1.0269138872
O  O9  1  0.60277000  0.33603000  0.07160000  1.0 -1.0491741955
O  O10  1  0.33603000  0.60277000  0.42840000  1.0 -1.0491741955
O  O11  1  0.39723000  0.66397000  0.92840000  1.0 -1.0491741955
O  O12  1  0.66397000  0.39723000  0.57160000  1.0 -1.0491741955
O  O13  1  0.48002000  0.37818000  0.13710000  1.0 -0.9236941545
O  O14  1  0.37818000  0.48002000  0.36290000  1.0 -0.9236941545
O  O15  1  0.51998000  0.62182000  0.86290000  1.0 -0.9236941545
O  O16  1  0.62182000  0.51998000  0.63710000  1.0 -0.9236941545
