# DDEC6 charges by PACMAN v1.1 (https://github.com/mtap-research/PACMAN-charge/)
data_FOCREW_FSR_pacman
_symmetry_space_group_name_H-M   'P 1'
_cell_length_a   10.53780000
_cell_length_b   10.55610000
_cell_length_c   16.89620000
_cell_angle_alpha   76.42500000
_cell_angle_beta   83.20500000
_cell_angle_gamma   69.97100000
_symmetry_Int_Tables_number   1
_chemical_formula_structural   NdH26C38O13
_chemical_formula_sum   'Nd2 H52 C76 O26'
_cell_volume   1715.01548415
_cell_formula_units_Z   2
loop_
 _symmetry_equiv_pos_site_id
 _symmetry_equiv_pos_as_xyz
  1  'x, y, z'
loop_
 _atom_site_type_symbol
 _atom_site_label
 _atom_site_symmetry_multiplicity
 _atom_site_fract_x
 _atom_site_fract_y
 _atom_site_fract_z
 _atom_site_occupancy
 _atom_site_charge
Nd  Nd1  1  0.60240000  0.62773000  0.51838000  1.0 2.1039245714
Nd  Nd2  1  0.39760000  0.37227000  0.48162000  1.0 2.1039245714
H  H1  1  0.86060000  0.66750000  0.54190000  1.0 0.3855547299
H  H2  1  0.13940000  0.33250000  0.45810000  1.0 0.3855547299
H  H3  1  0.82560000  0.59630000  0.62140000  1.0 0.3690770705
H  H4  1  0.17440000  0.40370000  0.37860000  1.0 0.3690770705
H  H5  1  0.25970000  0.84220000  0.47810000  1.0 0.1211422785
H  H6  1  0.74030000  0.15780000  0.52190000  1.0 0.1211422785
H  H7  1  0.22520000  0.93840000  0.54380000  1.0 0.1039297086
H  H8  1  0.77480000  0.06160000  0.45620000  1.0 0.1039297086
H  H9  1  0.27960000  0.11630000  0.44150000  1.0 0.1626656045
H  H10  1  0.72040000  0.88370000  0.55850000  1.0 0.1626656045
H  H11  1  0.15870000  0.08040000  0.41300000  1.0 0.1696141054
H  H12  1  0.84130000  0.91960000  0.58700000  1.0 0.1696141054
H  H13  1  0.30900000  0.02080000  0.37610000  1.0 0.1508564641
H  H14  1  0.69100000  0.97920000  0.62390000  1.0 0.1508564641
H  H15  1  0.49800000  0.88200000  0.71000000  1.0 0.3619344671
H  H16  1  0.50200000  0.11800000  0.29000000  1.0 0.3619344671
H  H17  1  0.69240000  0.74130000  0.85460000  1.0 0.1211422785
H  H18  1  0.30760000  0.25870000  0.14540000  1.0 0.1211422785
H  H19  1  0.73530000  0.44190000  0.73090000  1.0 0.1287134776
H  H20  1  0.26470000  0.55810000  0.26910000  1.0 0.1287134776
H  H21  1  0.83810000  0.58140000  0.95180000  1.0 0.1211422785
H  H22  1  0.16190000  0.41860000  0.04820000  1.0 0.1211422785
H  H23  1  0.87420000  0.28010000  0.83130000  1.0 0.1211422785
H  H24  1  0.12580000  0.71990000  0.16870000  1.0 0.1211422785
H  H25  1  0.82610000  0.39370000  0.05560000  1.0 0.1211422785
H  H26  1  0.17390000  0.60630000  0.94440000  1.0 0.1211422785
H  H27  1  0.22610000  0.04910000  0.01880000  1.0 0.1287134776
H  H28  1  0.77390000  0.95090000  0.98120000  1.0 0.1287134776
H  H29  1  0.13080000  0.38910000  0.82540000  1.0 0.1287134776
H  H30  1  0.86920000  0.61090000  0.17460000  1.0 0.1211422785
H  H31  1  0.18190000  0.98260000  0.89880000  1.0 0.1211422785
H  H32  1  0.81810000  0.01740000  0.10120000  1.0 0.1211422785
H  H33  1  0.22380000  0.35460000  0.69760000  1.0 0.1287134776
H  H34  1  0.77620000  0.64540000  0.30240000  1.0 0.1287134776
H  H35  1  0.28550000  0.94590000  0.77330000  1.0 0.1211422785
H  H36  1  0.71450000  0.05410000  0.22670000  1.0 0.1211422785
H  H37  1  0.08480000  0.24210000  0.24950000  1.0 0.1135974237
H  H38  1  0.91520000  0.75790000  0.75050000  1.0 0.1135974237
H  H39  1  0.71730000  0.29930000  0.17160000  1.0 0.1211422785
H  H40  1  0.28270000  0.70070000  0.82840000  1.0 0.1211422785
H  H41  1  0.00380000  0.97580000  0.23560000  1.0 0.1211422785
H  H42  1  0.99620000  0.02420000  0.76440000  1.0 0.1211422785
H  H43  1  0.35740000  0.02650000  0.13520000  1.0 0.1211422785
H  H44  1  0.64260000  0.97350000  0.86480000  1.0 0.1211422785
H  H45  1  0.98360000  0.32350000  0.36580000  1.0 0.1135974237
H  H46  1  0.01640000  0.67650000  0.63420000  1.0 0.1135974237
H  H47  1  0.61540000  0.37050000  0.29070000  1.0 0.1287134776
H  H48  1  0.38460000  0.62950000  0.70930000  1.0 0.1287134776
H  H49  1  0.12280000  0.79340000  0.33420000  1.0 0.1377222602
H  H50  1  0.87720000  0.20660000  0.66580000  1.0 0.1377222602
H  H51  1  0.47320000  0.85560000  0.24120000  1.0 0.1211422785
H  H52  1  0.52680000  0.14440000  0.75880000  1.0 0.1211422785
C  C1  1  0.28200000  0.91570000  0.49480000  1.0 0.0304700007
C  C2  1  0.71800000  0.08430000  0.50520000  1.0 0.0304700007
C  C3  1  0.60690000  0.71050000  0.72130000  1.0 0.5726849426
C  C4  1  0.39310000  0.28950000  0.27870000  1.0 0.5726849426
C  C5  1  0.25480000  0.04520000  0.42490000  1.0 -0.0135185883
C  C6  1  0.74520000  0.95480000  0.57510000  1.0 -0.0135185883
C  C7  1  0.69880000  0.60680000  0.78390000  1.0 -0.0402945551
C  C8  1  0.30120000  0.39320000  0.21610000  1.0 -0.0402945551
C  C9  1  0.73020000  0.64780000  0.84950000  1.0 -0.0993059139
C  C10  1  0.26980000  0.35220000  0.15050000  1.0 -0.0993059139
C  C11  1  0.75470000  0.46990000  0.77640000  1.0 -0.0993059139
C  C12  1  0.24530000  0.53010000  0.22360000  1.0 -0.0993059139
C  C13  1  0.81680000  0.55230000  0.90740000  1.0 -0.1425155896
C  C14  1  0.18320000  0.44770000  0.09260000  1.0 -0.1425155896
C  C15  1  0.83910000  0.37400000  0.83560000  1.0 -0.1245642911
C  C16  1  0.16090000  0.62600000  0.16440000  1.0 -0.1245642911
C  C17  1  0.87330000  0.41370000  0.90150000  1.0 0.0784798179
C  C18  1  0.12670000  0.58630000  0.09850000  1.0 0.0784798179
C  C19  1  0.95690000  0.31350000  0.96840000  1.0 0.0304700007
C  C20  1  0.04310000  0.68650000  0.03160000  1.0 0.0304700007
C  C21  1  0.08040000  0.20910000  0.95710000  1.0 0.0304700007
C  C22  1  0.91960000  0.79090000  0.04290000  1.0 0.0304700007
C  C23  1  0.90830000  0.32260000  0.04800000  1.0 -0.1958097528
C  C24  1  0.09170000  0.67740000  0.95200000  1.0 -0.1958097528
C  C25  1  0.14470000  0.18970000  0.87550000  1.0 0.0747344632
C  C26  1  0.85530000  0.81030000  0.12450000  1.0 0.0747344632
C  C27  1  0.14350000  0.11980000  0.02620000  1.0 -0.1892588447
C  C28  1  0.85650000  0.88020000  0.97380000  1.0 -0.1892588447
C  C29  1  0.97260000  0.23420000  0.11690000  1.0 0.0304700007
C  C30  1  0.02740000  0.76580000  0.88310000  1.0 0.0304700007
C  C31  1  0.16000000  0.29890000  0.81460000  1.0 -0.1425155896
C  C32  1  0.84000000  0.70110000  0.18540000  1.0 -0.1425155896
C  C33  1  0.19160000  0.05860000  0.85830000  1.0 -0.1497023749
C  C34  1  0.80840000  0.94140000  0.14170000  1.0 -0.1497023749
C  C35  1  0.09330000  0.12740000  0.10600000  1.0 0.0304700007
C  C36  1  0.90670000  0.87260000  0.89400000  1.0 0.0304700007
C  C37  1  0.91190000  0.26470000  0.19760000  1.0 0.0784798179
C  C38  1  0.08810000  0.73530000  0.80240000  1.0 0.0784798179
C  C39  1  0.21710000  0.27820000  0.73870000  1.0 -0.0788493279
C  C40  1  0.78290000  0.72180000  0.26130000  1.0 -0.0788493279
C  C41  1  0.25220000  0.03690000  0.78310000  1.0 -0.0993059139
C  C42  1  0.74780000  0.96310000  0.21690000  1.0 -0.0993059139
C  C43  1  0.16850000  0.01950000  0.17410000  1.0 0.0784798179
C  C44  1  0.83150000  0.98050000  0.82590000  1.0 0.0784798179
C  C45  1  0.98910000  0.27060000  0.25690000  1.0 -0.1497023749
C  C46  1  0.01090000  0.72940000  0.74310000  1.0 -0.1497023749
C  C47  1  0.77180000  0.30320000  0.21140000  1.0 -0.1425155896
C  C48  1  0.22820000  0.69680000  0.78860000  1.0 -0.1425155896
C  C49  1  0.26500000  0.14580000  0.72190000  1.0 -0.0184424083
C  C50  1  0.73500000  0.85420000  0.27810000  1.0 -0.0184424083
C  C51  1  0.09950000  0.94960000  0.23520000  1.0 -0.1425155896
C  C52  1  0.90050000  0.05040000  0.76480000  1.0 -0.1425155896
C  C53  1  0.30890000  0.98150000  0.17660000  1.0 -0.1497023749
C  C54  1  0.69110000  0.01850000  0.82340000  1.0 -0.1497023749
C  C55  1  0.92920000  0.31740000  0.32670000  1.0 -0.1088260945
C  C56  1  0.07080000  0.68260000  0.67330000  1.0 -0.1088260945
C  C57  1  0.71060000  0.34680000  0.28200000  1.0 -0.0788493279
C  C58  1  0.28940000  0.65320000  0.71800000  1.0 -0.0788493279
C  C59  1  0.32420000  0.12390000  0.63900000  1.0 0.5869570662
C  C60  1  0.67580000  0.87610000  0.36100000  1.0 0.5869570662
C  C61  1  0.17000000  0.84320000  0.29490000  1.0 -0.0993059139
C  C62  1  0.83000000  0.15680000  0.70510000  1.0 -0.0993059139
C  C63  1  0.37810000  0.87820000  0.23910000  1.0 -0.0993059139
C  C64  1  0.62190000  0.12180000  0.76090000  1.0 -0.0993059139
C  C65  1  0.78860000  0.35580000  0.33980000  1.0 -0.0135185883
C  C66  1  0.21140000  0.64420000  0.66020000  1.0 -0.0135185883
C  C67  1  0.30990000  0.80800000  0.29810000  1.0 -0.0402945551
C  C68  1  0.69010000  0.19200000  0.70190000  1.0 -0.0402945551
C  C69  1  0.72320000  0.41740000  0.41160000  1.0 0.6114948382
C  C70  1  0.27680000  0.58260000  0.58840000  1.0 0.6114948382
C  C71  1  0.38430000  0.69280000  0.36530000  1.0 0.6212309589
C  C72  1  0.61570000  0.30720000  0.63470000  1.0 0.6212309589
C  C73  1  0.32740000  0.96810000  0.46160000  1.0 0.1211422785
C  C74  1  0.67260000  0.03190000  0.53840000  1.0 0.1211422785
C  C75  1  0.17470000  0.96600000  0.47880000  1.0 0.1377222602
C  C76  1  0.82530000  0.03400000  0.52120000  1.0 0.1377222602
O  O1  1  0.39370000  0.58630000  0.56231000  1.0 -0.7245121013
O  O2  1  0.60630000  0.41370000  0.43769000  1.0 -0.7245121013
O  O3  1  0.43520000  0.86540000  0.51398000  1.0 -0.4980950515
O  O4  1  0.56480000  0.13460000  0.48602000  1.0 -0.4980950515
O  O5  1  0.83120000  0.59790000  0.56800000  1.0 -0.7598042498
O  O6  1  0.16880000  0.40210000  0.43200000  1.0 -0.7598042498
O  O7  1  0.78370000  0.47690000  0.44216000  1.0 -0.580662033
O  O8  1  0.21630000  0.52310000  0.55784000  1.0 -0.5748300563
O  O9  1  0.66250000  0.40510000  0.60874000  1.0 -0.6515819888
O  O10  1  0.33750000  0.59490000  0.39126000  1.0 -0.6515819888
O  O11  1  0.48630000  0.70510000  0.39072000  1.0 -0.6515819888
O  O12  1  0.51370000  0.29490000  0.60928000  1.0 -0.6515819888
O  O13  1  0.58820000  0.68630000  0.65704000  1.0 -0.580662033
O  O14  1  0.41180000  0.31370000  0.34296000  1.0 -0.580662033
O  O15  1  0.70920000  0.77800000  0.42084000  1.0 -0.6356253933
O  O16  1  0.29080000  0.22200000  0.57916000  1.0 -0.6356253933
O  O17  1  0.54680000  0.82740000  0.74280000  1.0 -0.4516816746
O  O18  1  0.45320000  0.17260000  0.25720000  1.0 -0.4516816746
O  O19  1  0.40400000  0.00550000  0.63373000  1.0 -0.5192106973
O  O20  1  0.59600000  0.99450000  0.36627000  1.0 -0.5192106973
O  O21  1  0.15250000  0.87710000  0.48500000  1.0 -0.1497023749
O  O22  1  0.84750000  0.12290000  0.51500000  1.0 -0.1497023749
O  O23  1  0.08300000  0.03600000  0.53010000  1.0 -0.3985949169
O  O24  1  0.91700000  0.96400000  0.46990000  1.0 -0.3985949169
O  O25  1  0.24000000  0.09900000  0.38560000  1.0 -0.2418530445
O  O26  1  0.76000000  0.90100000  0.61440000  1.0 -0.2418530445
