# DDEC6 charges by PACMAN v1.1 (https://github.com/mtap-research/PACMAN-charge/)
data_FODYUT_ion_pacman
_symmetry_space_group_name_H-M   'P 1'
_cell_length_a   14.55750000
_cell_length_b   14.65950000
_cell_length_c   28.11400000
_cell_angle_alpha   90.00000000
_cell_angle_beta   90.00000000
_cell_angle_gamma   90.00000000
_symmetry_Int_Tables_number   1
_chemical_formula_structural   Zn8P13H36C10(N2O25)2
_chemical_formula_sum   'Zn32 P52 H144 C40 N16 O200'
_cell_volume   5999.68704152
_cell_formula_units_Z   4
loop_
 _symmetry_equiv_pos_site_id
 _symmetry_equiv_pos_as_xyz
  1  'x, y, z'
loop_
 _atom_site_type_symbol
 _atom_site_label
 _atom_site_symmetry_multiplicity
 _atom_site_fract_x
 _atom_site_fract_y
 _atom_site_fract_z
 _atom_site_occupancy
 _atom_site_charge
Zn  Zn1  1  0.02257000  0.53194000  0.03437000  1.0 1.1529617634
Zn  Zn2  1  0.97743000  0.46806000  0.53437000  1.0 1.1529617634
Zn  Zn3  1  0.02257000  0.96806000  0.53437000  1.0 1.1529617634
Zn  Zn4  1  0.97743000  0.03194000  0.03437000  1.0 1.1529617634
Zn  Zn5  1  0.38625000  0.48421000  0.08520000  1.0 1.1021626916
Zn  Zn6  1  0.61375000  0.51579000  0.58520000  1.0 1.1021626916
Zn  Zn7  1  0.38625000  0.01579000  0.58520000  1.0 1.1021626916
Zn  Zn8  1  0.61375000  0.98421000  0.08520000  1.0 1.1021626916
Zn  Zn9  1  0.51868000  0.45438000  0.89354000  1.0 1.1229346719
Zn  Zn10  1  0.48132000  0.54562000  0.39354000  1.0 1.1229346719
Zn  Zn11  1  0.51868000  0.04562000  0.39354000  1.0 1.1229346719
Zn  Zn12  1  0.48132000  0.95438000  0.89354000  1.0 1.1229346719
Zn  Zn13  1  0.14623000  0.59111000  0.83562000  1.0 1.0660641518
Zn  Zn14  1  0.85377000  0.40889000  0.33562000  1.0 1.0660641518
Zn  Zn15  1  0.14623000  0.90889000  0.33562000  1.0 1.0660641518
Zn  Zn16  1  0.85377000  0.09111000  0.83562000  1.0 1.0660641518
Zn  Zn17  1  0.00855000  0.40005000  0.15009000  1.0 1.1365760293
Zn  Zn18  1  0.99145000  0.59995000  0.65009000  1.0 1.1365760293
Zn  Zn19  1  0.00855000  0.09995000  0.65009000  1.0 1.1365760293
Zn  Zn20  1  0.99145000  0.90005000  0.15009000  1.0 1.1365760293
Zn  Zn21  1  0.88809000  0.49597000  0.84443000  1.0 0.9823067513
Zn  Zn22  1  0.11191000  0.50403000  0.34443000  1.0 0.9823067513
Zn  Zn23  1  0.88809000  0.00403000  0.34443000  1.0 0.9823067513
Zn  Zn24  1  0.11191000  0.99597000  0.84443000  1.0 0.9823067513
Zn  Zn25  1  0.64972000  0.38527000  0.09104000  1.0 1.1797730949
Zn  Zn26  1  0.35028000  0.61473000  0.59104000  1.0 1.1797730949
Zn  Zn27  1  0.64972000  0.11473000  0.59104000  1.0 1.1797730949
Zn  Zn28  1  0.35028000  0.88527000  0.09104000  1.0 1.1797730949
Zn  Zn29  1  0.49594000  0.41299000  0.27892000  1.0 1.1331863728
Zn  Zn30  1  0.50406000  0.58701000  0.77892000  1.0 1.1331863728
Zn  Zn31  1  0.49594000  0.08701000  0.77892000  1.0 1.1331863728
Zn  Zn32  1  0.50406000  0.91299000  0.27892000  1.0 1.1331863728
P  P1  1  0.84777000  0.46870000  0.08804000  1.0 1.5597628679
P  P2  1  0.15223000  0.53130000  0.58804000  1.0 1.5597628679
P  P3  1  0.84777000  0.03130000  0.58804000  1.0 1.5597628679
P  P4  1  0.15223000  0.96870000  0.08804000  1.0 1.5597628679
P  P5  1  0.50717000  0.43591000  0.17335000  1.0 1.551376537
P  P6  1  0.49283000  0.56409000  0.67335000  1.0 1.551376537
P  P7  1  0.50717000  0.06409000  0.67335000  1.0 1.551376537
P  P8  1  0.49283000  0.93591000  0.17335000  1.0 1.551376537
P  P9  1  0.34111000  0.50738000  0.83935000  1.0 1.551376537
P  P10  1  0.65889000  0.49262000  0.33935000  1.0 1.551376537
P  P11  1  0.34111000  0.99262000  0.33935000  1.0 1.551376537
P  P12  1  0.65889000  0.00738000  0.83935000  1.0 1.551376537
P  P13  1  0.52128000  0.44476000  0.00386000  1.0 1.551376537
P  P14  1  0.47872000  0.55524000  0.50386000  1.0 1.5597628679
P  P15  1  0.52128000  0.05524000  0.50386000  1.0 1.5597628679
P  P16  1  0.47872000  0.94476000  0.00386000  1.0 1.551376537
P  P17  1  0.00755000  0.55263000  0.75653000  1.0 1.4861134019
P  P18  1  0.99245000  0.44737000  0.25653000  1.0 1.483530673
P  P19  1  0.00755000  0.94737000  0.25653000  1.0 1.483530673
P  P20  1  0.99245000  0.05263000  0.75653000  1.0 1.483530673
P  P21  1  0.02242000  0.52870000  0.92619000  1.0 1.4861134019
P  P22  1  0.97758000  0.47130000  0.42619000  1.0 1.483530673
P  P23  1  0.02242000  0.97130000  0.42619000  1.0 1.4861134019
P  P24  1  0.97758000  0.02870000  0.92619000  1.0 1.4861134019
P  P25  1  0.67975000  0.53970000  0.83673000  1.0 1.551376537
P  P26  1  0.32025000  0.46030000  0.33673000  1.0 1.551376537
P  P27  1  0.67975000  0.96030000  0.33673000  1.0 1.551376537
P  P28  1  0.32025000  0.03970000  0.83673000  1.0 1.551376537
P  P29  1  0.18209000  0.43479000  0.08813000  1.0 1.5347594347
P  P30  1  0.81791000  0.56521000  0.58813000  1.0 1.5370645649
P  P31  1  0.18209000  0.06521000  0.58813000  1.0 1.5347594347
P  P32  1  0.81791000  0.93479000  0.08813000  1.0 1.5370645649
P  P33  1  0.47281000  0.28351000  0.82866000  1.0 1.5597628679
P  P34  1  0.52719000  0.71649000  0.32866000  1.0 1.5597628679
P  P35  1  0.47281000  0.21649000  0.32866000  1.0 1.5597628679
P  P36  1  0.52719000  0.78351000  0.82866000  1.0 1.5597628679
P  P37  1  0.98027000  0.72290000  0.08246000  1.0 1.5370645649
P  P38  1  0.01973000  0.27710000  0.58246000  1.0 1.5370645649
P  P39  1  0.98027000  0.77710000  0.58246000  1.0 1.5370645649
P  P40  1  0.01973000  0.22290000  0.08246000  1.0 1.5370645649
P  P41  1  0.44737000  0.69180000  0.10321000  1.0 1.5597628679
P  P42  1  0.55263000  0.30820000  0.60321000  1.0 1.5597628679
P  P43  1  0.44737000  0.80820000  0.60321000  1.0 1.5597628679
P  P44  1  0.55263000  0.19180000  0.10321000  1.0 1.5597628679
P  P45  1  0.04570000  0.78596000  0.84320000  1.0 0.4926164375
P  P46  1  0.95430000  0.21404000  0.34320000  1.0 0.4926164375
P  P47  1  0.04570000  0.71404000  0.34320000  1.0 0.4926164375
P  P48  1  0.95430000  0.28596000  0.84320000  1.0 0.4926164375
P  P49  1  0.93950000  0.29242000  0.82563000  1.0 0.4926164375
P  P50  1  0.06050000  0.70758000  0.32563000  1.0 0.4998789754
P  P51  1  0.93950000  0.20758000  0.32563000  1.0 0.4926164375
P  P52  1  0.06050000  0.79242000  0.82563000  1.0 0.4998789754
H  H1  1  0.18900000  0.30000000  0.08600000  1.0 0.3934423205
H  H2  1  0.81100000  0.70000000  0.58600000  1.0 0.3934423205
H  H3  1  0.18900000  0.20000000  0.58600000  1.0 0.3934423205
H  H4  1  0.81100000  0.80000000  0.08600000  1.0 0.3934423205
H  H5  1  0.82100000  0.60700000  0.08900000  1.0 0.4065330949
H  H6  1  0.17900000  0.39300000  0.58900000  1.0 0.4065330949
H  H7  1  0.82100000  0.89300000  0.58900000  1.0 0.4065330949
H  H8  1  0.17900000  0.10700000  0.08900000  1.0 0.4065330949
H  H9  1  0.30000000  0.37100000  0.84200000  1.0 0.3969042427
H  H10  1  0.70000000  0.62900000  0.34200000  1.0 0.3969042427
H  H11  1  0.30000000  0.12900000  0.34200000  1.0 0.3969042427
H  H12  1  0.70000000  0.87100000  0.84200000  1.0 0.3969042427
H  H13  1  0.53800000  0.79500000  0.09700000  1.0 0.3934423205
H  H14  1  0.46200000  0.20500000  0.59700000  1.0 0.3969042427
H  H15  1  0.53800000  0.70500000  0.59700000  1.0 0.3934423205
H  H16  1  0.46200000  0.29500000  0.09700000  1.0 0.3969042427
H  H17  1  0.49200000  0.58800000  0.01470000  1.0 0.4322633174
H  H18  1  0.50800000  0.41200000  0.51470000  1.0 0.4322633174
H  H19  1  0.49200000  0.91200000  0.51470000  1.0 0.4322633174
H  H20  1  0.50800000  0.08800000  0.01470000  1.0 0.4322633174
H  H21  1  0.48400000  0.58300000  0.18200000  1.0 0.440222348
H  H22  1  0.51600000  0.41700000  0.68200000  1.0 0.440222348
H  H23  1  0.48400000  0.91700000  0.68200000  1.0 0.440222348
H  H24  1  0.51600000  0.08300000  0.18200000  1.0 0.440222348
H  H25  1  0.45500000  0.38940000  0.78000000  1.0 0.4065330949
H  H26  1  0.54500000  0.61060000  0.28000000  1.0 0.4065330949
H  H27  1  0.45500000  0.11060000  0.28000000  1.0 0.4065330949
H  H28  1  0.54500000  0.88940000  0.78000000  1.0 0.4065330949
H  H29  1  0.68900000  0.68600000  0.84400000  1.0 0.4065330949
H  H30  1  0.31100000  0.31400000  0.34400000  1.0 0.4065330949
H  H31  1  0.68900000  0.81400000  0.34400000  1.0 0.4065330949
H  H32  1  0.31100000  0.18600000  0.84400000  1.0 0.4065330949
H  H33  1  0.10440000  0.17050000  0.93430000  1.0 0.2981579673
H  H34  1  0.11270000  0.22730000  0.97640000  1.0 0.2912146277
H  H35  1  0.18680000  0.09610000  0.99350000  1.0 0.1401512306
H  H36  1  0.24080000  0.10150000  0.94630000  1.0 0.1401512306
H  H37  1  0.27250000  0.21620000  0.02190000  1.0 0.1401512306
H  H38  1  0.32790000  0.12790000  0.01320000  1.0 0.1509695497
H  H39  1  0.38020000  0.19020000  0.94440000  1.0 0.1401512306
H  H40  1  0.41510000  0.23510000  0.99070000  1.0 0.1401512306
H  H41  1  0.35740000  0.32200000  0.92270000  1.0 0.2912146277
H  H42  1  0.36500000  0.35970000  0.97010000  1.0 0.2981579673
H  H43  1  0.23280000  0.40520000  0.93650000  1.0 0.1561999161
H  H44  1  0.21340000  0.34970000  0.98240000  1.0 0.1401512306
H  H45  1  0.12960000  0.31060000  0.90790000  1.0 0.1509695497
H  H46  1  0.21720000  0.25400000  0.89710000  1.0 0.130275316
H  H47  1  0.89560000  0.82950000  0.43430000  1.0 0.2981579673
H  H48  1  0.88730000  0.77270000  0.47640000  1.0 0.2912146277
H  H49  1  0.81320000  0.90390000  0.49350000  1.0 0.1401512306
H  H50  1  0.75920000  0.89850000  0.44630000  1.0 0.1401512306
H  H51  1  0.72750000  0.78380000  0.52190000  1.0 0.1401512306
H  H52  1  0.67210000  0.87210000  0.51320000  1.0 0.1509695497
H  H53  1  0.61980000  0.80980000  0.44440000  1.0 0.1401512306
H  H54  1  0.58490000  0.76490000  0.49070000  1.0 0.1401512306
H  H55  1  0.64260000  0.67800000  0.42270000  1.0 0.2912146277
H  H56  1  0.63500000  0.64030000  0.47010000  1.0 0.2981579673
H  H57  1  0.76720000  0.59480000  0.43650000  1.0 0.1561999161
H  H58  1  0.78660000  0.65030000  0.48240000  1.0 0.1401512306
H  H59  1  0.87040000  0.68940000  0.40790000  1.0 0.1509695497
H  H60  1  0.78280000  0.74600000  0.39710000  1.0 0.130275316
H  H61  1  0.10440000  0.32950000  0.43430000  1.0 0.2981579673
H  H62  1  0.11270000  0.27270000  0.47640000  1.0 0.2912146277
H  H63  1  0.18680000  0.40390000  0.49350000  1.0 0.1401512306
H  H64  1  0.24080000  0.39850000  0.44630000  1.0 0.1401512306
H  H65  1  0.27250000  0.28380000  0.52190000  1.0 0.1401512306
H  H66  1  0.32790000  0.37210000  0.51320000  1.0 0.1509695497
H  H67  1  0.38020000  0.30980000  0.44440000  1.0 0.1401512306
H  H68  1  0.41510000  0.26490000  0.49070000  1.0 0.1401512306
H  H69  1  0.35740000  0.17800000  0.42270000  1.0 0.2912146277
H  H70  1  0.36500000  0.14030000  0.47010000  1.0 0.2981579673
H  H71  1  0.23280000  0.09480000  0.43650000  1.0 0.1561999161
H  H72  1  0.21340000  0.15030000  0.48240000  1.0 0.1401512306
H  H73  1  0.12960000  0.18940000  0.40790000  1.0 0.1509695497
H  H74  1  0.21720000  0.24600000  0.39710000  1.0 0.130275316
H  H75  1  0.89560000  0.67050000  0.93430000  1.0 0.2981579673
H  H76  1  0.88730000  0.72730000  0.97640000  1.0 0.2912146277
H  H77  1  0.81320000  0.59610000  0.99350000  1.0 0.1401512306
H  H78  1  0.75920000  0.60150000  0.94630000  1.0 0.1401512306
H  H79  1  0.72750000  0.71620000  0.02190000  1.0 0.1401512306
H  H80  1  0.67210000  0.62790000  0.01320000  1.0 0.1509695497
H  H81  1  0.61980000  0.69020000  0.94440000  1.0 0.1401512306
H  H82  1  0.58490000  0.73510000  0.99070000  1.0 0.1401512306
H  H83  1  0.64260000  0.82200000  0.92270000  1.0 0.2912146277
H  H84  1  0.63500000  0.85970000  0.97010000  1.0 0.2981579673
H  H85  1  0.76720000  0.90520000  0.93650000  1.0 0.1561999161
H  H86  1  0.78660000  0.84970000  0.98240000  1.0 0.1401512306
H  H87  1  0.87040000  0.81060000  0.90790000  1.0 0.1509695497
H  H88  1  0.78280000  0.75400000  0.89710000  1.0 0.130275316
H  H89  1  0.91420000  0.69150000  0.23550000  1.0 0.1509695497
H  H90  1  0.87410000  0.72160000  0.18700000  1.0 0.130275316
H  H91  1  0.82660000  0.80210000  0.25780000  1.0 0.1561999161
H  H92  1  0.76250000  0.71970000  0.26640000  1.0 0.130275316
H  H93  1  0.68870000  0.84490000  0.23250000  1.0 0.1401512306
H  H94  1  0.74760000  0.83180000  0.18720000  1.0 0.1401512306
H  H95  1  0.61160000  0.77070000  0.17350000  1.0 0.2981579673
H  H96  1  0.61240000  0.71810000  0.21720000  1.0 0.2981579673
H  H97  1  0.72990000  0.67790000  0.14440000  1.0 0.1401512306
H  H98  1  0.63500000  0.63040000  0.14880000  1.0 0.1509695497
H  H99  1  0.69450000  0.58740000  0.22920000  1.0 0.130275316
H  H100  1  0.71620000  0.52680000  0.18550000  1.0 0.1509695497
H  H101  1  0.84280000  0.56410000  0.23310000  1.0 0.2981579673
H  H102  1  0.85750000  0.57690000  0.18250000  1.0 0.2912146277
H  H103  1  0.08580000  0.30850000  0.73550000  1.0 0.1509695497
H  H104  1  0.12590000  0.27840000  0.68700000  1.0 0.130275316
H  H105  1  0.17340000  0.19790000  0.75780000  1.0 0.1561999161
H  H106  1  0.23750000  0.28030000  0.76640000  1.0 0.1249617514
H  H107  1  0.31130000  0.15510000  0.73250000  1.0 0.1401512306
H  H108  1  0.25240000  0.16820000  0.68720000  1.0 0.1401512306
H  H109  1  0.38840000  0.22930000  0.67350000  1.0 0.2981579673
H  H110  1  0.38760000  0.28190000  0.71720000  1.0 0.2981579673
H  H111  1  0.27010000  0.32210000  0.64440000  1.0 0.1401512306
H  H112  1  0.36500000  0.36960000  0.64880000  1.0 0.1509695497
H  H113  1  0.30550000  0.41260000  0.72920000  1.0 0.130275316
H  H114  1  0.28380000  0.47320000  0.68550000  1.0 0.1509695497
H  H115  1  0.15720000  0.43590000  0.73310000  1.0 0.2981579673
H  H116  1  0.14250000  0.42310000  0.68250000  1.0 0.2912146277
H  H117  1  0.91420000  0.80850000  0.73550000  1.0 0.1509695497
H  H118  1  0.87410000  0.77840000  0.68700000  1.0 0.130275316
H  H119  1  0.82660000  0.69790000  0.75780000  1.0 0.1561999161
H  H120  1  0.76250000  0.78030000  0.76640000  1.0 0.1249617514
H  H121  1  0.68870000  0.65510000  0.73250000  1.0 0.1401512306
H  H122  1  0.74760000  0.66820000  0.68720000  1.0 0.1401512306
H  H123  1  0.61160000  0.72930000  0.67350000  1.0 0.2981579673
H  H124  1  0.61240000  0.78190000  0.71720000  1.0 0.2981579673
H  H125  1  0.72990000  0.82210000  0.64440000  1.0 0.1401512306
H  H126  1  0.63500000  0.86960000  0.64880000  1.0 0.1509695497
H  H127  1  0.69450000  0.91260000  0.72920000  1.0 0.130275316
H  H128  1  0.71620000  0.97320000  0.68550000  1.0 0.1509695497
H  H129  1  0.84280000  0.93590000  0.73310000  1.0 0.2981579673
H  H130  1  0.85750000  0.92310000  0.68250000  1.0 0.2912146277
H  H131  1  0.08580000  0.19150000  0.23550000  1.0 0.1509695497
H  H132  1  0.12590000  0.22160000  0.18700000  1.0 0.130275316
H  H133  1  0.17340000  0.30210000  0.25780000  1.0 0.1561999161
H  H134  1  0.23750000  0.21970000  0.26640000  1.0 0.130275316
H  H135  1  0.31130000  0.34490000  0.23250000  1.0 0.1401512306
H  H136  1  0.25240000  0.33180000  0.18720000  1.0 0.1401512306
H  H137  1  0.38840000  0.27070000  0.17350000  1.0 0.2981579673
H  H138  1  0.38760000  0.21810000  0.21720000  1.0 0.2981579673
H  H139  1  0.27010000  0.17790000  0.14440000  1.0 0.1401512306
H  H140  1  0.36500000  0.13040000  0.14880000  1.0 0.1509695497
H  H141  1  0.30550000  0.08740000  0.22920000  1.0 0.130275316
H  H142  1  0.28380000  0.02680000  0.18550000  1.0 0.1509695497
H  H143  1  0.15720000  0.06410000  0.23310000  1.0 0.2981579673
H  H144  1  0.14250000  0.07690000  0.18250000  1.0 0.2912146277
C  C1  1  0.21730000  0.13720000  0.97220000  1.0 -0.0396648107
C  C2  1  0.29610000  0.17680000  0.99750000  1.0 -0.1796492621
C  C3  1  0.36190000  0.22700000  0.97100000  1.0 -0.0396648107
C  C4  1  0.23730000  0.34580000  0.95070000  1.0 -0.0717682384
C  C5  1  0.18020000  0.27880000  0.92220000  1.0 -0.0495713252
C  C6  1  0.78270000  0.86280000  0.47220000  1.0 -0.0396648107
C  C7  1  0.70390000  0.82320000  0.49750000  1.0 -0.1796492621
C  C8  1  0.63810000  0.77300000  0.47100000  1.0 -0.0396648107
C  C9  1  0.76270000  0.65420000  0.45070000  1.0 -0.0717682384
C  C10  1  0.81980000  0.72120000  0.42220000  1.0 -0.0495713252
C  C11  1  0.21730000  0.36280000  0.47220000  1.0 -0.0396648107
C  C12  1  0.29610000  0.32320000  0.49750000  1.0 -0.1796492621
C  C13  1  0.36190000  0.27300000  0.47100000  1.0 -0.0396648107
C  C14  1  0.23730000  0.15420000  0.45070000  1.0 -0.0717682384
C  C15  1  0.18020000  0.22120000  0.42220000  1.0 -0.0495713252
C  C16  1  0.78270000  0.63720000  0.97220000  1.0 -0.0396648107
C  C17  1  0.70390000  0.67680000  0.99750000  1.0 -0.1796492621
C  C18  1  0.63810000  0.72700000  0.97100000  1.0 -0.0396648107
C  C19  1  0.76270000  0.84580000  0.95070000  1.0 -0.0717682384
C  C20  1  0.81980000  0.77880000  0.92220000  1.0 -0.0495713252
C  C21  1  0.85880000  0.69420000  0.21700000  1.0 -0.0187029328
C  C22  1  0.79210000  0.75500000  0.24210000  1.0 -0.1876389395
C  C23  1  0.71880000  0.80010000  0.21300000  1.0 -0.0329145539
C  C24  1  0.68410000  0.65760000  0.16664000  1.0 -0.0884890977
C  C25  1  0.72600000  0.58590000  0.19920000  1.0 -0.0771906777
C  C26  1  0.14120000  0.30580000  0.71700000  1.0 -0.0187029328
C  C27  1  0.20790000  0.24500000  0.74210000  1.0 -0.1876389395
C  C28  1  0.28120000  0.19990000  0.71300000  1.0 -0.0329145539
C  C29  1  0.31590000  0.34240000  0.66666667  1.0 -0.0884890977
C  C30  1  0.27400000  0.41410000  0.69920000  1.0 -0.0771906777
C  C31  1  0.85880000  0.80580000  0.71700000  1.0 -0.0187029328
C  C32  1  0.79210000  0.74500000  0.74210000  1.0 -0.1876389395
C  C33  1  0.71880000  0.69990000  0.71300000  1.0 -0.0329145539
C  C34  1  0.68410000  0.84240000  0.66666667  1.0 -0.0884890977
C  C35  1  0.72600000  0.91410000  0.69920000  1.0 -0.0771906777
C  C36  1  0.14120000  0.19420000  0.21700000  1.0 -0.0187029328
C  C37  1  0.20790000  0.25500000  0.24210000  1.0 -0.1876389395
C  C38  1  0.28120000  0.30010000  0.21300000  1.0 -0.0329145539
C  C39  1  0.31590000  0.15760000  0.16664000  1.0 -0.0884890977
C  C40  1  0.27400000  0.08590000  0.19920000  1.0 -0.0771906777
N  N1  1  0.14430000  0.20310000  0.95190000  1.0 -0.1876389395
N  N2  1  0.33510000  0.31770000  0.95250000  1.0 -0.1796492621
N  N3  1  0.85570000  0.79690000  0.45190000  1.0 -0.1876389395
N  N4  1  0.66490000  0.68230000  0.45250000  1.0 -0.1687248248
N  N5  1  0.14430000  0.29690000  0.45190000  1.0 -0.1876389395
N  N6  1  0.33510000  0.18230000  0.45250000  1.0 -0.1796492621
N  N7  1  0.85570000  0.70310000  0.95190000  1.0 -0.1876389395
N  N8  1  0.66490000  0.81770000  0.95250000  1.0 -0.1687248248
N  N9  1  0.64780000  0.73830000  0.19318000  1.0 -0.1687248248
N  N10  1  0.82690000  0.59860000  0.20794000  1.0 -0.1796492621
N  N11  1  0.35220000  0.26170000  0.69318000  1.0 -0.1687248248
N  N12  1  0.17310000  0.40140000  0.70794000  1.0 -0.1796492621
N  N13  1  0.64780000  0.76170000  0.69318000  1.0 -0.1687248248
N  N14  1  0.82690000  0.90140000  0.70794000  1.0 -0.1796492621
N  N15  1  0.35220000  0.23830000  0.19318000  1.0 -0.1687248248
N  N16  1  0.17310000  0.09860000  0.20794000  1.0 -0.1796492621
O  O1  1  0.03630000  0.63730000  0.07555000  1.0 -0.7684406573
O  O2  1  0.96370000  0.36270000  0.57555000  1.0 -0.7684406573
O  O3  1  0.03630000  0.86270000  0.57555000  1.0 -0.7684406573
O  O4  1  0.96370000  0.13730000  0.07555000  1.0 -0.7684406573
O  O5  1  0.90390000  0.47650000  0.13382000  1.0 -0.7899175803
O  O6  1  0.09610000  0.52350000  0.63382000  1.0 -0.7899175803
O  O7  1  0.90390000  0.02350000  0.63382000  1.0 -0.7899175803
O  O8  1  0.09610000  0.97650000  0.13382000  1.0 -0.7899175803
O  O9  1  0.50320000  0.36880000  0.21461000  1.0 -0.7684406573
O  O10  1  0.49680000  0.63120000  0.71461000  1.0 -0.7684406573
O  O11  1  0.50320000  0.13120000  0.71461000  1.0 -0.7684406573
O  O12  1  0.49680000  0.86880000  0.21461000  1.0 -0.7684406573
O  O13  1  0.27990000  0.59100000  0.83958000  1.0 -0.7194843763
O  O14  1  0.72010000  0.40900000  0.33958000  1.0 -0.7194843763
O  O15  1  0.27990000  0.90900000  0.33958000  1.0 -0.7194843763
O  O16  1  0.72010000  0.09100000  0.83958000  1.0 -0.7194843763
O  O17  1  0.03280000  0.58410000  0.97155000  1.0 -0.7420322662
O  O18  1  0.96720000  0.41590000  0.47155000  1.0 -0.7420322662
O  O19  1  0.03280000  0.91590000  0.47155000  1.0 -0.7420322662
O  O20  1  0.96720000  0.08410000  0.97155000  1.0 -0.7420322662
O  O21  1  0.90890000  0.46460000  0.04433000  1.0 -0.7420322662
O  O22  1  0.09110000  0.53540000  0.54433000  1.0 -0.747652362
O  O23  1  0.90890000  0.03540000  0.54433000  1.0 -0.7420322662
O  O24  1  0.09110000  0.96460000  0.04433000  1.0 -0.747652362
O  O25  1  0.10590000  0.54000000  0.77539000  1.0 -0.7684406573
O  O26  1  0.89410000  0.46000000  0.27539000  1.0 -0.7684406573
O  O27  1  0.10590000  0.96000000  0.27539000  1.0 -0.7684406573
O  O28  1  0.89410000  0.04000000  0.77539000  1.0 -0.7684406573
O  O29  1  0.40600000  0.50280000  0.79617000  1.0 -0.8089427165
O  O30  1  0.59400000  0.49720000  0.29617000  1.0 -0.8089427165
O  O31  1  0.40600000  0.99720000  0.29617000  1.0 -0.8089427165
O  O32  1  0.59400000  0.00280000  0.79617000  1.0 -0.8089427165
O  O33  1  0.78200000  0.38840000  0.08846000  1.0 -0.7194843763
O  O34  1  0.21800000  0.61160000  0.58846000  1.0 -0.7194843763
O  O35  1  0.78200000  0.11160000  0.58846000  1.0 -0.7194843763
O  O36  1  0.21800000  0.88840000  0.08846000  1.0 -0.7194843763
O  O37  1  0.53880000  0.34160000  0.85698000  1.0 -0.7684406573
O  O38  1  0.46120000  0.65840000  0.35698000  1.0 -0.7608914289
O  O39  1  0.53880000  0.15840000  0.35698000  1.0 -0.7684406573
O  O40  1  0.46120000  0.84160000  0.85698000  1.0 -0.7684406573
O  O41  1  0.00180000  0.62260000  0.71775000  1.0 -0.7291983723
O  O42  1  0.99820000  0.37740000  0.21775000  1.0 -0.7291983723
O  O43  1  0.00180000  0.87740000  0.21775000  1.0 -0.7291983723
O  O44  1  0.99820000  0.12260000  0.71775000  1.0 -0.7194843763
O  O45  1  0.39460000  0.49790000  0.88502000  1.0 -0.7899175803
O  O46  1  0.60540000  0.50210000  0.38502000  1.0 -0.7899175803
O  O47  1  0.39460000  0.00210000  0.38502000  1.0 -0.7899175803
O  O48  1  0.60540000  0.99790000  0.88502000  1.0 -0.7899175803
O  O49  1  0.52380000  0.39870000  0.95618000  1.0 -0.7684406573
O  O50  1  0.47620000  0.60130000  0.45618000  1.0 -0.7608914289
O  O51  1  0.52380000  0.10130000  0.45618000  1.0 -0.7608914289
O  O52  1  0.47620000  0.89870000  0.95618000  1.0 -0.7684406573
O  O53  1  0.13090000  0.43920000  0.13476000  1.0 -0.7608914289
O  O54  1  0.86910000  0.56080000  0.63476000  1.0 -0.7608914289
O  O55  1  0.13090000  0.06080000  0.63476000  1.0 -0.7608914289
O  O56  1  0.86910000  0.93920000  0.13476000  1.0 -0.7608914289
O  O57  1  0.93130000  0.55440000  0.90205000  1.0 -0.7608914289
O  O58  1  0.06870000  0.44560000  0.40205000  1.0 -0.7608914289
O  O59  1  0.93130000  0.94560000  0.40205000  1.0 -0.7608914289
O  O60  1  0.06870000  0.05440000  0.90205000  1.0 -0.7608914289
O  O61  1  0.59730000  0.43630000  0.14780000  1.0 -0.8089427165
O  O62  1  0.40270000  0.56370000  0.64780000  1.0 -0.8089427165
O  O63  1  0.59730000  0.06370000  0.64780000  1.0 -0.8089427165
O  O64  1  0.40270000  0.93630000  0.14780000  1.0 -0.8089427165
O  O65  1  0.43510000  0.41650000  0.03070000  1.0 -0.8089427165
O  O66  1  0.56490000  0.58350000  0.53070000  1.0 -0.8089427165
O  O67  1  0.43510000  0.08350000  0.53070000  1.0 -0.8089427165
O  O68  1  0.56490000  0.91650000  0.03070000  1.0 -0.8089427165
O  O69  1  0.62230000  0.53030000  0.88137000  1.0 -0.7899175803
O  O70  1  0.37770000  0.46970000  0.38137000  1.0 -0.7899175803
O  O71  1  0.62230000  0.96970000  0.38137000  1.0 -0.7899175803
O  O72  1  0.37770000  0.03030000  0.88137000  1.0 -0.7899175803
O  O73  1  0.76000000  0.47380000  0.83547000  1.0 -0.7291983723
O  O74  1  0.24000000  0.52620000  0.33547000  1.0 -0.7291983723
O  O75  1  0.76000000  0.02620000  0.33547000  1.0 -0.7291983723
O  O76  1  0.24000000  0.97380000  0.83547000  1.0 -0.7291983723
O  O77  1  0.23400000  0.33980000  0.08472000  1.0 -0.6500934634
O  O78  1  0.76600000  0.66020000  0.58472000  1.0 -0.6613277717
O  O79  1  0.23400000  0.16020000  0.58472000  1.0 -0.6500934634
O  O80  1  0.76600000  0.83980000  0.08472000  1.0 -0.6613277717
O  O81  1  0.78640000  0.55620000  0.08536000  1.0 -0.6784151089
O  O82  1  0.21360000  0.44380000  0.58536000  1.0 -0.6784151089
O  O83  1  0.78640000  0.94380000  0.58536000  1.0 -0.6784151089
O  O84  1  0.21360000  0.05620000  0.08536000  1.0 -0.6784151089
O  O85  1  0.25690000  0.50570000  0.08486000  1.0 -0.7420322662
O  O86  1  0.74310000  0.49430000  0.58486000  1.0 -0.7420322662
O  O87  1  0.25690000  0.99430000  0.58486000  1.0 -0.7420322662
O  O88  1  0.74310000  0.00570000  0.08486000  1.0 -0.7420322662
O  O89  1  0.01610000  0.42580000  0.94297000  1.0 -0.5792586479
O  O90  1  0.98390000  0.57420000  0.44297000  1.0 -0.5792586479
O  O91  1  0.01610000  0.07420000  0.44297000  1.0 -0.5792586479
O  O92  1  0.98390000  0.92580000  0.94297000  1.0 -0.5792586479
O  O93  1  0.37820000  0.28050000  0.85199000  1.0 -0.7999901844
O  O94  1  0.62180000  0.71950000  0.35199000  1.0 -0.7999901844
O  O95  1  0.37820000  0.21950000  0.35199000  1.0 -0.7999901844
O  O96  1  0.62180000  0.78050000  0.85199000  1.0 -0.8089427165
O  O97  1  0.97950000  0.45840000  0.73419000  1.0 -0.6426561627
O  O98  1  0.02050000  0.54160000  0.23419000  1.0 -0.6426561627
O  O99  1  0.97950000  0.04160000  0.23419000  1.0 -0.6426561627
O  O100  1  0.02050000  0.95840000  0.73419000  1.0 -0.6426561627
O  O101  1  0.36820000  0.75330000  0.09160000  1.0 -0.7684406573
O  O102  1  0.63180000  0.24670000  0.59160000  1.0 -0.7608914289
O  O103  1  0.36820000  0.74670000  0.59160000  1.0 -0.7684406573
O  O104  1  0.63180000  0.25330000  0.09160000  1.0 -0.7608914289
O  O105  1  0.27400000  0.42370000  0.83359000  1.0 -0.6613277717
O  O106  1  0.72600000  0.57630000  0.33359000  1.0 -0.6613277717
O  O107  1  0.27400000  0.07630000  0.33359000  1.0 -0.6613277717
O  O108  1  0.72600000  0.92370000  0.83359000  1.0 -0.6613277717
O  O109  1  0.94270000  0.57670000  0.79703000  1.0 -0.7420322662
O  O110  1  0.05730000  0.42330000  0.29703000  1.0 -0.747652362
O  O111  1  0.94270000  0.92330000  0.29703000  1.0 -0.7420322662
O  O112  1  0.05730000  0.07670000  0.79703000  1.0 -0.7420322662
O  O113  1  0.53970000  0.73830000  0.08690000  1.0 -0.6500934634
O  O114  1  0.46030000  0.26170000  0.58690000  1.0 -0.6426561627
O  O115  1  0.53970000  0.76170000  0.58690000  1.0 -0.6500934634
O  O116  1  0.46030000  0.23830000  0.08690000  1.0 -0.6426561627
O  O117  1  0.51450000  0.54960000  0.99278000  1.0 -0.6613277717
O  O118  1  0.48550000  0.45040000  0.49278000  1.0 -0.6613277717
O  O119  1  0.51450000  0.95040000  0.49278000  1.0 -0.6613277717
O  O120  1  0.48550000  0.04960000  0.99278000  1.0 -0.6613277717
O  O121  1  0.02020000  0.78160000  0.12103000  1.0 -0.7608914289
O  O122  1  0.97980000  0.21840000  0.62103000  1.0 -0.7608914289
O  O123  1  0.02020000  0.71840000  0.62103000  1.0 -0.7608914289
O  O124  1  0.97980000  0.28160000  0.12103000  1.0 -0.7608914289
O  O125  1  0.87910000  0.70450000  0.09190000  1.0 -0.7813590887
O  O126  1  0.12090000  0.29550000  0.59190000  1.0 -0.7813590887
O  O127  1  0.87910000  0.79550000  0.59190000  1.0 -0.7813590887
O  O128  1  0.12090000  0.20450000  0.09190000  1.0 -0.7813590887
O  O129  1  0.62260000  0.52890000  0.79144000  1.0 -0.7899175803
O  O130  1  0.37740000  0.47110000  0.29144000  1.0 -0.7899175803
O  O131  1  0.62260000  0.97110000  0.29144000  1.0 -0.7899175803
O  O132  1  0.37740000  0.02890000  0.79144000  1.0 -0.7899175803
O  O133  1  0.42770000  0.41700000  0.14002000  1.0 -0.8173097644
O  O134  1  0.57230000  0.58300000  0.64002000  1.0 -0.8173097644
O  O135  1  0.42770000  0.08300000  0.64002000  1.0 -0.8173097644
O  O136  1  0.57230000  0.91700000  0.14002000  1.0 -0.8173097644
O  O137  1  0.10220000  0.53780000  0.89351000  1.0 -0.7608914289
O  O138  1  0.89780000  0.46220000  0.39351000  1.0 -0.7608914289
O  O139  1  0.10220000  0.96220000  0.39351000  1.0 -0.7608914289
O  O140  1  0.89780000  0.03780000  0.89351000  1.0 -0.7608914289
O  O141  1  0.49590000  0.53120000  0.19779000  1.0 -0.6784151089
O  O142  1  0.50410000  0.46880000  0.69779000  1.0 -0.6784151089
O  O143  1  0.49590000  0.96880000  0.69779000  1.0 -0.6784151089
O  O144  1  0.50410000  0.03120000  0.19779000  1.0 -0.6784151089
O  O145  1  0.44380000  0.60400000  0.07446000  1.0 -0.7999901844
O  O146  1  0.55620000  0.39600000  0.57446000  1.0 -0.7999901844
O  O147  1  0.44380000  0.89600000  0.57446000  1.0 -0.7899175803
O  O148  1  0.55620000  0.10400000  0.07446000  1.0 -0.7999901844
O  O149  1  0.11570000  0.44010000  0.04644000  1.0 -0.7608914289
O  O150  1  0.88430000  0.55990000  0.54644000  1.0 -0.7608914289
O  O151  1  0.11570000  0.05990000  0.54644000  1.0 -0.7608914289
O  O152  1  0.88430000  0.94010000  0.04644000  1.0 -0.7608914289
O  O153  1  0.98480000  0.77750000  0.03342000  1.0 -0.6784151089
O  O154  1  0.01520000  0.22250000  0.53342000  1.0 -0.6784151089
O  O155  1  0.98480000  0.72250000  0.53342000  1.0 -0.6681992882
O  O156  1  0.01520000  0.27750000  0.03342000  1.0 -0.6784151089
O  O157  1  0.45460000  0.67400000  0.15607000  1.0 -0.747652362
O  O158  1  0.54540000  0.32600000  0.65607000  1.0 -0.747652362
O  O159  1  0.45460000  0.82600000  0.65607000  1.0 -0.747652362
O  O160  1  0.54540000  0.17400000  0.15607000  1.0 -0.747652362
O  O161  1  0.46070000  0.32970000  0.77743000  1.0 -0.6426561627
O  O162  1  0.53930000  0.67030000  0.27743000  1.0 -0.6426561627
O  O163  1  0.46070000  0.17030000  0.27743000  1.0 -0.6426561627
O  O164  1  0.53930000  0.82970000  0.77743000  1.0 -0.6426561627
O  O165  1  0.72510000  0.63710000  0.83794000  1.0 -0.6681992882
O  O166  1  0.27490000  0.36290000  0.33794000  1.0 -0.6613277717
O  O167  1  0.72510000  0.86290000  0.33794000  1.0 -0.6681992882
O  O168  1  0.27490000  0.13710000  0.83794000  1.0 -0.6613277717
O  O169  1  0.51290000  0.19080000  0.81995000  1.0 -0.7684406573
O  O170  1  0.48710000  0.80920000  0.31995000  1.0 -0.7684406573
O  O171  1  0.51290000  0.30920000  0.31995000  1.0 -0.7684406573
O  O172  1  0.48710000  0.69080000  0.81995000  1.0 -0.7684406573
O  O173  1  0.60790000  0.42920000  0.03154000  1.0 -0.7813590887
O  O174  1  0.39210000  0.57080000  0.53154000  1.0 -0.7813590887
O  O175  1  0.60790000  0.07080000  0.53154000  1.0 -0.7813590887
O  O176  1  0.39210000  0.92920000  0.03154000  1.0 -0.7813590887
O  O177  1  0.95440000  0.75050000  0.83080000  1.0 -0.4199663449
O  O178  1  0.04560000  0.24950000  0.33080000  1.0 -0.4199663449
O  O179  1  0.95440000  0.74950000  0.33080000  1.0 -0.4199663449
O  O180  1  0.04560000  0.25050000  0.83080000  1.0 -0.4199663449
O  O181  1  0.12450000  0.72130000  0.83430000  1.0 -0.440842447
O  O182  1  0.87550000  0.27870000  0.33430000  1.0 -0.440842447
O  O183  1  0.12450000  0.77870000  0.33430000  1.0 -0.440842447
O  O184  1  0.87550000  0.22130000  0.83430000  1.0 -0.440842447
O  O185  1  0.06260000  0.87450000  0.85950000  1.0 -0.0015240956
O  O186  1  0.93740000  0.12550000  0.35950000  1.0 -0.0015240956
O  O187  1  0.06260000  0.62550000  0.35950000  1.0 -0.0015240956
O  O188  1  0.93740000  0.37450000  0.85950000  1.0 -0.0015240956
O  O189  1  0.07170000  0.82120000  0.77610000  1.0 -0.1687248248
O  O190  1  0.92830000  0.17880000  0.27610000  1.0 -0.1640669379
O  O191  1  0.07170000  0.67880000  0.27610000  1.0 -0.1687248248
O  O192  1  0.92830000  0.32120000  0.77610000  1.0 -0.1640669379
O  O193  1  0.94380000  0.38120000  0.82240000  1.0 -0.0396648107
O  O194  1  0.05620000  0.61880000  0.32240000  1.0 -0.0396648107
O  O195  1  0.94380000  0.11880000  0.32240000  1.0 -0.0396648107
O  O196  1  0.05620000  0.88120000  0.82240000  1.0 -0.0396648107
O  O197  1  0.95750000  0.29420000  0.89850000  1.0 -0.1796492621
O  O198  1  0.04250000  0.70580000  0.39850000  1.0 -0.1796492621
O  O199  1  0.95750000  0.20580000  0.39850000  1.0 -0.1796492621
O  O200  1  0.04250000  0.79420000  0.89850000  1.0 -0.1796492621
