# DDEC6 charges by PACMAN v1.1 (https://github.com/mtap-research/PACMAN-charge/)
data_FODZUU_ASR_pacman
_symmetry_space_group_name_H-M   'P 1'
_cell_length_a   8.48800000
_cell_length_b   17.72100000
_cell_length_c   10.43030000
_cell_angle_alpha   90.00000000
_cell_angle_beta   124.15300000
_cell_angle_gamma   90.00000000
_symmetry_Int_Tables_number   1
_chemical_formula_structural   Al3P3HO13
_chemical_formula_sum   'Al12 P12 H4 O52'
_cell_volume   1298.31511552
_cell_formula_units_Z   4
loop_
 _symmetry_equiv_pos_site_id
 _symmetry_equiv_pos_as_xyz
  1  'x, y, z'
loop_
 _atom_site_type_symbol
 _atom_site_label
 _atom_site_symmetry_multiplicity
 _atom_site_fract_x
 _atom_site_fract_y
 _atom_site_fract_z
 _atom_site_occupancy
 _atom_site_charge
Al  Al1  1  0.17549000  0.17661000  0.19223000  1.0 1.7368196823
Al  Al2  1  0.82451000  0.67661000  0.30777000  1.0 1.7368196823
Al  Al3  1  0.82451000  0.82339000  0.80777000  1.0 1.7368196823
Al  Al4  1  0.17549000  0.32339000  0.69223000  1.0 1.7368196823
Al  Al5  1  0.72057000  0.29447000  0.79282000  1.0 1.8100600518
Al  Al6  1  0.27943000  0.79447000  0.70718000  1.0 1.8100600518
Al  Al7  1  0.27943000  0.70553000  0.20718000  1.0 1.8100600518
Al  Al8  1  0.72057000  0.20553000  0.29282000  1.0 1.8100600518
Al  Al9  1  0.54179000  0.39251000  0.17039000  1.0 1.7982057013
Al  Al10  1  0.45821000  0.89251000  0.32961000  1.0 1.7982057013
Al  Al11  1  0.45821000  0.60749000  0.82961000  1.0 1.7982057013
Al  Al12  1  0.54179000  0.10749000  0.67039000  1.0 1.7982057013
P  P1  1  0.17988000  0.28997000  0.97546000  1.0 1.596653042
P  P2  1  0.82012000  0.78997000  0.52454000  1.0 1.5920538284
P  P3  1  0.82012000  0.71003000  0.02454000  1.0 1.5920538284
P  P4  1  0.17988000  0.21003000  0.47546000  1.0 1.5920538284
P  P5  1  0.73352000  0.16925000  0.99988000  1.0 1.5670080759
P  P6  1  0.26648000  0.66925000  0.50012000  1.0 1.5670080759
P  P7  1  0.26648000  0.83075000  0.00012000  1.0 1.5646898128
P  P8  1  0.73352000  0.33075000  0.49988000  1.0 1.5646898128
P  P9  1  0.51988000  0.07138000  0.36251000  1.0 1.577096013
P  P10  1  0.48012000  0.57138000  0.13749000  1.0 1.577096013
P  P11  1  0.48012000  0.92862000  0.63749000  1.0 1.577096013
P  P12  1  0.51988000  0.42862000  0.86251000  1.0 1.577096013
H  H1  1  0.69020000  0.20450000  0.62740000  1.0 0.4459019877
H  H2  1  0.30980000  0.70450000  0.87260000  1.0 0.4459019877
H  H3  1  0.30980000  0.79550000  0.37260000  1.0 0.4459019877
H  H4  1  0.69020000  0.29550000  0.12740000  1.0 0.4459019877
O  O1  1  0.25200000  0.22330000  0.08890000  1.0 -0.8087902042
O  O2  1  0.74800000  0.72330000  0.41110000  1.0 -0.8087902042
O  O3  1  0.74800000  0.77670000  0.91110000  1.0 -0.8087902042
O  O4  1  0.25200000  0.27670000  0.58890000  1.0 -0.8087902042
O  O5  1  0.29660000  0.35908000  0.05720000  1.0 -0.7909468286
O  O6  1  0.70340000  0.85908000  0.44280000  1.0 -0.7909468286
O  O7  1  0.70340000  0.64092000  0.94280000  1.0 -0.7909468286
O  O8  1  0.29660000  0.14092000  0.55720000  1.0 -0.7909468286
O  O9  1  0.97520000  0.30650000  0.91540000  1.0 -0.8087902042
O  O10  1  0.02480000  0.80650000  0.58460000  1.0 -0.8087902042
O  O11  1  0.02480000  0.69350000  0.08460000  1.0 -0.8087902042
O  O12  1  0.97520000  0.19350000  0.41540000  1.0 -0.8087902042
O  O13  1  0.20060000  0.26890000  0.84300000  1.0 -0.8185737379
O  O14  1  0.79940000  0.76890000  0.65700000  1.0 -0.8185737379
O  O15  1  0.79940000  0.73110000  0.15700000  1.0 -0.8185737379
O  O16  1  0.20060000  0.23110000  0.34300000  1.0 -0.8185737379
O  O17  1  0.94240000  0.14730000  0.06830000  1.0 -0.8185737379
O  O18  1  0.05760000  0.64730000  0.43170000  1.0 -0.8185737379
O  O19  1  0.05760000  0.85270000  0.93170000  1.0 -0.8185737379
O  O20  1  0.94240000  0.35270000  0.56830000  1.0 -0.8185737379
O  O21  1  0.68960000  0.15880000  0.12040000  1.0 -0.764294567
O  O22  1  0.31040000  0.65880000  0.37960000  1.0 -0.764294567
O  O23  1  0.31040000  0.84120000  0.87960000  1.0 -0.764294567
O  O24  1  0.68960000  0.34120000  0.62040000  1.0 -0.764294567
O  O25  1  0.61170000  0.11410000  0.86830000  1.0 -0.7804878774
O  O26  1  0.38830000  0.61410000  0.63170000  1.0 -0.7804878774
O  O27  1  0.38830000  0.88590000  0.13170000  1.0 -0.7804878774
O  O28  1  0.61170000  0.38590000  0.36830000  1.0 -0.7804878774
O  O29  1  0.69710000  0.25038000  0.94340000  1.0 -0.8185737379
O  O30  1  0.30290000  0.75038000  0.55660000  1.0 -0.8185737379
O  O31  1  0.30290000  0.74962000  0.05660000  1.0 -0.8185737379
O  O32  1  0.69710000  0.24962000  0.44340000  1.0 -0.8185737379
O  O33  1  0.30780000  0.09440000  0.26340000  1.0 -0.8087902042
O  O34  1  0.69220000  0.59440000  0.23660000  1.0 -0.8087902042
O  O35  1  0.69220000  0.90560000  0.73660000  1.0 -0.8087902042
O  O36  1  0.30780000  0.40560000  0.76340000  1.0 -0.8087902042
O  O37  1  0.59680000  0.08370000  0.53120000  1.0 -0.8185737379
O  O38  1  0.40320000  0.58370000  0.96880000  1.0 -0.8185737379
O  O39  1  0.40320000  0.91630000  0.46880000  1.0 -0.8185737379
O  O40  1  0.59680000  0.41630000  0.03120000  1.0 -0.8185737379
O  O41  1  0.63010000  0.11870000  0.31710000  1.0 -0.7804878774
O  O42  1  0.36990000  0.61870000  0.18290000  1.0 -0.7804878774
O  O43  1  0.36990000  0.88130000  0.68290000  1.0 -0.7804878774
O  O44  1  0.63010000  0.38130000  0.81710000  1.0 -0.7804878774
O  O45  1  0.53880000  0.99073000  0.33000000  1.0 -0.7804878774
O  O46  1  0.46120000  0.49073000  0.17000000  1.0 -0.7804878774
O  O47  1  0.46120000  0.00927000  0.67000000  1.0 -0.7804878774
O  O48  1  0.53880000  0.50927000  0.83000000  1.0 -0.7804878774
O  O49  1  0.65620000  0.20340000  0.69010000  1.0 -0.9297654204
O  O50  1  0.34380000  0.70340000  0.80990000  1.0 -0.9297654204
O  O51  1  0.34380000  0.79660000  0.30990000  1.0 -0.9297654204
O  O52  1  0.65620000  0.29660000  0.19010000  1.0 -0.9297654204
