# DDEC6 charges by PACMAN v1.1 (https://github.com/mtap-research/PACMAN-charge/)
data_FOFHAK_FSR_pacman
_symmetry_space_group_name_H-M   'P 1'
_cell_length_a   8.14520000
_cell_length_b   8.90290000
_cell_length_c   10.76780000
_cell_angle_alpha   108.28600000
_cell_angle_beta   110.66400000
_cell_angle_gamma   102.09600000
_symmetry_Int_Tables_number   1
_chemical_formula_structural   MnGa4P4C2(O11F)2
_chemical_formula_sum   'Mn1 Ga4 P4 C2 O22 F2'
_cell_volume   647.06358617
_cell_formula_units_Z   1
loop_
 _symmetry_equiv_pos_site_id
 _symmetry_equiv_pos_as_xyz
  1  'x, y, z'
loop_
 _atom_site_type_symbol
 _atom_site_label
 _atom_site_symmetry_multiplicity
 _atom_site_fract_x
 _atom_site_fract_y
 _atom_site_fract_z
 _atom_site_occupancy
 _atom_site_charge
Mn  Mn1  1  0.00000000  0.00000000  0.50000000  1.0 1.4590819674
Ga  Ga1  1  0.71520000  0.00126000  0.94719000  1.0 1.5331285791
Ga  Ga2  1  0.28480000  0.99874000  0.05281000  1.0 1.5331285791
Ga  Ga3  1  0.82885000  0.64998000  0.14081000  1.0 1.4282244044
Ga  Ga4  1  0.17115000  0.35002000  0.85919000  1.0 1.4282244044
P  P1  1  0.05323000  0.03590000  0.21716000  1.0 1.5812641876
P  P2  1  0.94677000  0.96410000  0.78284000  1.0 1.5812641876
P  P3  1  0.45315000  0.73223000  0.99019000  1.0 1.5812641876
P  P4  1  0.54685000  0.26777000  0.00981000  1.0 1.5812641876
C  C1  1  0.92330000  0.48920000  0.92710000  1.0 0.5058257776
C  C2  1  0.07670000  0.51080000  0.07290000  1.0 0.5058257776
O  O1  1  0.89990000  0.09310000  0.13340000  1.0 -0.717971961
O  O2  1  0.10010000  0.90690000  0.86660000  1.0 -0.717971961
O  O3  1  0.76950000  0.89330000  0.80090000  1.0 -0.7008856339
O  O4  1  0.23050000  0.10670000  0.19910000  1.0 -0.7008856339
O  O5  1  0.99300000  0.84370000  0.14650000  1.0 -0.7956934375
O  O6  1  0.00700000  0.15630000  0.85350000  1.0 -0.7956934375
O  O7  1  0.10020000  0.11260000  0.37740000  1.0 -0.7008856339
O  O8  1  0.89980000  0.88740000  0.62260000  1.0 -0.7008856339
O  O9  1  0.62440000  0.73090000  0.10550000  1.0 -0.7008856339
O  O10  1  0.37560000  0.26910000  0.89450000  1.0 -0.7075804475
O  O11  1  0.50800000  0.83330000  0.90970000  1.0 -0.7251222534
O  O12  1  0.49200000  0.16670000  0.09030000  1.0 -0.7251222534
O  O13  1  0.64190000  0.17650000  0.92530000  1.0 -0.7075804475
O  O14  1  0.35810000  0.82350000  0.07470000  1.0 -0.7075804475
O  O15  1  0.68110000  0.44230000  0.12700000  1.0 -0.7365526063
O  O16  1  0.31890000  0.55770000  0.87300000  1.0 -0.7365526063
O  O17  1  0.78850000  0.53520000  0.93260000  1.0 -0.4533078624
O  O18  1  0.21150000  0.46480000  0.06740000  1.0 -0.4533078624
O  O19  1  0.05270000  0.57090000  0.18440000  1.0 -0.424703042
O  O20  1  0.94730000  0.42910000  0.81560000  1.0 -0.424703042
O  O21  1  0.27860000  0.99210000  0.61730000  1.0 -0.2074428303
O  O22  1  0.72140000  0.00790000  0.38270000  1.0 -0.2074428303
F  F1  1  0.91070000  0.74870000  0.34390000  1.0 -0.484205584
F  F2  1  0.08930000  0.25130000  0.65610000  1.0 -0.4855331583
