# DDEC6 charges by PACMAN v1.1 (https://github.com/mtap-research/PACMAN-charge/)
data_FOFTIF_FSR_pacman
_symmetry_space_group_name_H-M   'P 1'
_cell_length_a   16.49180000
_cell_length_b   16.83820000
_cell_length_c   18.48830000
_cell_angle_alpha   69.53900000
_cell_angle_beta   66.78600000
_cell_angle_gamma   63.79200000
_symmetry_Int_Tables_number   1
_chemical_formula_structural   Cd3H40C64(NO7)2
_chemical_formula_sum   'Cd6 H80 C128 N4 O28'
_cell_volume   4136.34030254
_cell_formula_units_Z   2
loop_
 _symmetry_equiv_pos_site_id
 _symmetry_equiv_pos_as_xyz
  1  'x, y, z'
loop_
 _atom_site_type_symbol
 _atom_site_label
 _atom_site_symmetry_multiplicity
 _atom_site_fract_x
 _atom_site_fract_y
 _atom_site_fract_z
 _atom_site_occupancy
 _atom_site_charge
Cd  Cd1  1  0.47832000  0.77534000  0.45499000  1.0 0.9138135046
Cd  Cd2  1  0.55525000  0.70510000  0.25213000  1.0 1.0864453793
Cd  Cd3  1  0.62583000  0.62603000  0.06084000  1.0 0.9138135046
Cd  Cd4  1  0.52168000  0.22466000  0.54501000  1.0 0.9138135046
Cd  Cd5  1  0.44475000  0.29490000  0.74787000  1.0 1.0864453793
Cd  Cd6  1  0.37417000  0.37397000  0.93916000  1.0 0.9138135046
H  H1  1  0.60300000  0.51500000  0.28600000  1.0 0.3477543176
H  H2  1  0.54000000  0.54600000  0.24300000  1.0 0.3422399343
H  H3  1  0.49600000  0.61210000  0.61600000  1.0 0.1025660143
H  H4  1  0.53280000  0.57600000  0.73530000  1.0 0.1420396199
H  H5  1  0.47390000  0.84110000  0.71230000  1.0 0.145404774
H  H6  1  0.44370000  0.87000000  0.59140000  1.0 0.1121130462
H  H7  1  0.48760000  0.58360000  0.87700000  1.0 0.1420396199
H  H8  1  0.52930000  0.56310000  0.98890000  1.0 0.1121130462
H  H9  1  0.64220000  0.75070000  0.88260000  1.0 0.1191840274
H  H10  1  0.60670000  0.77760000  0.76590000  1.0 0.1420396199
H  H11  1  0.32050000  0.71610000  0.32080000  1.0 0.1191840274
H  H12  1  0.23820000  0.64350000  0.30530000  1.0 0.1191840274
H  H13  1  0.30670000  0.44090000  0.49460000  1.0 0.1121130462
H  H14  1  0.38630000  0.51470000  0.51130000  1.0 0.1290368319
H  H15  1  0.09330000  0.59680000  0.37370000  1.0 0.1191840274
H  H16  1  0.07220000  0.35770000  0.40110000  1.0 0.1121130462
H  H17  1  0.30870000  0.36270000  0.41140000  1.0 0.1121130462
H  H18  1  0.94080000  0.64460000  0.41740000  1.0 0.1121130462
H  H19  1  0.79020000  0.72040000  0.40450000  1.0 0.1191840274
H  H20  1  0.81580000  0.51940000  0.31700000  1.0 0.1290368319
H  H21  1  0.96710000  0.44050000  0.33240000  1.0 0.1191840274
H  H22  1  0.16630000  0.22490000  0.36530000  1.0 0.1191840274
H  H23  1  0.23810000  0.06790000  0.38300000  1.0 0.1191840274
H  H24  1  0.41080000  0.07350000  0.48560000  1.0 0.1191840274
H  H25  1  0.33070000  0.22770000  0.47670000  1.0 0.1121130462
H  H26  1  0.33550000  0.70500000  0.07370000  1.0 0.1191840274
H  H27  1  0.18430000  0.78050000  0.06040000  1.0 0.1191840274
H  H28  1  0.12870000  0.94730000  0.20000000  1.0 0.1191840274
H  H29  1  0.28100000  0.87440000  0.21080000  1.0 0.1290368319
H  H30  1  0.02260000  0.81040000  0.11770000  1.0 0.1121130462
H  H31  1  0.80030000  0.04420000  0.09310000  1.0 0.1121130462
H  H32  1  0.03240000  0.04590000  0.11990000  1.0 0.1121130462
H  H33  1  0.88300000  0.76080000  0.18890000  1.0 0.1191840274
H  H34  1  0.79920000  0.68570000  0.17850000  1.0 0.1191840274
H  H35  1  0.73120000  0.88320000  0.98730000  1.0 0.1191840274
H  H36  1  0.80830000  0.96130000  0.00140000  1.0 0.1121130462
H  H37  1  0.73290000  0.15410000  0.17600000  1.0 0.1121130462
H  H38  1  0.65360000  0.31060000  0.16470000  1.0 0.1025660143
H  H39  1  0.89880000  0.35040000  0.02610000  1.0 0.1290368319
H  H40  1  0.97640000  0.19450000  0.03710000  1.0 0.1121130462
H  H41  1  0.39700000  0.48500000  0.71400000  1.0 0.3477543176
H  H42  1  0.46000000  0.45400000  0.75700000  1.0 0.3422399343
H  H43  1  0.50400000  0.38790000  0.38400000  1.0 0.1025660143
H  H44  1  0.46720000  0.42400000  0.26470000  1.0 0.1420396199
H  H45  1  0.52610000  0.15890000  0.28770000  1.0 0.145404774
H  H46  1  0.55630000  0.13000000  0.40860000  1.0 0.1121130462
H  H47  1  0.51240000  0.41640000  0.12300000  1.0 0.1420396199
H  H48  1  0.47070000  0.43690000  0.01110000  1.0 0.1121130462
H  H49  1  0.35780000  0.24930000  0.11740000  1.0 0.1191840274
H  H50  1  0.39330000  0.22240000  0.23410000  1.0 0.1420396199
H  H51  1  0.67950000  0.28390000  0.67920000  1.0 0.1191840274
H  H52  1  0.76180000  0.35650000  0.69470000  1.0 0.1191840274
H  H53  1  0.69330000  0.55910000  0.50540000  1.0 0.1121130462
H  H54  1  0.61370000  0.48530000  0.48870000  1.0 0.1290368319
H  H55  1  0.90670000  0.40320000  0.62630000  1.0 0.1191840274
H  H56  1  0.92780000  0.64230000  0.59890000  1.0 0.1121130462
H  H57  1  0.69130000  0.63730000  0.58860000  1.0 0.1121130462
H  H58  1  0.05920000  0.35540000  0.58260000  1.0 0.1121130462
H  H59  1  0.20980000  0.27960000  0.59550000  1.0 0.1191840274
H  H60  1  0.18420000  0.48060000  0.68300000  1.0 0.1290368319
H  H61  1  0.03290000  0.55950000  0.66760000  1.0 0.1191840274
H  H62  1  0.83370000  0.77510000  0.63470000  1.0 0.1191840274
H  H63  1  0.76190000  0.93210000  0.61700000  1.0 0.1191840274
H  H64  1  0.58920000  0.92650000  0.51440000  1.0 0.1191840274
H  H65  1  0.66930000  0.77230000  0.52330000  1.0 0.1121130462
H  H66  1  0.66450000  0.29500000  0.92630000  1.0 0.1191840274
H  H67  1  0.81570000  0.21950000  0.93960000  1.0 0.1191840274
H  H68  1  0.87130000  0.05270000  0.80000000  1.0 0.1191840274
H  H69  1  0.71900000  0.12560000  0.78920000  1.0 0.1290368319
H  H70  1  0.97740000  0.18960000  0.88230000  1.0 0.1121130462
H  H71  1  0.19970000  0.95580000  0.90690000  1.0 0.1121130462
H  H72  1  0.96760000  0.95410000  0.88010000  1.0 0.1121130462
H  H73  1  0.11700000  0.23920000  0.81110000  1.0 0.1191840274
H  H74  1  0.20080000  0.31430000  0.82150000  1.0 0.1191840274
H  H75  1  0.26880000  0.11680000  0.01270000  1.0 0.1191840274
H  H76  1  0.19170000  0.03870000  0.99860000  1.0 0.1121130462
H  H77  1  0.26710000  0.84590000  0.82400000  1.0 0.1121130462
H  H78  1  0.34640000  0.68940000  0.83530000  1.0 0.1025660143
H  H79  1  0.10120000  0.64960000  0.97390000  1.0 0.1290368319
H  H80  1  0.02360000  0.80550000  0.96290000  1.0 0.1121130462
C  C1  1  0.49420000  0.65910000  0.63440000  1.0 0.0898114361
C  C2  1  0.51590000  0.63700000  0.70630000  1.0 -0.1912650342
C  C3  1  0.51290000  0.70350000  0.73530000  1.0 0.1121130462
C  C4  1  0.48200000  0.79230000  0.69240000  1.0 -0.1842480048
C  C5  1  0.46310000  0.80920000  0.62060000  1.0 0.0898114361
C  C6  1  0.54080000  0.68340000  0.80780000  1.0 0.1191840274
C  C7  1  0.51970000  0.61910000  0.87610000  1.0 -0.1842480048
C  C8  1  0.54520000  0.60700000  0.94250000  1.0 0.0806220885
C  C9  1  0.61110000  0.71590000  0.88050000  1.0 0.0898114361
C  C10  1  0.58950000  0.73320000  0.81110000  1.0 -0.1912650342
C  C11  1  0.41150000  0.67000000  0.42940000  1.0 0.573300171
C  C12  1  0.36090000  0.62260000  0.41830000  1.0 -0.029450706
C  C13  1  0.31680000  0.66050000  0.35640000  1.0 -0.0983798488
C  C14  1  0.26830000  0.61730000  0.34690000  1.0 -0.151145811
C  C15  1  0.26370000  0.53510000  0.39870000  1.0 0.0708311851
C  C16  1  0.30900000  0.49730000  0.45970000  1.0 -0.1403743147
C  C17  1  0.35660000  0.54070000  0.46950000  1.0 -0.0983798488
C  C18  1  0.20970000  0.48650000  0.39450000  1.0 0.0898114361
C  C19  1  0.11920000  0.53260000  0.38320000  1.0 -0.1912650342
C  C20  1  0.06710000  0.48410000  0.38600000  1.0 0.0806220885
C  C21  1  0.10780000  0.39080000  0.39830000  1.0 -0.2005091615
C  C22  1  0.19800000  0.34310000  0.40680000  1.0 0.0898114361
C  C23  1  0.24710000  0.39370000  0.40500000  1.0 -0.1912650342
C  C24  1  0.97120000  0.53390000  0.37730000  1.0 0.0806220885
C  C25  1  0.91590000  0.61780000  0.39780000  1.0 -0.151145811
C  C26  1  0.82580000  0.66310000  0.39020000  1.0 -0.0903918787
C  C27  1  0.78620000  0.62700000  0.36230000  1.0 -0.0417118986
C  C28  1  0.84070000  0.54410000  0.33880000  1.0 -0.0983798488
C  C29  1  0.93140000  0.49760000  0.34720000  1.0 -0.1580087239
C  C30  1  0.68630000  0.67150000  0.35930000  1.0 0.5794712782
C  C31  1  0.24260000  0.24230000  0.41770000  1.0 0.0708311851
C  C32  1  0.21530000  0.19400000  0.39070000  1.0 -0.1580087239
C  C33  1  0.25880000  0.10080000  0.40030000  1.0 -0.0983798488
C  C34  1  0.33310000  0.05500000  0.43510000  1.0 -0.0170076054
C  C35  1  0.36010000  0.10360000  0.46220000  1.0 -0.0903918787
C  C36  1  0.31360000  0.19560000  0.45530000  1.0 -0.151145811
C  C37  1  0.38470000  0.95450000  0.44120000  1.0 0.5445016504
C  C38  1  0.42180000  0.73550000  0.15060000  1.0 0.5794712782
C  C39  1  0.32310000  0.78410000  0.14280000  1.0 -0.0417118986
C  C40  1  0.29380000  0.75500000  0.09860000  1.0 -0.0983798488
C  C41  1  0.20380000  0.79950000  0.09150000  1.0 -0.151145811
C  C42  1  0.14020000  0.87210000  0.12870000  1.0 0.0806220885
C  C43  1  0.17070000  0.89860000  0.17350000  1.0 -0.1580087239
C  C44  1  0.26110000  0.85510000  0.18010000  1.0 -0.0903918787
C  C45  1  0.04310000  0.91970000  0.12040000  1.0 0.0806220885
C  C46  1  0.99360000  0.87390000  0.11460000  1.0 -0.2005091615
C  C47  1  0.90440000  0.91710000  0.10450000  1.0 0.0806220885
C  C48  1  0.86150000  0.01270000  0.10040000  1.0 -0.2005091615
C  C49  1  0.90860000  0.06030000  0.10700000  1.0 0.0898114361
C  C50  1  0.99970000  0.01360000  0.11630000  1.0 -0.2005091615
C  C51  1  0.85360000  0.86810000  0.09790000  1.0 0.0708311851
C  C52  1  0.85110000  0.78650000  0.14850000  1.0 -0.151145811
C  C53  1  0.80240000  0.74080000  0.14160000  1.0 -0.0903918787
C  C54  1  0.75840000  0.77600000  0.08070000  1.0 -0.0417118986
C  C55  1  0.76130000  0.85860000  0.02870000  1.0 -0.0843680396
C  C56  1  0.80750000  0.90480000  0.03670000  1.0 -0.151145811
C  C57  1  0.70770000  0.72790000  0.07220000  1.0 0.5875723839
C  C58  1  0.86110000  0.15850000  0.10440000  1.0 0.0806220885
C  C59  1  0.76650000  0.19410000  0.14390000  1.0 -0.151145811
C  C60  1  0.71900000  0.28740000  0.13790000  1.0 -0.1082441144
C  C61  1  0.76860000  0.34630000  0.09200000  1.0 -0.029450706
C  C62  1  0.86420000  0.31080000  0.05570000  1.0 -0.0903918787
C  C63  1  0.91050000  0.21780000  0.06200000  1.0 -0.151145811
C  C64  1  0.71680000  0.44540000  0.08400000  1.0 0.5520679832
C  C65  1  0.50580000  0.34090000  0.36560000  1.0 0.0898114361
C  C66  1  0.48410000  0.36300000  0.29370000  1.0 -0.1912650342
C  C67  1  0.48710000  0.29650000  0.26470000  1.0 0.1121130462
C  C68  1  0.51800000  0.20770000  0.30760000  1.0 -0.1842480048
C  C69  1  0.53690000  0.19080000  0.37940000  1.0 0.0898114361
C  C70  1  0.45920000  0.31660000  0.19220000  1.0 0.1191840274
C  C71  1  0.48030000  0.38090000  0.12390000  1.0 -0.1842480048
C  C72  1  0.45480000  0.39300000  0.05750000  1.0 0.0806220885
C  C73  1  0.38890000  0.28410000  0.11950000  1.0 0.0898114361
C  C74  1  0.41050000  0.26680000  0.18890000  1.0 -0.1912650342
C  C75  1  0.58850000  0.33000000  0.57060000  1.0 0.573300171
C  C76  1  0.63910000  0.37740000  0.58170000  1.0 -0.029450706
C  C77  1  0.68320000  0.33950000  0.64360000  1.0 -0.0983798488
C  C78  1  0.73170000  0.38270000  0.65310000  1.0 -0.151145811
C  C79  1  0.73630000  0.46490000  0.60130000  1.0 0.0708311851
C  C80  1  0.69100000  0.50270000  0.54030000  1.0 -0.1403743147
C  C81  1  0.64340000  0.45930000  0.53050000  1.0 -0.0983798488
C  C82  1  0.79030000  0.51350000  0.60550000  1.0 0.0898114361
C  C83  1  0.88080000  0.46740000  0.61680000  1.0 -0.1912650342
C  C84  1  0.93290000  0.51590000  0.61400000  1.0 0.0806220885
C  C85  1  0.89220000  0.60920000  0.60170000  1.0 -0.2005091615
C  C86  1  0.80200000  0.65690000  0.59320000  1.0 0.0898114361
C  C87  1  0.75290000  0.60630000  0.59500000  1.0 -0.1912650342
C  C88  1  0.02880000  0.46610000  0.62270000  1.0 0.0806220885
C  C89  1  0.08410000  0.38220000  0.60220000  1.0 -0.151145811
C  C90  1  0.17420000  0.33690000  0.60980000  1.0 -0.0903918787
C  C91  1  0.21380000  0.37300000  0.63770000  1.0 -0.0417118986
C  C92  1  0.15930000  0.45590000  0.66120000  1.0 -0.0983798488
C  C93  1  0.06860000  0.50240000  0.65280000  1.0 -0.1580087239
C  C94  1  0.31370000  0.32850000  0.64070000  1.0 0.5794712782
C  C95  1  0.75740000  0.75770000  0.58230000  1.0 0.0708311851
C  C96  1  0.78470000  0.80600000  0.60930000  1.0 -0.1580087239
C  C97  1  0.74120000  0.89920000  0.59970000  1.0 -0.0983798488
C  C98  1  0.66690000  0.94500000  0.56490000  1.0 -0.0170076054
C  C99  1  0.63990000  0.89640000  0.53780000  1.0 -0.0903918787
C  C100  1  0.68640000  0.80440000  0.54470000  1.0 -0.151145811
C  C101  1  0.61530000  0.04550000  0.55880000  1.0 0.5445016504
C  C102  1  0.57820000  0.26450000  0.84940000  1.0 0.5794712782
C  C103  1  0.67690000  0.21590000  0.85720000  1.0 -0.0417118986
C  C104  1  0.70620000  0.24500000  0.90140000  1.0 -0.0983798488
C  C105  1  0.79620000  0.20050000  0.90850000  1.0 -0.151145811
C  C106  1  0.85980000  0.12790000  0.87130000  1.0 0.0806220885
C  C107  1  0.82930000  0.10140000  0.82650000  1.0 -0.1580087239
C  C108  1  0.73890000  0.14490000  0.81990000  1.0 -0.0903918787
C  C109  1  0.95690000  0.08030000  0.87960000  1.0 0.0806220885
C  C110  1  0.00640000  0.12610000  0.88540000  1.0 -0.2005091615
C  C111  1  0.09560000  0.08290000  0.89550000  1.0 0.0806220885
C  C112  1  0.13850000  0.98730000  0.89960000  1.0 -0.2005091615
C  C113  1  0.09140000  0.93970000  0.89300000  1.0 0.0898114361
C  C114  1  0.00030000  0.98640000  0.88370000  1.0 -0.2005091615
C  C115  1  0.14640000  0.13190000  0.90210000  1.0 0.0708311851
C  C116  1  0.14890000  0.21350000  0.85150000  1.0 -0.151145811
C  C117  1  0.19760000  0.25920000  0.85840000  1.0 -0.0903918787
C  C118  1  0.24160000  0.22400000  0.91930000  1.0 -0.0417118986
C  C119  1  0.23870000  0.14140000  0.97130000  1.0 -0.0903918787
C  C120  1  0.19250000  0.09520000  0.96330000  1.0 -0.151145811
C  C121  1  0.29230000  0.27210000  0.92780000  1.0 0.5875723839
C  C122  1  0.13890000  0.84150000  0.89560000  1.0 0.0806220885
C  C123  1  0.23350000  0.80590000  0.85610000  1.0 -0.151145811
C  C124  1  0.28100000  0.71260000  0.86210000  1.0 -0.1082441144
C  C125  1  0.23140000  0.65370000  0.90800000  1.0 -0.029450706
C  C126  1  0.13580000  0.68920000  0.94430000  1.0 -0.0903918787
C  C127  1  0.08950000  0.78220000  0.93800000  1.0 -0.151145811
C  C128  1  0.28320000  0.55460000  0.91600000  1.0 0.5520679832
N  N1  1  0.47110000  0.74300000  0.59070000  1.0 -0.2296932459
N  N2  1  0.59120000  0.65350000  0.94520000  1.0 -0.2296932459
N  N3  1  0.52890000  0.25700000  0.40930000  1.0 -0.2296932459
N  N4  1  0.40880000  0.34650000  0.05480000  1.0 -0.2296932459
O  O1  1  0.56070000  0.56190000  0.26870000  1.0 -0.6822321534
O  O2  1  0.42090000  0.65620000  0.49600000  1.0 -0.5116184473
O  O3  1  0.53600000  0.85420000  0.23590000  1.0 -0.2956502705
O  O4  1  0.43830000  0.73010000  0.37030000  1.0 -0.5609579503
O  O5  1  0.66410000  0.64970000  0.31480000  1.0 -0.5499925335
O  O6  1  0.63270000  0.72720000  0.40470000  1.0 -0.5406409961
O  O7  1  0.34660000  0.90620000  0.43630000  1.0 -0.5291436433
O  O8  1  0.46520000  0.92200000  0.45040000  1.0 -0.5499925335
O  O9  1  0.44800000  0.76930000  0.18480000  1.0 -0.5406409961
O  O10  1  0.47170000  0.66570000  0.12270000  1.0 -0.5609579503
O  O11  1  0.67580000  0.67380000  0.13340000  1.0 -0.5869228363
O  O12  1  0.69480000  0.74010000  0.00560000  1.0 -0.5406409961
O  O13  1  0.76050000  0.49830000  0.04020000  1.0 -0.5193418979
O  O14  1  0.62920000  0.47640000  0.11870000  1.0 -0.582367134
O  O15  1  0.43930000  0.43810000  0.73130000  1.0 -0.6822321534
O  O16  1  0.57910000  0.34380000  0.50400000  1.0 -0.5116184473
O  O17  1  0.46400000  0.14580000  0.76410000  1.0 -0.2956502705
O  O18  1  0.56170000  0.26990000  0.62970000  1.0 -0.5609579503
O  O19  1  0.33590000  0.35030000  0.68520000  1.0 -0.5406409961
O  O20  1  0.36730000  0.27280000  0.59530000  1.0 -0.5406409961
O  O21  1  0.65340000  0.09380000  0.56370000  1.0 -0.5291436433
O  O22  1  0.53480000  0.07800000  0.54960000  1.0 -0.5499925335
O  O23  1  0.55200000  0.23070000  0.81520000  1.0 -0.5406409961
O  O24  1  0.52830000  0.33430000  0.87730000  1.0 -0.5609579503
O  O25  1  0.32420000  0.32620000  0.86660000  1.0 -0.5869228363
O  O26  1  0.30520000  0.25990000  0.99440000  1.0 -0.5406409961
O  O27  1  0.23950000  0.50170000  0.95980000  1.0 -0.5193418979
O  O28  1  0.37080000  0.52360000  0.88130000  1.0 -0.582367134
