# DDEC6 charges by PACMAN v1.1 (https://github.com/mtap-research/PACMAN-charge/)
data_FOFTOL_ASR_pacman
_symmetry_space_group_name_H-M   'P 1'
_cell_length_a   16.61100000
_cell_length_b   16.72300000
_cell_length_c   19.28800000
_cell_angle_alpha   78.53700000
_cell_angle_beta   65.24300000
_cell_angle_gamma   62.35100000
_symmetry_Int_Tables_number   1
_chemical_formula_structural   Cd3H42C68(N2O7)2
_chemical_formula_sum   'Cd6 H84 C136 N8 O28'
_cell_volume   4309.82508742
_cell_formula_units_Z   2
loop_
 _symmetry_equiv_pos_site_id
 _symmetry_equiv_pos_as_xyz
  1  'x, y, z'
loop_
 _atom_site_type_symbol
 _atom_site_label
 _atom_site_symmetry_multiplicity
 _atom_site_fract_x
 _atom_site_fract_y
 _atom_site_fract_z
 _atom_site_occupancy
 _atom_site_charge
Cd  Cd1  1  0.87702000  0.28781000  0.55986000  1.0 0.8452685964
Cd  Cd2  1  0.79493000  0.15902000  0.74425000  1.0 1.0401014281
Cd  Cd3  1  0.71078000  0.04440000  0.93672000  1.0 0.8942963076
Cd  Cd4  1  0.12298000  0.71219000  0.44014000  1.0 0.8452685964
Cd  Cd5  1  0.20507000  0.84098000  0.25575000  1.0 1.0401014281
Cd  Cd6  1  0.28922000  0.95560000  0.06328000  1.0 0.8942963076
H  H1  1  0.00160000  0.37390000  0.42240000  1.0 0.0883291897
H  H2  1  0.13720000  0.34020000  0.30680000  1.0 0.1413896602
H  H3  1  0.20810000  0.07640000  0.36550000  1.0 0.1413896602
H  H4  1  0.06450000  0.11830000  0.46770000  1.0 0.1113068203
H  H5  1  0.35170000  0.11590000  0.12210000  1.0 0.1413896602
H  H6  1  0.48680000  0.09240000  0.00680000  1.0 0.1010169751
H  H7  1  0.65930000  0.02250000  0.11970000  1.0 0.1113068203
H  H8  1  0.52810000  0.05190000  0.23510000  1.0 0.1307255444
H  H9  1  0.81950000  0.06270000  0.48020000  1.0 0.1191957275
H  H10  1  0.72610000  0.98800000  0.49070000  1.0 0.1010169751
H  H11  1  0.52430000  0.12160000  0.68620000  1.0 0.1113068203
H  H12  1  0.62440000  0.18800000  0.67930000  1.0 0.1113068203
H  H13  1  0.67540000  0.87380000  0.58150000  1.0 0.1113068203
H  H14  1  0.42630000  0.86310000  0.61250000  1.0 0.1113068203
H  H15  1  0.42650000  0.10210000  0.62150000  1.0 0.1191957275
H  H16  1  0.55440000  0.73540000  0.52470000  1.0 0.1010169751
H  H17  1  0.64220000  0.58030000  0.51290000  1.0 0.1010169751
H  H18  1  0.77450000  0.57990000  0.64910000  1.0 0.1010169751
H  H19  1  0.67720000  0.73480000  0.66510000  1.0 0.0883291897
H  H20  1  0.26770000  0.93210000  0.69230000  1.0 0.1113068203
H  H21  1  0.10700000  0.99900000  0.70050000  1.0 0.1307255444
H  H22  1  0.13980000  0.22080000  0.59360000  1.0 0.1191957275
H  H23  1  0.29860000  0.15610000  0.58690000  1.0 0.1113068203
H  H24  1  0.48370000  0.32070000  0.78060000  1.0 0.1191957275
H  H25  1  0.32310000  0.38940000  0.78880000  1.0 0.1113068203
H  H26  1  0.27610000  0.18030000  0.91290000  1.0 0.1113068203
H  H27  1  0.43760000  0.11300000  0.90790000  1.0 0.1010169751
H  H28  1  0.15860000  0.23400000  0.85780000  1.0 0.1191957275
H  H29  1  0.91220000  0.46510000  0.89760000  1.0 0.1113068203
H  H30  1  0.16680000  0.46900000  0.86920000  1.0 0.1113068203
H  H31  1  0.90430000  0.60240000  0.82520000  1.0 0.1113068203
H  H32  1  0.82760000  0.75730000  0.83310000  1.0 0.1010169751
H  H33  1  0.95790000  0.74940000  0.97150000  1.0 0.1113068203
H  H34  1  0.04980000  0.59600000  0.94940000  1.0 0.1010169751
H  H35  1  0.06940000  0.20470000  0.79770000  1.0 0.1113068203
H  H36  1  0.97520000  0.13320000  0.81040000  1.0 0.1113068203
H  H37  1  0.76230000  0.28170000  0.99630000  1.0 0.1113068203
H  H38  1  0.85230000  0.36280000  0.97970000  1.0 0.1191957275
H  H39  1  0.51600000  0.72000000  0.68820000  1.0 0.1010169751
H  H40  1  0.59020000  0.56650000  0.66290000  1.0 0.1010169751
H  H41  1  0.83630000  0.59120000  0.52280000  1.0 0.1113068203
H  H42  1  0.74860000  0.74670000  0.53520000  1.0 0.1010169751
H  H43  1  0.99840000  0.62610000  0.57760000  1.0 0.0883291897
H  H44  1  0.86280000  0.65980000  0.69320000  1.0 0.1413896602
H  H45  1  0.79190000  0.92360000  0.63450000  1.0 0.1413896602
H  H46  1  0.93550000  0.88170000  0.53230000  1.0 0.1113068203
H  H47  1  0.64830000  0.88410000  0.87790000  1.0 0.1454793853
H  H48  1  0.51320000  0.90760000  0.99320000  1.0 0.1010169751
H  H49  1  0.34070000  0.97750000  0.88030000  1.0 0.1113068203
H  H50  1  0.47190000  0.94810000  0.76490000  1.0 0.1307255444
H  H51  1  0.18050000  0.93730000  0.51980000  1.0 0.1191957275
H  H52  1  0.27390000  0.01200000  0.50930000  1.0 0.1010169751
H  H53  1  0.47570000  0.87840000  0.31380000  1.0 0.1113068203
H  H54  1  0.37560000  0.81200000  0.32070000  1.0 0.1113068203
H  H55  1  0.32460000  0.12620000  0.41850000  1.0 0.1113068203
H  H56  1  0.57370000  0.13690000  0.38750000  1.0 0.1113068203
H  H57  1  0.57350000  0.89790000  0.37850000  1.0 0.1191957275
H  H58  1  0.44560000  0.26460000  0.47530000  1.0 0.1010169751
H  H59  1  0.35780000  0.41970000  0.48710000  1.0 0.1010169751
H  H60  1  0.22550000  0.42010000  0.35090000  1.0 0.1010169751
H  H61  1  0.32280000  0.26520000  0.33490000  1.0 0.0883291897
H  H62  1  0.73230000  0.06790000  0.30770000  1.0 0.1113068203
H  H63  1  0.89300000  0.00100000  0.29950000  1.0 0.1307255444
H  H64  1  0.86020000  0.77920000  0.40640000  1.0 0.1191957275
H  H65  1  0.70140000  0.84390000  0.41310000  1.0 0.1113068203
H  H66  1  0.51630000  0.67930000  0.21940000  1.0 0.1191957275
H  H67  1  0.67690000  0.61060000  0.21120000  1.0 0.1113068203
H  H68  1  0.72390000  0.81970000  0.08710000  1.0 0.1113068203
H  H69  1  0.56240000  0.88700000  0.09210000  1.0 0.1010169751
H  H70  1  0.84140000  0.76600000  0.14220000  1.0 0.1191957275
H  H71  1  0.08780000  0.53490000  0.10240000  1.0 0.1113068203
H  H72  1  0.83320000  0.53100000  0.13080000  1.0 0.1113068203
H  H73  1  0.09570000  0.39760000  0.17480000  1.0 0.1113068203
H  H74  1  0.17240000  0.24270000  0.16690000  1.0 0.1010169751
H  H75  1  0.04210000  0.25060000  0.02850000  1.0 0.1113068203
H  H76  1  0.95020000  0.40400000  0.05060000  1.0 0.1010169751
H  H77  1  0.93060000  0.79530000  0.20230000  1.0 0.1113068203
H  H78  1  0.02480000  0.86680000  0.18960000  1.0 0.1113068203
H  H79  1  0.23770000  0.71830000  0.00370000  1.0 0.1113068203
H  H80  1  0.14770000  0.63720000  0.02030000  1.0 0.1191957275
H  H81  1  0.48400000  0.28000000  0.31180000  1.0 0.1010169751
H  H82  1  0.40980000  0.43350000  0.33710000  1.0 0.1010169751
H  H83  1  0.16370000  0.40880000  0.47720000  1.0 0.1113068203
H  H84  1  0.25140000  0.25330000  0.46480000  1.0 0.1010169751
C  C1  1  0.04330000  0.31240000  0.40840000  1.0 0.0883291897
C  C2  1  0.12490000  0.29380000  0.34050000  1.0 -0.2102342758
C  C3  1  0.18840000  0.20100000  0.32510000  1.0 0.1731990245
C  C4  1  0.16490000  0.13870000  0.37450000  1.0 -0.1826580944
C  C5  1  0.08130000  0.16380000  0.43580000  1.0 0.0696171094
C  C6  1  0.42590000  0.09410000  0.18810000  1.0 0.1836203825
C  C7  1  0.41440000  0.10040000  0.12220000  1.0 -0.1707588243
C  C8  1  0.49540000  0.08400000  0.05380000  1.0 0.0785043952
C  C9  1  0.59530000  0.04440000  0.11970000  1.0 0.0883291897
C  C10  1  0.51810000  0.06180000  0.18850000  1.0 -0.2102342758
C  C11  1  0.79120000  0.18010000  0.57280000  1.0 0.561079998
C  C12  1  0.73060000  0.13390000  0.57840000  1.0 -0.0331491038
C  C13  1  0.75990000  0.07390000  0.52310000  1.0 -0.1095592338
C  C14  1  0.70420000  0.02980000  0.52870000  1.0 -0.1500099384
C  C15  1  0.61750000  0.04720000  0.58970000  1.0 0.0696171094
C  C16  1  0.58580000  0.10790000  0.64490000  1.0 -0.1500099384
C  C17  1  0.64440000  0.14900000  0.63980000  1.0 -0.1095592338
C  C18  1  0.56130000  0.99550000  0.59730000  1.0 0.0785043952
C  C19  1  0.60740000  0.90390000  0.59080000  1.0 -0.2180137742
C  C20  1  0.55790000  0.85330000  0.59730000  1.0 0.0696171094
C  C21  1  0.45980000  0.89700000  0.61080000  1.0 -0.2102342758
C  C22  1  0.40720000  0.99100000  0.62210000  1.0 0.0785043952
C  C23  1  0.45990000  0.03850000  0.61470000  1.0 -0.2009762782
C  C24  1  0.61300000  0.75180000  0.59140000  1.0 0.0444239606
C  C25  1  0.59980000  0.70400000  0.54920000  1.0 -0.1269655782
C  C26  1  0.65110000  0.61250000  0.54250000  1.0 -0.1004173105
C  C27  1  0.71710000  0.56660000  0.57970000  1.0 -0.0200206279
C  C28  1  0.72950000  0.61110000  0.62420000  1.0 -0.0486055602
C  C29  1  0.67370000  0.70340000  0.63130000  1.0 -0.0486055602
C  C30  1  0.77070000  0.46530000  0.57550000  1.0 0.3986594868
C  C31  1  0.30300000  0.03600000  0.63430000  1.0 0.0696171094
C  C32  1  0.24220000  0.99060000  0.67130000  1.0 -0.1580555881
C  C33  1  0.14700000  0.03060000  0.67690000  1.0 -0.1004173105
C  C34  1  0.10850000  0.11630000  0.64870000  1.0 -0.0331491038
C  C35  1  0.16590000  0.16200000  0.61390000  1.0 -0.1004173105
C  C36  1  0.26040000  0.12270000  0.60880000  1.0 -0.1500099384
C  C37  1  0.00280000  0.15950000  0.65320000  1.0 0.561079998
C  C38  1  0.57980000  0.16700000  0.84330000  1.0 0.5705965501
C  C39  1  0.44180000  0.29180000  0.80850000  1.0 -0.1004173105
C  C40  1  0.34610000  0.33310000  0.81360000  1.0 -0.143713336
C  C41  1  0.28430000  0.29380000  0.85400000  1.0 0.0696171094
C  C42  1  0.31800000  0.20980000  0.88750000  1.0 -0.1500099384
C  C43  1  0.41470000  0.16940000  0.88300000  1.0 -0.1095592338
C  C44  1  0.47840000  0.20970000  0.84290000  1.0 -0.039285583
C  C45  1  0.17810000  0.34290000  0.86560000  1.0 0.1010169751
C  C46  1  0.12610000  0.29730000  0.86650000  1.0 -0.1948751617
C  C47  1  0.02800000  0.34310000  0.87970000  1.0 0.0785043952
C  C48  1  0.98040000  0.43510000  0.88780000  1.0 -0.2102342758
C  C49  1  0.03090000  0.48590000  0.88180000  1.0 0.0785043952
C  C50  1  0.13090000  0.43720000  0.87180000  1.0 -0.2102342758
C  C51  1  0.98180000  0.58360000  0.88790000  1.0 0.0626875502
C  C52  1  0.91730000  0.63220000  0.85360000  1.0 -0.1500099384
C  C53  1  0.87050000  0.72410000  0.85960000  1.0 -0.1095592338
C  C54  1  0.88370000  0.77070000  0.90340000  1.0 -0.039285583
C  C55  1  0.94890000  0.72050000  0.93940000  1.0 -0.0907344664
C  C56  1  0.00050000  0.62910000  0.92870000  1.0 -0.1580555881
C  C57  1  0.82400000  0.86860000  0.91310000  1.0 0.5360904527
C  C58  1  0.96840000  0.29280000  0.88660000  1.0 0.0883291897
C  C59  1  0.00590000  0.22230000  0.83680000  1.0 -0.1500099384
C  C60  1  0.95030000  0.17960000  0.84530000  1.0 -0.0907344664
C  C61  1  0.85820000  0.20080000  0.90300000  1.0 -0.0486055602
C  C62  1  0.82340000  0.26810000  0.95470000  1.0 -0.0707611409
C  C63  1  0.87750000  0.31540000  0.94570000  1.0 -0.1707588243
C  C64  1  0.79960000  0.15180000  0.91400000  1.0 0.5705965501
C  C65  1  0.57460000  0.69490000  0.64480000  1.0 -0.0802073288
C  C66  1  0.62180000  0.60400000  0.63390000  1.0 -0.062288947
C  C67  1  0.76710000  0.61780000  0.54870000  1.0 -0.1004173105
C  C68  1  0.71410000  0.70990000  0.55580000  1.0 -0.1004173105
C  C69  1  0.95670000  0.68760000  0.59160000  1.0 0.0883291897
C  C70  1  0.87510000  0.70620000  0.65950000  1.0 -0.2102342758
C  C71  1  0.81160000  0.79900000  0.67490000  1.0 0.1731990245
C  C72  1  0.83510000  0.86130000  0.62550000  1.0 -0.1826580944
C  C73  1  0.91870000  0.83620000  0.56420000  1.0 0.0696171094
C  C74  1  0.57410000  0.90590000  0.81190000  1.0 0.1836203825
C  C75  1  0.58560000  0.89960000  0.87780000  1.0 -0.1707588243
C  C76  1  0.50460000  0.91600000  0.94620000  1.0 0.0785043952
C  C77  1  0.40470000  0.95560000  0.88030000  1.0 0.0883291897
C  C78  1  0.48190000  0.93820000  0.81150000  1.0 -0.2102342758
C  C79  1  0.20880000  0.81990000  0.42720000  1.0 0.561079998
C  C80  1  0.26940000  0.86610000  0.42160000  1.0 -0.0331491038
C  C81  1  0.24010000  0.92610000  0.47690000  1.0 -0.1095592338
C  C82  1  0.29580000  0.97020000  0.47130000  1.0 -0.1500099384
C  C83  1  0.38250000  0.95280000  0.41030000  1.0 0.0696171094
C  C84  1  0.41420000  0.89210000  0.35510000  1.0 -0.1500099384
C  C85  1  0.35560000  0.85100000  0.36020000  1.0 -0.1095592338
C  C86  1  0.43870000  0.00450000  0.40270000  1.0 0.0785043952
C  C87  1  0.39260000  0.09610000  0.40920000  1.0 -0.2180137742
C  C88  1  0.44210000  0.14670000  0.40270000  1.0 0.0696171094
C  C89  1  0.54020000  0.10300000  0.38920000  1.0 -0.2102342758
C  C90  1  0.59280000  0.00900000  0.37790000  1.0 0.0785043952
C  C91  1  0.54010000  0.96150000  0.38530000  1.0 -0.2009762782
C  C92  1  0.38700000  0.24820000  0.40860000  1.0 0.0444239606
C  C93  1  0.40020000  0.29600000  0.45080000  1.0 -0.1269655782
C  C94  1  0.34890000  0.38750000  0.45750000  1.0 -0.1004173105
C  C95  1  0.28290000  0.43340000  0.42030000  1.0 -0.0200206279
C  C96  1  0.27050000  0.38890000  0.37580000  1.0 -0.0486055602
C  C97  1  0.32630000  0.29660000  0.36870000  1.0 -0.0486055602
C  C98  1  0.22930000  0.53470000  0.42450000  1.0 0.3986594868
C  C99  1  0.69700000  0.96400000  0.36570000  1.0 0.0696171094
C  C100  1  0.75780000  0.00940000  0.32870000  1.0 -0.1580555881
C  C101  1  0.85300000  0.96940000  0.32310000  1.0 -0.1004173105
C  C102  1  0.89150000  0.88370000  0.35130000  1.0 -0.0331491038
C  C103  1  0.83410000  0.83800000  0.38610000  1.0 -0.1004173105
C  C104  1  0.73960000  0.87730000  0.39120000  1.0 -0.1500099384
C  C105  1  0.99720000  0.84050000  0.34680000  1.0 0.561079998
C  C106  1  0.42020000  0.83300000  0.15670000  1.0 0.5705965501
C  C107  1  0.55820000  0.70820000  0.19150000  1.0 -0.1004173105
C  C108  1  0.65390000  0.66690000  0.18640000  1.0 -0.143713336
C  C109  1  0.71570000  0.70620000  0.14600000  1.0 0.0696171094
C  C110  1  0.68200000  0.79020000  0.11250000  1.0 -0.1500099384
C  C111  1  0.58530000  0.83060000  0.11700000  1.0 -0.1095592338
C  C112  1  0.52160000  0.79030000  0.15710000  1.0 -0.039285583
C  C113  1  0.82190000  0.65710000  0.13440000  1.0 0.1010169751
C  C114  1  0.87390000  0.70270000  0.13350000  1.0 -0.1948751617
C  C115  1  0.97200000  0.65690000  0.12030000  1.0 0.0785043952
C  C116  1  0.01960000  0.56490000  0.11220000  1.0 -0.2102342758
C  C117  1  0.96910000  0.51410000  0.11820000  1.0 0.0785043952
C  C118  1  0.86910000  0.56280000  0.12820000  1.0 -0.2102342758
C  C119  1  0.01820000  0.41640000  0.11210000  1.0 0.0626875502
C  C120  1  0.08270000  0.36780000  0.14640000  1.0 -0.1500099384
C  C121  1  0.12950000  0.27590000  0.14040000  1.0 -0.1095592338
C  C122  1  0.11630000  0.22930000  0.09660000  1.0 -0.039285583
C  C123  1  0.05110000  0.27950000  0.06060000  1.0 -0.0907344664
C  C124  1  0.99950000  0.37090000  0.07130000  1.0 -0.1580555881
C  C125  1  0.17600000  0.13140000  0.08690000  1.0 0.5360904527
C  C126  1  0.03160000  0.70720000  0.11340000  1.0 0.0883291897
C  C127  1  0.99410000  0.77770000  0.16320000  1.0 -0.1500099384
C  C128  1  0.04970000  0.82040000  0.15470000  1.0 -0.0907344664
C  C129  1  0.14180000  0.79920000  0.09700000  1.0 -0.0486055602
C  C130  1  0.17660000  0.73190000  0.04530000  1.0 -0.0707611409
C  C131  1  0.12250000  0.68460000  0.05430000  1.0 -0.1707588243
C  C132  1  0.20040000  0.84820000  0.08600000  1.0 0.5705965501
C  C133  1  0.42540000  0.30510000  0.35520000  1.0 -0.0802073288
C  C134  1  0.37820000  0.39600000  0.36610000  1.0 -0.062288947
C  C135  1  0.23290000  0.38220000  0.45130000  1.0 -0.1004173105
C  C136  1  0.28590000  0.29010000  0.44420000  1.0 -0.1004173105
N  N1  1  0.02010000  0.25080000  0.45440000  1.0 -0.2392413549
N  N2  1  0.27430000  0.18320000  0.25570000  1.0 -0.0707611409
N  N3  1  0.34520000  0.11290000  0.26060000  1.0 -0.1158444318
N  N4  1  0.58580000  0.05640000  0.05340000  1.0 -0.2480659592
N  N5  1  0.97990000  0.74920000  0.54560000  1.0 -0.2392413549
N  N6  1  0.72570000  0.81680000  0.74430000  1.0 -0.0707611409
N  N7  1  0.65480000  0.88710000  0.73940000  1.0 -0.1095592338
N  N8  1  0.41420000  0.94360000  0.94660000  1.0 -0.2480659592
O  O1  1  0.85890000  0.18020000  0.51140000  1.0 -0.525435071
O  O2  1  0.77520000  0.21810000  0.63000000  1.0 -0.5624239254
O  O3  1  0.95690000  0.11140000  0.67990000  1.0 -0.5696489322
O  O4  1  0.97180000  0.23800000  0.62830000  1.0 -0.5449853945
O  O5  1  0.63340000  0.20510000  0.80100000  1.0 -0.5624239254
O  O6  1  0.60290000  0.09780000  0.88140000  1.0 -0.5480879752
O  O7  1  0.81840000  0.10790000  0.85750000  1.0 -0.5975039113
O  O8  1  0.73830000  0.14820000  0.97780000  1.0 -0.5185689735
O  O9  1  0.78270000  0.91430000  0.86750000  1.0 -0.5480879752
O  O10  1  0.81690000  0.90570000  0.96820000  1.0 -0.5480879752
O  O11  1  0.85700000  0.43060000  0.56950000  1.0 -0.2392413549
O  O12  1  0.75450000  0.42380000  0.53970000  1.0 -0.1095592338
O  O13  1  0.76270000  0.41580000  0.63230000  1.0 -0.2392413549
O  O14  1  0.81130000  0.42870000  0.51240000  1.0 -0.039285583
O  O15  1  0.14110000  0.81980000  0.48860000  1.0 -0.525435071
O  O16  1  0.22480000  0.78190000  0.37000000  1.0 -0.5624239254
O  O17  1  0.04310000  0.88860000  0.32010000  1.0 -0.5696489322
O  O18  1  0.02820000  0.76200000  0.37170000  1.0 -0.5449853945
O  O19  1  0.36660000  0.79490000  0.19900000  1.0 -0.5624239254
O  O20  1  0.39710000  0.90220000  0.11860000  1.0 -0.5480879752
O  O21  1  0.18160000  0.89210000  0.14250000  1.0 -0.5975039113
O  O22  1  0.26170000  0.85180000  0.02220000  1.0 -0.5185689735
O  O23  1  0.21730000  0.08570000  0.13250000  1.0 -0.5480879752
O  O24  1  0.18310000  0.09430000  0.03180000  1.0 -0.5480879752
O  O25  1  0.14300000  0.56940000  0.43050000  1.0 -0.2392413549
O  O26  1  0.24550000  0.57620000  0.46030000  1.0 -0.1095592338
O  O27  1  0.23730000  0.58420000  0.36770000  1.0 -0.2392413549
O  O28  1  0.18870000  0.57130000  0.48760000  1.0 -0.0331491038
