# DDEC6 charges by PACMAN v1.1 (https://github.com/mtap-research/PACMAN-charge/)
data_FOHQUO_FSR_pacman
_symmetry_space_group_name_H-M   'P 1'
_cell_length_a   6.88000000
_cell_length_b   14.36000000
_cell_length_c   15.80000000
_cell_angle_alpha   90.00000000
_cell_angle_beta   101.69000000
_cell_angle_gamma   90.00000000
_symmetry_Int_Tables_number   1
_chemical_formula_structural   SrCoH4C6O13
_chemical_formula_sum   'Sr4 Co4 H16 C24 O52'
_cell_volume   1528.61169170
_cell_formula_units_Z   4
loop_
 _symmetry_equiv_pos_site_id
 _symmetry_equiv_pos_as_xyz
  1  'x, y, z'
loop_
 _atom_site_type_symbol
 _atom_site_label
 _atom_site_symmetry_multiplicity
 _atom_site_fract_x
 _atom_site_fract_y
 _atom_site_fract_z
 _atom_site_occupancy
 _atom_site_charge
Sr  Sr1  1  0.76629000  0.91528000  0.54858000  1.0 1.3641404604
Sr  Sr2  1  0.76629000  0.58472000  0.04858000  1.0 1.3641404604
Sr  Sr3  1  0.23371000  0.08472000  0.45142000  1.0 1.3641404604
Sr  Sr4  1  0.23371000  0.41528000  0.95142000  1.0 1.3641404604
Co  Co1  1  0.77507000  0.73730000  0.79696000  1.0 1.127858231
Co  Co2  1  0.77507000  0.76270000  0.29696000  1.0 1.127858231
Co  Co3  1  0.22493000  0.26270000  0.20304000  1.0 1.127858231
Co  Co4  1  0.22493000  0.23730000  0.70304000  1.0 1.127858231
H  H1  1  0.16450000  0.93680000  0.84740000  1.0 0.1295861212
H  H2  1  0.16450000  0.56320000  0.34740000  1.0 0.1295861212
H  H3  1  0.83550000  0.06320000  0.15260000  1.0 0.1295861212
H  H4  1  0.83550000  0.43680000  0.65260000  1.0 0.1295861212
H  H5  1  0.29230000  0.88410000  0.79250000  1.0 0.1401172872
H  H6  1  0.29230000  0.61590000  0.29250000  1.0 0.1401172872
H  H7  1  0.70770000  0.11590000  0.20750000  1.0 0.1401172872
H  H8  1  0.70770000  0.38410000  0.70750000  1.0 0.1401172872
H  H9  1  0.30980000  0.54100000  0.76660000  1.0 0.1401172872
H  H10  1  0.30980000  0.95900000  0.26660000  1.0 0.1401172872
H  H11  1  0.69020000  0.45900000  0.23340000  1.0 0.1401172872
H  H12  1  0.69020000  0.04100000  0.73340000  1.0 0.1401172872
H  H13  1  0.51050000  0.53800000  0.73520000  1.0 0.1401172872
H  H14  1  0.51050000  0.96200000  0.23520000  1.0 0.1401172872
H  H15  1  0.48950000  0.46200000  0.26480000  1.0 0.1401172872
H  H16  1  0.48950000  0.03800000  0.76480000  1.0 0.1401172872
C  C1  1  0.00560000  0.89140000  0.73460000  1.0 0.6730507707
C  C2  1  0.00560000  0.60860000  0.23460000  1.0 0.6730507707
C  C3  1  0.99440000  0.10860000  0.26540000  1.0 0.6768419241
C  C4  1  0.99440000  0.39140000  0.76540000  1.0 0.6730507707
C  C5  1  0.16900000  0.88110000  0.81320000  1.0 -0.4975308905
C  C6  1  0.16900000  0.61890000  0.31320000  1.0 -0.4975308905
C  C7  1  0.83100000  0.11890000  0.18680000  1.0 -0.4975308905
C  C8  1  0.83100000  0.38110000  0.68680000  1.0 -0.4975308905
C  C9  1  0.19090000  0.80150000  0.87520000  1.0 0.6730507707
C  C10  1  0.19090000  0.69850000  0.37520000  1.0 0.6730507707
C  C11  1  0.80910000  0.19850000  0.12480000  1.0 0.6730507707
C  C12  1  0.80910000  0.30150000  0.62480000  1.0 0.6730507707
C  C13  1  0.37460000  0.66390000  0.71510000  1.0 0.6730507707
C  C14  1  0.37460000  0.83610000  0.21510000  1.0 0.6730507707
C  C15  1  0.62540000  0.33610000  0.28490000  1.0 0.6730507707
C  C16  1  0.62540000  0.16390000  0.78490000  1.0 0.6730507707
C  C17  1  0.43090000  0.57540000  0.76630000  1.0 -0.5109335388
C  C18  1  0.43090000  0.92460000  0.26630000  1.0 -0.5109335388
C  C19  1  0.56910000  0.42460000  0.23370000  1.0 -0.5109335388
C  C20  1  0.56910000  0.07540000  0.73370000  1.0 -0.5109335388
C  C21  1  0.54320000  0.58350000  0.85920000  1.0 0.6999503915
C  C22  1  0.54320000  0.91650000  0.35920000  1.0 0.6999503915
C  C23  1  0.45680000  0.41650000  0.14080000  1.0 0.6999503915
C  C24  1  0.45680000  0.08350000  0.64080000  1.0 0.6999503915
O  O1  1  0.68260000  0.84130000  0.87310000  1.0 -0.1374901091
O  O2  1  0.68260000  0.65870000  0.37310000  1.0 -0.1342901493
O  O3  1  0.31740000  0.15870000  0.12690000  1.0 -0.1374901091
O  O4  1  0.31740000  0.34130000  0.62690000  1.0 -0.1374901091
O  O5  1  0.87520000  0.62440000  0.72960000  1.0 -0.0867703016
O  O6  1  0.87520000  0.87560000  0.22960000  1.0 -0.0805824584
O  O7  1  0.12480000  0.37560000  0.27040000  1.0 -0.0805824584
O  O8  1  0.12480000  0.12440000  0.77040000  1.0 -0.0867703016
O  O9  1  0.88620000  0.08440000  0.51230000  1.0 -0.1688015962
O  O10  1  0.88620000  0.41560000  0.01230000  1.0 -0.1688015962
O  O11  1  0.11380000  0.91560000  0.48770000  1.0 -0.1688015962
O  O12  1  0.11380000  0.58440000  0.98770000  1.0 -0.1688015962
O  O13  1  0.89900000  0.74630000  0.54610000  1.0 0.079706032
O  O14  1  0.89900000  0.75370000  0.04610000  1.0 0.079706032
O  O15  1  0.10100000  0.25370000  0.45390000  1.0 0.079706032
O  O16  1  0.10100000  0.24630000  0.95390000  1.0 0.079706032
O  O17  1  0.45420000  0.81940000  0.56280000  1.0 0.1123276497
O  O18  1  0.45420000  0.68060000  0.06280000  1.0 0.1219487732
O  O19  1  0.54580000  0.18060000  0.43720000  1.0 0.1123276497
O  O20  1  0.54580000  0.31940000  0.93720000  1.0 0.1123276497
O  O21  1  0.86320000  0.83590000  0.71700000  1.0 -0.640687142
O  O22  1  0.86320000  0.66410000  0.21700000  1.0 -0.640687142
O  O23  1  0.13680000  0.16410000  0.28300000  1.0 -0.640687142
O  O24  1  0.13680000  0.33590000  0.78300000  1.0 -0.640687142
O  O25  1  0.02220000  0.95940000  0.68720000  1.0 -0.5911398808
O  O26  1  0.02220000  0.54060000  0.18720000  1.0 -0.5911398808
O  O27  1  0.97780000  0.04060000  0.31280000  1.0 -0.5911398808
O  O28  1  0.97780000  0.45940000  0.81280000  1.0 -0.5911398808
O  O29  1  0.05170000  0.74420000  0.87460000  1.0 -0.5562695171
O  O30  1  0.05170000  0.75580000  0.37460000  1.0 -0.5562695171
O  O31  1  0.94830000  0.25580000  0.12540000  1.0 -0.5562695171
O  O32  1  0.94830000  0.24420000  0.62540000  1.0 -0.5544800068
O  O33  1  0.35070000  0.79840000  0.92790000  1.0 -0.4500942062
O  O34  1  0.35070000  0.70160000  0.42790000  1.0 -0.4500942062
O  O35  1  0.64930000  0.20160000  0.07210000  1.0 -0.4500942062
O  O36  1  0.64930000  0.29840000  0.57210000  1.0 -0.4500942062
O  O37  1  0.49530000  0.73070000  0.72160000  1.0 -0.5911398808
O  O38  1  0.49530000  0.76930000  0.22160000  1.0 -0.5911398808
O  O39  1  0.50470000  0.26930000  0.27840000  1.0 -0.5911398808
O  O40  1  0.50470000  0.23070000  0.77840000  1.0 -0.5911398808
O  O41  1  0.20890000  0.66620000  0.66590000  1.0 -0.4500942062
O  O42  1  0.20890000  0.83380000  0.16590000  1.0 -0.4500942062
O  O43  1  0.79110000  0.33380000  0.33410000  1.0 -0.4500942062
O  O44  1  0.79110000  0.16620000  0.83410000  1.0 -0.4500942062
O  O45  1  0.68520000  0.63930000  0.87910000  1.0 -0.640687142
O  O46  1  0.68520000  0.86070000  0.37910000  1.0 -0.640687142
O  O47  1  0.31480000  0.36070000  0.12090000  1.0 -0.640687142
O  O48  1  0.31480000  0.13930000  0.62090000  1.0 -0.640687142
O  O49  1  0.49110000  0.53020000  0.91270000  1.0 -0.6344545985
O  O50  1  0.49110000  0.96980000  0.41270000  1.0 -0.640687142
O  O51  1  0.50890000  0.46980000  0.08730000  1.0 -0.640687142
O  O52  1  0.50890000  0.03020000  0.58730000  1.0 -0.640687142
