# DDEC6 charges by PACMAN v1.1 (https://github.com/mtap-research/PACMAN-charge/)
data_FOKYEL_ASR_pacman
_symmetry_space_group_name_H-M   'P 1'
_cell_length_a   13.39200000
_cell_length_b   13.87200000
_cell_length_c   22.21100000
_cell_angle_alpha   105.02300000
_cell_angle_beta   89.01600000
_cell_angle_gamma   103.72400000
_symmetry_Int_Tables_number   1
_chemical_formula_structural   PrH9(C3O)6
_chemical_formula_sum   'Pr6 H54 C108 O36'
_cell_volume   3867.09565824
_cell_formula_units_Z   6
loop_
 _symmetry_equiv_pos_site_id
 _symmetry_equiv_pos_as_xyz
  1  'x, y, z'
loop_
 _atom_site_type_symbol
 _atom_site_label
 _atom_site_symmetry_multiplicity
 _atom_site_fract_x
 _atom_site_fract_y
 _atom_site_fract_z
 _atom_site_occupancy
 _atom_site_charge
Pr  Pr1  1  0.21734000  0.37302000  0.25815000  1.0 2.1344439949
Pr  Pr2  1  0.78266000  0.62698000  0.74185000  1.0 2.1344439949
Pr  Pr3  1  0.18774000  0.69439000  0.27601000  1.0 2.1215274299
Pr  Pr4  1  0.81226000  0.30561000  0.72399000  1.0 2.1215274299
Pr  Pr5  1  0.13146000  0.09806000  0.32489000  1.0 2.1563657488
Pr  Pr6  1  0.86854000  0.90194000  0.67511000  1.0 2.1563657488
H  H1  1  0.54360000  0.49400000  0.29500000  1.0 0.1099907541
H  H2  1  0.45640000  0.50600000  0.70500000  1.0 0.1099907541
H  H3  1  0.72240000  0.54160000  0.29670000  1.0 0.1099907541
H  H4  1  0.27760000  0.45840000  0.70330000  1.0 0.1099907541
H  H5  1  0.88200000  0.66880000  0.28650000  1.0 0.1290237582
H  H6  1  0.11800000  0.33120000  0.71350000  1.0 0.1290237582
H  H7  1  0.86650000  0.95280000  0.27220000  1.0 0.1203985068
H  H8  1  0.13350000  0.04720000  0.72780000  1.0 0.1203985068
H  H9  1  0.68760000  0.90500000  0.27050000  1.0 0.1099907541
H  H10  1  0.31240000  0.09500000  0.72950000  1.0 0.1099907541
H  H11  1  0.52600000  0.77900000  0.28510000  1.0 0.1203985068
H  H12  1  0.47400000  0.22100000  0.71490000  1.0 0.1203985068
H  H13  1  0.12300000  0.61380000  0.09710000  1.0 0.1203985068
H  H14  1  0.87700000  0.38620000  0.90290000  1.0 0.1203985068
H  H15  1  0.90550000  0.30460000  0.98500000  1.0 0.1099907541
H  H16  1  0.09450000  0.69540000  0.01500000  1.0 0.1099907541
H  H17  1  0.97840000  0.31430000  0.07920000  1.0 0.1203985068
H  H18  1  0.02160000  0.68570000  0.92080000  1.0 0.1203985068
H  H19  1  0.54780000  0.31820000  0.24170000  1.0 0.1203985068
H  H20  1  0.45220000  0.68180000  0.75830000  1.0 0.1203985068
H  H21  1  0.73670000  0.37380000  0.23000000  1.0 0.1099907541
H  H22  1  0.26330000  0.62620000  0.77000000  1.0 0.1099907541
H  H23  1  0.90420000  0.35860000  0.24490000  1.0 0.1290237582
H  H24  1  0.09580000  0.64140000  0.75510000  1.0 0.1290237582
H  H25  1  0.79480000  0.12360000  0.32540000  1.0 0.1203985068
H  H26  1  0.20520000  0.87640000  0.67460000  1.0 0.1203985068
H  H27  1  0.60520000  0.06220000  0.33240000  1.0 0.1099907541
H  H28  1  0.39480000  0.93780000  0.66760000  1.0 0.1099907541
H  H29  1  0.44220000  0.08020000  0.32090000  1.0 0.1203985068
H  H30  1  0.55780000  0.91980000  0.67910000  1.0 0.1203985068
H  H31  1  0.87860000  0.54560000  0.37750000  1.0 0.1203985068
H  H32  1  0.12140000  0.45440000  0.62250000  1.0 0.1203985068
H  H33  1  0.81870000  0.53170000  0.47470000  1.0 0.1099907541
H  H34  1  0.18130000  0.46830000  0.52530000  1.0 0.1099907541
H  H35  1  0.14630000  0.48380000  0.41990000  1.0 0.1203985068
H  H36  1  0.85370000  0.51620000  0.58010000  1.0 0.1203985068
H  H37  1  0.08900000  0.18250000  0.06970000  1.0 0.1203985068
H  H38  1  0.91100000  0.81750000  0.93030000  1.0 0.1203985068
H  H39  1  0.96860000  0.82920000  0.03500000  1.0 0.1049449335
H  H40  1  0.03140000  0.17080000  0.96500000  1.0 0.1099907541
H  H41  1  0.04090000  0.92430000  0.13240000  1.0 0.1290237582
H  H42  1  0.95910000  0.07570000  0.86760000  1.0 0.1290237582
H  H43  1  0.39500000  0.46660000  0.39420000  1.0 0.1290237582
H  H44  1  0.60500000  0.53340000  0.60580000  1.0 0.1290237582
H  H45  1  0.44110000  0.39450000  0.58450000  1.0 0.1099907541
H  H46  1  0.55890000  0.60550000  0.41550000  1.0 0.1099907541
H  H47  1  0.30390000  0.29870000  0.51800000  1.0 0.1203985068
H  H48  1  0.69610000  0.70130000  0.48200000  1.0 0.1203985068
H  H49  1  0.32910000  0.12450000  0.45550000  1.0 0.1290237582
H  H50  1  0.67090000  0.87550000  0.54450000  1.0 0.1290237582
H  H51  1  0.45490000  0.17500000  0.53590000  1.0 0.1290237582
H  H52  1  0.54510000  0.82500000  0.46410000  1.0 0.1290237582
H  H53  1  0.43130000  0.85600000  0.38970000  1.0 0.1290237582
H  H54  1  0.56870000  0.14400000  0.61030000  1.0 0.1290237582
C  C1  1  0.39800000  0.60170000  0.29430000  1.0 0.6187793578
C  C2  1  0.60200000  0.39830000  0.70570000  1.0 0.6187793578
C  C3  1  0.51520000  0.63350000  0.29250000  1.0 -0.0243238115
C  C4  1  0.48480000  0.36650000  0.70750000  1.0 -0.0243238115
C  C5  1  0.57690000  0.56200000  0.29380000  1.0 -0.1280919516
C  C6  1  0.42310000  0.43800000  0.70620000  1.0 -0.1280919516
C  C7  1  0.68370000  0.58930000  0.29340000  1.0 -0.169028673
C  C8  1  0.31630000  0.41070000  0.70660000  1.0 -0.169028673
C  C9  1  0.73420000  0.68780000  0.28800000  1.0 0.0701410552
C  C10  1  0.26580000  0.31220000  0.71200000  1.0 0.0701410552
C  C11  1  0.84200000  0.71570000  0.28390000  1.0 -0.1600492687
C  C12  1  0.15800000  0.28430000  0.71610000  1.0 -0.1600492687
C  C13  1  0.88990000  0.81270000  0.27600000  1.0 0.0037860407
C  C14  1  0.11010000  0.18730000  0.72400000  1.0 0.0037860407
C  C15  1  0.83230000  0.88550000  0.27420000  1.0 -0.1280919516
C  C16  1  0.16770000  0.11450000  0.72580000  1.0 -0.1280919516
C  C17  1  0.72640000  0.85810000  0.27530000  1.0 -0.1600492687
C  C18  1  0.27360000  0.14190000  0.72470000  1.0 -0.1600492687
C  C19  1  0.67500000  0.76140000  0.28360000  1.0 0.0701410552
C  C20  1  0.32500000  0.23860000  0.71640000  1.0 0.0701410552
C  C21  1  0.56570000  0.73130000  0.28680000  1.0 -0.169028673
C  C22  1  0.43430000  0.26870000  0.71320000  1.0 -0.169028673
C  C23  1  0.10920000  0.47100000  0.15840000  1.0 0.6305246319
C  C24  1  0.89080000  0.52900000  0.84160000  1.0 0.6305246319
C  C25  1  0.05910000  0.46510000  0.09880000  1.0 -0.0396755354
C  C26  1  0.94090000  0.53490000  0.90120000  1.0 -0.0396755354
C  C27  1  0.07860000  0.55080000  0.07470000  1.0 -0.1476039673
C  C28  1  0.92140000  0.44920000  0.92530000  1.0 -0.1476039673
C  C29  1  0.03220000  0.54290000  0.01750000  1.0 0.0701410552
C  C30  1  0.96780000  0.45710000  0.98250000  1.0 0.0701410552
C  C31  1  0.94900000  0.36770000  0.00790000  1.0 -0.1476039673
C  C32  1  0.05100000  0.63230000  0.99210000  1.0 -0.1476039673
C  C33  1  0.99270000  0.37340000  0.06350000  1.0 -0.1023605739
C  C34  1  0.00730000  0.62660000  0.93650000  1.0 -0.1023605739
C  C35  1  0.37250000  0.22640000  0.27130000  1.0 0.5986261333
C  C36  1  0.62750000  0.77360000  0.72870000  1.0 0.5986261333
C  C37  1  0.47980000  0.20260000  0.28130000  1.0 0.0225970561
C  C38  1  0.52020000  0.79740000  0.71870000  1.0 0.0225970561
C  C39  1  0.56040000  0.26780000  0.26050000  1.0 -0.1832600643
C  C40  1  0.43960000  0.73220000  0.73950000  1.0 -0.1832600643
C  C41  1  0.66620000  0.25690000  0.26840000  1.0 0.0701410552
C  C42  1  0.33380000  0.74310000  0.73160000  1.0 0.0701410552
C  C43  1  0.74860000  0.32350000  0.24910000  1.0 -0.1600492687
C  C44  1  0.25140000  0.67650000  0.75090000  1.0 -0.1600492687
C  C45  1  0.84750000  0.31470000  0.25830000  1.0 -0.1023605739
C  C46  1  0.15250000  0.68530000  0.74170000  1.0 -0.1023605739
C  C47  1  0.86440000  0.24020000  0.28790000  1.0 -0.0015383244
C  C48  1  0.13560000  0.75980000  0.71210000  1.0 -0.0015383244
C  C49  1  0.78250000  0.17420000  0.30660000  1.0 -0.1600492687
C  C50  1  0.21750000  0.82580000  0.69340000  1.0 -0.1600492687
C  C51  1  0.68110000  0.18200000  0.29780000  1.0 0.0701410552
C  C52  1  0.31890000  0.81800000  0.70220000  1.0 0.063985836
C  C53  1  0.59480000  0.11530000  0.31520000  1.0 -0.1476039673
C  C54  1  0.40520000  0.88470000  0.68480000  1.0 -0.1476039673
C  C55  1  0.49850000  0.12530000  0.30800000  1.0 -0.1095040486
C  C56  1  0.50150000  0.87470000  0.69200000  1.0 -0.1095040486
C  C57  1  0.06520000  0.53720000  0.33040000  1.0 0.5898544754
C  C58  1  0.93480000  0.46280000  0.66960000  1.0 0.5898544754
C  C59  1  0.02070000  0.51570000  0.39000000  1.0 -0.0116929908
C  C60  1  0.97930000  0.48430000  0.61000000  1.0 -0.0116929908
C  C61  1  0.92080000  0.53120000  0.40640000  1.0 -0.1095040486
C  C62  1  0.07920000  0.46880000  0.59360000  1.0 -0.1095040486
C  C63  1  0.88630000  0.52500000  0.46430000  1.0 -0.1476039673
C  C64  1  0.11370000  0.47500000  0.53570000  1.0 -0.1476039673
C  C65  1  0.04900000  0.49100000  0.49170000  1.0 0.0798074196
C  C66  1  0.95100000  0.50900000  0.50830000  1.0 0.0798074196
C  C67  1  0.08070000  0.49540000  0.43180000  1.0 -0.1408424233
C  C68  1  0.91930000  0.50460000  0.56820000  1.0 -0.1408424233
C  C69  1  0.97580000  0.23770000  0.30660000  1.0 0.6375017429
C  C70  1  0.02420000  0.76230000  0.69340000  1.0 0.6375017429
C  C71  1  0.12580000  0.13370000  0.17250000  1.0 0.6305246319
C  C72  1  0.87420000  0.86630000  0.82750000  1.0 0.6305246319
C  C73  1  0.07750000  0.06490000  0.11020000  1.0 0.0081250847
C  C74  1  0.92250000  0.93510000  0.88980000  1.0 0.0081250847
C  C75  1  0.06440000  0.11020000  0.06250000  1.0 -0.1476039673
C  C76  1  0.93560000  0.88980000  0.93750000  1.0 -0.1476039673
C  C77  1  0.01780000  0.05460000  0.00600000  1.0 0.0701410552
C  C78  1  0.98220000  0.94540000  0.99400000  1.0 0.0701410552
C  C79  1  0.99310000  0.90160000  0.04230000  1.0 -0.1476039673
C  C80  1  0.00690000  0.09840000  0.95770000  1.0 -0.1476039673
C  C81  1  0.03730000  0.95700000  0.10020000  1.0 -0.1095040486
C  C82  1  0.96270000  0.04300000  0.89980000  1.0 -0.1023605739
C  C83  1  0.24730000  0.30910000  0.40810000  1.0 0.6121040548
C  C84  1  0.75270000  0.69090000  0.59190000  1.0 0.6121040548
C  C85  1  0.33670000  0.37450000  0.44890000  1.0 -0.0396755354
C  C86  1  0.66330000  0.62550000  0.55110000  1.0 -0.0396755354
C  C87  1  0.40580000  0.45260000  0.43290000  1.0 -0.1408424233
C  C88  1  0.59420000  0.54740000  0.56710000  1.0 -0.1408424233
C  C89  1  0.49210000  0.51280000  0.47130000  1.0 0.0887681062
C  C90  1  0.50790000  0.48720000  0.52870000  1.0 0.0887681062
C  C91  1  0.43340000  0.40840000  0.54530000  1.0 -0.1408424233
C  C92  1  0.56660000  0.59160000  0.45470000  1.0 -0.1476039673
C  C93  1  0.35170000  0.35280000  0.50660000  1.0 -0.1095040486
C  C94  1  0.64830000  0.64720000  0.49340000  1.0 -0.1095040486
C  C95  1  0.28740000  0.94660000  0.36360000  1.0 0.6572480167
C  C96  1  0.71260000  0.05340000  0.63640000  1.0 0.6572480167
C  C97  1  0.36970000  0.97420000  0.41400000  1.0 -0.0243238115
C  C98  1  0.63030000  0.02580000  0.58600000  1.0 -0.0243238115
C  C99  1  0.37260000  0.08180000  0.46060000  1.0 -0.0777546686
C  C100  1  0.62740000  0.91820000  0.53940000  1.0 -0.0777546686
C  C101  1  0.44280000  0.10780000  0.50860000  1.0 -0.1208069694
C  C102  1  0.55720000  0.89220000  0.49140000  1.0 -0.1208069694
C  C103  1  0.50530000  0.95510000  0.48090000  1.0 0.0701410552
C  C104  1  0.49470000  0.04490000  0.51910000  1.0 0.0701410552
C  C105  1  0.43090000  0.91790000  0.42040000  1.0 -0.1476039673
C  C106  1  0.56910000  0.08210000  0.57960000  1.0 -0.1476039673
C  C107  1  0.01340000  0.83900000  0.27330000  1.0 0.6375017429
C  C108  1  0.98660000  0.16100000  0.72670000  1.0 0.6375017429
O  O1  1  0.36330000  0.51770000  0.30350000  1.0 -0.6297081843
O  O2  1  0.63670000  0.48230000  0.69650000  1.0 -0.6297081843
O  O3  1  0.35640000  0.66640000  0.28640000  1.0 -0.6418683265
O  O4  1  0.64360000  0.33360000  0.71360000  1.0 -0.6418683265
O  O5  1  0.09720000  0.39030000  0.17670000  1.0 -0.6203372513
O  O6  1  0.90280000  0.60970000  0.82330000  1.0 -0.6203372513
O  O7  1  0.16500000  0.55950000  0.18760000  1.0 -0.7691803609
O  O8  1  0.83500000  0.44050000  0.81240000  1.0 -0.7691803609
O  O9  1  0.36400000  0.28910000  0.25850000  1.0 -0.5004580652
O  O10  1  0.63600000  0.71090000  0.74150000  1.0 -0.5004580652
O  O11  1  0.15350000  0.52170000  0.31630000  1.0 -0.7410330211
O  O12  1  0.84650000  0.47830000  0.68370000  1.0 -0.7410330211
O  O13  1  0.04380000  0.29280000  0.27880000  1.0 -0.718892995
O  O14  1  0.95620000  0.70720000  0.72120000  1.0 -0.718892995
O  O15  1  0.98550000  0.16600000  0.32720000  1.0 -0.6515983527
O  O16  1  0.01450000  0.83400000  0.67280000  1.0 -0.6515983527
O  O17  1  0.18170000  0.21740000  0.17420000  1.0 -0.6001573538
O  O18  1  0.81830000  0.78260000  0.82580000  1.0 -0.6001573538
O  O19  1  0.10410000  0.08270000  0.21890000  1.0 -0.7878085707
O  O20  1  0.89590000  0.91730000  0.78110000  1.0 -0.7878085707
O  O21  1  0.01990000  0.58430000  0.30080000  1.0 -0.6297081843
O  O22  1  0.98010000  0.41570000  0.69920000  1.0 -0.6297081843
O  O23  1  0.22440000  0.33000000  0.35880000  1.0 -0.7082175051
O  O24  1  0.77560000  0.67000000  0.64120000  1.0 -0.7082175051
O  O25  1  0.19720000  0.22790000  0.42210000  1.0 -0.6515983527
O  O26  1  0.80280000  0.77210000  0.57790000  1.0 -0.6515983527
O  O27  1  0.28290000  0.86860000  0.31830000  1.0 -0.7035379444
O  O28  1  0.71710000  0.13140000  0.68170000  1.0 -0.7035379444
O  O29  1  0.30140000  0.14970000  0.28910000  1.0 -0.7691803609
O  O30  1  0.69860000  0.85030000  0.71090000  1.0 -0.7691803609
O  O31  1  0.22920000  0.00690000  0.36980000  1.0 -0.6610773687
O  O32  1  0.77080000  0.99310000  0.63020000  1.0 -0.6610773687
O  O33  1  0.05030000  0.76440000  0.26030000  1.0 -0.6610773687
O  O34  1  0.94970000  0.23560000  0.73970000  1.0 -0.6610773687
O  O35  1  0.04680000  0.92560000  0.26810000  1.0 -0.6297081843
O  O36  1  0.95320000  0.07440000  0.73190000  1.0 -0.6297081843
