# DDEC6 charges by PACMAN v1.1 (https://github.com/mtap-research/PACMAN-charge/)
data_FOLWOV_ASR_pacman
_symmetry_space_group_name_H-M   'P 1'
_cell_length_a   24.43290000
_cell_length_b   24.43290000
_cell_length_c   24.43290000
_cell_angle_alpha   60.00000000
_cell_angle_beta   60.00000000
_cell_angle_gamma   60.00000000
_symmetry_Int_Tables_number   1
_chemical_formula_structural   Co5H26C52O41
_chemical_formula_sum   'Co30 H156 C312 O246'
_cell_volume   10313.59455749
_cell_formula_units_Z   6
loop_
 _symmetry_equiv_pos_site_id
 _symmetry_equiv_pos_as_xyz
  1  'x, y, z'
loop_
 _atom_site_type_symbol
 _atom_site_label
 _atom_site_symmetry_multiplicity
 _atom_site_fract_x
 _atom_site_fract_y
 _atom_site_fract_z
 _atom_site_occupancy
 _atom_site_charge
Co  Co1  1  0.18991000  0.74469000  0.74469000  1.0 0.3040157194
Co  Co2  1  0.74469000  0.32071000  0.18991000  1.0 0.3040157194
Co  Co3  1  0.74469000  0.18991000  0.32071000  1.0 0.3040157194
Co  Co4  1  0.32071000  0.74469000  0.74469000  1.0 0.3040157194
Co  Co5  1  0.74469000  0.74469000  0.18991000  1.0 0.3057522531
Co  Co6  1  0.32071000  0.18991000  0.74469000  1.0 0.3040157194
Co  Co7  1  0.18991000  0.32071000  0.74469000  1.0 0.3040157194
Co  Co8  1  0.74469000  0.74469000  0.32071000  1.0 0.3057522531
Co  Co9  1  0.74469000  0.18991000  0.74469000  1.0 0.3057522531
Co  Co10  1  0.18991000  0.74469000  0.32071000  1.0 0.3040157194
Co  Co11  1  0.32071000  0.74469000  0.18991000  1.0 0.3040157194
Co  Co12  1  0.74469000  0.32071000  0.74469000  1.0 0.3040157194
Co  Co13  1  0.81009000  0.67929000  0.25531000  1.0 0.3057522531
Co  Co14  1  0.25531000  0.25531000  0.81009000  1.0 0.3057522531
Co  Co15  1  0.25531000  0.25531000  0.67929000  1.0 0.3040157194
Co  Co16  1  0.67929000  0.81009000  0.25531000  1.0 0.3057522531
Co  Co17  1  0.25531000  0.67929000  0.81009000  1.0 0.3040157194
Co  Co18  1  0.67929000  0.25531000  0.25531000  1.0 0.3040157194
Co  Co19  1  0.81009000  0.25531000  0.25531000  1.0 0.3057522531
Co  Co20  1  0.25531000  0.81009000  0.67929000  1.0 0.3040157194
Co  Co21  1  0.25531000  0.67929000  0.25531000  1.0 0.3040157194
Co  Co22  1  0.81009000  0.25531000  0.67929000  1.0 0.3057522531
Co  Co23  1  0.67929000  0.25531000  0.81009000  1.0 0.3057522531
Co  Co24  1  0.25531000  0.81009000  0.25531000  1.0 0.3040157194
Co  Co25  1  0.16209000  0.83791000  0.83791000  1.0 0.6425155953
Co  Co26  1  0.83791000  0.16209000  0.16209000  1.0 0.6425155953
Co  Co27  1  0.83791000  0.83791000  0.16209000  1.0 0.6425155953
Co  Co28  1  0.16209000  0.16209000  0.83791000  1.0 0.6425155953
Co  Co29  1  0.83791000  0.16209000  0.83791000  1.0 0.6425155953
Co  Co30  1  0.16209000  0.83791000  0.16209000  1.0 0.6425155953
H  H1  1  0.07020000  0.63960000  0.90400000  1.0 0.0403062629
H  H2  1  0.88450000  0.60050000  0.01170000  1.0 0.0521443293
H  H3  1  0.08270000  0.52530000  0.96190000  1.0 0.0671208559
H  H4  1  0.90400000  0.38620000  0.07020000  1.0 0.0403062629
H  H5  1  0.01170000  0.50330000  0.88450000  1.0 0.0521443293
H  H6  1  0.96190000  0.43010000  0.08270000  1.0 0.0671208559
H  H7  1  0.63960000  0.07020000  0.38620000  1.0 0.0403062629
H  H8  1  0.60050000  0.88450000  0.50330000  1.0 0.0521443293
H  H9  1  0.52530000  0.08270000  0.43010000  1.0 0.0671208559
H  H10  1  0.38620000  0.90400000  0.63960000  1.0 0.0403062629
H  H11  1  0.50330000  0.01170000  0.60050000  1.0 0.0521443293
H  H12  1  0.43010000  0.96190000  0.52530000  1.0 0.0671208559
H  H13  1  0.63960000  0.90400000  0.07020000  1.0 0.0403062629
H  H14  1  0.60050000  0.01170000  0.88450000  1.0 0.0521443293
H  H15  1  0.52530000  0.96190000  0.08270000  1.0 0.0671208559
H  H16  1  0.38620000  0.07020000  0.90400000  1.0 0.0403062629
H  H17  1  0.50330000  0.88450000  0.01170000  1.0 0.0521443293
H  H18  1  0.43010000  0.08270000  0.96190000  1.0 0.0671208559
H  H19  1  0.07020000  0.38620000  0.63960000  1.0 0.0403062629
H  H20  1  0.88450000  0.50330000  0.60050000  1.0 0.0521443293
H  H21  1  0.08270000  0.43010000  0.52530000  1.0 0.0671208559
H  H22  1  0.90400000  0.63960000  0.38620000  1.0 0.0403062629
H  H23  1  0.01170000  0.60050000  0.50330000  1.0 0.0521443293
H  H24  1  0.96190000  0.52530000  0.43010000  1.0 0.0671208559
H  H25  1  0.90400000  0.07020000  0.63960000  1.0 0.0403062629
H  H26  1  0.01170000  0.88450000  0.60050000  1.0 0.0521443293
H  H27  1  0.96190000  0.08270000  0.52530000  1.0 0.0671208559
H  H28  1  0.07020000  0.90400000  0.38620000  1.0 0.0403062629
H  H29  1  0.88450000  0.01170000  0.50330000  1.0 0.0521443293
H  H30  1  0.08270000  0.96190000  0.43010000  1.0 0.0671208559
H  H31  1  0.38620000  0.63960000  0.07020000  1.0 0.0403062629
H  H32  1  0.50330000  0.60050000  0.88450000  1.0 0.0521443293
H  H33  1  0.43010000  0.52530000  0.08270000  1.0 0.0671208559
H  H34  1  0.63960000  0.38620000  0.90400000  1.0 0.0403062629
H  H35  1  0.60050000  0.50330000  0.01170000  1.0 0.0521443293
H  H36  1  0.52530000  0.43010000  0.96190000  1.0 0.0671208559
H  H37  1  0.92980000  0.61380000  0.09600000  1.0 0.0403062629
H  H38  1  0.11550000  0.49670000  0.98830000  1.0 0.0521443293
H  H39  1  0.91730000  0.56990000  0.03810000  1.0 0.0671208559
H  H40  1  0.09600000  0.36040000  0.92980000  1.0 0.0403062629
H  H41  1  0.98830000  0.39950000  0.11550000  1.0 0.0521443293
H  H42  1  0.03810000  0.47470000  0.91730000  1.0 0.0671208559
H  H43  1  0.36040000  0.09600000  0.61380000  1.0 0.0403062629
H  H44  1  0.39950000  0.98830000  0.49670000  1.0 0.0521443293
H  H45  1  0.47470000  0.03810000  0.56990000  1.0 0.0671208559
H  H46  1  0.61380000  0.92980000  0.36040000  1.0 0.0403062629
H  H47  1  0.49670000  0.11550000  0.39950000  1.0 0.0521443293
H  H48  1  0.56990000  0.91730000  0.47470000  1.0 0.0671208559
H  H49  1  0.36040000  0.61380000  0.92980000  1.0 0.0403062629
H  H50  1  0.39950000  0.49670000  0.11550000  1.0 0.0521443293
H  H51  1  0.47470000  0.56990000  0.91730000  1.0 0.0671208559
H  H52  1  0.61380000  0.36040000  0.09600000  1.0 0.0403062629
H  H53  1  0.49670000  0.39950000  0.98830000  1.0 0.0521443293
H  H54  1  0.56990000  0.47470000  0.03810000  1.0 0.0671208559
H  H55  1  0.92980000  0.09600000  0.36040000  1.0 0.0403062629
H  H56  1  0.11550000  0.98830000  0.39950000  1.0 0.0521443293
H  H57  1  0.91730000  0.03810000  0.47470000  1.0 0.0671208559
H  H58  1  0.09600000  0.92980000  0.61380000  1.0 0.0403062629
H  H59  1  0.98830000  0.11550000  0.49670000  1.0 0.0521443293
H  H60  1  0.03810000  0.91730000  0.56990000  1.0 0.0671208559
H  H61  1  0.09600000  0.61380000  0.36040000  1.0 0.0403062629
H  H62  1  0.98830000  0.49670000  0.39950000  1.0 0.0521443293
H  H63  1  0.03810000  0.56990000  0.47470000  1.0 0.0671208559
H  H64  1  0.92980000  0.36040000  0.61380000  1.0 0.0403062629
H  H65  1  0.11550000  0.39950000  0.49670000  1.0 0.0521443293
H  H66  1  0.91730000  0.47470000  0.56990000  1.0 0.0671208559
H  H67  1  0.61380000  0.09600000  0.92980000  1.0 0.0403062629
H  H68  1  0.49670000  0.98830000  0.11550000  1.0 0.0521443293
H  H69  1  0.56990000  0.03810000  0.91730000  1.0 0.0671208559
H  H70  1  0.36040000  0.92980000  0.09600000  1.0 0.0403062629
H  H71  1  0.39950000  0.11550000  0.98830000  1.0 0.0521443293
H  H72  1  0.47470000  0.91730000  0.03810000  1.0 0.0671208559
H  H73  1  0.92980000  0.36040000  0.09600000  1.0 0.0403062629
H  H74  1  0.11550000  0.39950000  0.98830000  1.0 0.0521443293
H  H75  1  0.91730000  0.47470000  0.03810000  1.0 0.0671208559
H  H76  1  0.09600000  0.61380000  0.92980000  1.0 0.0403062629
H  H77  1  0.98830000  0.49670000  0.11550000  1.0 0.0521443293
H  H78  1  0.03810000  0.56990000  0.91730000  1.0 0.0671208559
H  H79  1  0.36040000  0.92980000  0.61380000  1.0 0.0403062629
H  H80  1  0.39950000  0.11550000  0.49670000  1.0 0.0521443293
H  H81  1  0.47470000  0.91730000  0.56990000  1.0 0.0671208559
H  H82  1  0.61380000  0.09600000  0.36040000  1.0 0.0403062629
H  H83  1  0.49670000  0.98830000  0.39950000  1.0 0.0521443293
H  H84  1  0.56990000  0.03810000  0.47470000  1.0 0.0671208559
H  H85  1  0.36040000  0.09600000  0.92980000  1.0 0.0403062629
H  H86  1  0.39950000  0.98830000  0.11550000  1.0 0.0521443293
H  H87  1  0.47470000  0.03810000  0.91730000  1.0 0.0671208559
H  H88  1  0.61380000  0.92980000  0.09600000  1.0 0.0403062629
H  H89  1  0.49670000  0.11550000  0.98830000  1.0 0.0521443293
H  H90  1  0.56990000  0.91730000  0.03810000  1.0 0.0671208559
H  H91  1  0.92980000  0.61380000  0.36040000  1.0 0.0403062629
H  H92  1  0.11550000  0.49670000  0.39950000  1.0 0.0521443293
H  H93  1  0.91730000  0.56990000  0.47470000  1.0 0.0671208559
H  H94  1  0.09600000  0.36040000  0.61380000  1.0 0.0403062629
H  H95  1  0.98830000  0.39950000  0.49670000  1.0 0.0521443293
H  H96  1  0.03810000  0.47470000  0.56990000  1.0 0.0671208559
H  H97  1  0.09600000  0.92980000  0.36040000  1.0 0.0403062629
H  H98  1  0.98830000  0.11550000  0.39950000  1.0 0.0521443293
H  H99  1  0.03810000  0.91730000  0.47470000  1.0 0.0671208559
H  H100  1  0.92980000  0.09600000  0.61380000  1.0 0.0403062629
H  H101  1  0.11550000  0.98830000  0.49670000  1.0 0.0521443293
H  H102  1  0.91730000  0.03810000  0.56990000  1.0 0.0671208559
H  H103  1  0.61380000  0.36040000  0.92980000  1.0 0.0403062629
H  H104  1  0.49670000  0.39950000  0.11550000  1.0 0.0521443293
H  H105  1  0.56990000  0.47470000  0.91730000  1.0 0.0671208559
H  H106  1  0.36040000  0.61380000  0.09600000  1.0 0.0403062629
H  H107  1  0.39950000  0.49670000  0.98830000  1.0 0.0521443293
H  H108  1  0.47470000  0.56990000  0.03810000  1.0 0.0671208559
H  H109  1  0.07020000  0.38620000  0.90400000  1.0 0.0403062629
H  H110  1  0.88450000  0.50330000  0.01170000  1.0 0.0521443293
H  H111  1  0.08270000  0.43010000  0.96190000  1.0 0.0671208559
H  H112  1  0.90400000  0.63960000  0.07020000  1.0 0.0403062629
H  H113  1  0.01170000  0.60050000  0.88450000  1.0 0.0521443293
H  H114  1  0.96190000  0.52530000  0.08270000  1.0 0.0671208559
H  H115  1  0.63960000  0.90400000  0.38620000  1.0 0.0403062629
H  H116  1  0.60050000  0.01170000  0.50330000  1.0 0.0521443293
H  H117  1  0.52530000  0.96190000  0.43010000  1.0 0.0671208559
H  H118  1  0.38620000  0.07020000  0.63960000  1.0 0.0403062629
H  H119  1  0.50330000  0.88450000  0.60050000  1.0 0.0521443293
H  H120  1  0.43010000  0.08270000  0.52530000  1.0 0.0671208559
H  H121  1  0.63960000  0.38620000  0.07020000  1.0 0.0403062629
H  H122  1  0.60050000  0.50330000  0.88450000  1.0 0.0521443293
H  H123  1  0.52530000  0.43010000  0.08270000  1.0 0.0671208559
H  H124  1  0.38620000  0.63960000  0.90400000  1.0 0.0403062629
H  H125  1  0.50330000  0.60050000  0.01170000  1.0 0.0521443293
H  H126  1  0.43010000  0.52530000  0.96190000  1.0 0.0671208559
H  H127  1  0.07020000  0.90400000  0.63960000  1.0 0.0403062629
H  H128  1  0.88450000  0.01170000  0.60050000  1.0 0.0521443293
H  H129  1  0.08270000  0.96190000  0.52530000  1.0 0.0671208559
H  H130  1  0.90400000  0.07020000  0.38620000  1.0 0.0403062629
H  H131  1  0.01170000  0.88450000  0.50330000  1.0 0.0521443293
H  H132  1  0.96190000  0.08270000  0.43010000  1.0 0.0671208559
H  H133  1  0.90400000  0.38620000  0.63960000  1.0 0.0403062629
H  H134  1  0.01170000  0.50330000  0.60050000  1.0 0.0521443293
H  H135  1  0.96190000  0.43010000  0.52530000  1.0 0.0671208559
H  H136  1  0.07020000  0.63960000  0.38620000  1.0 0.0403062629
H  H137  1  0.88450000  0.60050000  0.50330000  1.0 0.0521443293
H  H138  1  0.08270000  0.52530000  0.43010000  1.0 0.0671208559
H  H139  1  0.38620000  0.90400000  0.07020000  1.0 0.0403062629
H  H140  1  0.50330000  0.01170000  0.88450000  1.0 0.0521443293
H  H141  1  0.43010000  0.96190000  0.08270000  1.0 0.0671208559
H  H142  1  0.63960000  0.07020000  0.90400000  1.0 0.0403062629
H  H143  1  0.60050000  0.88450000  0.01170000  1.0 0.0521443293
H  H144  1  0.52530000  0.08270000  0.96190000  1.0 0.0671208559
H  H145  1  0.00000000  0.76740000  0.00000000  1.0 0.089635636
H  H146  1  0.00000000  0.23260000  0.00000000  1.0 0.089635636
H  H147  1  0.76740000  0.00000000  0.23260000  1.0 0.089635636
H  H148  1  0.23260000  0.00000000  0.76740000  1.0 0.089635636
H  H149  1  0.76740000  0.00000000  0.00000000  1.0 0.089635636
H  H150  1  0.23260000  0.00000000  0.00000000  1.0 0.089635636
H  H151  1  0.00000000  0.23260000  0.76740000  1.0 0.089635636
H  H152  1  0.00000000  0.76740000  0.23260000  1.0 0.089635636
H  H153  1  0.00000000  0.00000000  0.76740000  1.0 0.089635636
H  H154  1  0.00000000  0.00000000  0.23260000  1.0 0.089635636
H  H155  1  0.23260000  0.76740000  0.00000000  1.0 0.089635636
H  H156  1  0.76740000  0.23260000  0.00000000  1.0 0.089635636
C  C1  1  0.09420000  0.73820000  0.88980000  1.0 0.2857531829
C  C2  1  0.04030000  0.70970000  0.94170000  1.0 0.0403062629
C  C3  1  0.03680000  0.65800000  0.93900000  1.0 -0.0967660045
C  C4  1  0.92560000  0.56500000  0.00120000  1.0 -0.1408023765
C  C5  1  0.04150000  0.52090000  0.97170000  1.0 -0.0210920934
C  C6  1  0.88980000  0.27780000  0.09420000  1.0 0.2849814252
C  C7  1  0.94170000  0.30830000  0.04030000  1.0 0.0403062629
C  C8  1  0.93900000  0.36620000  0.03680000  1.0 -0.0967660045
C  C9  1  0.00120000  0.50820000  0.92560000  1.0 -0.1408023765
C  C10  1  0.97170000  0.46590000  0.04150000  1.0 -0.0210920934
C  C11  1  0.73820000  0.09420000  0.27780000  1.0 0.2857531829
C  C12  1  0.70970000  0.04030000  0.30830000  1.0 0.0403062629
C  C13  1  0.65800000  0.03680000  0.36620000  1.0 -0.0967660045
C  C14  1  0.56500000  0.92560000  0.50820000  1.0 -0.1408023765
C  C15  1  0.52090000  0.04150000  0.46590000  1.0 -0.0210920934
C  C16  1  0.27780000  0.88980000  0.73820000  1.0 0.2857531829
C  C17  1  0.30830000  0.94170000  0.70970000  1.0 0.0403062629
C  C18  1  0.36620000  0.93900000  0.65800000  1.0 -0.0967660045
C  C19  1  0.50820000  0.00120000  0.56500000  1.0 -0.1408023765
C  C20  1  0.46590000  0.97170000  0.52090000  1.0 -0.0210920934
C  C21  1  0.73820000  0.88980000  0.09420000  1.0 0.2857531829
C  C22  1  0.70970000  0.94170000  0.04030000  1.0 0.0403062629
C  C23  1  0.65800000  0.93900000  0.03680000  1.0 -0.0967660045
C  C24  1  0.56500000  0.00120000  0.92560000  1.0 -0.1408023765
C  C25  1  0.52090000  0.97170000  0.04150000  1.0 -0.0210920934
C  C26  1  0.27780000  0.09420000  0.88980000  1.0 0.2857531829
C  C27  1  0.30830000  0.04030000  0.94170000  1.0 0.0403062629
C  C28  1  0.36620000  0.03680000  0.93900000  1.0 -0.0967660045
C  C29  1  0.50820000  0.92560000  0.00120000  1.0 -0.1408023765
C  C30  1  0.46590000  0.04150000  0.97170000  1.0 -0.0210920934
C  C31  1  0.09420000  0.27780000  0.73820000  1.0 0.2857531829
C  C32  1  0.04030000  0.30830000  0.70970000  1.0 0.0403062629
C  C33  1  0.03680000  0.36620000  0.65800000  1.0 -0.0967660045
C  C34  1  0.92560000  0.50820000  0.56500000  1.0 -0.1408023765
C  C35  1  0.04150000  0.46590000  0.52090000  1.0 -0.0210920934
C  C36  1  0.88980000  0.73820000  0.27780000  1.0 0.2857531829
C  C37  1  0.94170000  0.70970000  0.30830000  1.0 0.0403062629
C  C38  1  0.93900000  0.65800000  0.36620000  1.0 -0.0967660045
C  C39  1  0.00120000  0.56500000  0.50820000  1.0 -0.1408023765
C  C40  1  0.97170000  0.52090000  0.46590000  1.0 -0.0210920934
C  C41  1  0.88980000  0.09420000  0.73820000  1.0 0.2857531829
C  C42  1  0.94170000  0.04030000  0.70970000  1.0 0.0403062629
C  C43  1  0.93900000  0.03680000  0.65800000  1.0 -0.0967660045
C  C44  1  0.00120000  0.92560000  0.56500000  1.0 -0.1408023765
C  C45  1  0.97170000  0.04150000  0.52090000  1.0 -0.0210920934
C  C46  1  0.09420000  0.88980000  0.27780000  1.0 0.2857531829
C  C47  1  0.04030000  0.94170000  0.30830000  1.0 0.0403062629
C  C48  1  0.03680000  0.93900000  0.36620000  1.0 -0.0967660045
C  C49  1  0.92560000  0.00120000  0.50820000  1.0 -0.1408023765
C  C50  1  0.04150000  0.97170000  0.46590000  1.0 -0.0210920934
C  C51  1  0.27780000  0.73820000  0.09420000  1.0 0.2857531829
C  C52  1  0.30830000  0.70970000  0.04030000  1.0 0.0403062629
C  C53  1  0.36620000  0.65800000  0.03680000  1.0 -0.0967660045
C  C54  1  0.50820000  0.56500000  0.92560000  1.0 -0.1408023765
C  C55  1  0.46590000  0.52090000  0.04150000  1.0 -0.0210920934
C  C56  1  0.73820000  0.27780000  0.88980000  1.0 0.2857531829
C  C57  1  0.70970000  0.30830000  0.94170000  1.0 0.0403062629
C  C58  1  0.65800000  0.36620000  0.93900000  1.0 -0.0967660045
C  C59  1  0.56500000  0.50820000  0.00120000  1.0 -0.1408023765
C  C60  1  0.52090000  0.46590000  0.97170000  1.0 -0.0210920934
C  C61  1  0.90580000  0.72220000  0.11020000  1.0 0.2857531829
C  C62  1  0.95970000  0.69170000  0.05830000  1.0 0.0403062629
C  C63  1  0.96320000  0.63380000  0.06100000  1.0 -0.0967660045
C  C64  1  0.07440000  0.49180000  0.99880000  1.0 -0.1408023765
C  C65  1  0.95850000  0.53410000  0.02830000  1.0 -0.0210920934
C  C66  1  0.11020000  0.26180000  0.90580000  1.0 0.2857531829
C  C67  1  0.05830000  0.29030000  0.95970000  1.0 0.0403062629
C  C68  1  0.06100000  0.34200000  0.96320000  1.0 -0.0967660045
C  C69  1  0.99880000  0.43500000  0.07440000  1.0 -0.1408023765
C  C70  1  0.02830000  0.47910000  0.95850000  1.0 -0.0210920934
C  C71  1  0.26180000  0.11020000  0.72220000  1.0 0.2857531829
C  C72  1  0.29030000  0.05830000  0.69170000  1.0 0.0403062629
C  C73  1  0.34200000  0.06100000  0.63380000  1.0 -0.0967660045
C  C74  1  0.43500000  0.99880000  0.49180000  1.0 -0.1408023765
C  C75  1  0.47910000  0.02830000  0.53410000  1.0 -0.0210920934
C  C76  1  0.72220000  0.90580000  0.26180000  1.0 0.2857531829
C  C77  1  0.69170000  0.95970000  0.29030000  1.0 0.0403062629
C  C78  1  0.63380000  0.96320000  0.34200000  1.0 -0.0967660045
C  C79  1  0.49180000  0.07440000  0.43500000  1.0 -0.1408023765
C  C80  1  0.53410000  0.95850000  0.47910000  1.0 -0.0210920934
C  C81  1  0.26180000  0.72220000  0.90580000  1.0 0.2857531829
C  C82  1  0.29030000  0.69170000  0.95970000  1.0 0.0403062629
C  C83  1  0.34200000  0.63380000  0.96320000  1.0 -0.0967660045
C  C84  1  0.43500000  0.49180000  0.07440000  1.0 -0.1408023765
C  C85  1  0.47910000  0.53410000  0.95850000  1.0 -0.0210920934
C  C86  1  0.72220000  0.26180000  0.11020000  1.0 0.2857531829
C  C87  1  0.69170000  0.29030000  0.05830000  1.0 0.0403062629
C  C88  1  0.63380000  0.34200000  0.06100000  1.0 -0.0967660045
C  C89  1  0.49180000  0.43500000  0.99880000  1.0 -0.1408023765
C  C90  1  0.53410000  0.47910000  0.02830000  1.0 -0.0210920934
C  C91  1  0.90580000  0.11020000  0.26180000  1.0 0.2857531829
C  C92  1  0.95970000  0.05830000  0.29030000  1.0 0.0403062629
C  C93  1  0.96320000  0.06100000  0.34200000  1.0 -0.0967660045
C  C94  1  0.07440000  0.99880000  0.43500000  1.0 -0.1408023765
C  C95  1  0.95850000  0.02830000  0.47910000  1.0 -0.0210920934
C  C96  1  0.11020000  0.90580000  0.72220000  1.0 0.2857531829
C  C97  1  0.05830000  0.95970000  0.69170000  1.0 0.0403062629
C  C98  1  0.06100000  0.96320000  0.63380000  1.0 -0.0967660045
C  C99  1  0.99880000  0.07440000  0.49180000  1.0 -0.1408023765
C  C100  1  0.02830000  0.95850000  0.53410000  1.0 -0.0210920934
C  C101  1  0.11020000  0.72220000  0.26180000  1.0 0.2857531829
C  C102  1  0.05830000  0.69170000  0.29030000  1.0 0.0403062629
C  C103  1  0.06100000  0.63380000  0.34200000  1.0 -0.0967660045
C  C104  1  0.99880000  0.49180000  0.43500000  1.0 -0.1408023765
C  C105  1  0.02830000  0.53410000  0.47910000  1.0 -0.0210920934
C  C106  1  0.90580000  0.26180000  0.72220000  1.0 0.2857531829
C  C107  1  0.95970000  0.29030000  0.69170000  1.0 0.0403062629
C  C108  1  0.96320000  0.34200000  0.63380000  1.0 -0.0967660045
C  C109  1  0.07440000  0.43500000  0.49180000  1.0 -0.1408023765
C  C110  1  0.95850000  0.47910000  0.53410000  1.0 -0.0210920934
C  C111  1  0.72220000  0.11020000  0.90580000  1.0 0.2857531829
C  C112  1  0.69170000  0.05830000  0.95970000  1.0 0.0403062629
C  C113  1  0.63380000  0.06100000  0.96320000  1.0 -0.0967660045
C  C114  1  0.49180000  0.99880000  0.07440000  1.0 -0.1408023765
C  C115  1  0.53410000  0.02830000  0.95850000  1.0 -0.0210920934
C  C116  1  0.26180000  0.90580000  0.11020000  1.0 0.2857531829
C  C117  1  0.29030000  0.95970000  0.05830000  1.0 0.0403062629
C  C118  1  0.34200000  0.96320000  0.06100000  1.0 -0.0967660045
C  C119  1  0.43500000  0.07440000  0.99880000  1.0 -0.1408023765
C  C120  1  0.47910000  0.95850000  0.02830000  1.0 -0.0210920934
C  C121  1  0.90580000  0.26180000  0.11020000  1.0 0.2857531829
C  C122  1  0.95970000  0.29030000  0.05830000  1.0 0.0403062629
C  C123  1  0.96320000  0.34200000  0.06100000  1.0 -0.0967660045
C  C124  1  0.07440000  0.43500000  0.99880000  1.0 -0.1408023765
C  C125  1  0.95850000  0.47910000  0.02830000  1.0 -0.0210920934
C  C126  1  0.11020000  0.72220000  0.90580000  1.0 0.2857531829
C  C127  1  0.05830000  0.69170000  0.95970000  1.0 0.0403062629
C  C128  1  0.06100000  0.63380000  0.96320000  1.0 -0.0967660045
C  C129  1  0.99880000  0.49180000  0.07440000  1.0 -0.1408023765
C  C130  1  0.02830000  0.53410000  0.95850000  1.0 -0.0210920934
C  C131  1  0.26180000  0.90580000  0.72220000  1.0 0.2857531829
C  C132  1  0.29030000  0.95970000  0.69170000  1.0 0.0403062629
C  C133  1  0.34200000  0.96320000  0.63380000  1.0 -0.0967660045
C  C134  1  0.43500000  0.07440000  0.49180000  1.0 -0.1408023765
C  C135  1  0.47910000  0.95850000  0.53410000  1.0 -0.0210920934
C  C136  1  0.72220000  0.11020000  0.26180000  1.0 0.2857531829
C  C137  1  0.69170000  0.05830000  0.29030000  1.0 0.0403062629
C  C138  1  0.63380000  0.06100000  0.34200000  1.0 -0.0967660045
C  C139  1  0.49180000  0.99880000  0.43500000  1.0 -0.1408023765
C  C140  1  0.53410000  0.02830000  0.47910000  1.0 -0.0210920934
C  C141  1  0.26180000  0.11020000  0.90580000  1.0 0.2857531829
C  C142  1  0.29030000  0.05830000  0.95970000  1.0 0.0403062629
C  C143  1  0.34200000  0.06100000  0.96320000  1.0 -0.0967660045
C  C144  1  0.43500000  0.99880000  0.07440000  1.0 -0.1408023765
C  C145  1  0.47910000  0.02830000  0.95850000  1.0 -0.0210920934
C  C146  1  0.72220000  0.90580000  0.11020000  1.0 0.2857531829
C  C147  1  0.69170000  0.95970000  0.05830000  1.0 0.0403062629
C  C148  1  0.63380000  0.96320000  0.06100000  1.0 -0.0967660045
C  C149  1  0.49180000  0.07440000  0.99880000  1.0 -0.1408023765
C  C150  1  0.53410000  0.95850000  0.02830000  1.0 -0.0210920934
C  C151  1  0.90580000  0.72220000  0.26180000  1.0 0.2857531829
C  C152  1  0.95970000  0.69170000  0.29030000  1.0 0.0403062629
C  C153  1  0.96320000  0.63380000  0.34200000  1.0 -0.0967660045
C  C154  1  0.07440000  0.49180000  0.43500000  1.0 -0.1408023765
C  C155  1  0.95850000  0.53410000  0.47910000  1.0 -0.0210920934
C  C156  1  0.11020000  0.26180000  0.72220000  1.0 0.2857531829
C  C157  1  0.05830000  0.29030000  0.69170000  1.0 0.0403062629
C  C158  1  0.06100000  0.34200000  0.63380000  1.0 -0.0967660045
C  C159  1  0.99880000  0.43500000  0.49180000  1.0 -0.1408023765
C  C160  1  0.02830000  0.47910000  0.53410000  1.0 -0.0210920934
C  C161  1  0.11020000  0.90580000  0.26180000  1.0 0.2857531829
C  C162  1  0.05830000  0.95970000  0.29030000  1.0 0.0403062629
C  C163  1  0.06100000  0.96320000  0.34200000  1.0 -0.0967660045
C  C164  1  0.99880000  0.07440000  0.43500000  1.0 -0.1408023765
C  C165  1  0.02830000  0.95850000  0.47910000  1.0 -0.0210920934
C  C166  1  0.90580000  0.11020000  0.72220000  1.0 0.2857531829
C  C167  1  0.95970000  0.05830000  0.69170000  1.0 0.0403062629
C  C168  1  0.96320000  0.06100000  0.63380000  1.0 -0.0967660045
C  C169  1  0.07440000  0.99880000  0.49180000  1.0 -0.1408023765
C  C170  1  0.95850000  0.02830000  0.53410000  1.0 -0.0210920934
C  C171  1  0.72220000  0.26180000  0.90580000  1.0 0.2857531829
C  C172  1  0.69170000  0.29030000  0.95970000  1.0 0.0403062629
C  C173  1  0.63380000  0.34200000  0.96320000  1.0 -0.0967660045
C  C174  1  0.49180000  0.43500000  0.07440000  1.0 -0.1408023765
C  C175  1  0.53410000  0.47910000  0.95850000  1.0 -0.0210920934
C  C176  1  0.26180000  0.72220000  0.11020000  1.0 0.2857531829
C  C177  1  0.29030000  0.69170000  0.05830000  1.0 0.0403062629
C  C178  1  0.34200000  0.63380000  0.06100000  1.0 -0.0967660045
C  C179  1  0.43500000  0.49180000  0.99880000  1.0 -0.1408023765
C  C180  1  0.47910000  0.53410000  0.02830000  1.0 -0.0210920934
C  C181  1  0.09420000  0.27780000  0.88980000  1.0 0.2857531829
C  C182  1  0.04030000  0.30830000  0.94170000  1.0 0.0403062629
C  C183  1  0.03680000  0.36620000  0.93900000  1.0 -0.0967660045
C  C184  1  0.92560000  0.50820000  0.00120000  1.0 -0.1408023765
C  C185  1  0.04150000  0.46590000  0.97170000  1.0 -0.0210920934
C  C186  1  0.88980000  0.73820000  0.09420000  1.0 0.2857531829
C  C187  1  0.94170000  0.70970000  0.04030000  1.0 0.0403062629
C  C188  1  0.93900000  0.65800000  0.03680000  1.0 -0.0967660045
C  C189  1  0.00120000  0.56500000  0.92560000  1.0 -0.1408023765
C  C190  1  0.97170000  0.52090000  0.04150000  1.0 -0.0210920934
C  C191  1  0.73820000  0.88980000  0.27780000  1.0 0.2857531829
C  C192  1  0.70970000  0.94170000  0.30830000  1.0 0.0403062629
C  C193  1  0.65800000  0.93900000  0.36620000  1.0 -0.0967660045
C  C194  1  0.56500000  0.00120000  0.50820000  1.0 -0.1408023765
C  C195  1  0.52090000  0.97170000  0.46590000  1.0 -0.0210920934
C  C196  1  0.27780000  0.09420000  0.73820000  1.0 0.2857531829
C  C197  1  0.30830000  0.04030000  0.70970000  1.0 0.0403062629
C  C198  1  0.36620000  0.03680000  0.65800000  1.0 -0.0967660045
C  C199  1  0.50820000  0.92560000  0.56500000  1.0 -0.1408023765
C  C200  1  0.46590000  0.04150000  0.52090000  1.0 -0.0210920934
C  C201  1  0.73820000  0.27780000  0.09420000  1.0 0.2857531829
C  C202  1  0.70970000  0.30830000  0.04030000  1.0 0.0403062629
C  C203  1  0.65800000  0.36620000  0.03680000  1.0 -0.0967660045
C  C204  1  0.56500000  0.50820000  0.92560000  1.0 -0.1408023765
C  C205  1  0.52090000  0.46590000  0.04150000  1.0 -0.0210920934
C  C206  1  0.27780000  0.73820000  0.88980000  1.0 0.2857531829
C  C207  1  0.30830000  0.70970000  0.94170000  1.0 0.0403062629
C  C208  1  0.36620000  0.65800000  0.93900000  1.0 -0.0967660045
C  C209  1  0.50820000  0.56500000  0.00120000  1.0 -0.1408023765
C  C210  1  0.46590000  0.52090000  0.97170000  1.0 -0.0210920934
C  C211  1  0.09420000  0.88980000  0.73820000  1.0 0.2857531829
C  C212  1  0.04030000  0.94170000  0.70970000  1.0 0.0403062629
C  C213  1  0.03680000  0.93900000  0.65800000  1.0 -0.0967660045
C  C214  1  0.92560000  0.00120000  0.56500000  1.0 -0.1408023765
C  C215  1  0.04150000  0.97170000  0.52090000  1.0 -0.0210920934
C  C216  1  0.88980000  0.09420000  0.27780000  1.0 0.2849814252
C  C217  1  0.94170000  0.04030000  0.30830000  1.0 0.0403062629
C  C218  1  0.93900000  0.03680000  0.36620000  1.0 -0.0967660045
C  C219  1  0.00120000  0.92560000  0.50820000  1.0 -0.1408023765
C  C220  1  0.97170000  0.04150000  0.46590000  1.0 -0.0210920934
C  C221  1  0.88980000  0.27780000  0.73820000  1.0 0.2857531829
C  C222  1  0.94170000  0.30830000  0.70970000  1.0 0.0403062629
C  C223  1  0.93900000  0.36620000  0.65800000  1.0 -0.0967660045
C  C224  1  0.00120000  0.50820000  0.56500000  1.0 -0.1408023765
C  C225  1  0.97170000  0.46590000  0.52090000  1.0 -0.0210920934
C  C226  1  0.09420000  0.73820000  0.27780000  1.0 0.2857531829
C  C227  1  0.04030000  0.70970000  0.30830000  1.0 0.0403062629
C  C228  1  0.03680000  0.65800000  0.36620000  1.0 -0.0967660045
C  C229  1  0.92560000  0.56500000  0.50820000  1.0 -0.1408023765
C  C230  1  0.04150000  0.52090000  0.46590000  1.0 -0.0210920934
C  C231  1  0.27780000  0.88980000  0.09420000  1.0 0.2857531829
C  C232  1  0.30830000  0.94170000  0.04030000  1.0 0.0403062629
C  C233  1  0.36620000  0.93900000  0.03680000  1.0 -0.0967660045
C  C234  1  0.50820000  0.00120000  0.92560000  1.0 -0.1408023765
C  C235  1  0.46590000  0.97170000  0.04150000  1.0 -0.0210920934
C  C236  1  0.73820000  0.09420000  0.88980000  1.0 0.2857531829
C  C237  1  0.70970000  0.04030000  0.94170000  1.0 0.0403062629
C  C238  1  0.65800000  0.03680000  0.93900000  1.0 -0.0967660045
C  C239  1  0.56500000  0.92560000  0.00120000  1.0 -0.1408023765
C  C240  1  0.52090000  0.04150000  0.97170000  1.0 -0.0210920934
C  C241  1  0.99410000  0.73490000  0.99410000  1.0 -0.0672165783
C  C242  1  0.98520000  0.63060000  0.98520000  1.0 0.0257491171
C  C243  1  0.98430000  0.57030000  0.98430000  1.0 -0.0308334483
C  C244  1  0.99410000  0.27690000  0.99410000  1.0 -0.0672165783
C  C245  1  0.98520000  0.39900000  0.98520000  1.0 0.0257491171
C  C246  1  0.98430000  0.46110000  0.98430000  1.0 -0.0308334483
C  C247  1  0.73490000  0.99410000  0.27690000  1.0 -0.0672165783
C  C248  1  0.63060000  0.98520000  0.39900000  1.0 0.0257491171
C  C249  1  0.57030000  0.98430000  0.46110000  1.0 -0.0308334483
C  C250  1  0.27690000  0.99410000  0.73490000  1.0 -0.0672165783
C  C251  1  0.39900000  0.98520000  0.63060000  1.0 0.0257491171
C  C252  1  0.46110000  0.98430000  0.57030000  1.0 -0.0308334483
C  C253  1  0.73490000  0.99410000  0.99410000  1.0 -0.0672165783
C  C254  1  0.63060000  0.98520000  0.98520000  1.0 0.0257491171
C  C255  1  0.57030000  0.98430000  0.98430000  1.0 -0.0308334483
C  C256  1  0.27690000  0.99410000  0.99410000  1.0 -0.0672165783
C  C257  1  0.39900000  0.98520000  0.98520000  1.0 0.0257491171
C  C258  1  0.46110000  0.98430000  0.98430000  1.0 -0.0308334483
C  C259  1  0.99410000  0.27690000  0.73490000  1.0 -0.0672165783
C  C260  1  0.98520000  0.39900000  0.63060000  1.0 0.0257491171
C  C261  1  0.98430000  0.46110000  0.57030000  1.0 -0.0308334483
C  C262  1  0.99410000  0.73490000  0.27690000  1.0 -0.0672165783
C  C263  1  0.98520000  0.63060000  0.39900000  1.0 0.0257491171
C  C264  1  0.98430000  0.57030000  0.46110000  1.0 -0.0308334483
C  C265  1  0.99410000  0.99410000  0.73490000  1.0 -0.0672165783
C  C266  1  0.98520000  0.98520000  0.63060000  1.0 0.0257491171
C  C267  1  0.98430000  0.98430000  0.57030000  1.0 -0.0308334483
C  C268  1  0.99410000  0.99410000  0.27690000  1.0 -0.0672165783
C  C269  1  0.98520000  0.98520000  0.39900000  1.0 0.0257491171
C  C270  1  0.98430000  0.98430000  0.46110000  1.0 -0.0308334483
C  C271  1  0.27690000  0.73490000  0.99410000  1.0 -0.0672165783
C  C272  1  0.39900000  0.63060000  0.98520000  1.0 0.0257491171
C  C273  1  0.46110000  0.57030000  0.98430000  1.0 -0.0308334483
C  C274  1  0.73490000  0.27690000  0.99410000  1.0 -0.0672165783
C  C275  1  0.63060000  0.39900000  0.98520000  1.0 0.0257491171
C  C276  1  0.57030000  0.46110000  0.98430000  1.0 -0.0308334483
C  C277  1  0.00590000  0.72310000  0.00590000  1.0 -0.0672165783
C  C278  1  0.01480000  0.60100000  0.01480000  1.0 0.0257491171
C  C279  1  0.01570000  0.53890000  0.01570000  1.0 -0.0308334483
C  C280  1  0.00590000  0.26510000  0.00590000  1.0 -0.0672165783
C  C281  1  0.01480000  0.36940000  0.01480000  1.0 0.0257491171
C  C282  1  0.01570000  0.42970000  0.01570000  1.0 -0.0308334483
C  C283  1  0.26510000  0.00590000  0.72310000  1.0 -0.0672165783
C  C284  1  0.36940000  0.01480000  0.60100000  1.0 0.0257491171
C  C285  1  0.42970000  0.01570000  0.53890000  1.0 -0.0308334483
C  C286  1  0.72310000  0.00590000  0.26510000  1.0 -0.0672165783
C  C287  1  0.60100000  0.01480000  0.36940000  1.0 0.0257491171
C  C288  1  0.53890000  0.01570000  0.42970000  1.0 -0.0308334483
C  C289  1  0.26510000  0.72310000  0.00590000  1.0 -0.0672165783
C  C290  1  0.36940000  0.60100000  0.01480000  1.0 0.0257491171
C  C291  1  0.42970000  0.53890000  0.01570000  1.0 -0.0308334483
C  C292  1  0.72310000  0.26510000  0.00590000  1.0 -0.0672165783
C  C293  1  0.60100000  0.36940000  0.01480000  1.0 0.0257491171
C  C294  1  0.53890000  0.42970000  0.01570000  1.0 -0.0308334483
C  C295  1  0.00590000  0.00590000  0.26510000  1.0 -0.0672165783
C  C296  1  0.01480000  0.01480000  0.36940000  1.0 0.0257491171
C  C297  1  0.01570000  0.01570000  0.42970000  1.0 -0.0308334483
C  C298  1  0.00590000  0.00590000  0.72310000  1.0 -0.0672165783
C  C299  1  0.01480000  0.01480000  0.60100000  1.0 0.0257491171
C  C300  1  0.01570000  0.01570000  0.53890000  1.0 -0.0308334483
C  C301  1  0.00590000  0.72310000  0.26510000  1.0 -0.0672165783
C  C302  1  0.01480000  0.60100000  0.36940000  1.0 0.0257491171
C  C303  1  0.01570000  0.53890000  0.42970000  1.0 -0.0308334483
C  C304  1  0.00590000  0.26510000  0.72310000  1.0 -0.0672165783
C  C305  1  0.01480000  0.36940000  0.60100000  1.0 0.0257491171
C  C306  1  0.01570000  0.42970000  0.53890000  1.0 -0.0308334483
C  C307  1  0.72310000  0.00590000  0.00590000  1.0 -0.0672165783
C  C308  1  0.60100000  0.01480000  0.01480000  1.0 0.0257491171
C  C309  1  0.53890000  0.01570000  0.01570000  1.0 -0.0308334483
C  C310  1  0.26510000  0.00590000  0.00590000  1.0 -0.0672165783
C  C311  1  0.36940000  0.01480000  0.01480000  1.0 0.0257491171
C  C312  1  0.42970000  0.01570000  0.01570000  1.0 -0.0308334483
O  O1  1  0.09345000  0.78819000  0.89231000  1.0 -0.2563986947
O  O2  1  0.13011000  0.71651000  0.84169000  1.0 -0.2805406706
O  O3  1  0.24880000  0.63620000  0.77540000  1.0 0.1087171156
O  O4  1  0.32380000  0.64720000  0.75500000  1.0 0.163336048
O  O5  1  0.27700000  0.58340000  0.83980000  1.0 -0.0930450642
O  O6  1  0.89231000  0.22605000  0.09345000  1.0 -0.2563986947
O  O7  1  0.84169000  0.31169000  0.13011000  1.0 -0.2805406706
O  O8  1  0.77540000  0.33960000  0.24880000  1.0 0.1022480603
O  O9  1  0.75500000  0.27400000  0.32380000  1.0 0.1678572388
O  O10  1  0.83980000  0.29980000  0.27700000  1.0 -0.0930450642
O  O11  1  0.78819000  0.09345000  0.22605000  1.0 -0.2540521102
O  O12  1  0.71651000  0.13011000  0.31169000  1.0 -0.2805406706
O  O13  1  0.63620000  0.24880000  0.33960000  1.0 0.1022480603
O  O14  1  0.64720000  0.32380000  0.27400000  1.0 0.1678572388
O  O15  1  0.58340000  0.27700000  0.29980000  1.0 -0.0930450642
O  O16  1  0.22605000  0.89231000  0.78819000  1.0 -0.2540521102
O  O17  1  0.31169000  0.84169000  0.71651000  1.0 -0.2805406706
O  O18  1  0.33960000  0.77540000  0.63620000  1.0 0.1087171156
O  O19  1  0.27400000  0.75500000  0.64720000  1.0 0.163336048
O  O20  1  0.29980000  0.83980000  0.58340000  1.0 -0.0967660045
O  O21  1  0.78819000  0.89231000  0.09345000  1.0 -0.2540521102
O  O22  1  0.71651000  0.84169000  0.13011000  1.0 -0.2805406706
O  O23  1  0.63620000  0.77540000  0.24880000  1.0 0.1022480603
O  O24  1  0.64720000  0.75500000  0.32380000  1.0 0.163336048
O  O25  1  0.58340000  0.83980000  0.27700000  1.0 -0.0930450642
O  O26  1  0.22605000  0.09345000  0.89231000  1.0 -0.2540521102
O  O27  1  0.31169000  0.13011000  0.84169000  1.0 -0.2805406706
O  O28  1  0.33960000  0.24880000  0.77540000  1.0 0.1022480603
O  O29  1  0.27400000  0.32380000  0.75500000  1.0 0.163336048
O  O30  1  0.29980000  0.27700000  0.83980000  1.0 -0.0930450642
O  O31  1  0.09345000  0.22605000  0.78819000  1.0 -0.2563986947
O  O32  1  0.13011000  0.31169000  0.71651000  1.0 -0.2805406706
O  O33  1  0.24880000  0.33960000  0.63620000  1.0 0.1022480603
O  O34  1  0.32380000  0.27400000  0.64720000  1.0 0.1678572388
O  O35  1  0.27700000  0.29980000  0.58340000  1.0 -0.0967660045
O  O36  1  0.89231000  0.78819000  0.22605000  1.0 -0.2540521102
O  O37  1  0.84169000  0.71651000  0.31169000  1.0 -0.2805406706
O  O38  1  0.77540000  0.63620000  0.33960000  1.0 0.1022480603
O  O39  1  0.75500000  0.64720000  0.27400000  1.0 0.1678572388
O  O40  1  0.83980000  0.58340000  0.29980000  1.0 -0.0930450642
O  O41  1  0.89231000  0.09345000  0.78819000  1.0 -0.2540521102
O  O42  1  0.84169000  0.13011000  0.71651000  1.0 -0.2805406706
O  O43  1  0.77540000  0.24880000  0.63620000  1.0 0.1022480603
O  O44  1  0.75500000  0.32380000  0.64720000  1.0 0.1678572388
O  O45  1  0.83980000  0.27700000  0.58340000  1.0 -0.0930450642
O  O46  1  0.09345000  0.89231000  0.22605000  1.0 -0.2563986947
O  O47  1  0.13011000  0.84169000  0.31169000  1.0 -0.2805406706
O  O48  1  0.24880000  0.77540000  0.33960000  1.0 0.1022480603
O  O49  1  0.32380000  0.75500000  0.27400000  1.0 0.163336048
O  O50  1  0.27700000  0.83980000  0.29980000  1.0 -0.0930450642
O  O51  1  0.22605000  0.78819000  0.09345000  1.0 -0.2563986947
O  O52  1  0.31169000  0.71651000  0.13011000  1.0 -0.2805406706
O  O53  1  0.33960000  0.63620000  0.24880000  1.0 0.1087171156
O  O54  1  0.27400000  0.64720000  0.32380000  1.0 0.1678572388
O  O55  1  0.29980000  0.58340000  0.27700000  1.0 -0.0967660045
O  O56  1  0.78819000  0.22605000  0.89231000  1.0 -0.2563986947
O  O57  1  0.71651000  0.31169000  0.84169000  1.0 -0.2805406706
O  O58  1  0.63620000  0.33960000  0.77540000  1.0 0.1022480603
O  O59  1  0.64720000  0.27400000  0.75500000  1.0 0.163336048
O  O60  1  0.58340000  0.29980000  0.83980000  1.0 -0.0930450642
O  O61  1  0.90655000  0.77395000  0.10769000  1.0 -0.2563986947
O  O62  1  0.86989000  0.68831000  0.15831000  1.0 -0.2805406706
O  O63  1  0.75120000  0.66040000  0.22460000  1.0 0.1087171156
O  O64  1  0.67620000  0.72600000  0.24500000  1.0 0.1678572388
O  O65  1  0.72300000  0.70020000  0.16020000  1.0 -0.0930450642
O  O66  1  0.10769000  0.21181000  0.90655000  1.0 -0.2563986947
O  O67  1  0.15831000  0.28349000  0.86989000  1.0 -0.2805406706
O  O68  1  0.22460000  0.36380000  0.75120000  1.0 0.1022480603
O  O69  1  0.24500000  0.35280000  0.67620000  1.0 0.1678572388
O  O70  1  0.16020000  0.41660000  0.72300000  1.0 -0.0930450642
O  O71  1  0.21181000  0.10769000  0.77395000  1.0 -0.2540521102
O  O72  1  0.28349000  0.15831000  0.68831000  1.0 -0.2805406706
O  O73  1  0.36380000  0.22460000  0.66040000  1.0 0.1022480603
O  O74  1  0.35280000  0.24500000  0.72600000  1.0 0.1678572388
O  O75  1  0.41660000  0.16020000  0.70020000  1.0 -0.0930450642
O  O76  1  0.77395000  0.90655000  0.21181000  1.0 -0.2540521102
O  O77  1  0.68831000  0.86989000  0.28349000  1.0 -0.2805406706
O  O78  1  0.66040000  0.75120000  0.36380000  1.0 0.1022480603
O  O79  1  0.72600000  0.67620000  0.35280000  1.0 0.163336048
O  O80  1  0.70020000  0.72300000  0.41660000  1.0 -0.0930450642
O  O81  1  0.21181000  0.77395000  0.90655000  1.0 -0.2563986947
O  O82  1  0.28349000  0.68831000  0.86989000  1.0 -0.2805406706
O  O83  1  0.36380000  0.66040000  0.75120000  1.0 0.1022480603
O  O84  1  0.35280000  0.72600000  0.67620000  1.0 0.163336048
O  O85  1  0.41660000  0.70020000  0.72300000  1.0 -0.0930450642
O  O86  1  0.77395000  0.21181000  0.10769000  1.0 -0.2540521102
O  O87  1  0.68831000  0.28349000  0.15831000  1.0 -0.2805406706
O  O88  1  0.66040000  0.36380000  0.22460000  1.0 0.1022480603
O  O89  1  0.72600000  0.35280000  0.24500000  1.0 0.163336048
O  O90  1  0.70020000  0.41660000  0.16020000  1.0 -0.0930450642
O  O91  1  0.90655000  0.10769000  0.21181000  1.0 -0.2540521102
O  O92  1  0.86989000  0.15831000  0.28349000  1.0 -0.2805406706
O  O93  1  0.75120000  0.22460000  0.36380000  1.0 0.1022480603
O  O94  1  0.67620000  0.24500000  0.35280000  1.0 0.163336048
O  O95  1  0.72300000  0.16020000  0.41660000  1.0 -0.0930450642
O  O96  1  0.10769000  0.90655000  0.77395000  1.0 -0.2540521102
O  O97  1  0.15831000  0.86989000  0.68831000  1.0 -0.2805406706
O  O98  1  0.22460000  0.75120000  0.66040000  1.0 0.1087171156
O  O99  1  0.24500000  0.67620000  0.72600000  1.0 0.163336048
O  O100  1  0.16020000  0.72300000  0.70020000  1.0 -0.0930450642
O  O101  1  0.10769000  0.77395000  0.21181000  1.0 -0.2563986947
O  O102  1  0.15831000  0.68831000  0.28349000  1.0 -0.2805406706
O  O103  1  0.22460000  0.66040000  0.36380000  1.0 0.1022480603
O  O104  1  0.24500000  0.72600000  0.35280000  1.0 0.1678572388
O  O105  1  0.16020000  0.70020000  0.41660000  1.0 -0.0967660045
O  O106  1  0.90655000  0.21181000  0.77395000  1.0 -0.2540521102
O  O107  1  0.86989000  0.28349000  0.68831000  1.0 -0.2805406706
O  O108  1  0.75120000  0.36380000  0.66040000  1.0 0.1022480603
O  O109  1  0.67620000  0.35280000  0.72600000  1.0 0.163336048
O  O110  1  0.72300000  0.41660000  0.70020000  1.0 -0.0930450642
O  O111  1  0.77395000  0.10769000  0.90655000  1.0 -0.2563986947
O  O112  1  0.68831000  0.15831000  0.86989000  1.0 -0.2805406706
O  O113  1  0.66040000  0.22460000  0.75120000  1.0 0.1022480603
O  O114  1  0.72600000  0.24500000  0.67620000  1.0 0.163336048
O  O115  1  0.70020000  0.16020000  0.72300000  1.0 -0.0930450642
O  O116  1  0.21181000  0.90655000  0.10769000  1.0 -0.2563986947
O  O117  1  0.28349000  0.86989000  0.15831000  1.0 -0.2805406706
O  O118  1  0.36380000  0.75120000  0.22460000  1.0 0.1087171156
O  O119  1  0.35280000  0.67620000  0.24500000  1.0 0.1678572388
O  O120  1  0.41660000  0.72300000  0.16020000  1.0 -0.0967660045
O  O121  1  0.90655000  0.21181000  0.10769000  1.0 -0.2540521102
O  O122  1  0.86989000  0.28349000  0.15831000  1.0 -0.2805406706
O  O123  1  0.75120000  0.36380000  0.22460000  1.0 0.1022480603
O  O124  1  0.67620000  0.35280000  0.24500000  1.0 0.1678572388
O  O125  1  0.72300000  0.41660000  0.16020000  1.0 -0.0930450642
O  O126  1  0.10769000  0.77395000  0.90655000  1.0 -0.2563986947
O  O127  1  0.15831000  0.68831000  0.86989000  1.0 -0.2805406706
O  O128  1  0.22460000  0.66040000  0.75120000  1.0 0.1022480603
O  O129  1  0.24500000  0.72600000  0.67620000  1.0 0.163336048
O  O130  1  0.16020000  0.70020000  0.72300000  1.0 -0.0967660045
O  O131  1  0.21181000  0.90655000  0.77395000  1.0 -0.2563986947
O  O132  1  0.28349000  0.86989000  0.68831000  1.0 -0.2805406706
O  O133  1  0.36380000  0.75120000  0.66040000  1.0 0.1087171156
O  O134  1  0.35280000  0.67620000  0.72600000  1.0 0.163336048
O  O135  1  0.41660000  0.72300000  0.70020000  1.0 -0.0930450642
O  O136  1  0.77395000  0.10769000  0.21181000  1.0 -0.2540521102
O  O137  1  0.68831000  0.15831000  0.28349000  1.0 -0.2805406706
O  O138  1  0.66040000  0.22460000  0.36380000  1.0 0.1022480603
O  O139  1  0.72600000  0.24500000  0.35280000  1.0 0.163336048
O  O140  1  0.70020000  0.16020000  0.41660000  1.0 -0.0930450642
O  O141  1  0.21181000  0.10769000  0.90655000  1.0 -0.2563986947
O  O142  1  0.28349000  0.15831000  0.86989000  1.0 -0.2805406706
O  O143  1  0.36380000  0.22460000  0.75120000  1.0 0.1022480603
O  O144  1  0.35280000  0.24500000  0.67620000  1.0 0.1678572388
O  O145  1  0.41660000  0.16020000  0.72300000  1.0 -0.0930450642
O  O146  1  0.77395000  0.90655000  0.10769000  1.0 -0.2563986947
O  O147  1  0.68831000  0.86989000  0.15831000  1.0 -0.2805406706
O  O148  1  0.66040000  0.75120000  0.22460000  1.0 0.1022480603
O  O149  1  0.72600000  0.67620000  0.24500000  1.0 0.1678572388
O  O150  1  0.70020000  0.72300000  0.16020000  1.0 -0.0930450642
O  O151  1  0.90655000  0.77395000  0.21181000  1.0 -0.2540521102
O  O152  1  0.86989000  0.68831000  0.28349000  1.0 -0.2805406706
O  O153  1  0.75120000  0.66040000  0.36380000  1.0 0.1022480603
O  O154  1  0.67620000  0.72600000  0.35280000  1.0 0.1678572388
O  O155  1  0.72300000  0.70020000  0.41660000  1.0 -0.0930450642
O  O156  1  0.10769000  0.21181000  0.77395000  1.0 -0.2563986947
O  O157  1  0.15831000  0.28349000  0.68831000  1.0 -0.2805406706
O  O158  1  0.22460000  0.36380000  0.66040000  1.0 0.1022480603
O  O159  1  0.24500000  0.35280000  0.72600000  1.0 0.163336048
O  O160  1  0.16020000  0.41660000  0.70020000  1.0 -0.0930450642
O  O161  1  0.10769000  0.90655000  0.21181000  1.0 -0.2563986947
O  O162  1  0.15831000  0.86989000  0.28349000  1.0 -0.2805406706
O  O163  1  0.22460000  0.75120000  0.36380000  1.0 0.1022480603
O  O164  1  0.24500000  0.67620000  0.35280000  1.0 0.1678572388
O  O165  1  0.16020000  0.72300000  0.41660000  1.0 -0.0967660045
O  O166  1  0.90655000  0.10769000  0.77395000  1.0 -0.2540521102
O  O167  1  0.86989000  0.15831000  0.68831000  1.0 -0.2805406706
O  O168  1  0.75120000  0.22460000  0.66040000  1.0 0.1022480603
O  O169  1  0.67620000  0.24500000  0.72600000  1.0 0.163336048
O  O170  1  0.72300000  0.16020000  0.70020000  1.0 -0.0930450642
O  O171  1  0.77395000  0.21181000  0.90655000  1.0 -0.2540521102
O  O172  1  0.68831000  0.28349000  0.86989000  1.0 -0.2805406706
O  O173  1  0.66040000  0.36380000  0.75120000  1.0 0.1022480603
O  O174  1  0.72600000  0.35280000  0.67620000  1.0 0.1678572388
O  O175  1  0.70020000  0.41660000  0.72300000  1.0 -0.0930450642
O  O176  1  0.21181000  0.77395000  0.10769000  1.0 -0.2540521102
O  O177  1  0.28349000  0.68831000  0.15831000  1.0 -0.2805406706
O  O178  1  0.36380000  0.66040000  0.22460000  1.0 0.1087171156
O  O179  1  0.35280000  0.72600000  0.24500000  1.0 0.163336048
O  O180  1  0.41660000  0.70020000  0.16020000  1.0 -0.0967660045
O  O181  1  0.09345000  0.22605000  0.89231000  1.0 -0.2563986947
O  O182  1  0.13011000  0.31169000  0.84169000  1.0 -0.2805406706
O  O183  1  0.24880000  0.33960000  0.77540000  1.0 0.1087171156
O  O184  1  0.32380000  0.27400000  0.75500000  1.0 0.163336048
O  O185  1  0.27700000  0.29980000  0.83980000  1.0 -0.0930450642
O  O186  1  0.89231000  0.78819000  0.09345000  1.0 -0.2540521102
O  O187  1  0.84169000  0.71651000  0.13011000  1.0 -0.2805406706
O  O188  1  0.77540000  0.63620000  0.24880000  1.0 0.1022480603
O  O189  1  0.75500000  0.64720000  0.32380000  1.0 0.1678572388
O  O190  1  0.83980000  0.58340000  0.27700000  1.0 -0.0930450642
O  O191  1  0.78819000  0.89231000  0.22605000  1.0 -0.2540521102
O  O192  1  0.71651000  0.84169000  0.31169000  1.0 -0.2805406706
O  O193  1  0.63620000  0.77540000  0.33960000  1.0 0.1022480603
O  O194  1  0.64720000  0.75500000  0.27400000  1.0 0.1678572388
O  O195  1  0.58340000  0.83980000  0.29980000  1.0 -0.0930450642
O  O196  1  0.22605000  0.09345000  0.78819000  1.0 -0.2563986947
O  O197  1  0.31169000  0.13011000  0.71651000  1.0 -0.2805406706
O  O198  1  0.33960000  0.24880000  0.63620000  1.0 0.1022480603
O  O199  1  0.27400000  0.32380000  0.64720000  1.0 0.1678572388
O  O200  1  0.29980000  0.27700000  0.58340000  1.0 -0.0967660045
O  O201  1  0.78819000  0.22605000  0.09345000  1.0 -0.2563986947
O  O202  1  0.71651000  0.31169000  0.13011000  1.0 -0.2805406706
O  O203  1  0.63620000  0.33960000  0.24880000  1.0 0.1087171156
O  O204  1  0.64720000  0.27400000  0.32380000  1.0 0.1678572388
O  O205  1  0.58340000  0.29980000  0.27700000  1.0 -0.0967660045
O  O206  1  0.22605000  0.78819000  0.89231000  1.0 -0.2563986947
O  O207  1  0.31169000  0.71651000  0.84169000  1.0 -0.2805406706
O  O208  1  0.33960000  0.63620000  0.77540000  1.0 0.1087171156
O  O209  1  0.27400000  0.64720000  0.75500000  1.0 0.163336048
O  O210  1  0.29980000  0.58340000  0.83980000  1.0 -0.0930450642
O  O211  1  0.09345000  0.89231000  0.78819000  1.0 -0.2563986947
O  O212  1  0.13011000  0.84169000  0.71651000  1.0 -0.2805406706
O  O213  1  0.24880000  0.77540000  0.63620000  1.0 0.1087171156
O  O214  1  0.32380000  0.75500000  0.64720000  1.0 0.163336048
O  O215  1  0.27700000  0.83980000  0.58340000  1.0 -0.0967660045
O  O216  1  0.89231000  0.09345000  0.22605000  1.0 -0.2540521102
O  O217  1  0.84169000  0.13011000  0.31169000  1.0 -0.2805406706
O  O218  1  0.77540000  0.24880000  0.33960000  1.0 0.1022480603
O  O219  1  0.75500000  0.32380000  0.27400000  1.0 0.1678572388
O  O220  1  0.83980000  0.27700000  0.29980000  1.0 -0.0930450642
O  O221  1  0.89231000  0.22605000  0.78819000  1.0 -0.2540521102
O  O222  1  0.84169000  0.31169000  0.71651000  1.0 -0.2805406706
O  O223  1  0.77540000  0.33960000  0.63620000  1.0 0.1022480603
O  O224  1  0.75500000  0.27400000  0.64720000  1.0 0.163336048
O  O225  1  0.83980000  0.29980000  0.58340000  1.0 -0.0930450642
O  O226  1  0.09345000  0.78819000  0.22605000  1.0 -0.2563986947
O  O227  1  0.13011000  0.71651000  0.31169000  1.0 -0.2805406706
O  O228  1  0.24880000  0.63620000  0.33960000  1.0 0.1087171156
O  O229  1  0.32380000  0.64720000  0.27400000  1.0 0.163336048
O  O230  1  0.27700000  0.58340000  0.29980000  1.0 -0.0967660045
O  O231  1  0.22605000  0.89231000  0.09345000  1.0 -0.2563986947
O  O232  1  0.31169000  0.84169000  0.13011000  1.0 -0.2805406706
O  O233  1  0.33960000  0.77540000  0.24880000  1.0 0.1022480603
O  O234  1  0.27400000  0.75500000  0.32380000  1.0 0.163336048
O  O235  1  0.29980000  0.83980000  0.27700000  1.0 -0.0930450642
O  O236  1  0.78819000  0.09345000  0.89231000  1.0 -0.2540521102
O  O237  1  0.71651000  0.13011000  0.84169000  1.0 -0.2805406706
O  O238  1  0.63620000  0.24880000  0.77540000  1.0 0.1022480603
O  O239  1  0.64720000  0.32380000  0.75500000  1.0 0.163336048
O  O240  1  0.58340000  0.27700000  0.83980000  1.0 -0.0930450642
O  O241  1  0.22500000  0.77500000  0.77500000  1.0 -0.6833315059
O  O242  1  0.77500000  0.22500000  0.22500000  1.0 -0.6833315059
O  O243  1  0.77500000  0.77500000  0.22500000  1.0 -0.6833315059
O  O244  1  0.22500000  0.22500000  0.77500000  1.0 -0.6833315059
O  O245  1  0.77500000  0.22500000  0.77500000  1.0 -0.6833315059
O  O246  1  0.22500000  0.77500000  0.22500000  1.0 -0.6855531975
