# DDEC6 charges by PACMAN v1.1 (https://github.com/mtap-research/PACMAN-charge/)
data_FOMJUP_FSR_pacman
_symmetry_space_group_name_H-M   'P 1'
_cell_length_a   25.59680000
_cell_length_b   16.51210000
_cell_length_c   27.08070000
_cell_angle_alpha   90.00000000
_cell_angle_beta   118.92300000
_cell_angle_gamma   90.00000000
_symmetry_Int_Tables_number   1
_chemical_formula_structural   Zn8H114C180N20O29
_chemical_formula_sum   'Zn16 H228 C360 N40 O58'
_cell_volume   10018.21020729
_cell_formula_units_Z   2
loop_
 _symmetry_equiv_pos_site_id
 _symmetry_equiv_pos_as_xyz
  1  'x, y, z'
loop_
 _atom_site_type_symbol
 _atom_site_label
 _atom_site_symmetry_multiplicity
 _atom_site_fract_x
 _atom_site_fract_y
 _atom_site_fract_z
 _atom_site_occupancy
 _atom_site_charge
Zn  Zn1  1  0.93888000  0.61825000  0.25718000  1.0 0.7755097354
Zn  Zn2  1  0.03657000  0.48986000  0.32035000  1.0 0.7721725565
Zn  Zn3  1  0.72843000  0.44624000  0.24483000  1.0 0.8128355945
Zn  Zn4  1  0.17978000  0.65885000  0.53625000  1.0 0.816758355
Zn  Zn5  1  0.06112000  0.61825000  0.24282000  1.0 0.7721725565
Zn  Zn6  1  0.96343000  0.48986000  0.17965000  1.0 0.7721725565
Zn  Zn7  1  0.27157000  0.44624000  0.25517000  1.0 0.8128355945
Zn  Zn8  1  0.82022000  0.65885000  0.96375000  1.0 0.816758355
Zn  Zn9  1  0.06112000  0.38175000  0.74282000  1.0 0.7721725565
Zn  Zn10  1  0.96343000  0.51014000  0.67965000  1.0 0.7721725565
Zn  Zn11  1  0.27157000  0.55376000  0.75517000  1.0 0.8128355945
Zn  Zn12  1  0.82022000  0.34115000  0.46375000  1.0 0.816758355
Zn  Zn13  1  0.93888000  0.38175000  0.75718000  1.0 0.7721725565
Zn  Zn14  1  0.03657000  0.51014000  0.82035000  1.0 0.7721725565
Zn  Zn15  1  0.72843000  0.55376000  0.74483000  1.0 0.8128355945
Zn  Zn16  1  0.17978000  0.34115000  0.03625000  1.0 0.816758355
H  H1  1  0.80831000  0.57244000  0.23152000  1.0 0.119059655
H  H2  1  0.77353000  0.45340000  0.34711000  1.0 0.3484560231
H  H3  1  0.71889000  0.41987000  0.32853000  1.0 0.3638203348
H  H4  1  0.13677000  0.53728000  0.44493000  1.0 0.119059655
H  H5  1  0.79006000  0.29106000  0.27031000  1.0 0.2902651335
H  H6  1  0.08886000  0.68868000  0.54940000  1.0 0.380738845
H  H7  1  0.10422000  0.60571000  0.56417000  1.0 0.3972855414
H  H8  1  0.46659000  0.25408000  0.56760000  1.0 0.1123515285
H  H9  1  0.00940000  0.32679000  0.35128000  1.0 0.1013778779
H  H10  1  0.27369000  0.23677000  0.50996000  1.0 0.1123515285
H  H11  1  0.47383000  0.85460000  0.55125000  1.0 0.1123515285
H  H12  1  0.32064000  0.86898000  0.37589000  1.0 0.1123515285
H  H13  1  0.19760000  0.33282000  0.48002000  1.0 0.119059655
H  H14  1  0.40932000  0.35327000  0.60935000  1.0 0.119059655
H  H15  1  0.22666000  0.05514000  0.39648000  1.0 0.1123515285
H  H16  1  0.25426000  0.77378000  0.31256000  1.0 0.119059655
H  H17  1  0.61319000  0.36813000  0.59134000  1.0 0.119059655
H  H18  1  0.37528000  0.85668000  0.47967000  1.0 0.1123515285
H  H19  1  0.60862000  0.05470000  0.66110000  1.0 0.119059655
H  H20  1  0.36417000  0.25278000  0.50362000  1.0 0.1123515285
H  H21  1  0.44927000  0.35735000  0.71283000  1.0 0.1123515285
H  H22  1  0.55637000  0.25084000  0.55674000  1.0 0.1123515285
H  H23  1  0.15541000  0.29324000  0.31848000  1.0 0.119059655
H  H24  1  0.60618000  0.18181000  0.71781000  1.0 0.1123515285
H  H25  1  0.66263000  0.30120000  0.75194000  1.0 0.1123515285
H  H26  1  0.94604000  0.78722000  0.30228000  1.0 0.1013778779
H  H27  1  0.45063000  0.96037000  0.71374000  1.0 0.1123515285
H  H28  1  0.19863000  0.91888000  0.42781000  1.0 0.1123515285
H  H29  1  0.64387000  0.92264000  0.62732000  1.0 0.1123515285
H  H30  1  0.75042000  0.10389000  0.25649000  1.0 0.1123515285
H  H31  1  0.74958000  0.99270000  0.20254000  1.0 0.1123515285
H  H32  1  0.83778000  0.95159000  0.20395000  1.0 0.1013778779
H  H33  1  0.92681000  0.02167000  0.25930000  1.0 0.1123515285
H  H34  1  0.92765000  0.13287000  0.31325000  1.0 0.1123515285
H  H35  1  0.14033000  0.81192000  0.37274000  1.0 0.1123515285
H  H36  1  0.22656000  0.40695000  0.59726000  1.0 0.1259816046
H  H37  1  0.31095000  0.15429000  0.61217000  1.0 0.119059655
H  H38  1  0.68839000  0.79961000  0.66414000  1.0 0.1123515285
H  H39  1  0.35720000  0.46763000  0.56348000  1.0 0.1259816046
H  H40  1  0.22491000  0.18912000  0.34540000  1.0 0.119059655
H  H41  1  0.36446000  0.97486000  0.72521000  1.0 0.1123515285
H  H42  1  0.50929000  0.86409000  0.65749000  1.0 0.119059655
H  H43  1  0.31224000  0.84984000  0.70223000  1.0 0.1123515285
H  H44  1  0.87317000  0.20185000  0.35777000  1.0 0.1123515285
H  H45  1  0.80257000  0.19060000  0.32959000  1.0 0.119059655
H  H46  1  0.27388000  0.28771000  0.63539000  1.0 0.1259816046
H  H47  1  0.55766000  0.74168000  0.70025000  1.0 0.1259816046
H  H48  1  0.25973000  0.89705000  0.53823000  1.0 0.1123515285
H  H49  1  0.13405000  0.82076000  0.48312000  1.0 0.2902651335
H  H50  1  0.31388000  0.02075000  0.56492000  1.0 0.1123515285
H  H51  1  0.15924000  0.99575000  0.52822000  1.0 0.1123515285
H  H52  1  0.18752000  0.11374000  0.49940000  1.0 0.1123515285
H  H53  1  0.13494000  0.15517000  0.40510000  1.0 0.1123515285
H  H54  1  0.05410000  0.07861000  0.33964000  1.0 0.1123515285
H  H55  1  0.02582000  0.96061000  0.36846000  1.0 0.1123515285
H  H56  1  0.09011000  0.91420000  0.52023000  1.0 0.1123515285
H  H57  1  0.02706000  0.90393000  0.46267000  1.0 0.119059655
H  H58  1  0.19169000  0.57244000  0.26848000  1.0 0.119059655
H  H59  1  0.22647000  0.45340000  0.15289000  1.0 0.3484560231
H  H60  1  0.28111000  0.41987000  0.17147000  1.0 0.3638203348
H  H61  1  0.86323000  0.53728000  0.05507000  1.0 0.119059655
H  H62  1  0.20994000  0.29106000  0.22969000  1.0 0.2902651335
H  H63  1  0.91114000  0.68868000  0.95060000  1.0 0.380738845
H  H64  1  0.89578000  0.60571000  0.93583000  1.0 0.3972855414
H  H65  1  0.53341000  0.25408000  0.93240000  1.0 0.1123515285
H  H66  1  0.99060000  0.32679000  0.14872000  1.0 0.1013778779
H  H67  1  0.72631000  0.23677000  0.99004000  1.0 0.1123515285
H  H68  1  0.52617000  0.85460000  0.94875000  1.0 0.1123515285
H  H69  1  0.67936000  0.86898000  0.12411000  1.0 0.1123515285
H  H70  1  0.80240000  0.33282000  0.01998000  1.0 0.119059655
H  H71  1  0.59068000  0.35327000  0.89065000  1.0 0.119059655
H  H72  1  0.77334000  0.05514000  0.10352000  1.0 0.1123515285
H  H73  1  0.74574000  0.77378000  0.18744000  1.0 0.119059655
H  H74  1  0.38681000  0.36813000  0.90866000  1.0 0.119059655
H  H75  1  0.62472000  0.85668000  0.02033000  1.0 0.1123515285
H  H76  1  0.39138000  0.05470000  0.83890000  1.0 0.119059655
H  H77  1  0.63583000  0.25278000  0.99638000  1.0 0.1123515285
H  H78  1  0.55073000  0.35735000  0.78717000  1.0 0.1123515285
H  H79  1  0.44363000  0.25084000  0.94326000  1.0 0.1123515285
H  H80  1  0.84459000  0.29324000  0.18152000  1.0 0.119059655
H  H81  1  0.39382000  0.18181000  0.78219000  1.0 0.1123515285
H  H82  1  0.33737000  0.30120000  0.74806000  1.0 0.1123515285
H  H83  1  0.05396000  0.78722000  0.19772000  1.0 0.1013778779
H  H84  1  0.54937000  0.96037000  0.78626000  1.0 0.1123515285
H  H85  1  0.80137000  0.91888000  0.07219000  1.0 0.1123515285
H  H86  1  0.35613000  0.92264000  0.87268000  1.0 0.1123515285
H  H87  1  0.24958000  0.10389000  0.24351000  1.0 0.1123515285
H  H88  1  0.25042000  0.99270000  0.29746000  1.0 0.1123515285
H  H89  1  0.16222000  0.95159000  0.29605000  1.0 0.1123515285
H  H90  1  0.07319000  0.02167000  0.24070000  1.0 0.1123515285
H  H91  1  0.07235000  0.13287000  0.18675000  1.0 0.1123515285
H  H92  1  0.85967000  0.81192000  0.12726000  1.0 0.1123515285
H  H93  1  0.77344000  0.40695000  0.90274000  1.0 0.1259816046
H  H94  1  0.68905000  0.15429000  0.88783000  1.0 0.119059655
H  H95  1  0.31161000  0.79961000  0.83586000  1.0 0.1123515285
H  H96  1  0.64280000  0.46763000  0.93652000  1.0 0.1259816046
H  H97  1  0.77509000  0.18912000  0.15460000  1.0 0.119059655
H  H98  1  0.63554000  0.97486000  0.77479000  1.0 0.1123515285
H  H99  1  0.49071000  0.86409000  0.84251000  1.0 0.119059655
H  H100  1  0.68776000  0.84984000  0.79777000  1.0 0.1123515285
H  H101  1  0.12683000  0.20185000  0.14223000  1.0 0.1123515285
H  H102  1  0.19743000  0.19060000  0.17041000  1.0 0.119059655
H  H103  1  0.72612000  0.28771000  0.86461000  1.0 0.1259816046
H  H104  1  0.44234000  0.74168000  0.79975000  1.0 0.1259816046
H  H105  1  0.74027000  0.89705000  0.96177000  1.0 0.1123515285
H  H106  1  0.86595000  0.82076000  0.01688000  1.0 0.2902651335
H  H107  1  0.68612000  0.02075000  0.93508000  1.0 0.1123515285
H  H108  1  0.84076000  0.99575000  0.97178000  1.0 0.1123515285
H  H109  1  0.81248000  0.11374000  0.00060000  1.0 0.1123515285
H  H110  1  0.86506000  0.15517000  0.09490000  1.0 0.1123515285
H  H111  1  0.94590000  0.07861000  0.16036000  1.0 0.1123515285
H  H112  1  0.97418000  0.96061000  0.13154000  1.0 0.1123515285
H  H113  1  0.90989000  0.91420000  0.97977000  1.0 0.1123515285
H  H114  1  0.97294000  0.90393000  0.03733000  1.0 0.119059655
H  H115  1  0.19169000  0.42756000  0.76848000  1.0 0.119059655
H  H116  1  0.22647000  0.54660000  0.65289000  1.0 0.3484560231
H  H117  1  0.28111000  0.58013000  0.67147000  1.0 0.3638203348
H  H118  1  0.86323000  0.46272000  0.55507000  1.0 0.119059655
H  H119  1  0.20994000  0.70894000  0.72969000  1.0 0.2902651335
H  H120  1  0.91114000  0.31132000  0.45060000  1.0 0.380738845
H  H121  1  0.89578000  0.39429000  0.43583000  1.0 0.3972855414
H  H122  1  0.53341000  0.74592000  0.43240000  1.0 0.1123515285
H  H123  1  0.99060000  0.67321000  0.64872000  1.0 0.1013778779
H  H124  1  0.72631000  0.76323000  0.49004000  1.0 0.1123515285
H  H125  1  0.52617000  0.14540000  0.44875000  1.0 0.1123515285
H  H126  1  0.67936000  0.13102000  0.62411000  1.0 0.1123515285
H  H127  1  0.80240000  0.66718000  0.51998000  1.0 0.119059655
H  H128  1  0.59068000  0.64673000  0.39065000  1.0 0.119059655
H  H129  1  0.77334000  0.94486000  0.60352000  1.0 0.1123515285
H  H130  1  0.74574000  0.22622000  0.68744000  1.0 0.119059655
H  H131  1  0.38681000  0.63187000  0.40866000  1.0 0.119059655
H  H132  1  0.62472000  0.14332000  0.52033000  1.0 0.1123515285
H  H133  1  0.39138000  0.94530000  0.33890000  1.0 0.119059655
H  H134  1  0.63583000  0.74722000  0.49638000  1.0 0.1123515285
H  H135  1  0.55073000  0.64265000  0.28717000  1.0 0.1123515285
H  H136  1  0.44363000  0.74916000  0.44326000  1.0 0.1123515285
H  H137  1  0.84459000  0.70676000  0.68152000  1.0 0.119059655
H  H138  1  0.39382000  0.81819000  0.28219000  1.0 0.1123515285
H  H139  1  0.33737000  0.69880000  0.24806000  1.0 0.1123515285
H  H140  1  0.05396000  0.21278000  0.69772000  1.0 0.1013778779
H  H141  1  0.54937000  0.03963000  0.28626000  1.0 0.1123515285
H  H142  1  0.80137000  0.08112000  0.57219000  1.0 0.1123515285
H  H143  1  0.35613000  0.07736000  0.37268000  1.0 0.1123515285
H  H144  1  0.24958000  0.89611000  0.74351000  1.0 0.1123515285
H  H145  1  0.25042000  0.00730000  0.79746000  1.0 0.1123515285
H  H146  1  0.16222000  0.04841000  0.79605000  1.0 0.1123515285
H  H147  1  0.07319000  0.97833000  0.74070000  1.0 0.1123515285
H  H148  1  0.07235000  0.86713000  0.68675000  1.0 0.1123515285
H  H149  1  0.85967000  0.18808000  0.62726000  1.0 0.1123515285
H  H150  1  0.77344000  0.59305000  0.40274000  1.0 0.1259816046
H  H151  1  0.68905000  0.84571000  0.38783000  1.0 0.119059655
H  H152  1  0.31161000  0.20039000  0.33586000  1.0 0.1123515285
H  H153  1  0.64280000  0.53237000  0.43652000  1.0 0.1259816046
H  H154  1  0.77509000  0.81088000  0.65460000  1.0 0.119059655
H  H155  1  0.63554000  0.02514000  0.27479000  1.0 0.1123515285
H  H156  1  0.49071000  0.13591000  0.34251000  1.0 0.119059655
H  H157  1  0.68776000  0.15016000  0.29777000  1.0 0.1123515285
H  H158  1  0.12683000  0.79815000  0.64223000  1.0 0.1123515285
H  H159  1  0.19743000  0.80940000  0.67041000  1.0 0.119059655
H  H160  1  0.72612000  0.71229000  0.36461000  1.0 0.1259816046
H  H161  1  0.44234000  0.25832000  0.29975000  1.0 0.1259816046
H  H162  1  0.74027000  0.10295000  0.46177000  1.0 0.1123515285
H  H163  1  0.86595000  0.17924000  0.51688000  1.0 0.2902651335
H  H164  1  0.68612000  0.97925000  0.43508000  1.0 0.1123515285
H  H165  1  0.84076000  0.00425000  0.47178000  1.0 0.1123515285
H  H166  1  0.81248000  0.88626000  0.50060000  1.0 0.1123515285
H  H167  1  0.86506000  0.84483000  0.59490000  1.0 0.1123515285
H  H168  1  0.94590000  0.92139000  0.66036000  1.0 0.1123515285
H  H169  1  0.97418000  0.03939000  0.63154000  1.0 0.1123515285
H  H170  1  0.90989000  0.08580000  0.47977000  1.0 0.1123515285
H  H171  1  0.97294000  0.09607000  0.53733000  1.0 0.119059655
H  H172  1  0.80831000  0.42756000  0.73152000  1.0 0.119059655
H  H173  1  0.77353000  0.54660000  0.84711000  1.0 0.3484560231
H  H174  1  0.71889000  0.58013000  0.82853000  1.0 0.3638203348
H  H175  1  0.13677000  0.46272000  0.94493000  1.0 0.119059655
H  H176  1  0.79006000  0.70894000  0.77031000  1.0 0.2902651335
H  H177  1  0.08886000  0.31132000  0.04940000  1.0 0.380738845
H  H178  1  0.10422000  0.39429000  0.06417000  1.0 0.3972855414
H  H179  1  0.46659000  0.74592000  0.06760000  1.0 0.1123515285
H  H180  1  0.00940000  0.67321000  0.85128000  1.0 0.1013778779
H  H181  1  0.27369000  0.76323000  0.00996000  1.0 0.1123515285
H  H182  1  0.47383000  0.14540000  0.05125000  1.0 0.1123515285
H  H183  1  0.32064000  0.13102000  0.87589000  1.0 0.1123515285
H  H184  1  0.19760000  0.66718000  0.98002000  1.0 0.119059655
H  H185  1  0.40932000  0.64673000  0.10935000  1.0 0.119059655
H  H186  1  0.22666000  0.94486000  0.89648000  1.0 0.1123515285
H  H187  1  0.25426000  0.22622000  0.81256000  1.0 0.119059655
H  H188  1  0.61319000  0.63187000  0.09134000  1.0 0.119059655
H  H189  1  0.37528000  0.14332000  0.97967000  1.0 0.1123515285
H  H190  1  0.60862000  0.94530000  0.16110000  1.0 0.119059655
H  H191  1  0.36417000  0.74722000  0.00362000  1.0 0.1123515285
H  H192  1  0.44927000  0.64265000  0.21283000  1.0 0.1123515285
H  H193  1  0.55637000  0.74916000  0.05674000  1.0 0.1123515285
H  H194  1  0.15541000  0.70676000  0.81848000  1.0 0.119059655
H  H195  1  0.60618000  0.81819000  0.21781000  1.0 0.1123515285
H  H196  1  0.66263000  0.69880000  0.25194000  1.0 0.1123515285
H  H197  1  0.94604000  0.21278000  0.80228000  1.0 0.1013778779
H  H198  1  0.45063000  0.03963000  0.21374000  1.0 0.1123515285
H  H199  1  0.19863000  0.08112000  0.92781000  1.0 0.1123515285
H  H200  1  0.64387000  0.07736000  0.12732000  1.0 0.1123515285
H  H201  1  0.75042000  0.89611000  0.75649000  1.0 0.1123515285
H  H202  1  0.74958000  0.00730000  0.70254000  1.0 0.1123515285
H  H203  1  0.83778000  0.04841000  0.70395000  1.0 0.1013778779
H  H204  1  0.92681000  0.97833000  0.75930000  1.0 0.1123515285
H  H205  1  0.92765000  0.86713000  0.81325000  1.0 0.1123515285
H  H206  1  0.14033000  0.18808000  0.87274000  1.0 0.1123515285
H  H207  1  0.22656000  0.59305000  0.09726000  1.0 0.1259816046
H  H208  1  0.31095000  0.84571000  0.11217000  1.0 0.119059655
H  H209  1  0.68839000  0.20039000  0.16414000  1.0 0.1123515285
H  H210  1  0.35720000  0.53237000  0.06348000  1.0 0.1259816046
H  H211  1  0.22491000  0.81088000  0.84540000  1.0 0.119059655
H  H212  1  0.36446000  0.02514000  0.22521000  1.0 0.1123515285
H  H213  1  0.50929000  0.13591000  0.15749000  1.0 0.119059655
H  H214  1  0.31224000  0.15016000  0.20223000  1.0 0.1123515285
H  H215  1  0.87317000  0.79815000  0.85777000  1.0 0.1123515285
H  H216  1  0.80257000  0.80940000  0.82959000  1.0 0.119059655
H  H217  1  0.27388000  0.71229000  0.13539000  1.0 0.1259816046
H  H218  1  0.55766000  0.25832000  0.20025000  1.0 0.1259816046
H  H219  1  0.25973000  0.10295000  0.03823000  1.0 0.1123515285
H  H220  1  0.13405000  0.17924000  0.98312000  1.0 0.2902651335
H  H221  1  0.31388000  0.97925000  0.06492000  1.0 0.1123515285
H  H222  1  0.15924000  0.00425000  0.02822000  1.0 0.1123515285
H  H223  1  0.18752000  0.88626000  0.99940000  1.0 0.1123515285
H  H224  1  0.13494000  0.84483000  0.90510000  1.0 0.1123515285
H  H225  1  0.05410000  0.92139000  0.83964000  1.0 0.1123515285
H  H226  1  0.02582000  0.03939000  0.86846000  1.0 0.1123515285
H  H227  1  0.09011000  0.08580000  0.02023000  1.0 0.1123515285
H  H228  1  0.02706000  0.09607000  0.96267000  1.0 0.119059655
C  C1  1  0.83290000  0.52640000  0.24810000  1.0 0.2091313655
C  C2  1  0.90930000  0.45190000  0.28660000  1.0 0.2839417661
C  C3  1  0.86050000  0.40630000  0.27850000  1.0 -0.041141191
C  C4  1  0.04170000  0.65760000  0.36970000  1.0 0.2983060832
C  C5  1  0.11240000  0.58350000  0.42840000  1.0 0.2025112564
C  C6  1  0.35500000  0.13010000  0.48840000  1.0 0.0327079641
C  C7  1  0.12180000  0.38550000  0.37770000  1.0 0.5379188364
C  C8  1  0.44180000  0.23480000  0.70510000  1.0 0.0327079641
C  C9  1  0.35850000  0.97820000  0.47830000  1.0 0.0327079641
C  C10  1  0.47690000  0.13070000  0.57030000  1.0 0.0327079641
C  C11  1  0.07930000  0.70280000  0.41610000  1.0 -0.041141191
C  C12  1  0.15050000  0.72180000  0.29590000  1.0 0.54920285
C  C13  1  0.29480000  0.12400000  0.44820000  1.0 0.01640444
C  C14  1  0.44640000  0.20430000  0.55300000  1.0 -0.1582173814
C  C15  1  0.17140000  0.32290000  0.39490000  1.0 -0.0091871988
C  C16  1  0.47960000  0.97880000  0.56490000  1.0 0.0327079641
C  C17  1  0.86960000  0.32580000  0.29840000  1.0 0.3277615661
C  C18  1  0.97010000  0.34810000  0.33110000  1.0 0.2437537963
C  C19  1  0.25660000  0.53170000  0.55460000  1.0 0.5379188364
C  C20  1  0.24840000  0.24590000  0.47080000  1.0 -0.1582173814
C  C21  1  0.44120000  0.08240000  0.70750000  1.0 0.0327079641
C  C22  1  0.67380000  0.42400000  0.69410000  1.0 0.54920285
C  C23  1  0.53910000  0.98030000  0.61150000  1.0 0.0327079641
C  C24  1  0.45240000  0.90420000  0.53960000  1.0 -0.1511667142
C  C25  1  0.44910000  0.05440000  0.54730000  1.0 -0.0091871988
C  C26  1  0.29860000  0.98220000  0.43820000  1.0 0.0095581197
C  C27  1  0.53950000  0.12890000  0.61180000  1.0 0.0327079641
C  C28  1  0.28300000  0.85990000  0.37400000  1.0 -0.1582173814
C  C29  1  0.20500000  0.30480000  0.45340000  1.0 -0.1008576631
C  C30  1  0.38810000  0.05470000  0.50550000  1.0 -0.0032210059
C  C31  1  0.19290000  0.78180000  0.33940000  1.0 -0.0091871988
C  C32  1  0.37150000  0.36340000  0.60680000  1.0 -0.1582173814
C  C33  1  0.25570000  0.19980000  0.43160000  1.0 0.0878359432
C  C34  1  0.26770000  0.05470000  0.42390000  1.0 -0.1674935887
C  C35  1  0.24470000  0.80100000  0.33810000  1.0 -0.0914969458
C  C36  1  0.38130000  0.23110000  0.65820000  1.0 0.0327079641
C  C37  1  0.61070000  0.33090000  0.61690000  1.0 -0.0836981033
C  C38  1  0.64070000  0.34810000  0.67470000  1.0 -0.041141191
C  C39  1  0.57200000  0.90470000  0.63720000  1.0 0.0706619628
C  C40  1  0.39350000  0.90640000  0.49720000  1.0 -0.1511667142
C  C41  1  0.56810000  0.05480000  0.63220000  1.0 -0.1995218639
C  C42  1  0.38560000  0.20320000  0.51370000  1.0 -0.1511667142
C  C43  1  0.46980000  0.30770000  0.72740000  1.0 -0.1408824419
C  C44  1  0.57750000  0.26080000  0.59620000  1.0 -0.1674935887
C  C45  1  0.57530000  0.20420000  0.63440000  1.0 0.0780303477
C  C46  1  0.26530000  0.90810000  0.40910000  1.0 0.0780303477
C  C47  1  0.17900000  0.28060000  0.35740000  1.0 -0.0914969458
C  C48  1  0.60710000  0.22000000  0.69200000  1.0 -0.1582173814
C  C49  1  0.64040000  0.29160000  0.71250000  1.0 -0.0914969458
C  C50  1  0.98110000  0.76400000  0.33200000  1.0 0.2437537963
C  C51  1  0.47050000  0.15850000  0.72750000  1.0 -0.0032210059
C  C52  1  0.47070000  0.01020000  0.72860000  1.0 -0.1408824419
C  C53  1  0.62740000  0.75800000  0.68400000  1.0 -0.0091871988
C  C54  1  0.65700000  0.67700000  0.70390000  1.0 0.5379188364
C  C55  1  0.21190000  0.88840000  0.40620000  1.0 -0.1511667142
C  C56  1  0.28740000  0.45320000  0.57920000  1.0 -0.0177377554
C  C57  1  0.37960000  0.08710000  0.66350000  1.0 0.0465430644
C  C58  1  0.62510000  0.88560000  0.64060000  1.0 -0.1408824419
C  C59  1  0.83910000  0.12880000  0.28990000  1.0 0.1013778779
C  C60  1  0.78630000  0.08720000  0.25710000  1.0 -0.1511667142
C  C61  1  0.78570000  0.02120000  0.22500000  1.0 -0.0914969458
C  C62  1  0.83820000  0.99670000  0.22590000  1.0 -0.1008576631
C  C63  1  0.89100000  0.03840000  0.25870000  1.0 -0.0914969458
C  C64  1  0.89150000  0.10440000  0.29080000  1.0 -0.1408824419
C  C65  1  0.24990000  0.78030000  0.59870000  1.0 0.54920285
C  C66  1  0.34900000  0.30860000  0.62920000  1.0 0.0780303477
C  C67  1  0.17640000  0.82500000  0.37260000  1.0 -0.1008576631
C  C68  1  0.26420000  0.39670000  0.59950000  1.0 -0.1008576631
C  C69  1  0.35160000  0.15570000  0.64070000  1.0 -0.1995218639
C  C70  1  0.65170000  0.81250000  0.66310000  1.0 -0.123423609
C  C71  1  0.28090000  0.86060000  0.61570000  1.0 -0.0177377554
C  C72  1  0.34130000  0.43270000  0.58080000  1.0 -0.0914969458
C  C73  1  0.22020000  0.21870000  0.37310000  1.0 -0.1582173814
C  C74  1  0.34290000  0.95850000  0.68680000  1.0 -0.1674935887
C  C75  1  0.54630000  0.85070000  0.65930000  1.0 -0.1582173814
C  C76  1  0.31210000  0.88340000  0.67370000  1.0 -0.1008576631
C  C77  1  0.83590000  0.19910000  0.32130000  1.0 -0.123423609
C  C78  1  0.29270000  0.32610000  0.62300000  1.0 -0.1511667142
C  C79  1  0.57430000  0.77730000  0.68400000  1.0 -0.1008576631
C  C80  1  0.06240000  0.78410000  0.42030000  1.0 0.3277615661
C  C81  1  0.28130000  0.91130000  0.57700000  1.0 -0.1069860851
C  C82  1  0.31370000  0.98660000  0.59310000  1.0 -0.1408824419
C  C83  1  0.34290000  0.00840000  0.64620000  1.0 0.0780303477
C  C84  1  0.08990000  0.96710000  0.45110000  1.0 0.0706619628
C  C85  1  0.13790000  0.01260000  0.48990000  1.0 -0.1582173814
C  C86  1  0.15470000  0.08270000  0.47280000  1.0 -0.0914969458
C  C87  1  0.12350000  0.10730000  0.41680000  1.0 -0.1008576631
C  C88  1  0.07540000  0.06180000  0.37790000  1.0 -0.1008576631
C  C89  1  0.05860000  0.99170000  0.39500000  1.0 -0.1408824419
C  C90  1  0.07100000  0.90610000  0.47890000  1.0 -0.1252424588
C  C91  1  0.16710000  0.52640000  0.25190000  1.0 0.2091313655
C  C92  1  0.09070000  0.45190000  0.21340000  1.0 0.2839417661
C  C93  1  0.13950000  0.40630000  0.22150000  1.0 -0.041141191
C  C94  1  0.95830000  0.65760000  0.13030000  1.0 0.2983060832
C  C95  1  0.88760000  0.58350000  0.07160000  1.0 0.2025112564
C  C96  1  0.64500000  0.13010000  0.01160000  1.0 0.0327079641
C  C97  1  0.87820000  0.38550000  0.12230000  1.0 0.5379188364
C  C98  1  0.55820000  0.23480000  0.79490000  1.0 0.0327079641
C  C99  1  0.64150000  0.97820000  0.02170000  1.0 0.0327079641
C  C100  1  0.52310000  0.13070000  0.92970000  1.0 0.0327079641
C  C101  1  0.92070000  0.70280000  0.08390000  1.0 -0.041141191
C  C102  1  0.84950000  0.72180000  0.20410000  1.0 0.54920285
C  C103  1  0.70520000  0.12400000  0.05180000  1.0 0.01640444
C  C104  1  0.55360000  0.20430000  0.94700000  1.0 -0.1582173814
C  C105  1  0.82860000  0.32290000  0.10510000  1.0 -0.0091871988
C  C106  1  0.52040000  0.97880000  0.93510000  1.0 0.0327079641
C  C107  1  0.13040000  0.32580000  0.20160000  1.0 0.3277615661
C  C108  1  0.02990000  0.34810000  0.16890000  1.0 0.2437537963
C  C109  1  0.74340000  0.53170000  0.94540000  1.0 0.5379188364
C  C110  1  0.75160000  0.24590000  0.02920000  1.0 -0.1582173814
C  C111  1  0.55880000  0.08240000  0.79250000  1.0 0.0327079641
C  C112  1  0.32620000  0.42400000  0.80590000  1.0 0.54920285
C  C113  1  0.46090000  0.98030000  0.88850000  1.0 0.0327079641
C  C114  1  0.54760000  0.90420000  0.96040000  1.0 -0.1511667142
C  C115  1  0.55090000  0.05440000  0.95270000  1.0 -0.0091871988
C  C116  1  0.70140000  0.98220000  0.06180000  1.0 0.0095581197
C  C117  1  0.46050000  0.12890000  0.88820000  1.0 0.0327079641
C  C118  1  0.71700000  0.85990000  0.12600000  1.0 -0.1582173814
C  C119  1  0.79500000  0.30480000  0.04660000  1.0 -0.1008576631
C  C120  1  0.61190000  0.05470000  0.99450000  1.0 -0.0032210059
C  C121  1  0.80710000  0.78180000  0.16060000  1.0 -0.0091871988
C  C122  1  0.62850000  0.36340000  0.89320000  1.0 -0.1582173814
C  C123  1  0.74430000  0.19980000  0.06840000  1.0 0.0878359432
C  C124  1  0.73230000  0.05470000  0.07610000  1.0 -0.1674935887
C  C125  1  0.75530000  0.80100000  0.16190000  1.0 -0.0914969458
C  C126  1  0.61870000  0.23110000  0.84180000  1.0 0.0327079641
C  C127  1  0.38930000  0.33090000  0.88310000  1.0 -0.0836981033
C  C128  1  0.35930000  0.34810000  0.82530000  1.0 -0.041141191
C  C129  1  0.42800000  0.90470000  0.86280000  1.0 0.0706619628
C  C130  1  0.60650000  0.90640000  0.00280000  1.0 -0.1511667142
C  C131  1  0.43190000  0.05480000  0.86780000  1.0 -0.1995218639
C  C132  1  0.61440000  0.20320000  0.98630000  1.0 -0.1511667142
C  C133  1  0.53020000  0.30770000  0.77260000  1.0 -0.1408824419
C  C134  1  0.42250000  0.26080000  0.90380000  1.0 -0.1674935887
C  C135  1  0.42470000  0.20420000  0.86560000  1.0 0.0780303477
C  C136  1  0.73470000  0.90810000  0.09090000  1.0 0.0780303477
C  C137  1  0.82100000  0.28060000  0.14260000  1.0 -0.0914969458
C  C138  1  0.39290000  0.22000000  0.80800000  1.0 -0.1582173814
C  C139  1  0.35960000  0.29160000  0.78750000  1.0 -0.0914969458
C  C140  1  0.01890000  0.76400000  0.16800000  1.0 0.2437537963
C  C141  1  0.52950000  0.15850000  0.77250000  1.0 -0.0032210059
C  C142  1  0.52930000  0.01020000  0.77140000  1.0 -0.1408824419
C  C143  1  0.37260000  0.75800000  0.81600000  1.0 -0.0091871988
C  C144  1  0.34300000  0.67700000  0.79610000  1.0 0.5379188364
C  C145  1  0.78810000  0.88840000  0.09380000  1.0 -0.1511667142
C  C146  1  0.71260000  0.45320000  0.92080000  1.0 -0.0177377554
C  C147  1  0.62040000  0.08710000  0.83650000  1.0 0.0465430644
C  C148  1  0.37490000  0.88560000  0.85940000  1.0 -0.1408824419
C  C149  1  0.16090000  0.12880000  0.21010000  1.0 0.1013778779
C  C150  1  0.21370000  0.08720000  0.24290000  1.0 -0.1511667142
C  C151  1  0.21430000  0.02120000  0.27500000  1.0 -0.0914969458
C  C152  1  0.16180000  0.99670000  0.27410000  1.0 -0.1008576631
C  C153  1  0.10900000  0.03840000  0.24130000  1.0 -0.0914969458
C  C154  1  0.10850000  0.10440000  0.20920000  1.0 -0.1408824419
C  C155  1  0.75010000  0.78030000  0.90130000  1.0 0.54920285
C  C156  1  0.65100000  0.30860000  0.87080000  1.0 0.0780303477
C  C157  1  0.82360000  0.82500000  0.12740000  1.0 -0.1008576631
C  C158  1  0.73580000  0.39670000  0.90050000  1.0 -0.1008576631
C  C159  1  0.64840000  0.15570000  0.85930000  1.0 -0.1995218639
C  C160  1  0.34830000  0.81250000  0.83690000  1.0 -0.123423609
C  C161  1  0.71910000  0.86060000  0.88430000  1.0 -0.0177377554
C  C162  1  0.65870000  0.43270000  0.91920000  1.0 -0.0914969458
C  C163  1  0.77980000  0.21870000  0.12690000  1.0 -0.1582173814
C  C164  1  0.65710000  0.95850000  0.81320000  1.0 -0.1674935887
C  C165  1  0.45370000  0.85070000  0.84070000  1.0 -0.1582173814
C  C166  1  0.68790000  0.88340000  0.82630000  1.0 -0.1008576631
C  C167  1  0.16410000  0.19910000  0.17870000  1.0 -0.123423609
C  C168  1  0.70730000  0.32610000  0.87700000  1.0 -0.1511667142
C  C169  1  0.42570000  0.77730000  0.81600000  1.0 -0.1008576631
C  C170  1  0.93760000  0.78410000  0.07970000  1.0 0.3277615661
C  C171  1  0.71870000  0.91130000  0.92300000  1.0 -0.1069860851
C  C172  1  0.68630000  0.98660000  0.90690000  1.0 -0.1408824419
C  C173  1  0.65710000  0.00840000  0.85380000  1.0 0.0780303477
C  C174  1  0.91010000  0.96710000  0.04890000  1.0 0.0706619628
C  C175  1  0.86210000  0.01260000  0.01010000  1.0 -0.1582173814
C  C176  1  0.84530000  0.08270000  0.02720000  1.0 -0.0914969458
C  C177  1  0.87650000  0.10730000  0.08320000  1.0 -0.1008576631
C  C178  1  0.92460000  0.06180000  0.12210000  1.0 -0.1008576631
C  C179  1  0.94140000  0.99170000  0.10500000  1.0 -0.1408824419
C  C180  1  0.92900000  0.90610000  0.02110000  1.0 -0.1252424588
C  C181  1  0.16710000  0.47360000  0.75190000  1.0 0.2091313655
C  C182  1  0.09070000  0.54810000  0.71340000  1.0 0.2839417661
C  C183  1  0.13950000  0.59370000  0.72150000  1.0 -0.041141191
C  C184  1  0.95830000  0.34240000  0.63030000  1.0 0.2983060832
C  C185  1  0.88760000  0.41650000  0.57160000  1.0 0.2025112564
C  C186  1  0.64500000  0.86990000  0.51160000  1.0 0.0327079641
C  C187  1  0.87820000  0.61450000  0.62230000  1.0 0.5379188364
C  C188  1  0.55820000  0.76520000  0.29490000  1.0 0.0327079641
C  C189  1  0.64150000  0.02180000  0.52170000  1.0 0.0327079641
C  C190  1  0.52310000  0.86930000  0.42970000  1.0 0.0327079641
C  C191  1  0.92070000  0.29720000  0.58390000  1.0 -0.041141191
C  C192  1  0.84950000  0.27820000  0.70410000  1.0 0.54920285
C  C193  1  0.70520000  0.87600000  0.55180000  1.0 0.01640444
C  C194  1  0.55360000  0.79570000  0.44700000  1.0 -0.1582173814
C  C195  1  0.82860000  0.67710000  0.60510000  1.0 -0.0091871988
C  C196  1  0.52040000  0.02120000  0.43510000  1.0 0.0327079641
C  C197  1  0.13040000  0.67420000  0.70160000  1.0 0.3277615661
C  C198  1  0.02990000  0.65190000  0.66890000  1.0 0.2437537963
C  C199  1  0.74340000  0.46830000  0.44540000  1.0 0.5379188364
C  C200  1  0.75160000  0.75410000  0.52920000  1.0 -0.1582173814
C  C201  1  0.55880000  0.91760000  0.29250000  1.0 0.0327079641
C  C202  1  0.32620000  0.57600000  0.30590000  1.0 0.54920285
C  C203  1  0.46090000  0.01970000  0.38850000  1.0 0.0327079641
C  C204  1  0.54760000  0.09580000  0.46040000  1.0 -0.1511667142
C  C205  1  0.55090000  0.94560000  0.45270000  1.0 -0.0091871988
C  C206  1  0.70140000  0.01780000  0.56180000  1.0 0.0095581197
C  C207  1  0.46050000  0.87110000  0.38820000  1.0 0.0327079641
C  C208  1  0.71700000  0.14010000  0.62600000  1.0 -0.1582173814
C  C209  1  0.79500000  0.69520000  0.54660000  1.0 -0.1008576631
C  C210  1  0.61190000  0.94530000  0.49450000  1.0 -0.0032210059
C  C211  1  0.80710000  0.21820000  0.66060000  1.0 -0.0091871988
C  C212  1  0.62850000  0.63660000  0.39320000  1.0 -0.1582173814
C  C213  1  0.74430000  0.80020000  0.56840000  1.0 0.0878359432
C  C214  1  0.73230000  0.94530000  0.57610000  1.0 -0.1674935887
C  C215  1  0.75530000  0.19900000  0.66190000  1.0 -0.0914969458
C  C216  1  0.61870000  0.76890000  0.34180000  1.0 0.0327079641
C  C217  1  0.38930000  0.66910000  0.38310000  1.0 -0.0836981033
C  C218  1  0.35930000  0.65190000  0.32530000  1.0 -0.041141191
C  C219  1  0.42800000  0.09530000  0.36280000  1.0 0.0706619628
C  C220  1  0.60650000  0.09360000  0.50280000  1.0 -0.1511667142
C  C221  1  0.43190000  0.94520000  0.36780000  1.0 -0.1995218639
C  C222  1  0.61440000  0.79680000  0.48630000  1.0 -0.1511667142
C  C223  1  0.53020000  0.69230000  0.27260000  1.0 -0.1408824419
C  C224  1  0.42250000  0.73920000  0.40380000  1.0 -0.1674935887
C  C225  1  0.42470000  0.79580000  0.36560000  1.0 0.0780303477
C  C226  1  0.73470000  0.09190000  0.59090000  1.0 0.0780303477
C  C227  1  0.82100000  0.71940000  0.64260000  1.0 -0.0914969458
C  C228  1  0.39290000  0.78000000  0.30800000  1.0 -0.1582173814
C  C229  1  0.35960000  0.70840000  0.28750000  1.0 -0.0914969458
C  C230  1  0.01890000  0.23600000  0.66800000  1.0 0.2437537963
C  C231  1  0.52950000  0.84150000  0.27250000  1.0 -0.0032210059
C  C232  1  0.52930000  0.98980000  0.27140000  1.0 -0.1408824419
C  C233  1  0.37260000  0.24200000  0.31600000  1.0 -0.0091871988
C  C234  1  0.34300000  0.32300000  0.29610000  1.0 0.5379188364
C  C235  1  0.78810000  0.11160000  0.59380000  1.0 -0.1511667142
C  C236  1  0.71260000  0.54680000  0.42080000  1.0 -0.0177377554
C  C237  1  0.62040000  0.91290000  0.33650000  1.0 0.0465430644
C  C238  1  0.37490000  0.11440000  0.35940000  1.0 -0.1408824419
C  C239  1  0.16090000  0.87120000  0.71010000  1.0 0.1013778779
C  C240  1  0.21370000  0.91280000  0.74290000  1.0 -0.1511667142
C  C241  1  0.21430000  0.97880000  0.77500000  1.0 -0.0914969458
C  C242  1  0.16180000  0.00330000  0.77410000  1.0 -0.1008576631
C  C243  1  0.10900000  0.96160000  0.74130000  1.0 -0.1008576631
C  C244  1  0.10850000  0.89560000  0.70920000  1.0 -0.1408824419
C  C245  1  0.75010000  0.21970000  0.40130000  1.0 0.54920285
C  C246  1  0.65100000  0.69140000  0.37080000  1.0 0.0780303477
C  C247  1  0.82360000  0.17500000  0.62740000  1.0 -0.1008576631
C  C248  1  0.73580000  0.60330000  0.40050000  1.0 -0.1008576631
C  C249  1  0.64840000  0.84430000  0.35930000  1.0 -0.1995218639
C  C250  1  0.34830000  0.18750000  0.33690000  1.0 -0.123423609
C  C251  1  0.71910000  0.13940000  0.38430000  1.0 -0.0177377554
C  C252  1  0.65870000  0.56730000  0.41920000  1.0 -0.0914969458
C  C253  1  0.77980000  0.78130000  0.62690000  1.0 -0.1582173814
C  C254  1  0.65710000  0.04150000  0.31320000  1.0 -0.1674935887
C  C255  1  0.45370000  0.14930000  0.34070000  1.0 -0.1582173814
C  C256  1  0.68790000  0.11660000  0.32630000  1.0 -0.1008576631
C  C257  1  0.16410000  0.80090000  0.67870000  1.0 -0.123423609
C  C258  1  0.70730000  0.67390000  0.37700000  1.0 -0.1511667142
C  C259  1  0.42570000  0.22270000  0.31600000  1.0 -0.1008576631
C  C260  1  0.93760000  0.21590000  0.57970000  1.0 0.3277615661
C  C261  1  0.71870000  0.08870000  0.42300000  1.0 -0.1069860851
C  C262  1  0.68630000  0.01340000  0.40690000  1.0 -0.1408824419
C  C263  1  0.65710000  0.99160000  0.35380000  1.0 0.0780303477
C  C264  1  0.91010000  0.03290000  0.54890000  1.0 0.0706619628
C  C265  1  0.86210000  0.98740000  0.51010000  1.0 -0.1582173814
C  C266  1  0.84530000  0.91730000  0.52720000  1.0 -0.0914969458
C  C267  1  0.87650000  0.89270000  0.58320000  1.0 -0.1008576631
C  C268  1  0.92460000  0.93820000  0.62210000  1.0 -0.1008576631
C  C269  1  0.94140000  0.00830000  0.60500000  1.0 -0.1408824419
C  C270  1  0.92900000  0.09390000  0.52110000  1.0 -0.123423609
C  C271  1  0.83290000  0.47360000  0.74810000  1.0 0.2091313655
C  C272  1  0.90930000  0.54810000  0.78660000  1.0 0.2839417661
C  C273  1  0.86050000  0.59370000  0.77850000  1.0 -0.041141191
C  C274  1  0.04170000  0.34240000  0.86970000  1.0 0.2983060832
C  C275  1  0.11240000  0.41650000  0.92840000  1.0 0.2025112564
C  C276  1  0.35500000  0.86990000  0.98840000  1.0 0.0327079641
C  C277  1  0.12180000  0.61450000  0.87770000  1.0 0.5379188364
C  C278  1  0.44180000  0.76520000  0.20510000  1.0 0.0327079641
C  C279  1  0.35850000  0.02180000  0.97830000  1.0 0.0327079641
C  C280  1  0.47690000  0.86930000  0.07030000  1.0 0.0327079641
C  C281  1  0.07930000  0.29720000  0.91610000  1.0 -0.041141191
C  C282  1  0.15050000  0.27820000  0.79590000  1.0 0.54920285
C  C283  1  0.29480000  0.87600000  0.94820000  1.0 0.01640444
C  C284  1  0.44640000  0.79570000  0.05300000  1.0 -0.1582173814
C  C285  1  0.17140000  0.67710000  0.89490000  1.0 -0.0091871988
C  C286  1  0.47960000  0.02120000  0.06490000  1.0 0.0327079641
C  C287  1  0.86960000  0.67420000  0.79840000  1.0 0.3277615661
C  C288  1  0.97010000  0.65190000  0.83110000  1.0 0.2437537963
C  C289  1  0.25660000  0.46830000  0.05460000  1.0 0.5379188364
C  C290  1  0.24840000  0.75410000  0.97080000  1.0 -0.1582173814
C  C291  1  0.44120000  0.91760000  0.20750000  1.0 0.0327079641
C  C292  1  0.67380000  0.57600000  0.19410000  1.0 0.54920285
C  C293  1  0.53910000  0.01970000  0.11150000  1.0 0.0327079641
C  C294  1  0.45240000  0.09580000  0.03960000  1.0 -0.1511667142
C  C295  1  0.44910000  0.94560000  0.04730000  1.0 -0.0091871988
C  C296  1  0.29860000  0.01780000  0.93820000  1.0 0.0095581197
C  C297  1  0.53950000  0.87110000  0.11180000  1.0 0.0327079641
C  C298  1  0.28300000  0.14010000  0.87400000  1.0 -0.1582173814
C  C299  1  0.20500000  0.69520000  0.95340000  1.0 -0.1008576631
C  C300  1  0.38810000  0.94530000  0.00550000  1.0 -0.0032210059
C  C301  1  0.19290000  0.21820000  0.83940000  1.0 -0.0091871988
C  C302  1  0.37150000  0.63660000  0.10680000  1.0 -0.1582173814
C  C303  1  0.25570000  0.80020000  0.93160000  1.0 0.0878359432
C  C304  1  0.26770000  0.94530000  0.92390000  1.0 -0.1674935887
C  C305  1  0.24470000  0.19900000  0.83810000  1.0 -0.0914969458
C  C306  1  0.38130000  0.76890000  0.15820000  1.0 0.0327079641
C  C307  1  0.61070000  0.66910000  0.11690000  1.0 -0.0836981033
C  C308  1  0.64070000  0.65190000  0.17470000  1.0 -0.041141191
C  C309  1  0.57200000  0.09530000  0.13720000  1.0 0.0706619628
C  C310  1  0.39350000  0.09360000  0.99720000  1.0 -0.1511667142
C  C311  1  0.56810000  0.94520000  0.13220000  1.0 -0.1995218639
C  C312  1  0.38560000  0.79680000  0.01370000  1.0 -0.1511667142
C  C313  1  0.46980000  0.69230000  0.22740000  1.0 -0.1408824419
C  C314  1  0.57750000  0.73920000  0.09620000  1.0 -0.1674935887
C  C315  1  0.57530000  0.79580000  0.13440000  1.0 0.0780303477
C  C316  1  0.26530000  0.09190000  0.90910000  1.0 0.0780303477
C  C317  1  0.17900000  0.71940000  0.85740000  1.0 -0.0914969458
C  C318  1  0.60710000  0.78000000  0.19200000  1.0 -0.1582173814
C  C319  1  0.64040000  0.70840000  0.21250000  1.0 -0.0914969458
C  C320  1  0.98110000  0.23600000  0.83200000  1.0 0.2437537963
C  C321  1  0.47050000  0.84150000  0.22750000  1.0 -0.0032210059
C  C322  1  0.47070000  0.98980000  0.22860000  1.0 -0.1408824419
C  C323  1  0.62740000  0.24200000  0.18400000  1.0 -0.0091871988
C  C324  1  0.65700000  0.32300000  0.20390000  1.0 0.5379188364
C  C325  1  0.21190000  0.11160000  0.90620000  1.0 -0.1511667142
C  C326  1  0.28740000  0.54680000  0.07920000  1.0 -0.0177377554
C  C327  1  0.37960000  0.91290000  0.16350000  1.0 0.0465430644
C  C328  1  0.62510000  0.11440000  0.14060000  1.0 -0.1408824419
C  C329  1  0.83910000  0.87120000  0.78990000  1.0 0.1013778779
C  C330  1  0.78630000  0.91280000  0.75710000  1.0 -0.1511667142
C  C331  1  0.78570000  0.97880000  0.72500000  1.0 -0.0914969458
C  C332  1  0.83820000  0.00330000  0.72590000  1.0 -0.1008576631
C  C333  1  0.89100000  0.96160000  0.75870000  1.0 -0.1008576631
C  C334  1  0.89150000  0.89560000  0.79080000  1.0 -0.1408824419
C  C335  1  0.24990000  0.21970000  0.09870000  1.0 0.54920285
C  C336  1  0.34900000  0.69140000  0.12920000  1.0 0.0780303477
C  C337  1  0.17640000  0.17500000  0.87260000  1.0 -0.1008576631
C  C338  1  0.26420000  0.60330000  0.09950000  1.0 -0.1008576631
C  C339  1  0.35160000  0.84430000  0.14070000  1.0 -0.1995218639
C  C340  1  0.65170000  0.18750000  0.16310000  1.0 -0.123423609
C  C341  1  0.28090000  0.13940000  0.11570000  1.0 -0.0177377554
C  C342  1  0.34130000  0.56730000  0.08080000  1.0 -0.0914969458
C  C343  1  0.22020000  0.78130000  0.87310000  1.0 -0.1582173814
C  C344  1  0.34290000  0.04150000  0.18680000  1.0 -0.1674935887
C  C345  1  0.54630000  0.14930000  0.15930000  1.0 -0.1582173814
C  C346  1  0.31210000  0.11660000  0.17370000  1.0 -0.1008576631
C  C347  1  0.83590000  0.80090000  0.82130000  1.0 -0.123423609
C  C348  1  0.29270000  0.67390000  0.12300000  1.0 -0.1511667142
C  C349  1  0.57430000  0.22270000  0.18400000  1.0 -0.1008576631
C  C350  1  0.06240000  0.21590000  0.92030000  1.0 0.3277615661
C  C351  1  0.28130000  0.08870000  0.07700000  1.0 -0.1069860851
C  C352  1  0.31370000  0.01340000  0.09310000  1.0 -0.1408824419
C  C353  1  0.34290000  0.99160000  0.14620000  1.0 0.0780303477
C  C354  1  0.08990000  0.03290000  0.95110000  1.0 0.0706619628
C  C355  1  0.13790000  0.98740000  0.98990000  1.0 -0.1582173814
C  C356  1  0.15470000  0.91730000  0.97280000  1.0 -0.0914969458
C  C357  1  0.12350000  0.89270000  0.91680000  1.0 -0.1008576631
C  C358  1  0.07540000  0.93820000  0.87790000  1.0 -0.1008576631
C  C359  1  0.05860000  0.00830000  0.89500000  1.0 -0.1408824419
C  C360  1  0.07100000  0.09390000  0.97890000  1.0 -0.1252424588
N  N1  1  0.89220000  0.52830000  0.26810000  1.0 -0.3712135722
N  N2  1  0.06221000  0.58070000  0.37611000  1.0 -0.3712135722
N  N3  1  0.81080000  0.45550000  0.25300000  1.0 -0.3303107564
N  N4  1  0.96600000  0.42210000  0.31220000  1.0 -0.359195931
N  N5  1  0.99130000  0.68690000  0.32530000  1.0 -0.359195931
N  N6  1  0.92680000  0.29880000  0.32590000  1.0 -0.4181266521
N  N7  1  0.12430000  0.65340000  0.45360000  1.0 -0.3439368402
N  N8  1  0.82710000  0.27610000  0.29310000  1.0 -0.2204275598
N  N9  1  0.01360000  0.81240000  0.37480000  1.0 -0.404924879
N  N10  1  0.09580000  0.83180000  0.46290000  1.0 -0.2793573086
N  N11  1  0.10780000  0.52830000  0.23190000  1.0 -0.3712135722
N  N12  1  0.93779000  0.58070000  0.12389000  1.0 -0.3712135722
N  N13  1  0.18920000  0.45550000  0.24700000  1.0 -0.3303107564
N  N14  1  0.03400000  0.42210000  0.18780000  1.0 -0.359195931
N  N15  1  0.00870000  0.68690000  0.17470000  1.0 -0.359195931
N  N16  1  0.07320000  0.29880000  0.17410000  1.0 -0.4181266521
N  N17  1  0.87570000  0.65340000  0.04640000  1.0 -0.3439368402
N  N18  1  0.17290000  0.27610000  0.20690000  1.0 -0.2204275598
N  N19  1  0.98640000  0.81240000  0.12520000  1.0 -0.404924879
N  N20  1  0.90420000  0.83180000  0.03710000  1.0 -0.2793573086
N  N21  1  0.10780000  0.47170000  0.73190000  1.0 -0.3712135722
N  N22  1  0.93779000  0.41930000  0.62389000  1.0 -0.3712135722
N  N23  1  0.18920000  0.54450000  0.74700000  1.0 -0.3303107564
N  N24  1  0.03400000  0.57790000  0.68780000  1.0 -0.359195931
N  N25  1  0.00870000  0.31310000  0.67470000  1.0 -0.359195931
N  N26  1  0.07320000  0.70120000  0.67410000  1.0 -0.4181266521
N  N27  1  0.87570000  0.34660000  0.54640000  1.0 -0.3439368402
N  N28  1  0.17290000  0.72390000  0.70690000  1.0 -0.2204275598
N  N29  1  0.98640000  0.18760000  0.62520000  1.0 -0.404924879
N  N30  1  0.90420000  0.16820000  0.53710000  1.0 -0.2793573086
N  N31  1  0.89220000  0.47170000  0.76810000  1.0 -0.3712135722
N  N32  1  0.06221000  0.41930000  0.87611000  1.0 -0.3712135722
N  N33  1  0.81080000  0.54450000  0.75300000  1.0 -0.3303107564
N  N34  1  0.96600000  0.57790000  0.81220000  1.0 -0.359195931
N  N35  1  0.99130000  0.31310000  0.82530000  1.0 -0.359195931
N  N36  1  0.92680000  0.70120000  0.82590000  1.0 -0.4181266521
N  N37  1  0.12430000  0.34660000  0.95360000  1.0 -0.3439368402
N  N38  1  0.82710000  0.72390000  0.79310000  1.0 -0.2204275598
N  N39  1  0.01360000  0.18760000  0.87480000  1.0 -0.404924879
N  N40  1  0.09580000  0.16820000  0.96290000  1.0 -0.2793573086
O  O1  1  0.10000000  0.41430000  0.32980000  1.0 -0.4885451739
O  O2  1  0.11020000  0.69230000  0.30510000  1.0 -0.5209958946
O  O3  1  0.15370000  0.70740000  0.25290000  1.0 -0.5262951945
O  O4  1  0.10330000  0.40340000  0.41050000  1.0 -0.5262951945
O  O5  1  0.70680000  0.66570000  0.71410000  1.0 -0.4825224673
O  O6  1  0.21580000  0.76920000  0.54940000  1.0 -0.5398327505
O  O7  1  0.74990000  0.41740000  0.32410000  1.0 -0.6335984414
O  O8  1  0.69920000  0.44060000  0.74730000  1.0 -0.5547801649
O  O9  1  0.67820000  0.47380000  0.66260000  1.0 -0.5108606761
O  O10  1  0.21650000  0.55280000  0.56280000  1.0 -0.5027231966
O  O11  1  0.12330000  0.65580000  0.56810000  1.0 -0.6638631468
O  O12  1  0.26030000  0.72930000  0.63890000  1.0 -0.5557507073
O  O13  1  0.63060000  0.62260000  0.71740000  1.0 -0.5027231966
O  O14  1  0.27040000  0.57090000  0.52490000  1.0 -0.4735016321
O  O15  1  0.90000000  0.41430000  0.17020000  1.0 -0.4885451739
O  O16  1  0.88980000  0.69230000  0.19490000  1.0 -0.5209958946
O  O17  1  0.84630000  0.70740000  0.24710000  1.0 -0.5262951945
O  O18  1  0.89670000  0.40340000  0.08950000  1.0 -0.5262951945
O  O19  1  0.29320000  0.66570000  0.78590000  1.0 -0.4825224673
O  O20  1  0.78420000  0.76920000  0.95060000  1.0 -0.5398327505
O  O21  1  0.25010000  0.41740000  0.17590000  1.0 -0.6335984414
O  O22  1  0.30080000  0.44060000  0.75270000  1.0 -0.5547801649
O  O23  1  0.32180000  0.47380000  0.83740000  1.0 -0.5108606761
O  O24  1  0.78350000  0.55280000  0.93720000  1.0 -0.5027231966
O  O25  1  0.87670000  0.65580000  0.93190000  1.0 -0.6638631468
O  O26  1  0.73970000  0.72930000  0.86110000  1.0 -0.5557507073
O  O27  1  0.36940000  0.62260000  0.78260000  1.0 -0.5027231966
O  O28  1  0.72960000  0.57090000  0.97510000  1.0 -0.4735016321
O  O29  1  0.90000000  0.58570000  0.67020000  1.0 -0.4885451739
O  O30  1  0.88980000  0.30770000  0.69490000  1.0 -0.5209958946
O  O31  1  0.84630000  0.29260000  0.74710000  1.0 -0.5262951945
O  O32  1  0.89670000  0.59660000  0.58950000  1.0 -0.5262951945
O  O33  1  0.29320000  0.33430000  0.28590000  1.0 -0.4825224673
O  O34  1  0.78420000  0.23080000  0.45060000  1.0 -0.5398327505
O  O35  1  0.25010000  0.58260000  0.67590000  1.0 -0.6335984414
O  O36  1  0.30080000  0.55940000  0.25270000  1.0 -0.5547801649
O  O37  1  0.32180000  0.52620000  0.33740000  1.0 -0.5108606761
O  O38  1  0.78350000  0.44720000  0.43720000  1.0 -0.5027231966
O  O39  1  0.87670000  0.34420000  0.43190000  1.0 -0.6638631468
O  O40  1  0.73970000  0.27070000  0.36110000  1.0 -0.5557507073
O  O41  1  0.36940000  0.37740000  0.28260000  1.0 -0.5027231966
O  O42  1  0.72960000  0.42910000  0.47510000  1.0 -0.4735016321
O  O43  1  0.10000000  0.58570000  0.82980000  1.0 -0.4885451739
O  O44  1  0.11020000  0.30770000  0.80510000  1.0 -0.5209958946
O  O45  1  0.15370000  0.29260000  0.75290000  1.0 -0.5262951945
O  O46  1  0.10330000  0.59660000  0.91050000  1.0 -0.5262951945
O  O47  1  0.70680000  0.33430000  0.21410000  1.0 -0.4825224673
O  O48  1  0.21580000  0.23080000  0.04940000  1.0 -0.5398327505
O  O49  1  0.74990000  0.58260000  0.82410000  1.0 -0.6335984414
O  O50  1  0.69920000  0.55940000  0.24730000  1.0 -0.5547801649
O  O51  1  0.67820000  0.52620000  0.16260000  1.0 -0.5108606761
O  O52  1  0.21650000  0.44720000  0.06280000  1.0 -0.5027231966
O  O53  1  0.12330000  0.34420000  0.06810000  1.0 -0.6638631468
O  O54  1  0.26030000  0.27070000  0.13890000  1.0 -0.5557507073
O  O55  1  0.63060000  0.37740000  0.21740000  1.0 -0.5027231966
O  O56  1  0.27040000  0.42910000  0.02490000  1.0 -0.4735016321
O  O57  1  0.00000000  0.55380000  0.25000000  1.0 -0.8429363762
O  O58  1  0.00000000  0.44620000  0.75000000  1.0 -0.8429363762
