# DDEC6 charges by PACMAN v1.1 (https://github.com/mtap-research/PACMAN-charge/)
data_FOMJOJ_ASR_pacman
_symmetry_space_group_name_H-M   'P 1'
_cell_length_a   25.62340000
_cell_length_b   16.36970000
_cell_length_c   26.88500000
_cell_angle_alpha   90.00000000
_cell_angle_beta   118.41800000
_cell_angle_gamma   90.00000000
_symmetry_Int_Tables_number   1
_chemical_formula_structural   Zn8H106C180(N4O5)5
_chemical_formula_sum   'Zn16 H212 C360 N40 O50'
_cell_volume   9917.97297702
_cell_formula_units_Z   2
loop_
 _symmetry_equiv_pos_site_id
 _symmetry_equiv_pos_as_xyz
  1  'x, y, z'
loop_
 _atom_site_type_symbol
 _atom_site_label
 _atom_site_symmetry_multiplicity
 _atom_site_fract_x
 _atom_site_fract_y
 _atom_site_fract_z
 _atom_site_occupancy
 _atom_site_charge
Zn  Zn1  1  0.93894000  0.11983000  0.25787000  1.0 0.7689867571
Zn  Zn2  1  0.03663000  0.99120000  0.32047000  1.0 0.7689867571
Zn  Zn3  1  0.73123000  0.05583000  0.74745000  1.0 0.8024518594
Zn  Zn4  1  0.17786000  0.16229000  0.53621000  1.0 0.7942934886
Zn  Zn5  1  0.06106000  0.11983000  0.24213000  1.0 0.7689867571
Zn  Zn6  1  0.96337000  0.99120000  0.17953000  1.0 0.7689867571
Zn  Zn7  1  0.26877000  0.05583000  0.75255000  1.0 0.8024518594
Zn  Zn8  1  0.82214000  0.16229000  0.96379000  1.0 0.7942934886
Zn  Zn9  1  0.06106000  0.88017000  0.74213000  1.0 0.7689867571
Zn  Zn10  1  0.96337000  0.00880000  0.67953000  1.0 0.7689867571
Zn  Zn11  1  0.26877000  0.94417000  0.25255000  1.0 0.8024518594
Zn  Zn12  1  0.82214000  0.83771000  0.46379000  1.0 0.7942934886
Zn  Zn13  1  0.93894000  0.88017000  0.75787000  1.0 0.7689867571
Zn  Zn14  1  0.03663000  0.00880000  0.82047000  1.0 0.7689867571
Zn  Zn15  1  0.73123000  0.94417000  0.24745000  1.0 0.8024518594
Zn  Zn16  1  0.17786000  0.83771000  0.03621000  1.0 0.7942934886
H  H1  1  0.81143000  0.92696000  0.73807000  1.0 0.1114634052
H  H2  1  0.13297000  0.03985000  0.44352000  1.0 0.1186354371
H  H3  1  0.79238000  0.21566000  0.77076000  1.0 0.2803394452
H  H4  1  0.47359000  0.35592000  0.55023000  1.0 0.1186354371
H  H5  1  0.36334000  0.75187000  0.50558000  1.0 0.1186354371
H  H6  1  0.60691000  0.55638000  0.66066000  1.0 0.1186354371
H  H7  1  0.25463000  0.27651000  0.31116000  1.0 0.1186354371
H  H8  1  0.00935000  0.17818000  0.84139000  1.0 0.1114634052
H  H9  1  0.46479000  0.75712000  0.56821000  1.0 0.1114634052
H  H10  1  0.32090000  0.36749000  0.37633000  1.0 0.1186354371
H  H11  1  0.19721000  0.83225000  0.48177000  1.0 0.1186354371
H  H12  1  0.45138000  0.46139000  0.71353000  1.0 0.1114634052
H  H13  1  0.22996000  0.55123000  0.40005000  1.0 0.1186354371
H  H14  1  0.37785000  0.35668000  0.48105000  1.0 0.1186354371
H  H15  1  0.27129000  0.73632000  0.51185000  1.0 0.1114634052
H  H16  1  0.40798000  0.85952000  0.60896000  1.0 0.1186354371
H  H17  1  0.15537000  0.79031000  0.32087000  1.0 0.1186354371
H  H18  1  0.94972000  0.29318000  0.30120000  1.0 0.1011795729
H  H19  1  0.31272000  0.66206000  0.61485000  1.0 0.1114634052
H  H20  1  0.45345000  0.86048000  0.71150000  1.0 0.1186354371
H  H21  1  0.60822000  0.68121000  0.71906000  1.0 0.1114634052
H  H22  1  0.20266000  0.41500000  0.43207000  1.0 0.1186354371
H  H23  1  0.55343000  0.75886000  0.55769000  1.0 0.1186354371
H  H24  1  0.22454000  0.68545000  0.34913000  1.0 0.1114634052
H  H25  1  0.61252000  0.87206000  0.59335000  1.0 0.1282464202
H  H26  1  0.14329000  0.31252000  0.37391000  1.0 0.1114634052
H  H27  1  0.35109000  0.96900000  0.55914000  1.0 0.1282464202
H  H28  1  0.87851000  0.30153000  0.85611000  1.0 0.1114634052
H  H29  1  0.81064000  0.31443000  0.83372000  1.0 0.1186354371
H  H30  1  0.66208000  0.80221000  0.75034000  1.0 0.1186354371
H  H31  1  0.64482000  0.42510000  0.62832000  1.0 0.1186354371
H  H32  1  0.22599000  0.90878000  0.59799000  1.0 0.1282464202
H  H33  1  0.27621000  0.79075000  0.63956000  1.0 0.1186354371
H  H34  1  0.69097000  0.30222000  0.66617000  1.0 0.1114634052
H  H35  1  0.75318000  0.38261000  0.74850000  1.0 0.1114634052
H  H36  1  0.75050000  0.50034000  0.69930000  1.0 0.1114634052
H  H37  1  0.83827000  0.56347000  0.71551000  1.0 0.1114634052
H  H38  1  0.92870000  0.50888000  0.78092000  1.0 0.1186354371
H  H39  1  0.93138000  0.39115000  0.83013000  1.0 0.1186354371
H  H40  1  0.31124000  0.35003000  0.70053000  1.0 0.1114634052
H  H41  1  0.51439000  0.36756000  0.66322000  1.0 0.1186354371
H  H42  1  0.56300000  0.24562000  0.70359000  1.0 0.1186354371
H  H43  1  0.36471000  0.47235000  0.72658000  1.0 0.1186354371
H  H44  1  0.30855000  0.52440000  0.56447000  1.0 0.1114634052
H  H45  1  0.26095000  0.39817000  0.53842000  1.0 0.1114634052
H  H46  1  0.14508000  0.58041000  0.45328000  1.0 0.1282464202
H  H47  1  0.13444000  0.40517000  0.55273000  1.0 0.1114634052
H  H48  1  0.18950000  0.48557000  0.63174000  1.0 0.1114634052
H  H49  1  0.22235000  0.61339000  0.62152000  1.0 0.1114634052
H  H50  1  0.20014000  0.66081000  0.53229000  1.0 0.1114634052
H  H51  1  0.13029000  0.32222000  0.48687000  1.0 0.2728576913
H  H52  1  0.05073000  0.44106000  0.46038000  1.0 0.1186354371
H  H53  1  0.07365000  0.45215000  0.41622000  1.0 0.1114634052
H  H54  1  0.18857000  0.92696000  0.76193000  1.0 0.1114634052
H  H55  1  0.86703000  0.03985000  0.05648000  1.0 0.1186354371
H  H56  1  0.20762000  0.21566000  0.72924000  1.0 0.2803394452
H  H57  1  0.52641000  0.35592000  0.94977000  1.0 0.1186354371
H  H58  1  0.63666000  0.75187000  0.99442000  1.0 0.1114634052
H  H59  1  0.39309000  0.55638000  0.83934000  1.0 0.1186354371
H  H60  1  0.74537000  0.27651000  0.18884000  1.0 0.1186354371
H  H61  1  0.99065000  0.17818000  0.65861000  1.0 0.1114634052
H  H62  1  0.53521000  0.75712000  0.93179000  1.0 0.1114634052
H  H63  1  0.67910000  0.36749000  0.12367000  1.0 0.1186354371
H  H64  1  0.80279000  0.83225000  0.01823000  1.0 0.1186354371
H  H65  1  0.54862000  0.46139000  0.78647000  1.0 0.1114634052
H  H66  1  0.77004000  0.55123000  0.09995000  1.0 0.1186354371
H  H67  1  0.62215000  0.35668000  0.01895000  1.0 0.1186354371
H  H68  1  0.72871000  0.73632000  0.98815000  1.0 0.1114634052
H  H69  1  0.59202000  0.85952000  0.89104000  1.0 0.1186354371
H  H70  1  0.84463000  0.79031000  0.17913000  1.0 0.1186354371
H  H71  1  0.05028000  0.29318000  0.19880000  1.0 0.1011795729
H  H72  1  0.68728000  0.66206000  0.88515000  1.0 0.1114634052
H  H73  1  0.54655000  0.86048000  0.78850000  1.0 0.1186354371
H  H74  1  0.39178000  0.68121000  0.78094000  1.0 0.1114634052
H  H75  1  0.79734000  0.41500000  0.06793000  1.0 0.1186354371
H  H76  1  0.44657000  0.75886000  0.94231000  1.0 0.1186354371
H  H77  1  0.77546000  0.68545000  0.15087000  1.0 0.1114634052
H  H78  1  0.38748000  0.87206000  0.90665000  1.0 0.1282464202
H  H79  1  0.85671000  0.31252000  0.12609000  1.0 0.1114634052
H  H80  1  0.64891000  0.96900000  0.94086000  1.0 0.1282464202
H  H81  1  0.12149000  0.30153000  0.64389000  1.0 0.1114634052
H  H82  1  0.18936000  0.31443000  0.66628000  1.0 0.1186354371
H  H83  1  0.33792000  0.80221000  0.74966000  1.0 0.1186354371
H  H84  1  0.35518000  0.42510000  0.87168000  1.0 0.1186354371
H  H85  1  0.77401000  0.90878000  0.90201000  1.0 0.1282464202
H  H86  1  0.72379000  0.79075000  0.86044000  1.0 0.1186354371
H  H87  1  0.30903000  0.30222000  0.83383000  1.0 0.1114634052
H  H88  1  0.24682000  0.38261000  0.75150000  1.0 0.1114634052
H  H89  1  0.24950000  0.50034000  0.80070000  1.0 0.1114634052
H  H90  1  0.16173000  0.56347000  0.78449000  1.0 0.1114634052
H  H91  1  0.07130000  0.50888000  0.71908000  1.0 0.1186354371
H  H92  1  0.06862000  0.39115000  0.66987000  1.0 0.1186354371
H  H93  1  0.68876000  0.35003000  0.79947000  1.0 0.1114634052
H  H94  1  0.48561000  0.36756000  0.83678000  1.0 0.1186354371
H  H95  1  0.43700000  0.24562000  0.79641000  1.0 0.1186354371
H  H96  1  0.63529000  0.47235000  0.77342000  1.0 0.1186354371
H  H97  1  0.69145000  0.52440000  0.93553000  1.0 0.1114634052
H  H98  1  0.73905000  0.39817000  0.96158000  1.0 0.1114634052
H  H99  1  0.85492000  0.58041000  0.04672000  1.0 0.1282464202
H  H100  1  0.86556000  0.40517000  0.94727000  1.0 0.1114634052
H  H101  1  0.81050000  0.48557000  0.86826000  1.0 0.1114634052
H  H102  1  0.77765000  0.61339000  0.87848000  1.0 0.1114634052
H  H103  1  0.79986000  0.66081000  0.96771000  1.0 0.1114634052
H  H104  1  0.86971000  0.32222000  0.01313000  1.0 0.2728576913
H  H105  1  0.94927000  0.44106000  0.03962000  1.0 0.1186354371
H  H106  1  0.92635000  0.45215000  0.08378000  1.0 0.1114634052
H  H107  1  0.18857000  0.07304000  0.26193000  1.0 0.1114634052
H  H108  1  0.86703000  0.96015000  0.55648000  1.0 0.1186354371
H  H109  1  0.20762000  0.78434000  0.22924000  1.0 0.2803394452
H  H110  1  0.52641000  0.64408000  0.44977000  1.0 0.1186354371
H  H111  1  0.63666000  0.24813000  0.49442000  1.0 0.1114634052
H  H112  1  0.39309000  0.44362000  0.33934000  1.0 0.1186354371
H  H113  1  0.74537000  0.72349000  0.68884000  1.0 0.1186354371
H  H114  1  0.99065000  0.82182000  0.15861000  1.0 0.1114634052
H  H115  1  0.53521000  0.24288000  0.43179000  1.0 0.1114634052
H  H116  1  0.67910000  0.63251000  0.62367000  1.0 0.1186354371
H  H117  1  0.80279000  0.16775000  0.51823000  1.0 0.1186354371
H  H118  1  0.54862000  0.53861000  0.28647000  1.0 0.1114634052
H  H119  1  0.77004000  0.44877000  0.59995000  1.0 0.1186354371
H  H120  1  0.62215000  0.64332000  0.51895000  1.0 0.1186354371
H  H121  1  0.72871000  0.26368000  0.48815000  1.0 0.1114634052
H  H122  1  0.59202000  0.14048000  0.39104000  1.0 0.1186354371
H  H123  1  0.84463000  0.20969000  0.67913000  1.0 0.1186354371
H  H124  1  0.05028000  0.70682000  0.69880000  1.0 0.1011795729
H  H125  1  0.68728000  0.33794000  0.38515000  1.0 0.1114634052
H  H126  1  0.54655000  0.13952000  0.28850000  1.0 0.1186354371
H  H127  1  0.39178000  0.31879000  0.28094000  1.0 0.1114634052
H  H128  1  0.79734000  0.58500000  0.56793000  1.0 0.1186354371
H  H129  1  0.44657000  0.24114000  0.44231000  1.0 0.1186354371
H  H130  1  0.77546000  0.31455000  0.65087000  1.0 0.1114634052
H  H131  1  0.38748000  0.12794000  0.40665000  1.0 0.1282464202
H  H132  1  0.85671000  0.68748000  0.62609000  1.0 0.1114634052
H  H133  1  0.64891000  0.03100000  0.44086000  1.0 0.1282464202
H  H134  1  0.12149000  0.69847000  0.14389000  1.0 0.1114634052
H  H135  1  0.18936000  0.68557000  0.16628000  1.0 0.1186354371
H  H136  1  0.33792000  0.19779000  0.24966000  1.0 0.1186354371
H  H137  1  0.35518000  0.57490000  0.37168000  1.0 0.1186354371
H  H138  1  0.77401000  0.09122000  0.40201000  1.0 0.1282464202
H  H139  1  0.72379000  0.20925000  0.36044000  1.0 0.1186354371
H  H140  1  0.30903000  0.69778000  0.33383000  1.0 0.1114634052
H  H141  1  0.24682000  0.61739000  0.25150000  1.0 0.1186354371
H  H142  1  0.24950000  0.49966000  0.30070000  1.0 0.1114634052
H  H143  1  0.16173000  0.43653000  0.28449000  1.0 0.1114634052
H  H144  1  0.07130000  0.49112000  0.21908000  1.0 0.1186354371
H  H145  1  0.06862000  0.60885000  0.16987000  1.0 0.1186354371
H  H146  1  0.68876000  0.64997000  0.29947000  1.0 0.1114634052
H  H147  1  0.48561000  0.63244000  0.33678000  1.0 0.1186354371
H  H148  1  0.43700000  0.75438000  0.29641000  1.0 0.1186354371
H  H149  1  0.63529000  0.52765000  0.27342000  1.0 0.1186354371
H  H150  1  0.69145000  0.47560000  0.43553000  1.0 0.1114634052
H  H151  1  0.73905000  0.60183000  0.46158000  1.0 0.1114634052
H  H152  1  0.85492000  0.41959000  0.54672000  1.0 0.1282464202
H  H153  1  0.86556000  0.59483000  0.44727000  1.0 0.1114634052
H  H154  1  0.81050000  0.51443000  0.36826000  1.0 0.1114634052
H  H155  1  0.77765000  0.38661000  0.37848000  1.0 0.1114634052
H  H156  1  0.79986000  0.33919000  0.46771000  1.0 0.1114634052
H  H157  1  0.86971000  0.67778000  0.51313000  1.0 0.2728576913
H  H158  1  0.94927000  0.55894000  0.53962000  1.0 0.1186354371
H  H159  1  0.92635000  0.54785000  0.58378000  1.0 0.1114634052
H  H160  1  0.81143000  0.07304000  0.23807000  1.0 0.1114634052
H  H161  1  0.13297000  0.96015000  0.94352000  1.0 0.1186354371
H  H162  1  0.79238000  0.78434000  0.27076000  1.0 0.2803394452
H  H163  1  0.47359000  0.64408000  0.05023000  1.0 0.1186354371
H  H164  1  0.36334000  0.24813000  0.00558000  1.0 0.1186354371
H  H165  1  0.60691000  0.44362000  0.16066000  1.0 0.1186354371
H  H166  1  0.25463000  0.72349000  0.81116000  1.0 0.1186354371
H  H167  1  0.00935000  0.82182000  0.34139000  1.0 0.1114634052
H  H168  1  0.46479000  0.24288000  0.06821000  1.0 0.1114634052
H  H169  1  0.32090000  0.63251000  0.87633000  1.0 0.1186354371
H  H170  1  0.19721000  0.16775000  0.98177000  1.0 0.1186354371
H  H171  1  0.45138000  0.53861000  0.21353000  1.0 0.1114634052
H  H172  1  0.22996000  0.44877000  0.90005000  1.0 0.1186354371
H  H173  1  0.37785000  0.64332000  0.98105000  1.0 0.1186354371
H  H174  1  0.27129000  0.26368000  0.01185000  1.0 0.1114634052
H  H175  1  0.40798000  0.14048000  0.10896000  1.0 0.1186354371
H  H176  1  0.15537000  0.20969000  0.82087000  1.0 0.1186354371
H  H177  1  0.94972000  0.70682000  0.80120000  1.0 0.1011795729
H  H178  1  0.31272000  0.33794000  0.11485000  1.0 0.1114634052
H  H179  1  0.45345000  0.13952000  0.21150000  1.0 0.1186354371
H  H180  1  0.60822000  0.31879000  0.21906000  1.0 0.1114634052
H  H181  1  0.20266000  0.58500000  0.93207000  1.0 0.1186354371
H  H182  1  0.55343000  0.24114000  0.05769000  1.0 0.1186354371
H  H183  1  0.22454000  0.31455000  0.84913000  1.0 0.1114634052
H  H184  1  0.61252000  0.12794000  0.09335000  1.0 0.1282464202
H  H185  1  0.14329000  0.68748000  0.87391000  1.0 0.1114634052
H  H186  1  0.35109000  0.03100000  0.05914000  1.0 0.1282464202
H  H187  1  0.87851000  0.69847000  0.35611000  1.0 0.1114634052
H  H188  1  0.81064000  0.68557000  0.33372000  1.0 0.1186354371
H  H189  1  0.66208000  0.19779000  0.25034000  1.0 0.1186354371
H  H190  1  0.64482000  0.57490000  0.12832000  1.0 0.1186354371
H  H191  1  0.22599000  0.09122000  0.09799000  1.0 0.1282464202
H  H192  1  0.27621000  0.20925000  0.13956000  1.0 0.1186354371
H  H193  1  0.69097000  0.69778000  0.16617000  1.0 0.1114634052
H  H194  1  0.75318000  0.61739000  0.24850000  1.0 0.1114634052
H  H195  1  0.75050000  0.49966000  0.19930000  1.0 0.1114634052
H  H196  1  0.83827000  0.43653000  0.21551000  1.0 0.1114634052
H  H197  1  0.92870000  0.49112000  0.28092000  1.0 0.1186354371
H  H198  1  0.93138000  0.60885000  0.33013000  1.0 0.1186354371
H  H199  1  0.31124000  0.64997000  0.20053000  1.0 0.1114634052
H  H200  1  0.51439000  0.63244000  0.16322000  1.0 0.1186354371
H  H201  1  0.56300000  0.75438000  0.20359000  1.0 0.1186354371
H  H202  1  0.36471000  0.52765000  0.22658000  1.0 0.1186354371
H  H203  1  0.30855000  0.47560000  0.06447000  1.0 0.1114634052
H  H204  1  0.26095000  0.60183000  0.03842000  1.0 0.1114634052
H  H205  1  0.14508000  0.41959000  0.95328000  1.0 0.1282464202
H  H206  1  0.13444000  0.59483000  0.05273000  1.0 0.1114634052
H  H207  1  0.18950000  0.51443000  0.13174000  1.0 0.1114634052
H  H208  1  0.22235000  0.38661000  0.12152000  1.0 0.1114634052
H  H209  1  0.20014000  0.33919000  0.03229000  1.0 0.1114634052
H  H210  1  0.13029000  0.67778000  0.98687000  1.0 0.2728576913
H  H211  1  0.05073000  0.55894000  0.96038000  1.0 0.1186354371
H  H212  1  0.07365000  0.54785000  0.91622000  1.0 0.1114634052
C  C1  1  0.91070000  0.04990000  0.78680000  1.0 0.2803394452
C  C2  1  0.86310000  0.09610000  0.77970000  1.0 -0.0510358147
C  C3  1  0.83520000  0.97310000  0.75240000  1.0 0.2141265898
C  C4  1  0.10960000  0.08580000  0.42750000  1.0 0.2205088392
C  C5  1  0.04080000  0.16030000  0.36960000  1.0 0.2967198446
C  C6  1  0.35490000  0.63110000  0.48900000  1.0 0.0386419661
C  C7  1  0.35940000  0.47870000  0.47900000  1.0 0.0313341119
C  C8  1  0.07800000  0.20630000  0.41620000  1.0 -0.038950662
C  C9  1  0.29980000  0.48230000  0.43960000  1.0 0.0118710503
C  C10  1  0.53830000  0.63100000  0.61160000  1.0 0.0203192925
C  C11  1  0.45260000  0.40480000  0.53920000  1.0 -0.1417318513
C  C12  1  0.47710000  0.63150000  0.57030000  1.0 0.0386419661
C  C13  1  0.44180000  0.73700000  0.70410000  1.0 0.0313341119
C  C14  1  0.15060000  0.22190000  0.29540000  1.0 0.5327752486
C  C15  1  0.87190000  0.17750000  0.79740000  1.0 0.326427798
C  C16  1  0.29520000  0.62430000  0.45050000  1.0 0.0203192925
C  C17  1  0.12210000  0.88630000  0.38070000  1.0 0.5419689968
C  C18  1  0.54010000  0.48300000  0.61030000  1.0 0.0313341119
C  C19  1  0.38840000  0.55540000  0.50560000  1.0 -0.00315525
C  C20  1  0.38500000  0.70350000  0.51480000  1.0 -0.1417318513
C  C21  1  0.56780000  0.55630000  0.63190000  1.0 -0.1922665879
C  C22  1  0.24610000  0.30110000  0.33760000  1.0 -0.0916063206
C  C23  1  0.97150000  0.15550000  0.82550000  1.0 0.244137618
C  C24  1  0.44580000  0.70760000  0.55380000  1.0 -0.1526240026
C  C25  1  0.48020000  0.48010000  0.56510000  1.0 0.0313341119
C  C26  1  0.44110000  0.58400000  0.70760000  1.0 0.0313341119
C  C27  1  0.28410000  0.35870000  0.37450000  1.0 -0.1589365923
C  C28  1  0.20420000  0.80460000  0.45530000  1.0 -0.0916063206
C  C29  1  0.47070000  0.51060000  0.72840000  1.0 -0.1417318513
C  C30  1  0.27000000  0.55200000  0.42670000  1.0 -0.1589365923
C  C31  1  0.57380000  0.40620000  0.63730000  1.0 0.0804367418
C  C32  1  0.39520000  0.40600000  0.49800000  1.0 -0.1417318513
C  C33  1  0.17090000  0.82370000  0.39890000  1.0 -0.0111307496
C  C34  1  0.57340000  0.70680000  0.63490000  1.0 0.0723073857
C  C35  1  0.24750000  0.74580000  0.47340000  1.0 -0.1589365923
C  C36  1  0.19480000  0.27980000  0.34030000  1.0 -0.0111307496
C  C37  1  0.38210000  0.73480000  0.65870000  1.0 0.0313341119
C  C38  1  0.26730000  0.40570000  0.41020000  1.0 0.0804367418
C  C39  1  0.38180000  0.58850000  0.66550000  1.0 0.0313341119
C  C40  1  0.25570000  0.69980000  0.43350000  1.0 0.0804367418
C  C41  1  0.34820000  0.81250000  0.63110000  1.0 0.0723073857
C  C42  1  0.45040000  0.55580000  0.54810000  1.0 -0.00315525
C  C43  1  0.67570000  0.92680000  0.69690000  1.0 0.5243156805
C  C44  1  0.25390000  0.03230000  0.55280000  1.0 0.5522520199
C  C45  1  0.46940000  0.66170000  0.72700000  1.0 -0.00315525
C  C46  1  0.37100000  0.86830000  0.60660000  1.0 -0.1526240026
C  C47  1  0.17840000  0.77870000  0.35910000  1.0 -0.0916063206
C  C48  1  0.98270000  0.26940000  0.33110000  1.0 0.2471619054
C  C49  1  0.35250000  0.66250000  0.64200000  1.0 -0.1987732694
C  C50  1  0.47190000  0.81110000  0.72720000  1.0 -0.1417318513
C  C51  1  0.60740000  0.71980000  0.69330000  1.0 -0.1589365923
C  C52  1  0.21450000  0.38640000  0.40930000  1.0 -0.1589365923
C  C53  1  0.64080000  0.84940000  0.67510000  1.0 -0.0159467953
C  C54  1  0.57530000  0.76640000  0.59660000  1.0 -0.1589365923
C  C55  1  0.22020000  0.71620000  0.37600000  1.0 -0.1526240026
C  C56  1  0.60990000  0.83470000  0.61810000  1.0 -0.0916063206
C  C57  1  0.28790000  0.95630000  0.58070000  1.0 -0.0159467953
C  C58  1  0.17900000  0.32430000  0.37430000  1.0 -0.1040738376
C  C59  1  0.63050000  0.26000000  0.68560000  1.0 -0.038950662
C  C60  1  0.66060000  0.18250000  0.70860000  1.0 0.5419689968
C  C61  1  0.33820000  0.93600000  0.57930000  1.0 -0.0916063206
C  C62  1  0.84070000  0.30630000  0.82200000  1.0 -0.1187871292
C  C63  1  0.64010000  0.79250000  0.71170000  1.0 -0.1040738376
C  C64  1  0.62660000  0.38800000  0.64140000  1.0 -0.1417318513
C  C65  1  0.28040000  0.36460000  0.61490000  1.0 -0.0111307496
C  C66  1  0.34470000  0.50960000  0.64700000  1.0 0.0723073857
C  C67  1  0.26320000  0.89940000  0.60110000  1.0 -0.0916063206
C  C68  1  0.29340000  0.82850000  0.62590000  1.0 -0.1526240026
C  C69  1  0.65480000  0.31420000  0.66480000  1.0 -0.1083178267
C  C70  1  0.84250000  0.37520000  0.79420000  1.0 0.0723073857
C  C71  1  0.78840000  0.40790000  0.75500000  1.0 -0.1589365923
C  C72  1  0.78680000  0.47850000  0.72550000  1.0 -0.0916063206
C  C73  1  0.83930000  0.51630000  0.73520000  1.0 -0.0916063206
C  C74  1  0.89350000  0.48360000  0.77440000  1.0 -0.0916063206
C  C75  1  0.89510000  0.41300000  0.80390000  1.0 -0.1343512133
C  C76  1  0.31190000  0.38460000  0.67340000  1.0 -0.1040738376
C  C77  1  0.54930000  0.35370000  0.66260000  1.0 -0.1589365923
C  C78  1  0.06380000  0.29050000  0.41700000  1.0 0.326427798
C  C79  1  0.57850000  0.28070000  0.68670000  1.0 -0.0916063206
C  C80  1  0.24800000  0.28310000  0.59890000  1.0 0.5327752486
C  C81  1  0.34380000  0.45770000  0.68860000  1.0 -0.1589365923
C  C82  1  0.31150000  0.48840000  0.59250000  1.0 -0.1343512133
C  C83  1  0.28080000  0.41320000  0.57630000  1.0 -0.0916063206
C  C84  1  0.15400000  0.56140000  0.48900000  1.0 -0.1589365923
C  C85  1  0.13430000  0.48480000  0.49520000  1.0 0.1011795729
C  C86  1  0.14760000  0.45640000  0.54860000  1.0 -0.1694764987
C  C87  1  0.18060000  0.50460000  0.59600000  1.0 -0.0744465411
C  C88  1  0.20030000  0.58120000  0.58980000  1.0 -0.1083178267
C  C89  1  0.18700000  0.60960000  0.53640000  1.0 -0.0916063206
C  C90  1  0.08470000  0.43340000  0.45420000  1.0 -0.1417318513
C  C91  1  0.08930000  0.04990000  0.71320000  1.0 0.2803394452
C  C92  1  0.13690000  0.09610000  0.72030000  1.0 -0.0510358147
C  C93  1  0.16480000  0.97310000  0.74760000  1.0 0.2141265898
C  C94  1  0.89040000  0.08580000  0.07250000  1.0 0.2205088392
C  C95  1  0.95920000  0.16030000  0.13040000  1.0 0.2967198446
C  C96  1  0.64510000  0.63110000  0.01100000  1.0 0.0386419661
C  C97  1  0.64060000  0.47870000  0.02100000  1.0 0.0313341119
C  C98  1  0.92200000  0.20630000  0.08380000  1.0 -0.038950662
C  C99  1  0.70020000  0.48230000  0.06040000  1.0 0.0118710503
C  C100  1  0.46170000  0.63100000  0.88840000  1.0 0.0203192925
C  C101  1  0.54740000  0.40480000  0.96080000  1.0 -0.1417318513
C  C102  1  0.52290000  0.63150000  0.92970000  1.0 0.0386419661
C  C103  1  0.55820000  0.73700000  0.79590000  1.0 0.0313341119
C  C104  1  0.84940000  0.22190000  0.20460000  1.0 0.5327752486
C  C105  1  0.12810000  0.17750000  0.70260000  1.0 0.326427798
C  C106  1  0.70480000  0.62430000  0.04950000  1.0 0.0203192925
C  C107  1  0.87790000  0.88630000  0.11930000  1.0 0.5419689968
C  C108  1  0.45990000  0.48300000  0.88970000  1.0 0.0313341119
C  C109  1  0.61160000  0.55540000  0.99440000  1.0 -0.00315525
C  C110  1  0.61500000  0.70350000  0.98520000  1.0 -0.1417318513
C  C111  1  0.43220000  0.55630000  0.86810000  1.0 -0.1922665879
C  C112  1  0.75390000  0.30110000  0.16240000  1.0 -0.0916063206
C  C113  1  0.02850000  0.15550000  0.67450000  1.0 0.244137618
C  C114  1  0.55420000  0.70760000  0.94620000  1.0 -0.1526240026
C  C115  1  0.51980000  0.48010000  0.93490000  1.0 0.0313341119
C  C116  1  0.55890000  0.58400000  0.79240000  1.0 0.0313341119
C  C117  1  0.71590000  0.35870000  0.12550000  1.0 -0.1589365923
C  C118  1  0.79580000  0.80460000  0.04470000  1.0 -0.0916063206
C  C119  1  0.52930000  0.51060000  0.77160000  1.0 -0.1417318513
C  C120  1  0.73000000  0.55200000  0.07330000  1.0 -0.1589365923
C  C121  1  0.42620000  0.40620000  0.86270000  1.0 0.0804367418
C  C122  1  0.60480000  0.40600000  0.00200000  1.0 -0.1417318513
C  C123  1  0.82910000  0.82370000  0.10110000  1.0 -0.0111307496
C  C124  1  0.42660000  0.70680000  0.86510000  1.0 0.0723073857
C  C125  1  0.75250000  0.74580000  0.02660000  1.0 -0.1589365923
C  C126  1  0.80520000  0.27980000  0.15970000  1.0 -0.0111307496
C  C127  1  0.61790000  0.73480000  0.84130000  1.0 0.0313341119
C  C128  1  0.73270000  0.40570000  0.08980000  1.0 0.0804367418
C  C129  1  0.61820000  0.58850000  0.83450000  1.0 0.0313341119
C  C130  1  0.74430000  0.69980000  0.06650000  1.0 0.0804367418
C  C131  1  0.65180000  0.81250000  0.86890000  1.0 0.0723073857
C  C132  1  0.54960000  0.55580000  0.95190000  1.0 -0.00315525
C  C133  1  0.32430000  0.92680000  0.80310000  1.0 0.5243156805
C  C134  1  0.74610000  0.03230000  0.94720000  1.0 0.5522520199
C  C135  1  0.53060000  0.66170000  0.77300000  1.0 -0.00315525
C  C136  1  0.62900000  0.86830000  0.89340000  1.0 -0.1589365923
C  C137  1  0.82160000  0.77870000  0.14090000  1.0 -0.0916063206
C  C138  1  0.01730000  0.26940000  0.16890000  1.0 0.2471619054
C  C139  1  0.64750000  0.66250000  0.85800000  1.0 -0.1987732694
C  C140  1  0.52810000  0.81110000  0.77280000  1.0 -0.1417318513
C  C141  1  0.39260000  0.71980000  0.80670000  1.0 -0.1589365923
C  C142  1  0.78550000  0.38640000  0.09070000  1.0 -0.1589365923
C  C143  1  0.35920000  0.84940000  0.82490000  1.0 -0.0159467953
C  C144  1  0.42470000  0.76640000  0.90340000  1.0 -0.1589365923
C  C145  1  0.77980000  0.71620000  0.12400000  1.0 -0.1526240026
C  C146  1  0.39010000  0.83470000  0.88190000  1.0 -0.0916063206
C  C147  1  0.71210000  0.95630000  0.91930000  1.0 -0.0159467953
C  C148  1  0.82100000  0.32430000  0.12570000  1.0 -0.1040738376
C  C149  1  0.36950000  0.26000000  0.81440000  1.0 -0.038950662
C  C150  1  0.33940000  0.18250000  0.79140000  1.0 0.5419689968
C  C151  1  0.66180000  0.93600000  0.92070000  1.0 -0.0916063206
C  C152  1  0.15930000  0.30630000  0.67800000  1.0 -0.1187871292
C  C153  1  0.35990000  0.79250000  0.78830000  1.0 -0.1040738376
C  C154  1  0.37340000  0.38800000  0.85860000  1.0 -0.1417318513
C  C155  1  0.71960000  0.36460000  0.88510000  1.0 -0.0111307496
C  C156  1  0.65530000  0.50960000  0.85300000  1.0 0.0723073857
C  C157  1  0.73680000  0.89940000  0.89890000  1.0 -0.0916063206
C  C158  1  0.70660000  0.82850000  0.87410000  1.0 -0.1526240026
C  C159  1  0.34520000  0.31420000  0.83520000  1.0 -0.1083178267
C  C160  1  0.15750000  0.37520000  0.70580000  1.0 0.0723073857
C  C161  1  0.21160000  0.40790000  0.74500000  1.0 -0.1589365923
C  C162  1  0.21320000  0.47850000  0.77450000  1.0 -0.0916063206
C  C163  1  0.16070000  0.51630000  0.76480000  1.0 -0.0916063206
C  C164  1  0.10650000  0.48360000  0.72560000  1.0 -0.0916063206
C  C165  1  0.10490000  0.41300000  0.69610000  1.0 -0.1343512133
C  C166  1  0.68810000  0.38460000  0.82660000  1.0 -0.1040738376
C  C167  1  0.45070000  0.35370000  0.83740000  1.0 -0.1589365923
C  C168  1  0.93620000  0.29050000  0.08300000  1.0 0.326427798
C  C169  1  0.42150000  0.28070000  0.81330000  1.0 -0.0916063206
C  C170  1  0.75200000  0.28310000  0.90110000  1.0 0.5327752486
C  C171  1  0.65620000  0.45770000  0.81140000  1.0 -0.1589365923
C  C172  1  0.68850000  0.48840000  0.90750000  1.0 -0.1343512133
C  C173  1  0.71920000  0.41320000  0.92370000  1.0 -0.0916063206
C  C174  1  0.84600000  0.56140000  0.01100000  1.0 -0.1589365923
C  C175  1  0.86570000  0.48480000  0.00480000  1.0 0.1011795729
C  C176  1  0.85240000  0.45640000  0.95140000  1.0 -0.1694764987
C  C177  1  0.81940000  0.50460000  0.90400000  1.0 -0.0744465411
C  C178  1  0.79970000  0.58120000  0.91020000  1.0 -0.1083178267
C  C179  1  0.81300000  0.60960000  0.96360000  1.0 -0.0916063206
C  C180  1  0.91530000  0.43340000  0.04580000  1.0 -0.1343512133
C  C181  1  0.08930000  0.95010000  0.21320000  1.0 0.2803394452
C  C182  1  0.13690000  0.90390000  0.22030000  1.0 -0.0510358147
C  C183  1  0.16480000  0.02690000  0.24760000  1.0 0.2141265898
C  C184  1  0.89040000  0.91420000  0.57250000  1.0 0.2205088392
C  C185  1  0.95920000  0.83970000  0.63040000  1.0 0.2967198446
C  C186  1  0.64510000  0.36890000  0.51100000  1.0 0.0386419661
C  C187  1  0.64060000  0.52130000  0.52100000  1.0 0.0313341119
C  C188  1  0.92200000  0.79370000  0.58380000  1.0 -0.038950662
C  C189  1  0.70020000  0.51770000  0.56040000  1.0 0.0118710503
C  C190  1  0.46170000  0.36900000  0.38840000  1.0 0.0203192925
C  C191  1  0.54740000  0.59520000  0.46080000  1.0 -0.1417318513
C  C192  1  0.52290000  0.36850000  0.42970000  1.0 0.0386419661
C  C193  1  0.55820000  0.26300000  0.29590000  1.0 0.0313341119
C  C194  1  0.84940000  0.77810000  0.70460000  1.0 0.5327752486
C  C195  1  0.12810000  0.82250000  0.20260000  1.0 0.326427798
C  C196  1  0.70480000  0.37570000  0.54950000  1.0 0.0203192925
C  C197  1  0.87790000  0.11370000  0.61930000  1.0 0.5419689968
C  C198  1  0.45990000  0.51700000  0.38970000  1.0 0.0313341119
C  C199  1  0.61160000  0.44460000  0.49440000  1.0 -0.00315525
C  C200  1  0.61500000  0.29650000  0.48520000  1.0 -0.1417318513
C  C201  1  0.43220000  0.44370000  0.36810000  1.0 -0.1922665879
C  C202  1  0.75390000  0.69890000  0.66240000  1.0 -0.0916063206
C  C203  1  0.02850000  0.84450000  0.17450000  1.0 0.244137618
C  C204  1  0.55420000  0.29240000  0.44620000  1.0 -0.1526240026
C  C205  1  0.51980000  0.51990000  0.43490000  1.0 0.0313341119
C  C206  1  0.55890000  0.41600000  0.29240000  1.0 0.0313341119
C  C207  1  0.71590000  0.64130000  0.62550000  1.0 -0.1589365923
C  C208  1  0.79580000  0.19540000  0.54470000  1.0 -0.0916063206
C  C209  1  0.52930000  0.48940000  0.27160000  1.0 -0.1417318513
C  C210  1  0.73000000  0.44800000  0.57330000  1.0 -0.1589365923
C  C211  1  0.42620000  0.59380000  0.36270000  1.0 0.0804367418
C  C212  1  0.60480000  0.59400000  0.50200000  1.0 -0.1417318513
C  C213  1  0.82910000  0.17630000  0.60110000  1.0 -0.0111307496
C  C214  1  0.42660000  0.29320000  0.36510000  1.0 0.0723073857
C  C215  1  0.75250000  0.25420000  0.52660000  1.0 -0.1589365923
C  C216  1  0.80520000  0.72020000  0.65970000  1.0 -0.0111307496
C  C217  1  0.61790000  0.26520000  0.34130000  1.0 0.0313341119
C  C218  1  0.73270000  0.59430000  0.58980000  1.0 0.0804367418
C  C219  1  0.61820000  0.41150000  0.33450000  1.0 0.0313341119
C  C220  1  0.74430000  0.30020000  0.56650000  1.0 0.0804367418
C  C221  1  0.65180000  0.18750000  0.36890000  1.0 0.0723073857
C  C222  1  0.54960000  0.44420000  0.45190000  1.0 -0.00315525
C  C223  1  0.32430000  0.07320000  0.30310000  1.0 0.5243156805
C  C224  1  0.74610000  0.96770000  0.44720000  1.0 0.5522520199
C  C225  1  0.53060000  0.33830000  0.27300000  1.0 -0.00315525
C  C226  1  0.62900000  0.13170000  0.39340000  1.0 -0.1526240026
C  C227  1  0.82160000  0.22130000  0.64090000  1.0 -0.0916063206
C  C228  1  0.01730000  0.73060000  0.66890000  1.0 0.2471619054
C  C229  1  0.64750000  0.33750000  0.35800000  1.0 -0.1987732694
C  C230  1  0.52810000  0.18890000  0.27280000  1.0 -0.1417318513
C  C231  1  0.39260000  0.28020000  0.30670000  1.0 -0.1589365923
C  C232  1  0.78550000  0.61360000  0.59070000  1.0 -0.1589365923
C  C233  1  0.35920000  0.15060000  0.32490000  1.0 -0.0159467953
C  C234  1  0.42470000  0.23360000  0.40340000  1.0 -0.1589365923
C  C235  1  0.77980000  0.28380000  0.62400000  1.0 -0.1526240026
C  C236  1  0.39010000  0.16530000  0.38190000  1.0 -0.0916063206
C  C237  1  0.71210000  0.04370000  0.41930000  1.0 -0.0159467953
C  C238  1  0.82100000  0.67570000  0.62570000  1.0 -0.1040738376
C  C239  1  0.36950000  0.74000000  0.31440000  1.0 -0.038950662
C  C240  1  0.33940000  0.81750000  0.29140000  1.0 0.5419689968
C  C241  1  0.66180000  0.06400000  0.42070000  1.0 -0.0916063206
C  C242  1  0.15930000  0.69370000  0.17800000  1.0 -0.1187871292
C  C243  1  0.35990000  0.20750000  0.28830000  1.0 -0.1040738376
C  C244  1  0.37340000  0.61200000  0.35860000  1.0 -0.1417318513
C  C245  1  0.71960000  0.63540000  0.38510000  1.0 -0.0111307496
C  C246  1  0.65530000  0.49040000  0.35300000  1.0 0.0723073857
C  C247  1  0.73680000  0.10060000  0.39890000  1.0 -0.0916063206
C  C248  1  0.70660000  0.17150000  0.37410000  1.0 -0.1526240026
C  C249  1  0.34520000  0.68580000  0.33520000  1.0 -0.1083178267
C  C250  1  0.15750000  0.62480000  0.20580000  1.0 0.0723073857
C  C251  1  0.21160000  0.59210000  0.24500000  1.0 -0.1589365923
C  C252  1  0.21320000  0.52150000  0.27450000  1.0 -0.0916063206
C  C253  1  0.16070000  0.48370000  0.26480000  1.0 -0.0916063206
C  C254  1  0.10650000  0.51640000  0.22560000  1.0 -0.0916063206
C  C255  1  0.10490000  0.58700000  0.19610000  1.0 -0.1343512133
C  C256  1  0.68810000  0.61540000  0.32660000  1.0 -0.1040738376
C  C257  1  0.45070000  0.64630000  0.33740000  1.0 -0.1589365923
C  C258  1  0.93620000  0.70950000  0.58300000  1.0 0.326427798
C  C259  1  0.42150000  0.71930000  0.31330000  1.0 -0.0916063206
C  C260  1  0.75200000  0.71690000  0.40110000  1.0 0.5327752486
C  C261  1  0.65620000  0.54230000  0.31140000  1.0 -0.1589365923
C  C262  1  0.68850000  0.51160000  0.40750000  1.0 -0.1343512133
C  C263  1  0.71920000  0.58680000  0.42370000  1.0 -0.0916063206
C  C264  1  0.84600000  0.43860000  0.51100000  1.0 -0.1589365923
C  C265  1  0.86570000  0.51520000  0.50480000  1.0 0.1011795729
C  C266  1  0.85240000  0.54360000  0.45140000  1.0 -0.1694764987
C  C267  1  0.81940000  0.49540000  0.40400000  1.0 -0.0744465411
C  C268  1  0.79970000  0.41880000  0.41020000  1.0 -0.1083178267
C  C269  1  0.81300000  0.39040000  0.46360000  1.0 -0.0916063206
C  C270  1  0.91530000  0.56660000  0.54580000  1.0 -0.1343512133
C  C271  1  0.91070000  0.95010000  0.28680000  1.0 0.2803394452
C  C272  1  0.86310000  0.90390000  0.27970000  1.0 -0.0510358147
C  C273  1  0.83520000  0.02690000  0.25240000  1.0 0.2141265898
C  C274  1  0.10960000  0.91420000  0.92750000  1.0 0.2205088392
C  C275  1  0.04080000  0.83970000  0.86960000  1.0 0.2967198446
C  C276  1  0.35490000  0.36890000  0.98900000  1.0 0.0386419661
C  C277  1  0.35940000  0.52130000  0.97900000  1.0 0.0313341119
C  C278  1  0.07800000  0.79370000  0.91620000  1.0 -0.038950662
C  C279  1  0.29980000  0.51770000  0.93960000  1.0 0.0118710503
C  C280  1  0.53830000  0.36900000  0.11160000  1.0 0.0203192925
C  C281  1  0.45260000  0.59520000  0.03920000  1.0 -0.1417318513
C  C282  1  0.47710000  0.36850000  0.07030000  1.0 0.0386419661
C  C283  1  0.44180000  0.26300000  0.20410000  1.0 0.0313341119
C  C284  1  0.15060000  0.77810000  0.79540000  1.0 0.5327752486
C  C285  1  0.87190000  0.82250000  0.29740000  1.0 0.326427798
C  C286  1  0.29520000  0.37570000  0.95050000  1.0 0.0203192925
C  C287  1  0.12210000  0.11370000  0.88070000  1.0 0.5419689968
C  C288  1  0.54010000  0.51700000  0.11030000  1.0 0.0313341119
C  C289  1  0.38840000  0.44460000  0.00560000  1.0 -0.00315525
C  C290  1  0.38500000  0.29650000  0.01480000  1.0 -0.1417318513
C  C291  1  0.56780000  0.44370000  0.13190000  1.0 -0.1922665879
C  C292  1  0.24610000  0.69890000  0.83760000  1.0 -0.0916063206
C  C293  1  0.97150000  0.84450000  0.32550000  1.0 0.244137618
C  C294  1  0.44580000  0.29240000  0.05380000  1.0 -0.1526240026
C  C295  1  0.48020000  0.51990000  0.06510000  1.0 0.0313341119
C  C296  1  0.44110000  0.41600000  0.20760000  1.0 0.0313341119
C  C297  1  0.28410000  0.64130000  0.87450000  1.0 -0.1589365923
C  C298  1  0.20420000  0.19540000  0.95530000  1.0 -0.0916063206
C  C299  1  0.47070000  0.48940000  0.22840000  1.0 -0.1417318513
C  C300  1  0.27000000  0.44800000  0.92670000  1.0 -0.1589365923
C  C301  1  0.57380000  0.59380000  0.13730000  1.0 0.0804367418
C  C302  1  0.39520000  0.59400000  0.99800000  1.0 -0.1417318513
C  C303  1  0.17090000  0.17630000  0.89890000  1.0 -0.0111307496
C  C304  1  0.57340000  0.29320000  0.13490000  1.0 0.0723073857
C  C305  1  0.24750000  0.25420000  0.97340000  1.0 -0.1589365923
C  C306  1  0.19480000  0.72020000  0.84030000  1.0 -0.0111307496
C  C307  1  0.38210000  0.26520000  0.15870000  1.0 0.0313341119
C  C308  1  0.26730000  0.59430000  0.91020000  1.0 0.0804367418
C  C309  1  0.38180000  0.41150000  0.16550000  1.0 0.0313341119
C  C310  1  0.25570000  0.30020000  0.93350000  1.0 0.0804367418
C  C311  1  0.34820000  0.18750000  0.13110000  1.0 0.0723073857
C  C312  1  0.45040000  0.44420000  0.04810000  1.0 -0.00315525
C  C313  1  0.67570000  0.07320000  0.19690000  1.0 0.5243156805
C  C314  1  0.25390000  0.96770000  0.05280000  1.0 0.5522520199
C  C315  1  0.46940000  0.33830000  0.22700000  1.0 -0.00315525
C  C316  1  0.37100000  0.13170000  0.10660000  1.0 -0.1526240026
C  C317  1  0.17840000  0.22130000  0.85910000  1.0 -0.0916063206
C  C318  1  0.98270000  0.73060000  0.83110000  1.0 0.2471619054
C  C319  1  0.35250000  0.33750000  0.14200000  1.0 -0.1987732694
C  C320  1  0.47190000  0.18890000  0.22720000  1.0 -0.1417318513
C  C321  1  0.60740000  0.28020000  0.19330000  1.0 -0.1589365923
C  C322  1  0.21450000  0.61360000  0.90930000  1.0 -0.1589365923
C  C323  1  0.64080000  0.15060000  0.17510000  1.0 -0.0159467953
C  C324  1  0.57530000  0.23360000  0.09660000  1.0 -0.1589365923
C  C325  1  0.22020000  0.28380000  0.87600000  1.0 -0.1526240026
C  C326  1  0.60990000  0.16530000  0.11810000  1.0 -0.0916063206
C  C327  1  0.28790000  0.04370000  0.08070000  1.0 -0.0159467953
C  C328  1  0.17900000  0.67570000  0.87430000  1.0 -0.1040738376
C  C329  1  0.63050000  0.74000000  0.18560000  1.0 -0.038950662
C  C330  1  0.66060000  0.81750000  0.20860000  1.0 0.5419689968
C  C331  1  0.33820000  0.06400000  0.07930000  1.0 -0.0916063206
C  C332  1  0.84070000  0.69370000  0.32200000  1.0 -0.1187871292
C  C333  1  0.64010000  0.20750000  0.21170000  1.0 -0.1040738376
C  C334  1  0.62660000  0.61200000  0.14140000  1.0 -0.1417318513
C  C335  1  0.28040000  0.63540000  0.11490000  1.0 -0.0111307496
C  C336  1  0.34470000  0.49040000  0.14700000  1.0 0.0723073857
C  C337  1  0.26320000  0.10060000  0.10110000  1.0 -0.0916063206
C  C338  1  0.29340000  0.17150000  0.12590000  1.0 -0.1526240026
C  C339  1  0.65480000  0.68580000  0.16480000  1.0 -0.1083178267
C  C340  1  0.84250000  0.62480000  0.29420000  1.0 0.0723073857
C  C341  1  0.78840000  0.59210000  0.25500000  1.0 -0.1589365923
C  C342  1  0.78680000  0.52150000  0.22550000  1.0 -0.0916063206
C  C343  1  0.83930000  0.48370000  0.23520000  1.0 -0.0916063206
C  C344  1  0.89350000  0.51640000  0.27440000  1.0 -0.0916063206
C  C345  1  0.89510000  0.58700000  0.30390000  1.0 -0.1343512133
C  C346  1  0.31190000  0.61540000  0.17340000  1.0 -0.1040738376
C  C347  1  0.54930000  0.64630000  0.16260000  1.0 -0.1589365923
C  C348  1  0.06380000  0.70950000  0.91700000  1.0 0.326427798
C  C349  1  0.57850000  0.71930000  0.18670000  1.0 -0.0916063206
C  C350  1  0.24800000  0.71690000  0.09890000  1.0 0.5327752486
C  C351  1  0.34380000  0.54230000  0.18860000  1.0 -0.1589365923
C  C352  1  0.31150000  0.51160000  0.09250000  1.0 -0.1343512133
C  C353  1  0.28080000  0.58680000  0.07630000  1.0 -0.0916063206
C  C354  1  0.15400000  0.43860000  0.98900000  1.0 -0.1589365923
C  C355  1  0.13430000  0.51520000  0.99520000  1.0 0.1011795729
C  C356  1  0.14760000  0.54360000  0.04860000  1.0 -0.1694764987
C  C357  1  0.18060000  0.49540000  0.09600000  1.0 -0.0744465411
C  C358  1  0.20030000  0.41880000  0.08980000  1.0 -0.1083178267
C  C359  1  0.18700000  0.39040000  0.03640000  1.0 -0.0916063206
C  C360  1  0.08470000  0.56660000  0.95420000  1.0 -0.1417318513
N  N1  1  0.89320000  0.97120000  0.77000000  1.0 -0.3679135725
N  N2  1  0.06120000  0.08310000  0.37670000  1.0 -0.3645897254
N  N3  1  0.81300000  0.04500000  0.75650000  1.0 -0.3288859174
N  N4  1  0.96760000  0.07920000  0.81050000  1.0 -0.3510973647
N  N5  1  0.12240000  0.15610000  0.45350000  1.0 -0.3288859174
N  N6  1  0.99140000  0.19080000  0.32420000  1.0 -0.3679135725
N  N7  1  0.92760000  0.20650000  0.82100000  1.0 -0.4165017873
N  N8  1  0.82870000  0.22920000  0.79250000  1.0 -0.2828203485
N  N9  1  0.01310000  0.31740000  0.37320000  1.0 -0.3940056607
N  N10  1  0.09930000  0.34100000  0.45810000  1.0 -0.2868097917
N  N11  1  0.10680000  0.97120000  0.73000000  1.0 -0.3679135725
N  N12  1  0.93880000  0.08310000  0.12330000  1.0 -0.3645897254
N  N13  1  0.18700000  0.04500000  0.74350000  1.0 -0.3288859174
N  N14  1  0.03240000  0.07920000  0.68950000  1.0 -0.3510973647
N  N15  1  0.87760000  0.15610000  0.04650000  1.0 -0.3288859174
N  N16  1  0.00860000  0.19080000  0.17580000  1.0 -0.3679135725
N  N17  1  0.07240000  0.20650000  0.67900000  1.0 -0.4165017873
N  N18  1  0.17130000  0.22920000  0.70750000  1.0 -0.2828203485
N  N19  1  0.98690000  0.31740000  0.12680000  1.0 -0.3940056607
N  N20  1  0.90070000  0.34100000  0.04190000  1.0 -0.2868097917
N  N21  1  0.10680000  0.02880000  0.23000000  1.0 -0.3679135725
N  N22  1  0.93880000  0.91690000  0.62330000  1.0 -0.3679135725
N  N23  1  0.18700000  0.95500000  0.24350000  1.0 -0.3288859174
N  N24  1  0.03240000  0.92080000  0.18950000  1.0 -0.3510973647
N  N25  1  0.87760000  0.84390000  0.54650000  1.0 -0.3288859174
N  N26  1  0.00860000  0.80920000  0.67580000  1.0 -0.3679135725
N  N27  1  0.07240000  0.79350000  0.17900000  1.0 -0.4165017873
N  N28  1  0.17130000  0.77080000  0.20750000  1.0 -0.2828203485
N  N29  1  0.98690000  0.68260000  0.62680000  1.0 -0.3940056607
N  N30  1  0.90070000  0.65900000  0.54190000  1.0 -0.2868097917
N  N31  1  0.89320000  0.02880000  0.27000000  1.0 -0.3679135725
N  N32  1  0.06120000  0.91690000  0.87670000  1.0 -0.3679135725
N  N33  1  0.81300000  0.95500000  0.25650000  1.0 -0.3288859174
N  N34  1  0.96760000  0.92080000  0.31050000  1.0 -0.3510973647
N  N35  1  0.12240000  0.84390000  0.95350000  1.0 -0.3288859174
N  N36  1  0.99140000  0.80920000  0.82420000  1.0 -0.3679135725
N  N37  1  0.92760000  0.79350000  0.32100000  1.0 -0.4165017873
N  N38  1  0.82870000  0.77080000  0.29250000  1.0 -0.2828203485
N  N39  1  0.01310000  0.68260000  0.87320000  1.0 -0.3940056607
N  N40  1  0.09930000  0.65900000  0.95810000  1.0 -0.2868097917
O  O1  1  0.10130000  0.91670000  0.33180000  1.0 -0.5183670516
O  O2  1  0.11130000  0.19300000  0.30410000  1.0 -0.4989671827
O  O3  1  0.10160000  0.90240000  0.41250000  1.0 -0.5264472112
O  O4  1  0.15360000  0.20930000  0.25190000  1.0 -0.5183670516
O  O5  1  0.70850000  0.16790000  0.71580000  1.0 -0.4752360925
O  O6  1  0.21420000  0.05590000  0.56350000  1.0 -0.5183670516
O  O7  1  0.21370000  0.27170000  0.55050000  1.0 -0.4989671827
O  O8  1  0.70110000  0.94180000  0.74660000  1.0 -0.4642582879
O  O9  1  0.67920000  0.97630000  0.66470000  1.0 -0.4745458111
O  O10  1  0.25680000  0.23330000  0.63700000  1.0 -0.513093625
O  O11  1  0.63430000  0.12760000  0.72450000  1.0 -0.4989671827
O  O12  1  0.26260000  0.06800000  0.51790000  1.0 -0.4989671827
O  O13  1  0.89870000  0.91670000  0.16820000  1.0 -0.5183670516
O  O14  1  0.88870000  0.19300000  0.19590000  1.0 -0.4989671827
O  O15  1  0.89840000  0.90240000  0.08750000  1.0 -0.5264472112
O  O16  1  0.84640000  0.20930000  0.24810000  1.0 -0.5183670516
O  O17  1  0.29150000  0.16790000  0.78420000  1.0 -0.4745458111
O  O18  1  0.78580000  0.05590000  0.93650000  1.0 -0.5183670516
O  O19  1  0.78630000  0.27170000  0.94950000  1.0 -0.4989671827
O  O20  1  0.29890000  0.94180000  0.75340000  1.0 -0.4642582879
O  O21  1  0.32080000  0.97630000  0.83530000  1.0 -0.4745458111
O  O22  1  0.74320000  0.23330000  0.86300000  1.0 -0.513093625
O  O23  1  0.36570000  0.12760000  0.77550000  1.0 -0.4989671827
O  O24  1  0.73740000  0.06800000  0.98210000  1.0 -0.4989671827
O  O25  1  0.89870000  0.08330000  0.66820000  1.0 -0.5183670516
O  O26  1  0.88870000  0.80700000  0.69590000  1.0 -0.4989671827
O  O27  1  0.89840000  0.09760000  0.58750000  1.0 -0.5264472112
O  O28  1  0.84640000  0.79070000  0.74810000  1.0 -0.5183670516
O  O29  1  0.29150000  0.83210000  0.28420000  1.0 -0.4752360925
O  O30  1  0.78580000  0.94410000  0.43650000  1.0 -0.5183670516
O  O31  1  0.78630000  0.72830000  0.44950000  1.0 -0.4989671827
O  O32  1  0.29890000  0.05820000  0.25340000  1.0 -0.4642582879
O  O33  1  0.32080000  0.02370000  0.33530000  1.0 -0.4745458111
O  O34  1  0.74320000  0.76670000  0.36300000  1.0 -0.513093625
O  O35  1  0.36570000  0.87240000  0.27550000  1.0 -0.4989671827
O  O36  1  0.73740000  0.93200000  0.48210000  1.0 -0.4989671827
O  O37  1  0.10130000  0.08330000  0.83180000  1.0 -0.5183670516
O  O38  1  0.11130000  0.80700000  0.80410000  1.0 -0.4989671827
O  O39  1  0.10160000  0.09760000  0.91250000  1.0 -0.5264472112
O  O40  1  0.15360000  0.79070000  0.75190000  1.0 -0.5183670516
O  O41  1  0.70850000  0.83210000  0.21580000  1.0 -0.4752360925
O  O42  1  0.21420000  0.94410000  0.06350000  1.0 -0.5183670516
O  O43  1  0.21370000  0.72830000  0.05050000  1.0 -0.4989671827
O  O44  1  0.70110000  0.05820000  0.24660000  1.0 -0.4642582879
O  O45  1  0.67920000  0.02370000  0.16470000  1.0 -0.4752360925
O  O46  1  0.25680000  0.76670000  0.13700000  1.0 -0.513093625
O  O47  1  0.63430000  0.87240000  0.22450000  1.0 -0.4989671827
O  O48  1  0.26260000  0.93200000  0.01790000  1.0 -0.4989671827
O  O49  1  0.00000000  0.05560000  0.25000000  1.0 -0.8454159245
O  O50  1  0.00000000  0.94440000  0.75000000  1.0 -0.8454159245
