# DDEC6 charges by PACMAN v1.1 (https://github.com/mtap-research/PACMAN-charge/)
data_FOPFAS_ASR_pacman
_symmetry_space_group_name_H-M   'P 1'
_cell_length_a   33.23760000
_cell_length_b   33.23760000
_cell_length_c   33.23760000
_cell_angle_alpha   60.00000000
_cell_angle_beta   60.00000000
_cell_angle_gamma   60.00000000
_symmetry_Int_Tables_number   1
_chemical_formula_structural   CuH12(C5O)4
_chemical_formula_sum   'Cu24 H288 C480 O96'
_cell_volume   25964.14184717
_cell_formula_units_Z   24
loop_
 _symmetry_equiv_pos_site_id
 _symmetry_equiv_pos_as_xyz
  1  'x, y, z'
loop_
 _atom_site_type_symbol
 _atom_site_label
 _atom_site_symmetry_multiplicity
 _atom_site_fract_x
 _atom_site_fract_y
 _atom_site_fract_z
 _atom_site_occupancy
 _atom_site_charge
Cu  Cu1  1  0.81882000  0.18118000  0.50000000  1.0 0.8740947797
Cu  Cu2  1  0.50000000  0.50000000  0.18118000  1.0 0.8740947797
Cu  Cu3  1  0.18118000  0.81882000  0.50000000  1.0 0.8740947797
Cu  Cu4  1  0.50000000  0.50000000  0.81882000  1.0 0.8740947797
Cu  Cu5  1  0.50000000  0.81882000  0.18118000  1.0 0.8740947797
Cu  Cu6  1  0.50000000  0.81882000  0.50000000  1.0 0.8740947797
Cu  Cu7  1  0.81882000  0.50000000  0.50000000  1.0 0.8740947797
Cu  Cu8  1  0.81882000  0.50000000  0.18118000  1.0 0.8740947797
Cu  Cu9  1  0.50000000  0.18118000  0.81882000  1.0 0.8740947797
Cu  Cu10  1  0.50000000  0.18118000  0.50000000  1.0 0.8740947797
Cu  Cu11  1  0.18118000  0.50000000  0.50000000  1.0 0.8740947797
Cu  Cu12  1  0.18118000  0.50000000  0.81882000  1.0 0.8740947797
Cu  Cu13  1  0.73856000  0.26144000  0.50000000  1.0 0.8766035746
Cu  Cu14  1  0.50000000  0.50000000  0.26144000  1.0 0.8766035746
Cu  Cu15  1  0.26144000  0.73856000  0.50000000  1.0 0.8766035746
Cu  Cu16  1  0.50000000  0.50000000  0.73856000  1.0 0.8766035746
Cu  Cu17  1  0.50000000  0.73856000  0.26144000  1.0 0.8766035746
Cu  Cu18  1  0.50000000  0.73856000  0.50000000  1.0 0.8766035746
Cu  Cu19  1  0.73856000  0.50000000  0.50000000  1.0 0.8766035746
Cu  Cu20  1  0.73856000  0.50000000  0.26144000  1.0 0.8766035746
Cu  Cu21  1  0.50000000  0.26144000  0.73856000  1.0 0.8766035746
Cu  Cu22  1  0.50000000  0.26144000  0.50000000  1.0 0.8766035746
Cu  Cu23  1  0.26144000  0.50000000  0.50000000  1.0 0.8740947797
Cu  Cu24  1  0.26144000  0.50000000  0.73856000  1.0 0.8766035746
H  H1  1  0.78520000  0.35060000  0.35060000  1.0 0.1478729383
H  H2  1  0.48640000  0.64940000  0.21480000  1.0 0.1478729383
H  H3  1  0.35060000  0.78520000  0.51360000  1.0 0.1478729383
H  H4  1  0.64940000  0.48640000  0.64940000  1.0 0.1478729383
H  H5  1  0.51360000  0.35060000  0.35060000  1.0 0.1478729383
H  H6  1  0.21480000  0.64940000  0.48640000  1.0 0.1478729383
H  H7  1  0.35060000  0.51360000  0.78520000  1.0 0.1478729383
H  H8  1  0.64940000  0.21480000  0.64940000  1.0 0.1478729383
H  H9  1  0.35060000  0.78520000  0.35060000  1.0 0.1478729383
H  H10  1  0.48640000  0.64940000  0.64940000  1.0 0.1478729383
H  H11  1  0.78520000  0.35060000  0.51360000  1.0 0.1478729383
H  H12  1  0.64940000  0.48640000  0.21480000  1.0 0.1478729383
H  H13  1  0.51360000  0.35060000  0.78520000  1.0 0.1478729383
H  H14  1  0.64940000  0.21480000  0.48640000  1.0 0.1478729383
H  H15  1  0.35060000  0.51360000  0.35060000  1.0 0.1478729383
H  H16  1  0.21480000  0.64940000  0.64940000  1.0 0.1478729383
H  H17  1  0.35060000  0.35060000  0.78520000  1.0 0.1478729383
H  H18  1  0.64940000  0.64940000  0.21480000  1.0 0.1478729383
H  H19  1  0.48640000  0.21480000  0.64940000  1.0 0.1478729383
H  H20  1  0.64940000  0.64940000  0.48640000  1.0 0.1478729383
H  H21  1  0.21480000  0.48640000  0.64940000  1.0 0.1478729383
H  H22  1  0.51360000  0.78520000  0.35060000  1.0 0.1478729383
H  H23  1  0.35060000  0.35060000  0.51360000  1.0 0.1478729383
H  H24  1  0.78520000  0.51360000  0.35060000  1.0 0.1478729383
H  H25  1  0.90070000  0.22370000  0.34530000  1.0 0.1277306945
H  H26  1  0.46970000  0.65470000  0.09930000  1.0 0.1277306945
H  H27  1  0.22370000  0.90070000  0.53030000  1.0 0.1277306945
H  H28  1  0.65470000  0.46970000  0.77630000  1.0 0.1277306945
H  H29  1  0.53030000  0.34530000  0.22370000  1.0 0.1277306945
H  H30  1  0.09930000  0.77630000  0.46970000  1.0 0.1277306945
H  H31  1  0.34530000  0.53030000  0.90070000  1.0 0.1277306945
H  H32  1  0.77630000  0.09930000  0.65470000  1.0 0.1277306945
H  H33  1  0.34530000  0.90070000  0.22370000  1.0 0.1277306945
H  H34  1  0.46970000  0.77630000  0.65470000  1.0 0.1277306945
H  H35  1  0.90070000  0.34530000  0.53030000  1.0 0.1277306945
H  H36  1  0.77630000  0.46970000  0.09930000  1.0 0.1277306945
H  H37  1  0.53030000  0.22370000  0.90070000  1.0 0.1277306945
H  H38  1  0.65470000  0.09930000  0.46970000  1.0 0.1277306945
H  H39  1  0.22370000  0.53030000  0.34530000  1.0 0.1277306945
H  H40  1  0.09930000  0.65470000  0.77630000  1.0 0.1277306945
H  H41  1  0.22370000  0.34530000  0.90070000  1.0 0.1277306945
H  H42  1  0.65470000  0.77630000  0.09930000  1.0 0.1277306945
H  H43  1  0.46970000  0.09930000  0.77630000  1.0 0.1277306945
H  H44  1  0.77630000  0.65470000  0.46970000  1.0 0.1277306945
H  H45  1  0.09930000  0.46970000  0.65470000  1.0 0.1277306945
H  H46  1  0.53030000  0.90070000  0.34530000  1.0 0.1277306945
H  H47  1  0.34530000  0.22370000  0.53030000  1.0 0.1277306945
H  H48  1  0.90070000  0.53030000  0.22370000  1.0 0.1277306945
H  H49  1  0.09930000  0.77630000  0.65470000  1.0 0.1277306945
H  H50  1  0.53030000  0.34530000  0.90070000  1.0 0.1277306945
H  H51  1  0.77630000  0.09930000  0.46970000  1.0 0.1277306945
H  H52  1  0.34530000  0.53030000  0.22370000  1.0 0.1277306945
H  H53  1  0.46970000  0.65470000  0.77630000  1.0 0.1277306945
H  H54  1  0.90070000  0.22370000  0.53030000  1.0 0.1277306945
H  H55  1  0.65470000  0.46970000  0.09930000  1.0 0.1277306945
H  H56  1  0.22370000  0.90070000  0.34530000  1.0 0.1277306945
H  H57  1  0.65470000  0.09930000  0.77630000  1.0 0.1277306945
H  H58  1  0.53030000  0.22370000  0.34530000  1.0 0.1277306945
H  H59  1  0.09930000  0.65470000  0.46970000  1.0 0.1277306945
H  H60  1  0.22370000  0.53030000  0.90070000  1.0 0.1277306945
H  H61  1  0.46970000  0.77630000  0.09930000  1.0 0.1277306945
H  H62  1  0.34530000  0.90070000  0.53030000  1.0 0.1277306945
H  H63  1  0.77630000  0.46970000  0.65470000  1.0 0.1277306945
H  H64  1  0.90070000  0.34530000  0.22370000  1.0 0.1277306945
H  H65  1  0.77630000  0.65470000  0.09930000  1.0 0.1277306945
H  H66  1  0.34530000  0.22370000  0.90070000  1.0 0.1277306945
H  H67  1  0.53030000  0.90070000  0.22370000  1.0 0.1277306945
H  H68  1  0.22370000  0.34530000  0.53030000  1.0 0.1277306945
H  H69  1  0.90070000  0.53030000  0.34530000  1.0 0.1277306945
H  H70  1  0.46970000  0.09930000  0.65470000  1.0 0.1277306945
H  H71  1  0.65470000  0.77630000  0.46970000  1.0 0.1277306945
H  H72  1  0.09930000  0.46970000  0.77630000  1.0 0.1277306945
H  H73  1  0.97910000  0.31030000  0.20630000  1.0 0.1066806216
H  H74  1  0.49570000  0.79370000  0.02090000  1.0 0.1066806216
H  H75  1  0.31030000  0.97910000  0.50430000  1.0 0.1066806216
H  H76  1  0.79370000  0.49570000  0.68970000  1.0 0.1066806216
H  H77  1  0.50430000  0.20630000  0.31030000  1.0 0.1066806216
H  H78  1  0.02090000  0.68970000  0.49570000  1.0 0.1066806216
H  H79  1  0.20630000  0.50430000  0.97910000  1.0 0.1066806216
H  H80  1  0.68970000  0.02090000  0.79370000  1.0 0.1066806216
H  H81  1  0.20630000  0.97910000  0.31030000  1.0 0.1066806216
H  H82  1  0.49570000  0.68970000  0.79370000  1.0 0.1066806216
H  H83  1  0.97910000  0.20630000  0.50430000  1.0 0.1066806216
H  H84  1  0.68970000  0.49570000  0.02090000  1.0 0.1066806216
H  H85  1  0.50430000  0.31030000  0.97910000  1.0 0.1066806216
H  H86  1  0.79370000  0.02090000  0.49570000  1.0 0.1066806216
H  H87  1  0.31030000  0.50430000  0.20630000  1.0 0.1066806216
H  H88  1  0.02090000  0.79370000  0.68970000  1.0 0.1066806216
H  H89  1  0.31030000  0.20630000  0.97910000  1.0 0.1066806216
H  H90  1  0.79370000  0.68970000  0.02090000  1.0 0.1066806216
H  H91  1  0.49570000  0.02090000  0.68970000  1.0 0.1066806216
H  H92  1  0.68970000  0.79370000  0.49570000  1.0 0.1066806216
H  H93  1  0.02090000  0.49570000  0.79370000  1.0 0.1066806216
H  H94  1  0.50430000  0.97910000  0.20630000  1.0 0.1066806216
H  H95  1  0.20630000  0.31030000  0.50430000  1.0 0.1066806216
H  H96  1  0.97910000  0.50430000  0.31030000  1.0 0.1066806216
H  H97  1  0.02090000  0.68970000  0.79370000  1.0 0.1066806216
H  H98  1  0.50430000  0.20630000  0.97910000  1.0 0.1066806216
H  H99  1  0.68970000  0.02090000  0.49570000  1.0 0.1066806216
H  H100  1  0.20630000  0.50430000  0.31030000  1.0 0.1066806216
H  H101  1  0.49570000  0.79370000  0.68970000  1.0 0.1066806216
H  H102  1  0.97910000  0.31030000  0.50430000  1.0 0.1066806216
H  H103  1  0.79370000  0.49570000  0.02090000  1.0 0.1066806216
H  H104  1  0.31030000  0.97910000  0.20630000  1.0 0.1066806216
H  H105  1  0.79370000  0.02090000  0.68970000  1.0 0.1066806216
H  H106  1  0.50430000  0.31030000  0.20630000  1.0 0.1066806216
H  H107  1  0.02090000  0.79370000  0.49570000  1.0 0.1066806216
H  H108  1  0.31030000  0.50430000  0.97910000  1.0 0.1066806216
H  H109  1  0.49570000  0.68970000  0.02090000  1.0 0.1066806216
H  H110  1  0.20630000  0.97910000  0.50430000  1.0 0.1066806216
H  H111  1  0.68970000  0.49570000  0.79370000  1.0 0.1066806216
H  H112  1  0.97910000  0.20630000  0.31030000  1.0 0.1066806216
H  H113  1  0.68970000  0.79370000  0.02090000  1.0 0.1066806216
H  H114  1  0.20630000  0.31030000  0.97910000  1.0 0.1066806216
H  H115  1  0.50430000  0.97910000  0.31030000  1.0 0.1066806216
H  H116  1  0.31030000  0.20630000  0.50430000  1.0 0.1066806216
H  H117  1  0.97910000  0.50430000  0.20630000  1.0 0.1066806216
H  H118  1  0.49570000  0.02090000  0.79370000  1.0 0.1066806216
H  H119  1  0.79370000  0.68970000  0.49570000  1.0 0.1066806216
H  H120  1  0.02090000  0.49570000  0.68970000  1.0 0.1066806216
H  H121  1  0.06300000  0.26560000  0.16720000  1.0 0.1011818056
H  H122  1  0.49580000  0.83280000  0.93700000  1.0 0.1011818056
H  H123  1  0.26560000  0.06300000  0.50420000  1.0 0.1011818056
H  H124  1  0.83280000  0.49580000  0.73440000  1.0 0.1011818056
H  H125  1  0.50420000  0.16720000  0.26560000  1.0 0.1011818056
H  H126  1  0.93700000  0.73440000  0.49580000  1.0 0.1011818056
H  H127  1  0.16720000  0.50420000  0.06300000  1.0 0.1011818056
H  H128  1  0.73440000  0.93700000  0.83280000  1.0 0.1011818056
H  H129  1  0.16720000  0.06300000  0.26560000  1.0 0.1011818056
H  H130  1  0.49580000  0.73440000  0.83280000  1.0 0.1011818056
H  H131  1  0.06300000  0.16720000  0.50420000  1.0 0.1011818056
H  H132  1  0.73440000  0.49580000  0.93700000  1.0 0.1011818056
H  H133  1  0.50420000  0.26560000  0.06300000  1.0 0.1011818056
H  H134  1  0.83280000  0.93700000  0.49580000  1.0 0.1011818056
H  H135  1  0.26560000  0.50420000  0.16720000  1.0 0.1011818056
H  H136  1  0.93700000  0.83280000  0.73440000  1.0 0.1011818056
H  H137  1  0.26560000  0.16720000  0.06300000  1.0 0.1011818056
H  H138  1  0.83280000  0.73440000  0.93700000  1.0 0.1011818056
H  H139  1  0.49580000  0.93700000  0.73440000  1.0 0.1011818056
H  H140  1  0.73440000  0.83280000  0.49580000  1.0 0.1011818056
H  H141  1  0.93700000  0.49580000  0.83280000  1.0 0.1011818056
H  H142  1  0.50420000  0.06300000  0.16720000  1.0 0.1011818056
H  H143  1  0.16720000  0.26560000  0.50420000  1.0 0.1011818056
H  H144  1  0.06300000  0.50420000  0.26560000  1.0 0.1011818056
H  H145  1  0.93700000  0.73440000  0.83280000  1.0 0.1011818056
H  H146  1  0.50420000  0.16720000  0.06300000  1.0 0.1011818056
H  H147  1  0.73440000  0.93700000  0.49580000  1.0 0.1011818056
H  H148  1  0.16720000  0.50420000  0.26560000  1.0 0.1011818056
H  H149  1  0.49580000  0.83280000  0.73440000  1.0 0.1011818056
H  H150  1  0.06300000  0.26560000  0.50420000  1.0 0.1011818056
H  H151  1  0.83280000  0.49580000  0.93700000  1.0 0.1011818056
H  H152  1  0.26560000  0.06300000  0.16720000  1.0 0.1011818056
H  H153  1  0.83280000  0.93700000  0.73440000  1.0 0.1011818056
H  H154  1  0.50420000  0.26560000  0.16720000  1.0 0.1011818056
H  H155  1  0.93700000  0.83280000  0.49580000  1.0 0.1011818056
H  H156  1  0.26560000  0.50420000  0.06300000  1.0 0.1011818056
H  H157  1  0.49580000  0.73440000  0.93700000  1.0 0.1011818056
H  H158  1  0.16720000  0.06300000  0.50420000  1.0 0.1011818056
H  H159  1  0.73440000  0.49580000  0.83280000  1.0 0.1011818056
H  H160  1  0.06300000  0.16720000  0.26560000  1.0 0.1011818056
H  H161  1  0.73440000  0.83280000  0.93700000  1.0 0.1011818056
H  H162  1  0.16720000  0.26560000  0.06300000  1.0 0.1011818056
H  H163  1  0.50420000  0.06300000  0.26560000  1.0 0.1011818056
H  H164  1  0.26560000  0.16720000  0.50420000  1.0 0.1011818056
H  H165  1  0.06300000  0.50420000  0.16720000  1.0 0.1011818056
H  H166  1  0.49580000  0.93700000  0.83280000  1.0 0.1011818056
H  H167  1  0.83280000  0.73440000  0.49580000  1.0 0.1011818056
H  H168  1  0.93700000  0.49580000  0.73440000  1.0 0.1011818056
H  H169  1  0.10660000  0.23240000  0.10660000  1.0 0.1277306945
H  H170  1  0.44560000  0.89340000  0.89340000  1.0 0.1277306945
H  H171  1  0.23240000  0.10660000  0.55440000  1.0 0.1277306945
H  H172  1  0.89340000  0.44560000  0.76760000  1.0 0.1277306945
H  H173  1  0.55440000  0.10660000  0.23240000  1.0 0.1277306945
H  H174  1  0.89340000  0.76760000  0.44560000  1.0 0.1277306945
H  H175  1  0.10660000  0.55440000  0.10660000  1.0 0.1277306945
H  H176  1  0.76760000  0.89340000  0.89340000  1.0 0.1277306945
H  H177  1  0.10660000  0.10660000  0.23240000  1.0 0.1277306945
H  H178  1  0.44560000  0.76760000  0.89340000  1.0 0.1277306945
H  H179  1  0.10660000  0.10660000  0.55440000  1.0 0.1277306945
H  H180  1  0.76760000  0.44560000  0.89340000  1.0 0.1277306945
H  H181  1  0.55440000  0.23240000  0.10660000  1.0 0.1277306945
H  H182  1  0.89340000  0.89340000  0.44560000  1.0 0.1277306945
H  H183  1  0.23240000  0.55440000  0.10660000  1.0 0.1277306945
H  H184  1  0.89340000  0.89340000  0.76760000  1.0 0.1277306945
H  H185  1  0.23240000  0.10660000  0.10660000  1.0 0.1277306945
H  H186  1  0.89340000  0.76760000  0.89340000  1.0 0.1277306945
H  H187  1  0.44560000  0.89340000  0.76760000  1.0 0.1277306945
H  H188  1  0.76760000  0.89340000  0.44560000  1.0 0.1277306945
H  H189  1  0.89340000  0.44560000  0.89340000  1.0 0.1277306945
H  H190  1  0.55440000  0.10660000  0.10660000  1.0 0.1277306945
H  H191  1  0.10660000  0.23240000  0.55440000  1.0 0.1277306945
H  H192  1  0.10660000  0.55440000  0.23240000  1.0 0.1277306945
H  H193  1  0.02440000  0.14300000  0.24100000  1.0 0.1011818056
H  H194  1  0.40840000  0.75900000  0.97560000  1.0 0.1011818056
H  H195  1  0.14300000  0.02440000  0.59160000  1.0 0.1011818056
H  H196  1  0.75900000  0.40840000  0.85700000  1.0 0.1011818056
H  H197  1  0.59160000  0.24100000  0.14300000  1.0 0.1011818056
H  H198  1  0.97560000  0.85700000  0.40840000  1.0 0.1011818056
H  H199  1  0.24100000  0.59160000  0.02440000  1.0 0.1011818056
H  H200  1  0.85700000  0.97560000  0.75900000  1.0 0.1011818056
H  H201  1  0.24100000  0.02440000  0.14300000  1.0 0.1011818056
H  H202  1  0.40840000  0.85700000  0.75900000  1.0 0.1011818056
H  H203  1  0.02440000  0.24100000  0.59160000  1.0 0.1011818056
H  H204  1  0.85700000  0.40840000  0.97560000  1.0 0.1011818056
H  H205  1  0.59160000  0.14300000  0.02440000  1.0 0.1011818056
H  H206  1  0.75900000  0.97560000  0.40840000  1.0 0.1011818056
H  H207  1  0.14300000  0.59160000  0.24100000  1.0 0.1011818056
H  H208  1  0.97560000  0.75900000  0.85700000  1.0 0.1011818056
H  H209  1  0.14300000  0.24100000  0.02440000  1.0 0.1011818056
H  H210  1  0.75900000  0.85700000  0.97560000  1.0 0.1011818056
H  H211  1  0.40840000  0.97560000  0.85700000  1.0 0.1011818056
H  H212  1  0.85700000  0.75900000  0.40840000  1.0 0.1011818056
H  H213  1  0.97560000  0.40840000  0.75900000  1.0 0.1011818056
H  H214  1  0.59160000  0.02440000  0.24100000  1.0 0.1011818056
H  H215  1  0.24100000  0.14300000  0.59160000  1.0 0.1011818056
H  H216  1  0.02440000  0.59160000  0.14300000  1.0 0.1011818056
H  H217  1  0.97560000  0.85700000  0.75900000  1.0 0.1011818056
H  H218  1  0.59160000  0.24100000  0.02440000  1.0 0.1011818056
H  H219  1  0.85700000  0.97560000  0.40840000  1.0 0.1011818056
H  H220  1  0.24100000  0.59160000  0.14300000  1.0 0.1011818056
H  H221  1  0.40840000  0.75900000  0.85700000  1.0 0.1011818056
H  H222  1  0.02440000  0.14300000  0.59160000  1.0 0.1011818056
H  H223  1  0.75900000  0.40840000  0.97560000  1.0 0.1011818056
H  H224  1  0.14300000  0.02440000  0.24100000  1.0 0.1011818056
H  H225  1  0.75900000  0.97560000  0.85700000  1.0 0.1011818056
H  H226  1  0.59160000  0.14300000  0.24100000  1.0 0.1011818056
H  H227  1  0.97560000  0.75900000  0.40840000  1.0 0.1011818056
H  H228  1  0.14300000  0.59160000  0.02440000  1.0 0.1011818056
H  H229  1  0.40840000  0.85700000  0.97560000  1.0 0.1011818056
H  H230  1  0.24100000  0.02440000  0.59160000  1.0 0.1011818056
H  H231  1  0.85700000  0.40840000  0.75900000  1.0 0.1011818056
H  H232  1  0.02440000  0.24100000  0.14300000  1.0 0.1011818056
H  H233  1  0.85700000  0.75900000  0.97560000  1.0 0.1011818056
H  H234  1  0.24100000  0.14300000  0.02440000  1.0 0.1011818056
H  H235  1  0.59160000  0.02440000  0.14300000  1.0 0.1011818056
H  H236  1  0.14300000  0.24100000  0.59160000  1.0 0.1011818056
H  H237  1  0.02440000  0.59160000  0.24100000  1.0 0.1011818056
H  H238  1  0.40840000  0.97560000  0.75900000  1.0 0.1011818056
H  H239  1  0.75900000  0.85700000  0.40840000  1.0 0.1011818056
H  H240  1  0.97560000  0.40840000  0.85700000  1.0 0.1011818056
H  H241  1  0.94750000  0.18650000  0.28510000  1.0 0.1066806216
H  H242  1  0.41910000  0.71490000  0.05250000  1.0 0.1066806216
H  H243  1  0.18650000  0.94750000  0.58090000  1.0 0.1066806216
H  H244  1  0.71490000  0.41910000  0.81350000  1.0 0.1066806216
H  H245  1  0.58090000  0.28510000  0.18650000  1.0 0.1066806216
H  H246  1  0.05250000  0.81350000  0.41910000  1.0 0.1066806216
H  H247  1  0.28510000  0.58090000  0.94750000  1.0 0.1066806216
H  H248  1  0.81350000  0.05250000  0.71490000  1.0 0.1066806216
H  H249  1  0.28510000  0.94750000  0.18650000  1.0 0.1066806216
H  H250  1  0.41910000  0.81350000  0.71490000  1.0 0.1066806216
H  H251  1  0.94750000  0.28510000  0.58090000  1.0 0.1066806216
H  H252  1  0.81350000  0.41910000  0.05250000  1.0 0.1066806216
H  H253  1  0.58090000  0.18650000  0.94750000  1.0 0.1066806216
H  H254  1  0.71490000  0.05250000  0.41910000  1.0 0.1066806216
H  H255  1  0.18650000  0.58090000  0.28510000  1.0 0.1066806216
H  H256  1  0.05250000  0.71490000  0.81350000  1.0 0.1066806216
H  H257  1  0.18650000  0.28510000  0.94750000  1.0 0.1066806216
H  H258  1  0.71490000  0.81350000  0.05250000  1.0 0.1066806216
H  H259  1  0.41910000  0.05250000  0.81350000  1.0 0.1066806216
H  H260  1  0.81350000  0.71490000  0.41910000  1.0 0.1066806216
H  H261  1  0.05250000  0.41910000  0.71490000  1.0 0.1066806216
H  H262  1  0.58090000  0.94750000  0.28510000  1.0 0.1066806216
H  H263  1  0.28510000  0.18650000  0.58090000  1.0 0.1066806216
H  H264  1  0.94750000  0.58090000  0.18650000  1.0 0.1066806216
H  H265  1  0.05250000  0.81350000  0.71490000  1.0 0.1066806216
H  H266  1  0.58090000  0.28510000  0.94750000  1.0 0.1066806216
H  H267  1  0.81350000  0.05250000  0.41910000  1.0 0.1066806216
H  H268  1  0.28510000  0.58090000  0.18650000  1.0 0.1066806216
H  H269  1  0.41910000  0.71490000  0.81350000  1.0 0.1066806216
H  H270  1  0.94750000  0.18650000  0.58090000  1.0 0.1066806216
H  H271  1  0.71490000  0.41910000  0.05250000  1.0 0.1066806216
H  H272  1  0.18650000  0.94750000  0.28510000  1.0 0.1066806216
H  H273  1  0.71490000  0.05250000  0.81350000  1.0 0.1066806216
H  H274  1  0.58090000  0.18650000  0.28510000  1.0 0.1066806216
H  H275  1  0.05250000  0.71490000  0.41910000  1.0 0.1066806216
H  H276  1  0.18650000  0.58090000  0.94750000  1.0 0.1066806216
H  H277  1  0.41910000  0.81350000  0.05250000  1.0 0.1066806216
H  H278  1  0.28510000  0.94750000  0.58090000  1.0 0.1066806216
H  H279  1  0.81350000  0.41910000  0.71490000  1.0 0.1066806216
H  H280  1  0.94750000  0.28510000  0.18650000  1.0 0.1066806216
H  H281  1  0.81350000  0.71490000  0.05250000  1.0 0.1066806216
H  H282  1  0.28510000  0.18650000  0.94750000  1.0 0.1066806216
H  H283  1  0.58090000  0.94750000  0.18650000  1.0 0.1066806216
H  H284  1  0.18650000  0.28510000  0.58090000  1.0 0.1066806216
H  H285  1  0.94750000  0.58090000  0.28510000  1.0 0.1066806216
H  H286  1  0.41910000  0.05250000  0.71490000  1.0 0.1066806216
H  H287  1  0.71490000  0.81350000  0.41910000  1.0 0.1066806216
H  H288  1  0.05250000  0.41910000  0.81350000  1.0 0.1066806216
C  C1  1  0.81698000  0.25974000  0.40898000  1.0 0.5879929369
C  C2  1  0.48570000  0.59102000  0.18302000  1.0 0.5879929369
C  C3  1  0.25974000  0.81698000  0.51430000  1.0 0.5879929369
C  C4  1  0.59102000  0.48570000  0.74026000  1.0 0.5879929369
C  C5  1  0.51430000  0.40898000  0.25974000  1.0 0.5879929369
C  C6  1  0.18302000  0.74026000  0.48570000  1.0 0.5879929369
C  C7  1  0.40898000  0.51430000  0.81698000  1.0 0.5879929369
C  C8  1  0.74026000  0.18302000  0.59102000  1.0 0.5879929369
C  C9  1  0.40898000  0.81698000  0.25974000  1.0 0.5879929369
C  C10  1  0.48570000  0.74026000  0.59102000  1.0 0.5879929369
C  C11  1  0.81698000  0.40898000  0.51430000  1.0 0.5879929369
C  C12  1  0.74026000  0.48570000  0.18302000  1.0 0.5879929369
C  C13  1  0.51430000  0.25974000  0.81698000  1.0 0.5879929369
C  C14  1  0.59102000  0.18302000  0.48570000  1.0 0.5879929369
C  C15  1  0.25974000  0.51430000  0.40898000  1.0 0.5879929369
C  C16  1  0.18302000  0.59102000  0.74026000  1.0 0.5879929369
C  C17  1  0.25974000  0.40898000  0.81698000  1.0 0.5879929369
C  C18  1  0.59102000  0.74026000  0.18302000  1.0 0.5879929369
C  C19  1  0.48570000  0.18302000  0.74026000  1.0 0.5879929369
C  C20  1  0.74026000  0.59102000  0.48570000  1.0 0.5879929369
C  C21  1  0.18302000  0.48570000  0.59102000  1.0 0.5879929369
C  C22  1  0.51430000  0.81698000  0.40898000  1.0 0.5879929369
C  C23  1  0.40898000  0.25974000  0.51430000  1.0 0.5879929369
C  C24  1  0.81698000  0.51430000  0.25974000  1.0 0.5879929369
C  C25  1  0.18302000  0.74026000  0.59102000  1.0 0.5879929369
C  C26  1  0.51430000  0.40898000  0.81698000  1.0 0.5879929369
C  C27  1  0.74026000  0.18302000  0.48570000  1.0 0.5879929369
C  C28  1  0.40898000  0.51430000  0.25974000  1.0 0.5879929369
C  C29  1  0.48570000  0.59102000  0.74026000  1.0 0.5879929369
C  C30  1  0.81698000  0.25974000  0.51430000  1.0 0.5879929369
C  C31  1  0.59102000  0.48570000  0.18302000  1.0 0.5879929369
C  C32  1  0.25974000  0.81698000  0.40898000  1.0 0.5879929369
C  C33  1  0.59102000  0.18302000  0.74026000  1.0 0.5879929369
C  C34  1  0.51430000  0.25974000  0.40898000  1.0 0.5879929369
C  C35  1  0.18302000  0.59102000  0.48570000  1.0 0.5879929369
C  C36  1  0.25974000  0.51430000  0.81698000  1.0 0.5879929369
C  C37  1  0.48570000  0.74026000  0.18302000  1.0 0.5879929369
C  C38  1  0.40898000  0.81698000  0.51430000  1.0 0.5879929369
C  C39  1  0.74026000  0.48570000  0.59102000  1.0 0.5879929369
C  C40  1  0.81698000  0.40898000  0.25974000  1.0 0.5879929369
C  C41  1  0.74026000  0.59102000  0.18302000  1.0 0.5879929369
C  C42  1  0.40898000  0.25974000  0.81698000  1.0 0.5879929369
C  C43  1  0.51430000  0.81698000  0.25974000  1.0 0.5879929369
C  C44  1  0.25974000  0.40898000  0.51430000  1.0 0.5879929369
C  C45  1  0.81698000  0.51430000  0.40898000  1.0 0.5879929369
C  C46  1  0.48570000  0.18302000  0.59102000  1.0 0.5879929369
C  C47  1  0.59102000  0.74026000  0.48570000  1.0 0.5879929369
C  C48  1  0.18302000  0.48570000  0.74026000  1.0 0.5879929369
C  C49  1  0.81668000  0.33288000  0.33288000  1.0 -0.1080468365
C  C50  1  0.48244000  0.66712000  0.18332000  1.0 -0.1080468365
C  C51  1  0.33288000  0.81668000  0.51756000  1.0 -0.1080468365
C  C52  1  0.66712000  0.48244000  0.66712000  1.0 -0.1080468365
C  C53  1  0.51756000  0.33288000  0.33288000  1.0 -0.1080468365
C  C54  1  0.18332000  0.66712000  0.48244000  1.0 -0.1080468365
C  C55  1  0.33288000  0.51756000  0.81668000  1.0 -0.1080468365
C  C56  1  0.66712000  0.18332000  0.66712000  1.0 -0.1080468365
C  C57  1  0.33288000  0.81668000  0.33288000  1.0 -0.1080468365
C  C58  1  0.48244000  0.66712000  0.66712000  1.0 -0.1080468365
C  C59  1  0.81668000  0.33288000  0.51756000  1.0 -0.1080468365
C  C60  1  0.66712000  0.48244000  0.18332000  1.0 -0.1080468365
C  C61  1  0.51756000  0.33288000  0.81668000  1.0 -0.1080468365
C  C62  1  0.66712000  0.18332000  0.48244000  1.0 -0.1080468365
C  C63  1  0.33288000  0.51756000  0.33288000  1.0 -0.1080468365
C  C64  1  0.18332000  0.66712000  0.66712000  1.0 -0.1080468365
C  C65  1  0.33288000  0.33288000  0.81668000  1.0 -0.1080468365
C  C66  1  0.66712000  0.66712000  0.18332000  1.0 -0.1080468365
C  C67  1  0.48244000  0.18332000  0.66712000  1.0 -0.1080468365
C  C68  1  0.66712000  0.66712000  0.48244000  1.0 -0.1080468365
C  C69  1  0.18332000  0.48244000  0.66712000  1.0 -0.1080468365
C  C70  1  0.51756000  0.81668000  0.33288000  1.0 -0.1080468365
C  C71  1  0.33288000  0.33288000  0.51756000  1.0 -0.1080468365
C  C72  1  0.81668000  0.51756000  0.33288000  1.0 -0.1080468365
C  C73  1  0.84032000  0.28346000  0.35576000  1.0 -0.0217289261
C  C74  1  0.47954000  0.64424000  0.15968000  1.0 -0.0217289261
C  C75  1  0.28346000  0.84032000  0.52046000  1.0 -0.0217289261
C  C76  1  0.64424000  0.47954000  0.71654000  1.0 -0.0217289261
C  C77  1  0.52046000  0.35576000  0.28346000  1.0 -0.0217289261
C  C78  1  0.15968000  0.71654000  0.47954000  1.0 -0.0217289261
C  C79  1  0.35576000  0.52046000  0.84032000  1.0 -0.0217289261
C  C80  1  0.71654000  0.15968000  0.64424000  1.0 -0.0217289261
C  C81  1  0.35576000  0.84032000  0.28346000  1.0 -0.0217289261
C  C82  1  0.47954000  0.71654000  0.64424000  1.0 -0.0217289261
C  C83  1  0.84032000  0.35576000  0.52046000  1.0 -0.0217289261
C  C84  1  0.71654000  0.47954000  0.15968000  1.0 -0.0217289261
C  C85  1  0.52046000  0.28346000  0.84032000  1.0 -0.0217289261
C  C86  1  0.64424000  0.15968000  0.47954000  1.0 -0.0217289261
C  C87  1  0.28346000  0.52046000  0.35576000  1.0 -0.0217289261
C  C88  1  0.15968000  0.64424000  0.71654000  1.0 -0.0217289261
C  C89  1  0.28346000  0.35576000  0.84032000  1.0 -0.0217289261
C  C90  1  0.64424000  0.71654000  0.15968000  1.0 -0.0217289261
C  C91  1  0.47954000  0.15968000  0.71654000  1.0 -0.0217289261
C  C92  1  0.71654000  0.64424000  0.47954000  1.0 -0.0217289261
C  C93  1  0.15968000  0.47954000  0.64424000  1.0 -0.0217289261
C  C94  1  0.52046000  0.84032000  0.35576000  1.0 -0.0217289261
C  C95  1  0.35576000  0.28346000  0.52046000  1.0 -0.0217289261
C  C96  1  0.84032000  0.52046000  0.28346000  1.0 -0.0217289261
C  C97  1  0.15968000  0.71654000  0.64424000  1.0 -0.0217289261
C  C98  1  0.52046000  0.35576000  0.84032000  1.0 -0.0217289261
C  C99  1  0.71654000  0.15968000  0.47954000  1.0 -0.0217289261
C  C100  1  0.35576000  0.52046000  0.28346000  1.0 -0.0217289261
C  C101  1  0.47954000  0.64424000  0.71654000  1.0 -0.0217289261
C  C102  1  0.84032000  0.28346000  0.52046000  1.0 -0.0217289261
C  C103  1  0.64424000  0.47954000  0.15968000  1.0 -0.0217289261
C  C104  1  0.28346000  0.84032000  0.35576000  1.0 -0.0217289261
C  C105  1  0.64424000  0.15968000  0.71654000  1.0 -0.0217289261
C  C106  1  0.52046000  0.28346000  0.35576000  1.0 -0.0217289261
C  C107  1  0.15968000  0.64424000  0.47954000  1.0 -0.0217289261
C  C108  1  0.28346000  0.52046000  0.84032000  1.0 -0.0217289261
C  C109  1  0.47954000  0.71654000  0.15968000  1.0 -0.0217289261
C  C110  1  0.35576000  0.84032000  0.52046000  1.0 -0.0217289261
C  C111  1  0.71654000  0.47954000  0.64424000  1.0 -0.0217289261
C  C112  1  0.84032000  0.35576000  0.28346000  1.0 -0.0217289261
C  C113  1  0.71654000  0.64424000  0.15968000  1.0 -0.0217289261
C  C114  1  0.35576000  0.28346000  0.84032000  1.0 -0.0217289261
C  C115  1  0.52046000  0.84032000  0.28346000  1.0 -0.0217289261
C  C116  1  0.28346000  0.35576000  0.52046000  1.0 -0.0217289261
C  C117  1  0.84032000  0.52046000  0.35576000  1.0 -0.0217289261
C  C118  1  0.47954000  0.15968000  0.64424000  1.0 -0.0217289261
C  C119  1  0.64424000  0.71654000  0.47954000  1.0 -0.0217289261
C  C120  1  0.15968000  0.47954000  0.71654000  1.0 -0.0217289261
C  C121  1  0.88529000  0.25753000  0.32941000  1.0 -0.1606951413
C  C122  1  0.47223000  0.67059000  0.11471000  1.0 -0.1606951413
C  C123  1  0.25753000  0.88529000  0.52777000  1.0 -0.1606951413
C  C124  1  0.67059000  0.47223000  0.74247000  1.0 -0.1606951413
C  C125  1  0.52777000  0.32941000  0.25753000  1.0 -0.1606951413
C  C126  1  0.11471000  0.74247000  0.47223000  1.0 -0.1606951413
C  C127  1  0.32941000  0.52777000  0.88529000  1.0 -0.1606951413
C  C128  1  0.74247000  0.11471000  0.67059000  1.0 -0.1606951413
C  C129  1  0.32941000  0.88529000  0.25753000  1.0 -0.1606951413
C  C130  1  0.47223000  0.74247000  0.67059000  1.0 -0.1606951413
C  C131  1  0.88529000  0.32941000  0.52777000  1.0 -0.1606951413
C  C132  1  0.74247000  0.47223000  0.11471000  1.0 -0.1606951413
C  C133  1  0.52777000  0.25753000  0.88529000  1.0 -0.1606951413
C  C134  1  0.67059000  0.11471000  0.47223000  1.0 -0.1606951413
C  C135  1  0.25753000  0.52777000  0.32941000  1.0 -0.1606951413
C  C136  1  0.11471000  0.67059000  0.74247000  1.0 -0.1606951413
C  C137  1  0.25753000  0.32941000  0.88529000  1.0 -0.1606951413
C  C138  1  0.67059000  0.74247000  0.11471000  1.0 -0.1606951413
C  C139  1  0.47223000  0.11471000  0.74247000  1.0 -0.1606951413
C  C140  1  0.74247000  0.67059000  0.47223000  1.0 -0.1606951413
C  C141  1  0.11471000  0.47223000  0.67059000  1.0 -0.1606951413
C  C142  1  0.52777000  0.88529000  0.32941000  1.0 -0.1606951413
C  C143  1  0.32941000  0.25753000  0.52777000  1.0 -0.1606951413
C  C144  1  0.88529000  0.52777000  0.25753000  1.0 -0.1606951413
C  C145  1  0.11471000  0.74247000  0.67059000  1.0 -0.1606951413
C  C146  1  0.52777000  0.32941000  0.88529000  1.0 -0.1606951413
C  C147  1  0.74247000  0.11471000  0.47223000  1.0 -0.1606951413
C  C148  1  0.32941000  0.52777000  0.25753000  1.0 -0.1606951413
C  C149  1  0.47223000  0.67059000  0.74247000  1.0 -0.1606951413
C  C150  1  0.88529000  0.25753000  0.52777000  1.0 -0.1606951413
C  C151  1  0.67059000  0.47223000  0.11471000  1.0 -0.1606951413
C  C152  1  0.25753000  0.88529000  0.32941000  1.0 -0.1606951413
C  C153  1  0.67059000  0.11471000  0.74247000  1.0 -0.1606951413
C  C154  1  0.52777000  0.25753000  0.32941000  1.0 -0.1606951413
C  C155  1  0.11471000  0.67059000  0.47223000  1.0 -0.1606951413
C  C156  1  0.25753000  0.52777000  0.88529000  1.0 -0.1606951413
C  C157  1  0.47223000  0.74247000  0.11471000  1.0 -0.1606951413
C  C158  1  0.32941000  0.88529000  0.52777000  1.0 -0.1606951413
C  C159  1  0.74247000  0.47223000  0.67059000  1.0 -0.1606951413
C  C160  1  0.88529000  0.32941000  0.25753000  1.0 -0.1606951413
C  C161  1  0.74247000  0.67059000  0.11471000  1.0 -0.1606951413
C  C162  1  0.32941000  0.25753000  0.88529000  1.0 -0.1606951413
C  C163  1  0.52777000  0.88529000  0.25753000  1.0 -0.1606951413
C  C164  1  0.25753000  0.32941000  0.52777000  1.0 -0.1606951413
C  C165  1  0.88529000  0.52777000  0.32941000  1.0 -0.1606951413
C  C166  1  0.47223000  0.11471000  0.67059000  1.0 -0.1606951413
C  C167  1  0.67059000  0.74247000  0.47223000  1.0 -0.1606951413
C  C168  1  0.11471000  0.47223000  0.74247000  1.0 -0.1606951413
C  C169  1  0.90844000  0.28000000  0.28000000  1.0 0.058916365
C  C170  1  0.46844000  0.72000000  0.09156000  1.0 0.058916365
C  C171  1  0.28000000  0.90844000  0.53156000  1.0 0.058916365
C  C172  1  0.72000000  0.46844000  0.72000000  1.0 0.058916365
C  C173  1  0.53156000  0.28000000  0.28000000  1.0 0.058916365
C  C174  1  0.09156000  0.72000000  0.46844000  1.0 0.058916365
C  C175  1  0.28000000  0.53156000  0.90844000  1.0 0.058916365
C  C176  1  0.72000000  0.09156000  0.72000000  1.0 0.058916365
C  C177  1  0.28000000  0.90844000  0.28000000  1.0 0.058916365
C  C178  1  0.46844000  0.72000000  0.72000000  1.0 0.058916365
C  C179  1  0.90844000  0.28000000  0.53156000  1.0 0.058916365
C  C180  1  0.72000000  0.46844000  0.09156000  1.0 0.058916365
C  C181  1  0.53156000  0.28000000  0.90844000  1.0 0.058916365
C  C182  1  0.72000000  0.09156000  0.46844000  1.0 0.058916365
C  C183  1  0.28000000  0.53156000  0.28000000  1.0 0.058916365
C  C184  1  0.09156000  0.72000000  0.72000000  1.0 0.058916365
C  C185  1  0.28000000  0.28000000  0.90844000  1.0 0.058916365
C  C186  1  0.72000000  0.72000000  0.09156000  1.0 0.058916365
C  C187  1  0.46844000  0.09156000  0.72000000  1.0 0.058916365
C  C188  1  0.72000000  0.72000000  0.46844000  1.0 0.058916365
C  C189  1  0.09156000  0.46844000  0.72000000  1.0 0.058916365
C  C190  1  0.53156000  0.90844000  0.28000000  1.0 0.058916365
C  C191  1  0.28000000  0.28000000  0.53156000  1.0 0.058916365
C  C192  1  0.90844000  0.53156000  0.28000000  1.0 0.058916365
C  C193  1  0.95629000  0.25203000  0.25203000  1.0 0.032162469
C  C194  1  0.46035000  0.74797000  0.04371000  1.0 0.032162469
C  C195  1  0.25203000  0.95629000  0.53965000  1.0 0.032162469
C  C196  1  0.74797000  0.46035000  0.74797000  1.0 0.0385159045
C  C197  1  0.53965000  0.25203000  0.25203000  1.0 0.032162469
C  C198  1  0.04371000  0.74797000  0.46035000  1.0 0.032162469
C  C199  1  0.25203000  0.53965000  0.95629000  1.0 0.032162469
C  C200  1  0.74797000  0.04371000  0.74797000  1.0 0.0385159045
C  C201  1  0.25203000  0.95629000  0.25203000  1.0 0.032162469
C  C202  1  0.46035000  0.74797000  0.74797000  1.0 0.032162469
C  C203  1  0.95629000  0.25203000  0.53965000  1.0 0.032162469
C  C204  1  0.74797000  0.46035000  0.04371000  1.0 0.032162469
C  C205  1  0.53965000  0.25203000  0.95629000  1.0 0.032162469
C  C206  1  0.74797000  0.04371000  0.46035000  1.0 0.032162469
C  C207  1  0.25203000  0.53965000  0.25203000  1.0 0.032162469
C  C208  1  0.04371000  0.74797000  0.74797000  1.0 0.032162469
C  C209  1  0.25203000  0.25203000  0.95629000  1.0 0.032162469
C  C210  1  0.74797000  0.74797000  0.04371000  1.0 0.032162469
C  C211  1  0.46035000  0.04371000  0.74797000  1.0 0.0385159045
C  C212  1  0.74797000  0.74797000  0.46035000  1.0 0.032162469
C  C213  1  0.04371000  0.46035000  0.74797000  1.0 0.0385159045
C  C214  1  0.53965000  0.95629000  0.25203000  1.0 0.032162469
C  C215  1  0.25203000  0.25203000  0.53965000  1.0 0.0385159045
C  C216  1  0.95629000  0.53965000  0.25203000  1.0 0.032162469
C  C217  1  0.98920000  0.27560000  0.21540000  1.0 -0.0919411826
C  C218  1  0.48020000  0.78460000  0.01080000  1.0 -0.0919411826
C  C219  1  0.27560000  0.98920000  0.51980000  1.0 -0.084857328
C  C220  1  0.78460000  0.48020000  0.72440000  1.0 -0.0919411826
C  C221  1  0.51980000  0.21540000  0.27560000  1.0 -0.084857328
C  C222  1  0.01080000  0.72440000  0.48020000  1.0 -0.0919411826
C  C223  1  0.21540000  0.51980000  0.98920000  1.0 -0.0919411826
C  C224  1  0.72440000  0.01080000  0.78460000  1.0 -0.0919411826
C  C225  1  0.21540000  0.98920000  0.27560000  1.0 -0.0919411826
C  C226  1  0.48020000  0.72440000  0.78460000  1.0 -0.084857328
C  C227  1  0.98920000  0.21540000  0.51980000  1.0 -0.0919411826
C  C228  1  0.72440000  0.48020000  0.01080000  1.0 -0.0919411826
C  C229  1  0.51980000  0.27560000  0.98920000  1.0 -0.084857328
C  C230  1  0.78460000  0.01080000  0.48020000  1.0 -0.0919411826
C  C231  1  0.27560000  0.51980000  0.21540000  1.0 -0.0919411826
C  C232  1  0.01080000  0.78460000  0.72440000  1.0 -0.0919411826
C  C233  1  0.27560000  0.21540000  0.98920000  1.0 -0.0919411826
C  C234  1  0.78460000  0.72440000  0.01080000  1.0 -0.0919411826
C  C235  1  0.48020000  0.01080000  0.72440000  1.0 -0.0919411826
C  C236  1  0.72440000  0.78460000  0.48020000  1.0 -0.0919411826
C  C237  1  0.01080000  0.48020000  0.78460000  1.0 -0.0919411826
C  C238  1  0.51980000  0.98920000  0.21540000  1.0 -0.0919411826
C  C239  1  0.21540000  0.27560000  0.51980000  1.0 -0.0919411826
C  C240  1  0.98920000  0.51980000  0.27560000  1.0 -0.0919411826
C  C241  1  0.01080000  0.72440000  0.78460000  1.0 -0.0919411826
C  C242  1  0.51980000  0.21540000  0.98920000  1.0 -0.0919411826
C  C243  1  0.72440000  0.01080000  0.48020000  1.0 -0.084857328
C  C244  1  0.21540000  0.51980000  0.27560000  1.0 -0.084857328
C  C245  1  0.48020000  0.78460000  0.72440000  1.0 -0.0919411826
C  C246  1  0.98920000  0.27560000  0.51980000  1.0 -0.0919411826
C  C247  1  0.78460000  0.48020000  0.01080000  1.0 -0.0919411826
C  C248  1  0.27560000  0.98920000  0.21540000  1.0 -0.0919411826
C  C249  1  0.78460000  0.01080000  0.72440000  1.0 -0.0919411826
C  C250  1  0.51980000  0.27560000  0.21540000  1.0 -0.0919411826
C  C251  1  0.01080000  0.78460000  0.48020000  1.0 -0.0919411826
C  C252  1  0.27560000  0.51980000  0.98920000  1.0 -0.0919411826
C  C253  1  0.48020000  0.72440000  0.01080000  1.0 -0.0919411826
C  C254  1  0.21540000  0.98920000  0.51980000  1.0 -0.0919411826
C  C255  1  0.72440000  0.48020000  0.78460000  1.0 -0.0919411826
C  C256  1  0.98920000  0.21540000  0.27560000  1.0 -0.084857328
C  C257  1  0.72440000  0.78460000  0.01080000  1.0 -0.0919411826
C  C258  1  0.21540000  0.27560000  0.98920000  1.0 -0.084857328
C  C259  1  0.51980000  0.98920000  0.27560000  1.0 -0.0919411826
C  C260  1  0.27560000  0.21540000  0.51980000  1.0 -0.0919411826
C  C261  1  0.98920000  0.51980000  0.21540000  1.0 -0.0919411826
C  C262  1  0.48020000  0.01080000  0.78460000  1.0 -0.0919411826
C  C263  1  0.78460000  0.72440000  0.48020000  1.0 -0.0919411826
C  C264  1  0.01080000  0.48020000  0.72440000  1.0 -0.0919411826
C  C265  1  0.03910000  0.24950000  0.18990000  1.0 -0.1080468365
C  C266  1  0.47850000  0.81010000  0.96090000  1.0 -0.1080468365
C  C267  1  0.24950000  0.03910000  0.52150000  1.0 -0.1080468365
C  C268  1  0.81010000  0.47850000  0.75050000  1.0 -0.0980573831
C  C269  1  0.52150000  0.18990000  0.24950000  1.0 -0.1080468365
C  C270  1  0.96090000  0.75050000  0.47850000  1.0 -0.0980573831
C  C271  1  0.18990000  0.52150000  0.03910000  1.0 -0.1080468365
C  C272  1  0.75050000  0.96090000  0.81010000  1.0 -0.0980573831
C  C273  1  0.18990000  0.03910000  0.24950000  1.0 -0.1080468365
C  C274  1  0.47850000  0.75050000  0.81010000  1.0 -0.0980573831
C  C275  1  0.03910000  0.18990000  0.52150000  1.0 -0.1080468365
C  C276  1  0.75050000  0.47850000  0.96090000  1.0 -0.1080468365
C  C277  1  0.52150000  0.24950000  0.03910000  1.0 -0.0980573831
C  C278  1  0.81010000  0.96090000  0.47850000  1.0 -0.0980573831
C  C279  1  0.24950000  0.52150000  0.18990000  1.0 -0.1080468365
C  C280  1  0.96090000  0.81010000  0.75050000  1.0 -0.0980573831
C  C281  1  0.24950000  0.18990000  0.03910000  1.0 -0.1080468365
C  C282  1  0.81010000  0.75050000  0.96090000  1.0 -0.1080468365
C  C283  1  0.47850000  0.96090000  0.75050000  1.0 -0.1080468365
C  C284  1  0.75050000  0.81010000  0.47850000  1.0 -0.0980573831
C  C285  1  0.96090000  0.47850000  0.81010000  1.0 -0.0980573831
C  C286  1  0.52150000  0.03910000  0.18990000  1.0 -0.1080468365
C  C287  1  0.18990000  0.24950000  0.52150000  1.0 -0.1080468365
C  C288  1  0.03910000  0.52150000  0.24950000  1.0 -0.1080468365
C  C289  1  0.96090000  0.75050000  0.81010000  1.0 -0.0980573831
C  C290  1  0.52150000  0.18990000  0.03910000  1.0 -0.1080468365
C  C291  1  0.75050000  0.96090000  0.47850000  1.0 -0.0980573831
C  C292  1  0.18990000  0.52150000  0.24950000  1.0 -0.1080468365
C  C293  1  0.47850000  0.81010000  0.75050000  1.0 -0.0980573831
C  C294  1  0.03910000  0.24950000  0.52150000  1.0 -0.1080468365
C  C295  1  0.81010000  0.47850000  0.96090000  1.0 -0.0980573831
C  C296  1  0.24950000  0.03910000  0.18990000  1.0 -0.1080468365
C  C297  1  0.81010000  0.96090000  0.75050000  1.0 -0.1080468365
C  C298  1  0.52150000  0.24950000  0.18990000  1.0 -0.1080468365
C  C299  1  0.96090000  0.81010000  0.47850000  1.0 -0.1080468365
C  C300  1  0.24950000  0.52150000  0.03910000  1.0 -0.1080468365
C  C301  1  0.47850000  0.75050000  0.96090000  1.0 -0.1080468365
C  C302  1  0.18990000  0.03910000  0.52150000  1.0 -0.1080468365
C  C303  1  0.75050000  0.47850000  0.81010000  1.0 -0.1080468365
C  C304  1  0.03910000  0.18990000  0.24950000  1.0 -0.1080468365
C  C305  1  0.75050000  0.81010000  0.96090000  1.0 -0.0980573831
C  C306  1  0.18990000  0.24950000  0.03910000  1.0 -0.1080468365
C  C307  1  0.52150000  0.03910000  0.24950000  1.0 -0.1080468365
C  C308  1  0.24950000  0.18990000  0.52150000  1.0 -0.1080468365
C  C309  1  0.03910000  0.52150000  0.18990000  1.0 -0.1080468365
C  C310  1  0.47850000  0.96090000  0.81010000  1.0 -0.1080468365
C  C311  1  0.81010000  0.75050000  0.47850000  1.0 -0.0980573831
C  C312  1  0.96090000  0.47850000  0.75050000  1.0 -0.0980573831
C  C313  1  0.05046000  0.20010000  0.20010000  1.0 0.0460949943
C  C314  1  0.45066000  0.79990000  0.94954000  1.0 0.0460949943
C  C315  1  0.20010000  0.05046000  0.54934000  1.0 0.0460949943
C  C316  1  0.79990000  0.45066000  0.79990000  1.0 0.0460949943
C  C317  1  0.54934000  0.20010000  0.20010000  1.0 0.0460949943
C  C318  1  0.94954000  0.79990000  0.45066000  1.0 0.0460949943
C  C319  1  0.20010000  0.54934000  0.05046000  1.0 0.0460949943
C  C320  1  0.79990000  0.94954000  0.79990000  1.0 0.0460949943
C  C321  1  0.20010000  0.05046000  0.20010000  1.0 0.0460949943
C  C322  1  0.45066000  0.79990000  0.79990000  1.0 0.0460949943
C  C323  1  0.05046000  0.20010000  0.54934000  1.0 0.0460949943
C  C324  1  0.79990000  0.45066000  0.94954000  1.0 0.0460949943
C  C325  1  0.54934000  0.20010000  0.05046000  1.0 0.0385159045
C  C326  1  0.79990000  0.94954000  0.45066000  1.0 0.0460949943
C  C327  1  0.20010000  0.54934000  0.20010000  1.0 0.0460949943
C  C328  1  0.94954000  0.79990000  0.79990000  1.0 0.0460949943
C  C329  1  0.20010000  0.20010000  0.05046000  1.0 0.0460949943
C  C330  1  0.79990000  0.79990000  0.94954000  1.0 0.0460949943
C  C331  1  0.45066000  0.94954000  0.79990000  1.0 0.0460949943
C  C332  1  0.79990000  0.79990000  0.45066000  1.0 0.0460949943
C  C333  1  0.94954000  0.45066000  0.79990000  1.0 0.0460949943
C  C334  1  0.54934000  0.05046000  0.20010000  1.0 0.0460949943
C  C335  1  0.20010000  0.20010000  0.54934000  1.0 0.0460949943
C  C336  1  0.05046000  0.54934000  0.20010000  1.0 0.0460949943
C  C337  1  0.10110000  0.17310000  0.17310000  1.0 0.0793171254
C  C338  1  0.44730000  0.82690000  0.89890000  1.0 0.0793171254
C  C339  1  0.17310000  0.10110000  0.55270000  1.0 0.0793171254
C  C340  1  0.82690000  0.44730000  0.82690000  1.0 0.0793171254
C  C341  1  0.55270000  0.17310000  0.17310000  1.0 0.0793171254
C  C342  1  0.89890000  0.82690000  0.44730000  1.0 0.0793171254
C  C343  1  0.17310000  0.55270000  0.10110000  1.0 0.0793171254
C  C344  1  0.82690000  0.89890000  0.82690000  1.0 0.0793171254
C  C345  1  0.17310000  0.10110000  0.17310000  1.0 0.0793171254
C  C346  1  0.44730000  0.82690000  0.82690000  1.0 0.0793171254
C  C347  1  0.10110000  0.17310000  0.55270000  1.0 0.0793171254
C  C348  1  0.82690000  0.44730000  0.89890000  1.0 0.0793171254
C  C349  1  0.55270000  0.17310000  0.10110000  1.0 0.0793171254
C  C350  1  0.82690000  0.89890000  0.44730000  1.0 0.0793171254
C  C351  1  0.17310000  0.55270000  0.17310000  1.0 0.0793171254
C  C352  1  0.89890000  0.82690000  0.82690000  1.0 0.0793171254
C  C353  1  0.17310000  0.17310000  0.10110000  1.0 0.0793171254
C  C354  1  0.82690000  0.82690000  0.89890000  1.0 0.0793171254
C  C355  1  0.44730000  0.89890000  0.82690000  1.0 0.0793171254
C  C356  1  0.82690000  0.82690000  0.44730000  1.0 0.0793171254
C  C357  1  0.89890000  0.44730000  0.82690000  1.0 0.0793171254
C  C358  1  0.55270000  0.10110000  0.17310000  1.0 0.0793171254
C  C359  1  0.17310000  0.17310000  0.55270000  1.0 0.0793171254
C  C360  1  0.10110000  0.55270000  0.17310000  1.0 0.0793171254
C  C361  1  0.12340000  0.19970000  0.12340000  1.0 -0.3291447108
C  C362  1  0.44650000  0.87660000  0.87660000  1.0 -0.3291447108
C  C363  1  0.19970000  0.12340000  0.55350000  1.0 -0.3291447108
C  C364  1  0.87660000  0.44650000  0.80030000  1.0 -0.3291447108
C  C365  1  0.55350000  0.12340000  0.19970000  1.0 -0.3291447108
C  C366  1  0.87660000  0.80030000  0.44650000  1.0 -0.3291447108
C  C367  1  0.12340000  0.55350000  0.12340000  1.0 -0.3291447108
C  C368  1  0.80030000  0.87660000  0.87660000  1.0 -0.3291447108
C  C369  1  0.12340000  0.12340000  0.19970000  1.0 -0.3291447108
C  C370  1  0.44650000  0.80030000  0.87660000  1.0 -0.3291447108
C  C371  1  0.12340000  0.12340000  0.55350000  1.0 -0.3291447108
C  C372  1  0.80030000  0.44650000  0.87660000  1.0 -0.3291447108
C  C373  1  0.55350000  0.19970000  0.12340000  1.0 -0.3291447108
C  C374  1  0.87660000  0.87660000  0.44650000  1.0 -0.3291447108
C  C375  1  0.19970000  0.55350000  0.12340000  1.0 -0.3291447108
C  C376  1  0.87660000  0.87660000  0.80030000  1.0 -0.3291447108
C  C377  1  0.19970000  0.12340000  0.12340000  1.0 -0.3291447108
C  C378  1  0.87660000  0.80030000  0.87660000  1.0 -0.3291447108
C  C379  1  0.44650000  0.87660000  0.80030000  1.0 -0.3291447108
C  C380  1  0.80030000  0.87660000  0.44650000  1.0 -0.3291447108
C  C381  1  0.87660000  0.44650000  0.87660000  1.0 -0.3291447108
C  C382  1  0.55350000  0.12340000  0.12340000  1.0 -0.3291447108
C  C383  1  0.12340000  0.19970000  0.55350000  1.0 -0.3291447108
C  C384  1  0.12340000  0.55350000  0.19970000  1.0 -0.3291447108
C  C385  1  0.01660000  0.17700000  0.23460000  1.0 -0.0980573831
C  C386  1  0.42820000  0.76540000  0.98340000  1.0 -0.0980573831
C  C387  1  0.17700000  0.01660000  0.57180000  1.0 -0.0980573831
C  C388  1  0.76540000  0.42820000  0.82300000  1.0 -0.0980573831
C  C389  1  0.57180000  0.23460000  0.17700000  1.0 -0.0980573831
C  C390  1  0.98340000  0.82300000  0.42820000  1.0 -0.0980573831
C  C391  1  0.23460000  0.57180000  0.01660000  1.0 -0.0980573831
C  C392  1  0.82300000  0.98340000  0.76540000  1.0 -0.0980573831
C  C393  1  0.23460000  0.01660000  0.17700000  1.0 -0.0919411826
C  C394  1  0.42820000  0.82300000  0.76540000  1.0 -0.0980573831
C  C395  1  0.01660000  0.23460000  0.57180000  1.0 -0.0980573831
C  C396  1  0.82300000  0.42820000  0.98340000  1.0 -0.0980573831
C  C397  1  0.57180000  0.17700000  0.01660000  1.0 -0.0980573831
C  C398  1  0.76540000  0.98340000  0.42820000  1.0 -0.0980573831
C  C399  1  0.17700000  0.57180000  0.23460000  1.0 -0.0980573831
C  C400  1  0.98340000  0.76540000  0.82300000  1.0 -0.0980573831
C  C401  1  0.17700000  0.23460000  0.01660000  1.0 -0.0980573831
C  C402  1  0.76540000  0.82300000  0.98340000  1.0 -0.0980573831
C  C403  1  0.42820000  0.98340000  0.82300000  1.0 -0.0980573831
C  C404  1  0.82300000  0.76540000  0.42820000  1.0 -0.0980573831
C  C405  1  0.98340000  0.42820000  0.76540000  1.0 -0.0980573831
C  C406  1  0.57180000  0.01660000  0.23460000  1.0 -0.0919411826
C  C407  1  0.23460000  0.17700000  0.57180000  1.0 -0.0980573831
C  C408  1  0.01660000  0.57180000  0.17700000  1.0 -0.0980573831
C  C409  1  0.98340000  0.82300000  0.76540000  1.0 -0.0980573831
C  C410  1  0.57180000  0.23460000  0.01660000  1.0 -0.0980573831
C  C411  1  0.82300000  0.98340000  0.42820000  1.0 -0.0980573831
C  C412  1  0.23460000  0.57180000  0.17700000  1.0 -0.0980573831
C  C413  1  0.42820000  0.76540000  0.82300000  1.0 -0.0980573831
C  C414  1  0.01660000  0.17700000  0.57180000  1.0 -0.0980573831
C  C415  1  0.76540000  0.42820000  0.98340000  1.0 -0.0980573831
C  C416  1  0.17700000  0.01660000  0.23460000  1.0 -0.0980573831
C  C417  1  0.76540000  0.98340000  0.82300000  1.0 -0.0980573831
C  C418  1  0.57180000  0.17700000  0.23460000  1.0 -0.0980573831
C  C419  1  0.98340000  0.76540000  0.42820000  1.0 -0.0980573831
C  C420  1  0.17700000  0.57180000  0.01660000  1.0 -0.0980573831
C  C421  1  0.42820000  0.82300000  0.98340000  1.0 -0.0980573831
C  C422  1  0.23460000  0.01660000  0.57180000  1.0 -0.0980573831
C  C423  1  0.82300000  0.42820000  0.76540000  1.0 -0.0980573831
C  C424  1  0.01660000  0.23460000  0.17700000  1.0 -0.0980573831
C  C425  1  0.82300000  0.76540000  0.98340000  1.0 -0.0919411826
C  C426  1  0.23460000  0.17700000  0.01660000  1.0 -0.0919411826
C  C427  1  0.57180000  0.01660000  0.17700000  1.0 -0.0919411826
C  C428  1  0.17700000  0.23460000  0.57180000  1.0 -0.0919411826
C  C429  1  0.01660000  0.57180000  0.23460000  1.0 -0.0980573831
C  C430  1  0.42820000  0.98340000  0.76540000  1.0 -0.0980573831
C  C431  1  0.76540000  0.82300000  0.42820000  1.0 -0.0980573831
C  C432  1  0.98340000  0.42820000  0.82300000  1.0 -0.0980573831
C  C433  1  0.97010000  0.20350000  0.26050000  1.0 -0.0919411826
C  C434  1  0.43410000  0.73950000  0.02990000  1.0 -0.0919411826
C  C435  1  0.20350000  0.97010000  0.56590000  1.0 -0.0919411826
C  C436  1  0.73950000  0.43410000  0.79650000  1.0 -0.0919411826
C  C437  1  0.56590000  0.26050000  0.20350000  1.0 -0.0919411826
C  C438  1  0.02990000  0.79650000  0.43410000  1.0 -0.0919411826
C  C439  1  0.26050000  0.56590000  0.97010000  1.0 -0.0919411826
C  C440  1  0.79650000  0.02990000  0.73950000  1.0 -0.0919411826
C  C441  1  0.26050000  0.97010000  0.20350000  1.0 -0.0919411826
C  C442  1  0.43410000  0.79650000  0.73950000  1.0 -0.0919411826
C  C443  1  0.97010000  0.26050000  0.56590000  1.0 -0.0919411826
C  C444  1  0.79650000  0.43410000  0.02990000  1.0 -0.0919411826
C  C445  1  0.56590000  0.20350000  0.97010000  1.0 -0.0919411826
C  C446  1  0.73950000  0.02990000  0.43410000  1.0 -0.0919411826
C  C447  1  0.20350000  0.56590000  0.26050000  1.0 -0.0919411826
C  C448  1  0.02990000  0.73950000  0.79650000  1.0 -0.0919411826
C  C449  1  0.20350000  0.26050000  0.97010000  1.0 -0.0919411826
C  C450  1  0.73950000  0.79650000  0.02990000  1.0 -0.0919411826
C  C451  1  0.43410000  0.02990000  0.79650000  1.0 -0.0919411826
C  C452  1  0.79650000  0.73950000  0.43410000  1.0 -0.0919411826
C  C453  1  0.02990000  0.43410000  0.73950000  1.0 -0.0980573831
C  C454  1  0.56590000  0.97010000  0.26050000  1.0 -0.0919411826
C  C455  1  0.26050000  0.20350000  0.56590000  1.0 -0.0919411826
C  C456  1  0.97010000  0.56590000  0.20350000  1.0 -0.0919411826
C  C457  1  0.02990000  0.79650000  0.73950000  1.0 -0.0919411826
C  C458  1  0.56590000  0.26050000  0.97010000  1.0 -0.0919411826
C  C459  1  0.79650000  0.02990000  0.43410000  1.0 -0.0919411826
C  C460  1  0.26050000  0.56590000  0.20350000  1.0 -0.0919411826
C  C461  1  0.43410000  0.73950000  0.79650000  1.0 -0.0919411826
C  C462  1  0.97010000  0.20350000  0.56590000  1.0 -0.0919411826
C  C463  1  0.73950000  0.43410000  0.02990000  1.0 -0.0919411826
C  C464  1  0.20350000  0.97010000  0.26050000  1.0 -0.0919411826
C  C465  1  0.73950000  0.02990000  0.79650000  1.0 -0.0919411826
C  C466  1  0.56590000  0.20350000  0.26050000  1.0 -0.0919411826
C  C467  1  0.02990000  0.73950000  0.43410000  1.0 -0.0919411826
C  C468  1  0.20350000  0.56590000  0.97010000  1.0 -0.0919411826
C  C469  1  0.43410000  0.79650000  0.02990000  1.0 -0.0919411826
C  C470  1  0.26050000  0.97010000  0.56590000  1.0 -0.0919411826
C  C471  1  0.79650000  0.43410000  0.73950000  1.0 -0.0980573831
C  C472  1  0.97010000  0.26050000  0.20350000  1.0 -0.0919411826
C  C473  1  0.79650000  0.73950000  0.02990000  1.0 -0.0919411826
C  C474  1  0.26050000  0.20350000  0.97010000  1.0 -0.0919411826
C  C475  1  0.56590000  0.97010000  0.20350000  1.0 -0.0919411826
C  C476  1  0.20350000  0.26050000  0.56590000  1.0 -0.0919411826
C  C477  1  0.97010000  0.56590000  0.26050000  1.0 -0.0919411826
C  C478  1  0.43410000  0.02990000  0.73950000  1.0 -0.0980573831
C  C479  1  0.73950000  0.79650000  0.43410000  1.0 -0.0919411826
C  C480  1  0.02990000  0.43410000  0.79650000  1.0 -0.0919411826
O  O1  1  0.84138000  0.21706000  0.42958000  1.0 -0.5143845848
O  O2  1  0.48802000  0.57042000  0.15862000  1.0 -0.5156516937
O  O3  1  0.21706000  0.84138000  0.51198000  1.0 -0.5143845848
O  O4  1  0.57042000  0.48802000  0.78294000  1.0 -0.5156516937
O  O5  1  0.51198000  0.42958000  0.21706000  1.0 -0.5143845848
O  O6  1  0.15862000  0.78294000  0.48802000  1.0 -0.5143845848
O  O7  1  0.42958000  0.51198000  0.84138000  1.0 -0.5156516937
O  O8  1  0.78294000  0.15862000  0.57042000  1.0 -0.5143845848
O  O9  1  0.42958000  0.84138000  0.21706000  1.0 -0.5143845848
O  O10  1  0.48802000  0.78294000  0.57042000  1.0 -0.5143845848
O  O11  1  0.84138000  0.42958000  0.51198000  1.0 -0.5156516937
O  O12  1  0.78294000  0.48802000  0.15862000  1.0 -0.5156516937
O  O13  1  0.51198000  0.21706000  0.84138000  1.0 -0.5156516937
O  O14  1  0.57042000  0.15862000  0.48802000  1.0 -0.5156516937
O  O15  1  0.21706000  0.51198000  0.42958000  1.0 -0.5156516937
O  O16  1  0.15862000  0.57042000  0.78294000  1.0 -0.5143845848
O  O17  1  0.21706000  0.42958000  0.84138000  1.0 -0.5143845848
O  O18  1  0.57042000  0.78294000  0.15862000  1.0 -0.5156516937
O  O19  1  0.48802000  0.15862000  0.78294000  1.0 -0.5156516937
O  O20  1  0.78294000  0.57042000  0.48802000  1.0 -0.5156516937
O  O21  1  0.15862000  0.48802000  0.57042000  1.0 -0.5156516937
O  O22  1  0.51198000  0.84138000  0.42958000  1.0 -0.5143845848
O  O23  1  0.42958000  0.21706000  0.51198000  1.0 -0.5143845848
O  O24  1  0.84138000  0.51198000  0.21706000  1.0 -0.5143845848
O  O25  1  0.15862000  0.78294000  0.57042000  1.0 -0.5143845848
O  O26  1  0.51198000  0.42958000  0.84138000  1.0 -0.5156516937
O  O27  1  0.78294000  0.15862000  0.48802000  1.0 -0.5156516937
O  O28  1  0.42958000  0.51198000  0.21706000  1.0 -0.5143845848
O  O29  1  0.48802000  0.57042000  0.78294000  1.0 -0.5156516937
O  O30  1  0.84138000  0.21706000  0.51198000  1.0 -0.5156516937
O  O31  1  0.57042000  0.48802000  0.15862000  1.0 -0.5156516937
O  O32  1  0.21706000  0.84138000  0.42958000  1.0 -0.5143845848
O  O33  1  0.57042000  0.15862000  0.78294000  1.0 -0.5156516937
O  O34  1  0.51198000  0.21706000  0.42958000  1.0 -0.5143845848
O  O35  1  0.15862000  0.57042000  0.48802000  1.0 -0.5156516937
O  O36  1  0.21706000  0.51198000  0.84138000  1.0 -0.5143845848
O  O37  1  0.48802000  0.78294000  0.15862000  1.0 -0.5143845848
O  O38  1  0.42958000  0.84138000  0.51198000  1.0 -0.5143845848
O  O39  1  0.78294000  0.48802000  0.57042000  1.0 -0.5156516937
O  O40  1  0.84138000  0.42958000  0.21706000  1.0 -0.5156516937
O  O41  1  0.78294000  0.57042000  0.15862000  1.0 -0.5156516937
O  O42  1  0.42958000  0.21706000  0.84138000  1.0 -0.5156516937
O  O43  1  0.51198000  0.84138000  0.21706000  1.0 -0.5143845848
O  O44  1  0.21706000  0.42958000  0.51198000  1.0 -0.5156516937
O  O45  1  0.84138000  0.51198000  0.42958000  1.0 -0.5143845848
O  O46  1  0.48802000  0.15862000  0.57042000  1.0 -0.5143845848
O  O47  1  0.57042000  0.78294000  0.48802000  1.0 -0.5143845848
O  O48  1  0.15862000  0.48802000  0.78294000  1.0 -0.5143845848
O  O49  1  0.77428000  0.28442000  0.42970000  1.0 -0.5143845848
O  O50  1  0.48840000  0.57030000  0.22572000  1.0 -0.5143845848
O  O51  1  0.28442000  0.77428000  0.51160000  1.0 -0.5143845848
O  O52  1  0.57030000  0.48840000  0.71558000  1.0 -0.5143845848
O  O53  1  0.51160000  0.42970000  0.28442000  1.0 -0.5143845848
O  O54  1  0.22572000  0.71558000  0.48840000  1.0 -0.5143845848
O  O55  1  0.42970000  0.51160000  0.77428000  1.0 -0.5143845848
O  O56  1  0.71558000  0.22572000  0.57030000  1.0 -0.5143845848
O  O57  1  0.42970000  0.77428000  0.28442000  1.0 -0.5143845848
O  O58  1  0.48840000  0.71558000  0.57030000  1.0 -0.5143845848
O  O59  1  0.77428000  0.42970000  0.51160000  1.0 -0.5143845848
O  O60  1  0.71558000  0.48840000  0.22572000  1.0 -0.5143845848
O  O61  1  0.51160000  0.28442000  0.77428000  1.0 -0.5143845848
O  O62  1  0.57030000  0.22572000  0.48840000  1.0 -0.5143845848
O  O63  1  0.28442000  0.51160000  0.42970000  1.0 -0.5156516937
O  O64  1  0.22572000  0.57030000  0.71558000  1.0 -0.5143845848
O  O65  1  0.28442000  0.42970000  0.77428000  1.0 -0.5143845848
O  O66  1  0.57030000  0.71558000  0.22572000  1.0 -0.5143845848
O  O67  1  0.48840000  0.22572000  0.71558000  1.0 -0.5143845848
O  O68  1  0.71558000  0.57030000  0.48840000  1.0 -0.5143845848
O  O69  1  0.22572000  0.48840000  0.57030000  1.0 -0.5143845848
O  O70  1  0.51160000  0.77428000  0.42970000  1.0 -0.5143845848
O  O71  1  0.42970000  0.28442000  0.51160000  1.0 -0.5143845848
O  O72  1  0.77428000  0.51160000  0.28442000  1.0 -0.5143845848
O  O73  1  0.22572000  0.71558000  0.57030000  1.0 -0.5143845848
O  O74  1  0.51160000  0.42970000  0.77428000  1.0 -0.5143845848
O  O75  1  0.71558000  0.22572000  0.48840000  1.0 -0.5156516937
O  O76  1  0.42970000  0.51160000  0.28442000  1.0 -0.5143845848
O  O77  1  0.48840000  0.57030000  0.71558000  1.0 -0.5143845848
O  O78  1  0.77428000  0.28442000  0.51160000  1.0 -0.5143845848
O  O79  1  0.57030000  0.48840000  0.22572000  1.0 -0.5143845848
O  O80  1  0.28442000  0.77428000  0.42970000  1.0 -0.5143845848
O  O81  1  0.57030000  0.22572000  0.71558000  1.0 -0.5156516937
O  O82  1  0.51160000  0.28442000  0.42970000  1.0 -0.5143845848
O  O83  1  0.22572000  0.57030000  0.48840000  1.0 -0.5143845848
O  O84  1  0.28442000  0.51160000  0.77428000  1.0 -0.5143845848
O  O85  1  0.48840000  0.71558000  0.22572000  1.0 -0.5143845848
O  O86  1  0.42970000  0.77428000  0.51160000  1.0 -0.5143845848
O  O87  1  0.71558000  0.48840000  0.57030000  1.0 -0.5143845848
O  O88  1  0.77428000  0.42970000  0.28442000  1.0 -0.5143845848
O  O89  1  0.71558000  0.57030000  0.22572000  1.0 -0.5143845848
O  O90  1  0.42970000  0.28442000  0.77428000  1.0 -0.5143845848
O  O91  1  0.51160000  0.77428000  0.28442000  1.0 -0.5143845848
O  O92  1  0.28442000  0.42970000  0.51160000  1.0 -0.5156516937
O  O93  1  0.77428000  0.51160000  0.42970000  1.0 -0.5143845848
O  O94  1  0.48840000  0.22572000  0.57030000  1.0 -0.5143845848
O  O95  1  0.57030000  0.71558000  0.48840000  1.0 -0.5143845848
O  O96  1  0.22572000  0.48840000  0.71558000  1.0 -0.5143845848
