# DDEC6 charges by PACMAN v1.1 (https://github.com/mtap-research/PACMAN-charge/)
data_FOPTOU_FSR_pacman
_symmetry_space_group_name_H-M   'P 1'
_cell_length_a   20.56940000
_cell_length_b   20.56940000
_cell_length_c   20.53330000
_cell_angle_alpha   88.59050000
_cell_angle_beta   91.40950000
_cell_angle_gamma   70.65530000
_symmetry_Int_Tables_number   1
_chemical_formula_structural   K10Li4Fe12H84C76N12O97
_chemical_formula_sum   'K20 Li8 Fe24 H168 C152 N24 O194'
_cell_volume   8189.74388688
_cell_formula_units_Z   2
loop_
 _symmetry_equiv_pos_site_id
 _symmetry_equiv_pos_as_xyz
  1  'x, y, z'
loop_
 _atom_site_type_symbol
 _atom_site_label
 _atom_site_symmetry_multiplicity
 _atom_site_fract_x
 _atom_site_fract_y
 _atom_site_fract_z
 _atom_site_occupancy
 _atom_site_charge
K  K1  1  0.40484000  0.08486000  0.08840000  1.0 0.8517802145
K  K2  1  0.08486000  0.40484000  0.41160000  1.0 0.8517802145
K  K3  1  0.59516000  0.91514000  0.91160000  1.0 0.8517802145
K  K4  1  0.91514000  0.59516000  0.58840000  1.0 0.8517802145
K  K5  1  0.33307000  0.22461000  0.59733000  1.0 0.8728842672
K  K6  1  0.22461000  0.33307000  0.90267000  1.0 0.8728842672
K  K7  1  0.66693000  0.77539000  0.40267000  1.0 0.8728842672
K  K8  1  0.77539000  0.66693000  0.09733000  1.0 0.8728842672
K  K9  1  0.07030000  0.75354000  0.93480000  1.0 0.8389779415
K  K10  1  0.75354000  0.07030000  0.56520000  1.0 0.8389779415
K  K11  1  0.92970000  0.24646000  0.06520000  1.0 0.8389779415
K  K12  1  0.24646000  0.92970000  0.43480000  1.0 0.8389779415
K  K13  1  0.41680000  0.04780000  0.47540000  1.0 0.0708212938
K  K14  1  0.04780000  0.41680000  0.02460000  1.0 0.0708212938
K  K15  1  0.58320000  0.95220000  0.52460000  1.0 0.0561011146
K  K16  1  0.95220000  0.58320000  0.97540000  1.0 0.0561011146
K  K17  1  0.44370000  0.06750000  0.50550000  1.0 0.1093204206
K  K18  1  0.06750000  0.44370000  0.99450000  1.0 0.1200592372
K  K19  1  0.55630000  0.93250000  0.49450000  1.0 0.1093204206
K  K20  1  0.93250000  0.55630000  0.00550000  1.0 0.1200592372
Li  Li1  1  0.25570000  0.66070000  0.99510000  1.0 0.7948870447
Li  Li2  1  0.66070000  0.25570000  0.50490000  1.0 0.7948870447
Li  Li3  1  0.74430000  0.33930000  0.00490000  1.0 0.7956931975
Li  Li4  1  0.33930000  0.74430000  0.49510000  1.0 0.7948870447
Li  Li5  1  0.22920000  0.80180000  0.95160000  1.0 0.7829378035
Li  Li6  1  0.80180000  0.22920000  0.54840000  1.0 0.7829378035
Li  Li7  1  0.77080000  0.19820000  0.04840000  1.0 0.7829378035
Li  Li8  1  0.19820000  0.77080000  0.45160000  1.0 0.7829378035
Fe  Fe1  1  0.40946000  0.05914000  0.69127000  1.0 1.2191692676
Fe  Fe2  1  0.05914000  0.40946000  0.80873000  1.0 1.2191692676
Fe  Fe3  1  0.59054000  0.94086000  0.30873000  1.0 1.2261844661
Fe  Fe4  1  0.94086000  0.59054000  0.19127000  1.0 1.2261844661
Fe  Fe5  1  0.30647000  0.12903000  0.92573000  1.0 1.1892491367
Fe  Fe6  1  0.12903000  0.30647000  0.57427000  1.0 1.1969507323
Fe  Fe7  1  0.69353000  0.87097000  0.07427000  1.0 1.1969507323
Fe  Fe8  1  0.87097000  0.69353000  0.42573000  1.0 1.1969507323
Fe  Fe9  1  0.50325000  0.16853000  0.71227000  1.0 1.1838133123
Fe  Fe10  1  0.16853000  0.50325000  0.78773000  1.0 1.1838133123
Fe  Fe11  1  0.49675000  0.83147000  0.28773000  1.0 1.1892491367
Fe  Fe12  1  0.83147000  0.49675000  0.21227000  1.0 1.1892491367
Fe  Fe13  1  0.40820000  0.23164000  0.95273000  1.0 1.2191692676
Fe  Fe14  1  0.23164000  0.40820000  0.54727000  1.0 1.2127194192
Fe  Fe15  1  0.59180000  0.76836000  0.04727000  1.0 1.2191692676
Fe  Fe16  1  0.76836000  0.59180000  0.45273000  1.0 1.2127194192
Fe  Fe17  1  0.46380000  0.08822000  0.84999000  1.0 1.342824259
Fe  Fe18  1  0.08822000  0.46380000  0.65001000  1.0 1.342824259
Fe  Fe19  1  0.53620000  0.91178000  0.15001000  1.0 1.342824259
Fe  Fe20  1  0.91178000  0.53620000  0.34999000  1.0 1.342824259
Fe  Fe21  1  0.35435000  0.20177000  0.79272000  1.0 1.3324258711
Fe  Fe22  1  0.20177000  0.35435000  0.70728000  1.0 1.3324258711
Fe  Fe23  1  0.64565000  0.79823000  0.20728000  1.0 1.3324258711
Fe  Fe24  1  0.79823000  0.64565000  0.29272000  1.0 1.3324258711
H  H1  1  0.25270000  0.03690000  0.76830000  1.0 0.1093204206
H  H2  1  0.03690000  0.25270000  0.73170000  1.0 0.1093204206
H  H3  1  0.74730000  0.96310000  0.23170000  1.0 0.1093204206
H  H4  1  0.96310000  0.74730000  0.26830000  1.0 0.1093204206
H  H5  1  0.31780000  0.05420000  0.79770000  1.0 0.1398655008
H  H6  1  0.05420000  0.31780000  0.70230000  1.0 0.1398655008
H  H7  1  0.68220000  0.94580000  0.20230000  1.0 0.1398655008
H  H8  1  0.94580000  0.68220000  0.29770000  1.0 0.1398655008
H  H9  1  0.38810000  0.93790000  0.79180000  1.0 0.1004595214
H  H10  1  0.93790000  0.38810000  0.70820000  1.0 0.1004595214
H  H11  1  0.61190000  0.06210000  0.20820000  1.0 0.1004595214
H  H12  1  0.06210000  0.61190000  0.29180000  1.0 0.1004595214
H  H13  1  0.34890000  0.85250000  0.74860000  1.0 0.1200592372
H  H14  1  0.85250000  0.34890000  0.75140000  1.0 0.1200592372
H  H15  1  0.65110000  0.14750000  0.25140000  1.0 0.1200592372
H  H16  1  0.14750000  0.65110000  0.24860000  1.0 0.1200592372
H  H17  1  0.27290000  0.90710000  0.73630000  1.0 0.1200592372
H  H18  1  0.90710000  0.27290000  0.76370000  1.0 0.1200592372
H  H19  1  0.72710000  0.09290000  0.26370000  1.0 0.1200592372
H  H20  1  0.09290000  0.72710000  0.23630000  1.0 0.1200592372
H  H21  1  0.34000000  0.87160000  0.86150000  1.0 0.1004595214
H  H22  1  0.87160000  0.34000000  0.63850000  1.0 0.1004595214
H  H23  1  0.66000000  0.12840000  0.13850000  1.0 0.1004595214
H  H24  1  0.12840000  0.66000000  0.36150000  1.0 0.1004595214
H  H25  1  0.20350000  0.95890000  0.83150000  1.0 0.1093204206
H  H26  1  0.95890000  0.20350000  0.66850000  1.0 0.1093204206
H  H27  1  0.79650000  0.04110000  0.16850000  1.0 0.1093204206
H  H28  1  0.04110000  0.79650000  0.33150000  1.0 0.1093204206
H  H29  1  0.23200000  0.93280000  0.90440000  1.0 0.1200592372
H  H30  1  0.93280000  0.23200000  0.59560000  1.0 0.1200592372
H  H31  1  0.76800000  0.06720000  0.09560000  1.0 0.1200592372
H  H32  1  0.06720000  0.76800000  0.40440000  1.0 0.1200592372
H  H33  1  0.32420000  0.97800000  0.88750000  1.0 0.094282144
H  H34  1  0.97800000  0.32420000  0.61250000  1.0 0.1004595214
H  H35  1  0.67580000  0.02200000  0.11250000  1.0 0.094282144
H  H36  1  0.02200000  0.67580000  0.38750000  1.0 0.1004595214
H  H37  1  0.43810000  0.87710000  0.71030000  1.0 0.1398655008
H  H38  1  0.87710000  0.43810000  0.78970000  1.0 0.1398655008
H  H39  1  0.56190000  0.12290000  0.28970000  1.0 0.1398655008
H  H40  1  0.12290000  0.56190000  0.21030000  1.0 0.1398655008
H  H41  1  0.39660000  0.88460000  0.64220000  1.0 0.1300906459
H  H42  1  0.88460000  0.39660000  0.85780000  1.0 0.1300906459
H  H43  1  0.60340000  0.11540000  0.35780000  1.0 0.1300906459
H  H44  1  0.11540000  0.60340000  0.14220000  1.0 0.1300906459
H  H45  1  0.29930000  0.95010000  0.62770000  1.0 0.1200592372
H  H46  1  0.95010000  0.29930000  0.87230000  1.0 0.1200592372
H  H47  1  0.70070000  0.04990000  0.37230000  1.0 0.1200592372
H  H48  1  0.04990000  0.70070000  0.12770000  1.0 0.1300906459
H  H49  1  0.26060000  0.01200000  0.67340000  1.0 0.1398655008
H  H50  1  0.01200000  0.26060000  0.82660000  1.0 0.1300906459
H  H51  1  0.73940000  0.98800000  0.32660000  1.0 0.1300906459
H  H52  1  0.98800000  0.73940000  0.17340000  1.0 0.1300906459
H  H53  1  0.37840000  0.76300000  0.84250000  1.0 0.1398655008
H  H54  1  0.76300000  0.37840000  0.65750000  1.0 0.1398655008
H  H55  1  0.62160000  0.23700000  0.15750000  1.0 0.1398655008
H  H56  1  0.23700000  0.62160000  0.34250000  1.0 0.1398655008
H  H57  1  0.33333333  0.73570000  0.79220000  1.0 0.1300906459
H  H58  1  0.73570000  0.33333333  0.70780000  1.0 0.1300906459
H  H59  1  0.66666667  0.26430000  0.20780000  1.0 0.1300906459
H  H60  1  0.26430000  0.66666667  0.29220000  1.0 0.1300906459
H  H61  1  0.21430000  0.84850000  0.76490000  1.0 0.1300906459
H  H62  1  0.84850000  0.21430000  0.73510000  1.0 0.1300906459
H  H63  1  0.78570000  0.15150000  0.23510000  1.0 0.1300906459
H  H64  1  0.15150000  0.78570000  0.26490000  1.0 0.1300906459
H  H65  1  0.22060000  0.77320000  0.79170000  1.0 0.1300906459
H  H66  1  0.77320000  0.22060000  0.70830000  1.0 0.1300906459
H  H67  1  0.77940000  0.22680000  0.20830000  1.0 0.1300906459
H  H68  1  0.22680000  0.77940000  0.29170000  1.0 0.1300906459
H  H69  1  0.17960000  0.02880000  0.95800000  1.0 0.1300906459
H  H70  1  0.02880000  0.17960000  0.54200000  1.0 0.1300906459
H  H71  1  0.82040000  0.97120000  0.04200000  1.0 0.1300906459
H  H72  1  0.97120000  0.82040000  0.45800000  1.0 0.1300906459
H  H73  1  0.25930000  0.99870000  0.98080000  1.0 0.1398655008
H  H74  1  0.99870000  0.25930000  0.51920000  1.0 0.1398655008
H  H75  1  0.74070000  0.00130000  0.01920000  1.0 0.1398655008
H  H76  1  0.00130000  0.74070000  0.48080000  1.0 0.1398655008
H  H77  1  0.13720000  0.11420000  0.89240000  1.0 0.1300906459
H  H78  1  0.11420000  0.13720000  0.60760000  1.0 0.1300906459
H  H79  1  0.86280000  0.88580000  0.10760000  1.0 0.1300906459
H  H80  1  0.88580000  0.86280000  0.39240000  1.0 0.1300906459
H  H81  1  0.16950000  0.08450000  0.82480000  1.0 0.1300906459
H  H82  1  0.08450000  0.16950000  0.67520000  1.0 0.1300906459
H  H83  1  0.83050000  0.91550000  0.17520000  1.0 0.1300906459
H  H84  1  0.91550000  0.83050000  0.32480000  1.0 0.1300906459
H  H85  1  0.49690000  0.31670000  0.83670000  1.0 0.1093204206
H  H86  1  0.31670000  0.49690000  0.66330000  1.0 0.1093204206
H  H87  1  0.50310000  0.68330000  0.16330000  1.0 0.1093204206
H  H88  1  0.68330000  0.50310000  0.33670000  1.0 0.1093204206
H  H89  1  0.49480000  0.23960000  0.84280000  1.0 0.1398655008
H  H90  1  0.23960000  0.49480000  0.65720000  1.0 0.1398655008
H  H91  1  0.50520000  0.76040000  0.15720000  1.0 0.1398655008
H  H92  1  0.76040000  0.50520000  0.34280000  1.0 0.1398655008
H  H93  1  0.61380000  0.19480000  0.81750000  1.0 0.094282144
H  H94  1  0.19480000  0.61380000  0.68250000  1.0 0.094282144
H  H95  1  0.38620000  0.80520000  0.18250000  1.0 0.1004595214
H  H96  1  0.80520000  0.38620000  0.31750000  1.0 0.1004595214
H  H97  1  0.67460000  0.26760000  0.78390000  1.0 0.1093204206
H  H98  1  0.26760000  0.67460000  0.71610000  1.0 0.1093204206
H  H99  1  0.32540000  0.73240000  0.21610000  1.0 0.1093204206
H  H100  1  0.73240000  0.32540000  0.28390000  1.0 0.1093204206
H  H101  1  0.60990000  0.33390000  0.79910000  1.0 0.1200592372
H  H102  1  0.33390000  0.60990000  0.70090000  1.0 0.1200592372
H  H103  1  0.39010000  0.66610000  0.20090000  1.0 0.1200592372
H  H104  1  0.66610000  0.39010000  0.29910000  1.0 0.1200592372
H  H105  1  0.68360000  0.23080000  0.89570000  1.0 0.1004595214
H  H106  1  0.23080000  0.68360000  0.60430000  1.0 0.1004595214
H  H107  1  0.31640000  0.76920000  0.10430000  1.0 0.1004595214
H  H108  1  0.76920000  0.31640000  0.39570000  1.0 0.1004595214
H  H109  1  0.61760000  0.30260000  0.97480000  1.0 0.1093204206
H  H110  1  0.30260000  0.61760000  0.52520000  1.0 0.1093204206
H  H111  1  0.38240000  0.69740000  0.02520000  1.0 0.1093204206
H  H112  1  0.69740000  0.38240000  0.47480000  1.0 0.1093204206
H  H113  1  0.57450000  0.35550000  0.91820000  1.0 0.1004595214
H  H114  1  0.35550000  0.57450000  0.58180000  1.0 0.1004595214
H  H115  1  0.42550000  0.64450000  0.08180000  1.0 0.1004595214
H  H116  1  0.64450000  0.42550000  0.41820000  1.0 0.1004595214
H  H117  1  0.57980000  0.21340000  0.93050000  1.0 0.1004595214
H  H118  1  0.21340000  0.57980000  0.56950000  1.0 0.1004595214
H  H119  1  0.42020000  0.78660000  0.06950000  1.0 0.1004595214
H  H120  1  0.78660000  0.42020000  0.43050000  1.0 0.1004595214
H  H121  1  0.64260000  0.25520000  0.68610000  1.0 0.1200592372
H  H122  1  0.25520000  0.64260000  0.81390000  1.0 0.1200592372
H  H123  1  0.35740000  0.74480000  0.31390000  1.0 0.1200592372
H  H124  1  0.74480000  0.35740000  0.18610000  1.0 0.1200592372
H  H125  1  0.65920000  0.17920000  0.71760000  1.0 0.1398655008
H  H126  1  0.17920000  0.65920000  0.78240000  1.0 0.1398655008
H  H127  1  0.34080000  0.82080000  0.28240000  1.0 0.1398655008
H  H128  1  0.82080000  0.34080000  0.21760000  1.0 0.1398655008
H  H129  1  0.51390000  0.34710000  0.74290000  1.0 0.1300906459
H  H130  1  0.34710000  0.51390000  0.75710000  1.0 0.1300906459
H  H131  1  0.48610000  0.65290000  0.25710000  1.0 0.1300906459
H  H132  1  0.65290000  0.48610000  0.24290000  1.0 0.1300906459
H  H133  1  0.53870000  0.32710000  0.67060000  1.0 0.1398655008
H  H134  1  0.32710000  0.53870000  0.82940000  1.0 0.1398655008
H  H135  1  0.46130000  0.67290000  0.32940000  1.0 0.1454667237
H  H136  1  0.67290000  0.46130000  0.17060000  1.0 0.1454667237
H  H137  1  0.77340000  0.23820000  0.84390000  1.0 0.1300906459
H  H138  1  0.23820000  0.77340000  0.65610000  1.0 0.1300906459
H  H139  1  0.22660000  0.76180000  0.15610000  1.0 0.1300906459
H  H140  1  0.76180000  0.22660000  0.34390000  1.0 0.1300906459
H  H141  1  0.79730000  0.30450000  0.84580000  1.0 0.1300906459
H  H142  1  0.30450000  0.79730000  0.65420000  1.0 0.1300906459
H  H143  1  0.20270000  0.69550000  0.15420000  1.0 0.1300906459
H  H144  1  0.69550000  0.20270000  0.34580000  1.0 0.1300906459
H  H145  1  0.69500000  0.38480000  0.81990000  1.0 0.1200592372
H  H146  1  0.38480000  0.69500000  0.68010000  1.0 0.1200592372
H  H147  1  0.30500000  0.61520000  0.18010000  1.0 0.1200592372
H  H148  1  0.61520000  0.30500000  0.31990000  1.0 0.1200592372
H  H149  1  0.64370000  0.41130000  0.87850000  1.0 0.1300906459
H  H150  1  0.41130000  0.64370000  0.62150000  1.0 0.1300906459
H  H151  1  0.35630000  0.58870000  0.12150000  1.0 0.1300906459
H  H152  1  0.58870000  0.35630000  0.37850000  1.0 0.1300906459
H  H153  1  0.52450000  0.29970000  0.05810000  1.0 0.1300906459
H  H154  1  0.29970000  0.52450000  0.44190000  1.0 0.1300906459
H  H155  1  0.47550000  0.70030000  0.94190000  1.0 0.1300906459
H  H156  1  0.70030000  0.47550000  0.55810000  1.0 0.1300906459
H  H157  1  0.57100000  0.22760000  0.03110000  1.0 0.1300906459
H  H158  1  0.22760000  0.57100000  0.46890000  1.0 0.1300906459
H  H159  1  0.42900000  0.77240000  0.96890000  1.0 0.1300906459
H  H160  1  0.77240000  0.42900000  0.53110000  1.0 0.1300906459
H  H161  1  0.47870000  0.37890000  0.99650000  1.0 0.1200592372
H  H162  1  0.37890000  0.47870000  0.50350000  1.0 0.1200592372
H  H163  1  0.52130000  0.62110000  0.00350000  1.0 0.1200592372
H  H164  1  0.62110000  0.52130000  0.49650000  1.0 0.1200592372
H  H165  1  0.46060000  0.37520000  0.92080000  1.0 0.1300906459
H  H166  1  0.37520000  0.46060000  0.57920000  1.0 0.1300906459
H  H167  1  0.53940000  0.62480000  0.07920000  1.0 0.1300906459
H  H168  1  0.62480000  0.53940000  0.42080000  1.0 0.1300906459
C  C1  1  0.29560000  0.01820000  0.79540000  1.0 -0.3194713917
C  C2  1  0.01820000  0.29560000  0.70460000  1.0 -0.3194713917
C  C3  1  0.70440000  0.98180000  0.20460000  1.0 -0.3194713917
C  C4  1  0.98180000  0.70440000  0.29540000  1.0 -0.3194713917
C  C5  1  0.34460000  0.95360000  0.76420000  1.0 0.1004595214
C  C6  1  0.95360000  0.34460000  0.73580000  1.0 0.1004595214
C  C7  1  0.65540000  0.04640000  0.23580000  1.0 0.1004595214
C  C8  1  0.04640000  0.65540000  0.26420000  1.0 0.1004595214
C  C9  1  0.31480000  0.89460000  0.76510000  1.0 -0.3008006472
C  C10  1  0.89460000  0.31480000  0.73490000  1.0 -0.3008006472
C  C11  1  0.68520000  0.10540000  0.23490000  1.0 -0.3008006472
C  C12  1  0.10540000  0.68520000  0.26510000  1.0 -0.3008006472
C  C13  1  0.29680000  0.88060000  0.83430000  1.0 0.1004595214
C  C14  1  0.88060000  0.29680000  0.66570000  1.0 0.1004595214
C  C15  1  0.70320000  0.11940000  0.16570000  1.0 0.1004595214
C  C16  1  0.11940000  0.70320000  0.33430000  1.0 0.1093204206
C  C17  1  0.24550000  0.94330000  0.86040000  1.0 -0.3087639971
C  C18  1  0.94330000  0.24550000  0.63960000  1.0 -0.3087639971
C  C19  1  0.75450000  0.05670000  0.13960000  1.0 -0.3087639971
C  C20  1  0.05670000  0.75450000  0.36040000  1.0 -0.3087639971
C  C21  1  0.27880000  0.99960000  0.86370000  1.0 0.094282144
C  C22  1  0.99960000  0.27880000  0.63630000  1.0 0.094282144
C  C23  1  0.72120000  0.00040000  0.13630000  1.0 0.1004595214
C  C24  1  0.00040000  0.72120000  0.36370000  1.0 0.094282144
C  C25  1  0.41830000  0.90870000  0.67240000  1.0 -0.3008006472
C  C26  1  0.90870000  0.41830000  0.82760000  1.0 -0.3008006472
C  C27  1  0.58170000  0.09130000  0.32760000  1.0 -0.3008006472
C  C28  1  0.09130000  0.58170000  0.17240000  1.0 -0.3008006472
C  C29  1  0.47610000  0.92350000  0.63820000  1.0 0.6389391061
C  C30  1  0.92350000  0.47610000  0.86180000  1.0 0.6389391061
C  C31  1  0.52390000  0.07650000  0.36180000  1.0 0.6389391061
C  C32  1  0.07650000  0.52390000  0.13820000  1.0 0.6389391061
C  C33  1  0.30290000  0.99150000  0.64870000  1.0 -0.2882747117
C  C34  1  0.99150000  0.30290000  0.85130000  1.0 -0.2882747117
C  C35  1  0.69710000  0.00850000  0.35130000  1.0 -0.2882747117
C  C36  1  0.00850000  0.69710000  0.14870000  1.0 -0.2882747117
C  C37  1  0.30690000  0.04290000  0.59680000  1.0 0.6093564311
C  C38  1  0.04290000  0.30690000  0.90320000  1.0 0.6093564311
C  C39  1  0.69310000  0.95710000  0.40320000  1.0 0.6093564311
C  C40  1  0.95710000  0.69310000  0.09680000  1.0 0.6093564311
C  C41  1  0.33470000  0.75310000  0.83660000  1.0 -0.3008006472
C  C42  1  0.75310000  0.33470000  0.66340000  1.0 -0.3008006472
C  C43  1  0.66530000  0.24690000  0.16340000  1.0 -0.3008006472
C  C44  1  0.24690000  0.66530000  0.33660000  1.0 -0.3008006472
C  C45  1  0.33340000  0.69940000  0.88490000  1.0 0.6093564311
C  C46  1  0.69940000  0.33340000  0.61510000  1.0 0.6093564311
C  C47  1  0.66666667  0.30060000  0.11510000  1.0 0.6093564311
C  C48  1  0.30060000  0.66666667  0.38490000  1.0 0.6093564311
C  C49  1  0.21570000  0.82050000  0.80510000  1.0 -0.2784604451
C  C50  1  0.82050000  0.21570000  0.69490000  1.0 -0.2784604451
C  C51  1  0.78430000  0.17950000  0.19490000  1.0 -0.2784604451
C  C52  1  0.17950000  0.78430000  0.30510000  1.0 -0.2784604451
C  C53  1  0.14840000  0.84920000  0.83650000  1.0 0.6197350061
C  C54  1  0.84920000  0.14840000  0.66350000  1.0 0.6197350061
C  C55  1  0.85160000  0.15080000  0.16350000  1.0 0.6197350061
C  C56  1  0.15080000  0.85160000  0.33650000  1.0 0.6197350061
C  C57  1  0.22230000  0.04050000  0.96370000  1.0 -0.2784604451
C  C58  1  0.04050000  0.22230000  0.53630000  1.0 -0.2784604451
C  C59  1  0.77770000  0.95950000  0.03630000  1.0 -0.2784604451
C  C60  1  0.95950000  0.77770000  0.46370000  1.0 -0.2784604451
C  C61  1  0.21100000  0.09600000  0.01160000  1.0 0.6093564311
C  C62  1  0.09600000  0.21100000  0.48840000  1.0 0.6093564311
C  C63  1  0.78900000  0.90400000  0.98840000  1.0 0.6093564311
C  C64  1  0.90400000  0.78900000  0.51160000  1.0 0.6093564311
C  C65  1  0.17720000  0.10780000  0.86440000  1.0 -0.2882747117
C  C66  1  0.10780000  0.17720000  0.63560000  1.0 -0.2882747117
C  C67  1  0.82280000  0.89220000  0.13560000  1.0 -0.2882747117
C  C68  1  0.89220000  0.82280000  0.36440000  1.0 -0.2882747117
C  C69  1  0.18080000  0.17680000  0.84510000  1.0 0.6093564311
C  C70  1  0.17680000  0.18080000  0.65490000  1.0 0.6093564311
C  C71  1  0.81920000  0.82320000  0.15490000  1.0 0.6093564311
C  C72  1  0.82320000  0.81920000  0.34510000  1.0 0.6093564311
C  C73  1  0.52450000  0.26830000  0.84850000  1.0 -0.3194713917
C  C74  1  0.26830000  0.52450000  0.65150000  1.0 -0.3194713917
C  C75  1  0.47550000  0.73170000  0.15150000  1.0 -0.3194713917
C  C76  1  0.73170000  0.47550000  0.34850000  1.0 -0.3194713917
C  C77  1  0.58710000  0.24350000  0.80370000  1.0 0.1093204206
C  C78  1  0.24350000  0.58710000  0.69630000  1.0 0.1093204206
C  C79  1  0.41290000  0.75650000  0.19630000  1.0 0.1093204206
C  C80  1  0.75650000  0.41290000  0.30370000  1.0 0.1093204206
C  C81  1  0.63470000  0.28530000  0.81230000  1.0 -0.3087639971
C  C82  1  0.28530000  0.63470000  0.68770000  1.0 -0.3087639971
C  C83  1  0.36530000  0.71470000  0.18770000  1.0 -0.3087639971
C  C84  1  0.71470000  0.36530000  0.31230000  1.0 -0.3087639971
C  C85  1  0.66070000  0.28090000  0.88430000  1.0 0.1093204206
C  C86  1  0.28090000  0.66070000  0.61570000  1.0 0.1093204206
C  C87  1  0.33930000  0.71910000  0.11570000  1.0 0.1093204206
C  C88  1  0.71910000  0.33930000  0.38430000  1.0 0.1093204206
C  C89  1  0.60040000  0.30640000  0.92900000  1.0 -0.3087639971
C  C90  1  0.30640000  0.60040000  0.57100000  1.0 -0.3087639971
C  C91  1  0.39960000  0.69360000  0.07100000  1.0 -0.3087639971
C  C92  1  0.69360000  0.39960000  0.42900000  1.0 -0.3087639971
C  C93  1  0.55150000  0.26270000  0.92080000  1.0 0.1200592372
C  C94  1  0.26270000  0.55150000  0.57920000  1.0 0.1200592372
C  C95  1  0.44850000  0.73730000  0.07920000  1.0 0.1200592372
C  C96  1  0.73730000  0.44850000  0.42080000  1.0 0.1200592372
C  C97  1  0.62340000  0.21760000  0.69380000  1.0 -0.3008006472
C  C98  1  0.21760000  0.62340000  0.80620000  1.0 -0.3008006472
C  C99  1  0.37660000  0.78240000  0.30620000  1.0 -0.3008006472
C  C100  1  0.78240000  0.37660000  0.19380000  1.0 -0.3008006472
C  C101  1  0.60600000  0.19300000  0.62950000  1.0 0.6197350061
C  C102  1  0.19300000  0.60600000  0.87050000  1.0 0.6197350061
C  C103  1  0.39400000  0.80700000  0.37050000  1.0 0.6197350061
C  C104  1  0.80700000  0.39400000  0.12950000  1.0 0.6197350061
C  C105  1  0.51690000  0.31330000  0.70860000  1.0 -0.2784604451
C  C106  1  0.31330000  0.51690000  0.79140000  1.0 -0.2784604451
C  C107  1  0.48310000  0.68670000  0.29140000  1.0 -0.2784604451
C  C108  1  0.68670000  0.48310000  0.20860000  1.0 -0.2784604451
C  C109  1  0.44390000  0.31570000  0.68840000  1.0 0.6093564311
C  C110  1  0.31570000  0.44390000  0.81160000  1.0 0.6093564311
C  C111  1  0.55610000  0.68430000  0.31160000  1.0 0.6093564311
C  C112  1  0.68430000  0.55610000  0.18840000  1.0 0.6093564311
C  C113  1  0.77960000  0.27380000  0.87260000  1.0 -0.2882747117
C  C114  1  0.27380000  0.77960000  0.62740000  1.0 -0.2882747117
C  C115  1  0.22040000  0.72620000  0.12740000  1.0 -0.2882747117
C  C116  1  0.72620000  0.22040000  0.37260000  1.0 -0.2882747117
C  C117  1  0.83180000  0.23940000  0.92460000  1.0 0.6197350061
C  C118  1  0.23940000  0.83180000  0.57540000  1.0 0.6197350061
C  C119  1  0.16820000  0.76060000  0.07540000  1.0 0.6197350061
C  C120  1  0.76060000  0.16820000  0.42460000  1.0 0.6197350061
C  C121  1  0.69210000  0.38610000  0.86790000  1.0 -0.271406637
C  C122  1  0.38610000  0.69210000  0.63210000  1.0 -0.271406637
C  C123  1  0.30790000  0.61390000  0.13210000  1.0 -0.271406637
C  C124  1  0.61390000  0.30790000  0.36790000  1.0 -0.271406637
C  C125  1  0.73990000  0.42450000  0.89570000  1.0 0.5838741447
C  C126  1  0.42450000  0.73990000  0.60430000  1.0 0.5838741447
C  C127  1  0.26010000  0.57550000  0.10430000  1.0 0.5838741447
C  C128  1  0.57550000  0.26010000  0.39570000  1.0 0.5838741447
C  C129  1  0.52290000  0.25870000  0.03470000  1.0 -0.3008006472
C  C130  1  0.25870000  0.52290000  0.46530000  1.0 -0.3008006472
C  C131  1  0.47710000  0.74130000  0.96530000  1.0 -0.3008006472
C  C132  1  0.74130000  0.47710000  0.53470000  1.0 -0.3008006472
C  C133  1  0.48530000  0.22270000  0.07420000  1.0 0.6093564311
C  C134  1  0.22270000  0.48530000  0.42580000  1.0 0.6093564311
C  C135  1  0.51470000  0.77730000  0.92580000  1.0 0.6093564311
C  C136  1  0.77730000  0.51470000  0.57420000  1.0 0.6093564311
C  C137  1  0.45620000  0.35680000  0.96490000  1.0 -0.271406637
C  C138  1  0.35680000  0.45620000  0.53510000  1.0 -0.2784604451
C  C139  1  0.54380000  0.64320000  0.03510000  1.0 -0.271406637
C  C140  1  0.64320000  0.54380000  0.46490000  1.0 -0.2784604451
C  C141  1  0.37930000  0.37690000  0.97970000  1.0 0.6093564311
C  C142  1  0.37690000  0.37930000  0.52030000  1.0 0.6093564311
C  C143  1  0.62070000  0.62310000  0.02030000  1.0 0.6093564311
C  C144  1  0.62310000  0.62070000  0.47970000  1.0 0.6093564311
C  C145  1  0.42840000  0.99740000  0.95220000  1.0 0.809473389
C  C146  1  0.99740000  0.42840000  0.54780000  1.0 0.809473389
C  C147  1  0.57160000  0.00260000  0.04780000  1.0 0.809473389
C  C148  1  0.00260000  0.57160000  0.45220000  1.0 0.809473389
C  C149  1  0.60640000  0.05940000  0.79910000  1.0 0.8389779415
C  C150  1  0.05940000  0.60640000  0.70090000  1.0 0.8389779415
C  C151  1  0.39360000  0.94060000  0.20090000  1.0 0.8389779415
C  C152  1  0.94060000  0.39360000  0.29910000  1.0 0.8389779415
N  N1  1  0.36420000  0.97040000  0.69540000  1.0 -0.1311693888
N  N2  1  0.97040000  0.36420000  0.80460000  1.0 -0.1311693888
N  N3  1  0.63580000  0.02960000  0.30460000  1.0 -0.1311693888
N  N4  1  0.02960000  0.63580000  0.19540000  1.0 -0.1311693888
N  N5  1  0.27600000  0.81720000  0.84290000  1.0 -0.114488228
N  N6  1  0.81720000  0.27600000  0.65710000  1.0 -0.1151529018
N  N7  1  0.72400000  0.18280000  0.15710000  1.0 -0.1151529018
N  N8  1  0.18280000  0.72400000  0.34290000  1.0 -0.1151529018
N  N9  1  0.24150000  0.06170000  0.90070000  1.0 -0.1469689299
N  N10  1  0.06170000  0.24150000  0.59930000  1.0 -0.1469689299
N  N11  1  0.75850000  0.93830000  0.09930000  1.0 -0.1469689299
N  N12  1  0.93830000  0.75850000  0.40070000  1.0 -0.1469689299
N  N13  1  0.56210000  0.24270000  0.73400000  1.0 -0.1394000694
N  N14  1  0.24270000  0.56210000  0.76600000  1.0 -0.1394000694
N  N15  1  0.43790000  0.75730000  0.26600000  1.0 -0.1394000694
N  N16  1  0.75730000  0.43790000  0.23400000  1.0 -0.1394000694
N  N17  1  0.71300000  0.31400000  0.89620000  1.0 -0.1394000694
N  N18  1  0.31400000  0.71300000  0.60380000  1.0 -0.1394000694
N  N19  1  0.28700000  0.68600000  0.10380000  1.0 -0.1394000694
N  N20  1  0.68600000  0.28700000  0.39620000  1.0 -0.1394000694
N  N21  1  0.49330000  0.28130000  0.96790000  1.0 -0.1311693888
N  N22  1  0.28130000  0.49330000  0.53210000  1.0 -0.1311693888
N  N23  1  0.50670000  0.71870000  0.03210000  1.0 -0.1311693888
N  N24  1  0.71870000  0.50670000  0.46790000  1.0 -0.1311693888
O  O1  1  0.48290000  0.98270000  0.64450000  1.0 -0.5340676222
O  O2  1  0.98270000  0.48290000  0.85550000  1.0 -0.5340676222
O  O3  1  0.51710000  0.01730000  0.35550000  1.0 -0.5388474412
O  O4  1  0.01730000  0.51710000  0.14450000  1.0 -0.5388474412
O  O5  1  0.51550000  0.87750000  0.60610000  1.0 -0.500506323
O  O6  1  0.87750000  0.51550000  0.89390000  1.0 -0.5098116412
O  O7  1  0.48450000  0.12250000  0.39390000  1.0 -0.5098116412
O  O8  1  0.12250000  0.48450000  0.10610000  1.0 -0.5098116412
O  O9  1  0.35250000  0.07210000  0.60570000  1.0 -0.5579298483
O  O10  1  0.07210000  0.35250000  0.89430000  1.0 -0.5703505745
O  O11  1  0.64750000  0.92790000  0.39430000  1.0 -0.5703505745
O  O12  1  0.92790000  0.64750000  0.10570000  1.0 -0.5703505745
O  O13  1  0.26560000  0.05580000  0.55020000  1.0 -0.4309946213
O  O14  1  0.05580000  0.26560000  0.94980000  1.0 -0.4309946213
O  O15  1  0.73440000  0.94420000  0.44980000  1.0 -0.4309946213
O  O16  1  0.94420000  0.73440000  0.05020000  1.0 -0.4309946213
O  O17  1  0.29640000  0.71340000  0.93290000  1.0 -0.6477131162
O  O18  1  0.71340000  0.29640000  0.56710000  1.0 -0.6477131162
O  O19  1  0.70360000  0.28660000  0.06710000  1.0 -0.6477131162
O  O20  1  0.28660000  0.70360000  0.43290000  1.0 -0.6477131162
O  O21  1  0.37510000  0.63890000  0.87540000  1.0 -0.5098116412
O  O22  1  0.63890000  0.37510000  0.62460000  1.0 -0.5098116412
O  O23  1  0.62490000  0.36110000  0.12460000  1.0 -0.5152396772
O  O24  1  0.36110000  0.62490000  0.37540000  1.0 -0.5098116412
O  O25  1  0.14560000  0.84700000  0.89760000  1.0 -0.6246497843
O  O26  1  0.84700000  0.14560000  0.60240000  1.0 -0.6257871602
O  O27  1  0.85440000  0.15300000  0.10240000  1.0 -0.6246497843
O  O28  1  0.15300000  0.85440000  0.39760000  1.0 -0.6257871602
O  O29  1  0.09570000  0.87490000  0.80030000  1.0 -0.4526473347
O  O30  1  0.87490000  0.09570000  0.69970000  1.0 -0.4526473347
O  O31  1  0.90430000  0.12510000  0.19970000  1.0 -0.4526473347
O  O32  1  0.12510000  0.90430000  0.30030000  1.0 -0.4526473347
O  O33  1  0.24030000  0.14070000  0.00310000  1.0 -0.5476221729
O  O34  1  0.14070000  0.24030000  0.49690000  1.0 -0.5476221729
O  O35  1  0.75970000  0.85930000  0.99690000  1.0 -0.5476221729
O  O36  1  0.85930000  0.75970000  0.50310000  1.0 -0.5476221729
O  O37  1  0.17260000  0.09660000  0.05960000  1.0 -0.500506323
O  O38  1  0.09660000  0.17260000  0.44040000  1.0 -0.500506323
O  O39  1  0.82740000  0.90340000  0.94040000  1.0 -0.500506323
O  O40  1  0.90340000  0.82740000  0.55960000  1.0 -0.500506323
O  O41  1  0.22910000  0.19590000  0.87050000  1.0 -0.5476221729
O  O42  1  0.19590000  0.22910000  0.62950000  1.0 -0.5476221729
O  O43  1  0.77090000  0.80410000  0.12950000  1.0 -0.5476221729
O  O44  1  0.80410000  0.77090000  0.37050000  1.0 -0.5476221729
O  O45  1  0.13440000  0.21340000  0.80700000  1.0 -0.459172501
O  O46  1  0.21340000  0.13440000  0.69300000  1.0 -0.459172501
O  O47  1  0.86560000  0.78660000  0.19300000  1.0 -0.459172501
O  O48  1  0.78660000  0.86560000  0.30700000  1.0 -0.459172501
O  O49  1  0.55250000  0.17450000  0.62640000  1.0 -0.4898480687
O  O50  1  0.17450000  0.55250000  0.87360000  1.0 -0.4797527903
O  O51  1  0.44750000  0.82550000  0.37360000  1.0 -0.4898480687
O  O52  1  0.82550000  0.44750000  0.12640000  1.0 -0.4898480687
O  O53  1  0.64570000  0.18730000  0.58330000  1.0 -0.6099546019
O  O54  1  0.18730000  0.64570000  0.91670000  1.0 -0.6099546019
O  O55  1  0.35430000  0.81270000  0.41670000  1.0 -0.6099546019
O  O56  1  0.81270000  0.35430000  0.08330000  1.0 -0.6099546019
O  O57  1  0.42990000  0.26050000  0.68640000  1.0 -0.5388474412
O  O58  1  0.26050000  0.42990000  0.81360000  1.0 -0.5388474412
O  O59  1  0.57010000  0.73950000  0.31360000  1.0 -0.5388474412
O  O60  1  0.73950000  0.57010000  0.18640000  1.0 -0.5388474412
O  O61  1  0.40160000  0.37420000  0.67310000  1.0 -0.4797527903
O  O62  1  0.37420000  0.40160000  0.82690000  1.0 -0.4797527903
O  O63  1  0.59840000  0.62580000  0.32690000  1.0 -0.4797527903
O  O64  1  0.62580000  0.59840000  0.17310000  1.0 -0.4797527903
O  O65  1  0.88750000  0.19910000  0.90490000  1.0 -0.4797527903
O  O66  1  0.19910000  0.88750000  0.59510000  1.0 -0.4797527903
O  O67  1  0.11250000  0.80090000  0.09510000  1.0 -0.4797527903
O  O68  1  0.80090000  0.11250000  0.40490000  1.0 -0.4797527903
O  O69  1  0.81940000  0.24820000  0.98440000  1.0 -0.6797984753
O  O70  1  0.24820000  0.81940000  0.51560000  1.0 -0.6797984753
O  O71  1  0.18060000  0.75180000  0.01560000  1.0 -0.6797984753
O  O72  1  0.75180000  0.18060000  0.48440000  1.0 -0.6797984753
O  O73  1  0.77640000  0.40220000  0.94370000  1.0 -0.5098116412
O  O74  1  0.40220000  0.77640000  0.55630000  1.0 -0.5098116412
O  O75  1  0.22360000  0.59780000  0.05630000  1.0 -0.5098116412
O  O76  1  0.59780000  0.22360000  0.44370000  1.0 -0.5098116412
O  O77  1  0.73390000  0.48170000  0.86640000  1.0 -0.500506323
O  O78  1  0.48170000  0.73390000  0.63360000  1.0 -0.500506323
O  O79  1  0.26610000  0.51830000  0.13360000  1.0 -0.500506323
O  O80  1  0.51830000  0.26610000  0.36640000  1.0 -0.500506323
O  O81  1  0.43790000  0.20490000  0.04820000  1.0 -0.5579298483
O  O82  1  0.20490000  0.43790000  0.45180000  1.0 -0.5579298483
O  O83  1  0.56210000  0.79510000  0.95180000  1.0 -0.5579298483
O  O84  1  0.79510000  0.56210000  0.54820000  1.0 -0.5579298483
O  O85  1  0.50580000  0.20760000  0.13410000  1.0 -0.500506323
O  O86  1  0.20760000  0.50580000  0.36590000  1.0 -0.5098116412
O  O87  1  0.49420000  0.79240000  0.86590000  1.0 -0.5098116412
O  O88  1  0.79240000  0.49420000  0.63410000  1.0 -0.500506323
O  O89  1  0.35450000  0.32750000  0.98410000  1.0 -0.5880546782
O  O90  1  0.32750000  0.35450000  0.51590000  1.0 -0.5880546782
O  O91  1  0.64550000  0.67250000  0.01590000  1.0 -0.5880546782
O  O92  1  0.67250000  0.64550000  0.48410000  1.0 -0.5880546782
O  O93  1  0.34490000  0.43870000  0.98430000  1.0 -0.3970596109
O  O94  1  0.43870000  0.34490000  0.51570000  1.0 -0.3970596109
O  O95  1  0.65510000  0.56130000  0.01570000  1.0 -0.3970596109
O  O96  1  0.56130000  0.65510000  0.48430000  1.0 -0.3970596109
O  O97  1  0.44330000  0.93730000  0.97700000  1.0 -0.4797527903
O  O98  1  0.93730000  0.44330000  0.52300000  1.0 -0.4797527903
O  O99  1  0.55670000  0.06270000  0.02300000  1.0 -0.4797527903
O  O100  1  0.06270000  0.55670000  0.47700000  1.0 -0.4797527903
O  O101  1  0.37220000  0.04680000  0.96900000  1.0 -0.6477131162
O  O102  1  0.04680000  0.37220000  0.53100000  1.0 -0.6477131162
O  O103  1  0.62780000  0.95320000  0.03100000  1.0 -0.6477131162
O  O104  1  0.95320000  0.62780000  0.46900000  1.0 -0.6477131162
O  O105  1  0.46840000  0.01040000  0.91080000  1.0 -0.5969430868
O  O106  1  0.01040000  0.46840000  0.58920000  1.0 -0.5969430868
O  O107  1  0.53160000  0.98960000  0.08920000  1.0 -0.5969430868
O  O108  1  0.98960000  0.53160000  0.41080000  1.0 -0.5969430868
O  O109  1  0.58620000  0.09400000  0.74500000  1.0 -0.5776457328
O  O110  1  0.09400000  0.58620000  0.75500000  1.0 -0.5776457328
O  O111  1  0.41380000  0.90600000  0.25500000  1.0 -0.5776457328
O  O112  1  0.90600000  0.41380000  0.24500000  1.0 -0.5776457328
O  O113  1  0.56660000  0.05120000  0.84190000  1.0 -0.6099546019
O  O114  1  0.05120000  0.56660000  0.65810000  1.0 -0.6099546019
O  O115  1  0.43340000  0.94880000  0.15810000  1.0 -0.6099546019
O  O116  1  0.94880000  0.43340000  0.34190000  1.0 -0.6099546019
O  O117  1  0.67170000  0.03390000  0.81110000  1.0 -0.500506323
O  O118  1  0.03390000  0.67170000  0.68890000  1.0 -0.4898480687
O  O119  1  0.32830000  0.96610000  0.18890000  1.0 -0.4898480687
O  O120  1  0.96610000  0.32830000  0.31110000  1.0 -0.4898480687
O  O121  1  0.36222000  0.13162000  0.85660000  1.0 -0.714681289
O  O122  1  0.13162000  0.36222000  0.64340000  1.0 -0.714681289
O  O123  1  0.63778000  0.86838000  0.14340000  1.0 -0.7207158271
O  O124  1  0.86838000  0.63778000  0.35660000  1.0 -0.7207158271
O  O125  1  0.45040000  0.16440000  0.78340000  1.0 -0.7207158271
O  O126  1  0.16440000  0.45040000  0.71660000  1.0 -0.7207158271
O  O127  1  0.54960000  0.83560000  0.21660000  1.0 -0.7261398051
O  O128  1  0.83560000  0.54960000  0.28340000  1.0 -0.7261398051
O  O129  1  0.45350000  0.02930000  0.77500000  1.0 -0.5776457328
O  O130  1  0.02930000  0.45350000  0.72500000  1.0 -0.5776457328
O  O131  1  0.54650000  0.97070000  0.22500000  1.0 -0.5776457328
O  O132  1  0.97070000  0.54650000  0.27500000  1.0 -0.5776457328
O  O133  1  0.47490000  0.14710000  0.92460000  1.0 -0.5388474412
O  O134  1  0.14710000  0.47490000  0.57540000  1.0 -0.5388474412
O  O135  1  0.52510000  0.85290000  0.07540000  1.0 -0.5388474412
O  O136  1  0.85290000  0.52510000  0.42460000  1.0 -0.5340676222
O  O137  1  0.36780000  0.26520000  0.86440000  1.0 -0.5388474412
O  O138  1  0.26520000  0.36780000  0.63560000  1.0 -0.5388474412
O  O139  1  0.63220000  0.73480000  0.13560000  1.0 -0.5388474412
O  O140  1  0.73480000  0.63220000  0.36440000  1.0 -0.5388474412
O  O141  1  0.32980000  0.20120000  0.97340000  1.0 -0.5703505745
O  O142  1  0.20120000  0.32980000  0.52660000  1.0 -0.5703505745
O  O143  1  0.67020000  0.79880000  0.02660000  1.0 -0.5703505745
O  O144  1  0.79880000  0.67020000  0.47340000  1.0 -0.5703505745
O  O145  1  0.46080000  0.11640000  0.65440000  1.0 -0.5388474412
O  O146  1  0.11640000  0.46080000  0.84560000  1.0 -0.5388474412
O  O147  1  0.53920000  0.88360000  0.34560000  1.0 -0.5388474412
O  O148  1  0.88360000  0.53920000  0.15440000  1.0 -0.5388474412
O  O149  1  0.28680000  0.28680000  0.75000000  1.0 -0.5340676222
O  O150  1  0.71320000  0.71320000  0.25000000  1.0 -0.5388474412
O  O151  1  0.34000000  0.14260000  0.72130000  1.0 -0.5579298483
O  O152  1  0.14260000  0.34000000  0.77870000  1.0 -0.5579298483
O  O153  1  0.66000000  0.85740000  0.27870000  1.0 -0.5579298483
O  O154  1  0.85740000  0.66000000  0.22130000  1.0 -0.5579298483
O  O155  1  0.46170000  0.11370000  0.20400000  1.0 0.0708212938
O  O156  1  0.11370000  0.46170000  0.29600000  1.0 0.0708212938
O  O157  1  0.53830000  0.88630000  0.79600000  1.0 0.0708212938
O  O158  1  0.88630000  0.53830000  0.70400000  1.0 0.0708212938
O  O159  1  0.29670000  0.21710000  0.10740000  1.0 0.2410874229
O  O160  1  0.21710000  0.29670000  0.39260000  1.0 0.2410874229
O  O161  1  0.70330000  0.78290000  0.89260000  1.0 0.2410874229
O  O162  1  0.78290000  0.70330000  0.60740000  1.0 0.2410874229
O  O163  1  0.24670000  0.86410000  0.01170000  1.0 -0.4797527903
O  O164  1  0.86410000  0.24670000  0.48830000  1.0 -0.4726598625
O  O165  1  0.75330000  0.13590000  0.98830000  1.0 -0.4726598625
O  O166  1  0.13590000  0.75330000  0.51170000  1.0 -0.4797527903
O  O167  1  0.29010000  0.16750000  0.48000000  1.0 0.0708212938
O  O168  1  0.16750000  0.29010000  0.02000000  1.0 0.0708212938
O  O169  1  0.70990000  0.83250000  0.52000000  1.0 0.0811916645
O  O170  1  0.83250000  0.70990000  0.98000000  1.0 0.0811916645
O  O171  1  0.99020000  0.84200000  0.02630000  1.0 0.0708212938
O  O172  1  0.84200000  0.99020000  0.47370000  1.0 0.0708212938
O  O173  1  0.00980000  0.15800000  0.97370000  1.0 0.0708212938
O  O174  1  0.15800000  0.00980000  0.52630000  1.0 0.0708212938
O  O175  1  0.35120000  0.57060000  0.98260000  1.0 -0.0004453197
O  O176  1  0.57060000  0.35120000  0.51740000  1.0 0.0066767793
O  O177  1  0.64880000  0.42940000  0.01740000  1.0 0.0031584716
O  O178  1  0.42940000  0.64880000  0.48260000  1.0 0.0031584716
O  O179  1  0.46110000  0.21090000  0.51630000  1.0 0.2545288142
O  O180  1  0.21090000  0.46110000  0.98370000  1.0 0.2545288142
O  O181  1  0.53890000  0.78910000  0.48370000  1.0 0.2545288142
O  O182  1  0.78910000  0.53890000  0.01630000  1.0 0.2545288142
O  O183  1  0.26590000  0.09970000  0.16010000  1.0 0.1803362256
O  O184  1  0.09970000  0.26590000  0.33990000  1.0 0.1803362256
O  O185  1  0.73410000  0.90030000  0.83990000  1.0 0.192781755
O  O186  1  0.90030000  0.73410000  0.66010000  1.0 0.1803362256
O  O187  1  0.08490000  0.62250000  0.00500000  1.0 0.1200592372
O  O188  1  0.62250000  0.08490000  0.49500000  1.0 0.1300906459
O  O189  1  0.91510000  0.37750000  0.99500000  1.0 0.1200592372
O  O190  1  0.37750000  0.91510000  0.50500000  1.0 0.1200592372
O  O191  1  0.02210000  0.66030000  0.85750000  1.0 0.0811916645
O  O192  1  0.66030000  0.02210000  0.64250000  1.0 0.094282144
O  O193  1  0.97790000  0.33970000  0.14250000  1.0 0.0811916645
O  O194  1  0.33970000  0.97790000  0.35750000  1.0 0.0811916645
