# DDEC6 charges by PACMAN v1.1 (https://github.com/mtap-research/PACMAN-charge/)
data_FOQHIF_ASR_pacman
_symmetry_space_group_name_H-M   'P 1'
_cell_length_a   19.66950000
_cell_length_b   19.66950000
_cell_length_c   25.45440000
_cell_angle_alpha   82.68660000
_cell_angle_beta   97.31340000
_cell_angle_gamma   76.15400000
_symmetry_Int_Tables_number   1
_chemical_formula_structural   Zr3H50(C32O11)2
_chemical_formula_sum   'Zr12 H200 C256 O88'
_cell_volume   9355.96618954
_cell_formula_units_Z   4
loop_
 _symmetry_equiv_pos_site_id
 _symmetry_equiv_pos_as_xyz
  1  'x, y, z'
loop_
 _atom_site_type_symbol
 _atom_site_label
 _atom_site_symmetry_multiplicity
 _atom_site_fract_x
 _atom_site_fract_y
 _atom_site_fract_z
 _atom_site_occupancy
 _atom_site_charge
Zr  Zr1  1  0.51294000  0.05680000  0.40974000  1.0 2.0795246381
Zr  Zr2  1  0.53553000  0.09627000  0.54037000  1.0 2.0851201897
Zr  Zr3  1  0.62619000  0.93153000  0.51279000  1.0 2.0795246381
Zr  Zr4  1  0.05680000  0.51294000  0.09026000  1.0 2.0795246381
Zr  Zr5  1  0.09627000  0.53553000  0.95963000  1.0 2.0851201897
Zr  Zr6  1  0.93153000  0.62619000  0.98721000  1.0 2.0795246381
Zr  Zr7  1  0.48706000  0.94320000  0.59026000  1.0 2.0795246381
Zr  Zr8  1  0.46447000  0.90373000  0.45963000  1.0 2.0795246381
Zr  Zr9  1  0.37381000  0.06847000  0.48721000  1.0 2.0795246381
Zr  Zr10  1  0.94320000  0.48706000  0.90974000  1.0 2.0795246381
Zr  Zr11  1  0.90373000  0.46447000  0.04037000  1.0 2.0851201897
Zr  Zr12  1  0.06847000  0.37381000  0.01279000  1.0 2.0795246381
H  H1  1  0.63720000  0.22580000  0.36050000  1.0 0.1178803972
H  H2  1  0.61500000  0.27200000  0.50780000  1.0 0.1178803972
H  H3  1  0.71180000  0.30140000  0.35190000  1.0 0.1111611634
H  H4  1  0.68448000  0.35112000  0.49740000  1.0 0.1178803972
H  H5  1  0.73030000  0.13510000  0.62680000  1.0 0.1178803972
H  H6  1  0.83300000  0.95080000  0.58600000  1.0 0.1178803972
H  H7  1  0.83280000  0.13800000  0.68110000  1.0 0.1111611634
H  H8  1  0.93620000  0.95360000  0.64110000  1.0 0.1111611634
H  H9  1  0.81310000  0.34030000  0.36420000  1.0 0.0991066557
H  H10  1  0.74700000  0.40640000  0.33860000  1.0 0.0919794264
H  H11  1  0.84750000  0.30710000  0.46420000  1.0 0.0991066557
H  H12  1  0.80240000  0.35040000  0.50310000  1.0 0.0919794264
H  H13  1  0.69460000  0.45600000  0.46090000  1.0 0.0919794264
H  H14  1  0.67640000  0.47680000  0.39680000  1.0 0.0991066557
H  H15  1  0.91370000  0.10870000  0.75720000  1.0 0.0919794264
H  H16  1  0.94770000  0.14770000  0.71230000  1.0 0.0991066557
H  H17  1  0.93080000  0.97660000  0.76860000  1.0 0.0991066557
H  H18  1  0.03070000  0.99230000  0.65980000  1.0 0.0991066557
H  H19  1  0.01940000  0.07660000  0.65280000  1.0 0.1111611634
H  H20  1  0.75360000  0.53160000  0.34510000  1.0 0.1178803972
H  H21  1  0.82440000  0.54620000  0.37470000  1.0 0.1111611634
H  H22  1  0.92520000  0.36200000  0.41170000  1.0 0.0991066557
H  H23  1  0.92950000  0.44130000  0.41630000  1.0 0.0919794264
H  H24  1  0.85800000  0.51080000  0.47690000  1.0 0.0841503923
H  H25  1  0.80750000  0.47570000  0.51010000  1.0 0.0991066557
H  H26  1  0.93770000  0.49350000  0.33810000  1.0 0.1111611634
H  H27  1  0.80170000  0.39970000  0.27400000  1.0 0.1111611634
H  H28  1  0.97650000  0.45130000  0.49820000  1.0 0.0701474918
H  H29  1  0.89460000  0.29180000  0.54680000  1.0 0.0919794264
H  H30  1  0.80600000  0.62560000  0.44270000  1.0 0.0991066557
H  H31  1  0.62420000  0.57260000  0.42290000  1.0 0.1178803972
H  H32  1  0.08070000  0.13050000  0.72390000  1.0 0.1178803972
H  H33  1  0.98390000  0.50370000  0.25920000  1.0 0.1178803972
H  H34  1  0.84490000  0.41270000  0.19400000  1.0 0.1178803972
H  H35  1  0.07860000  0.39740000  0.56250000  1.0 0.0701474918
H  H36  1  0.99000000  0.25060000  0.61910000  1.0 0.0991066557
H  H37  1  0.74820000  0.73500000  0.45970000  1.0 0.1178803972
H  H38  1  0.56590000  0.68210000  0.43870000  1.0 0.1178803972
H  H39  1  0.92110000  0.21770000  0.77500000  1.0 0.1111611634
H  H40  1  0.11430000  0.11490000  0.85750000  1.0 0.1111611634
H  H41  1  0.91990000  0.31070000  0.82320000  1.0 0.1111611634
H  H42  1  0.11110000  0.20450000  0.90880000  1.0 0.1178803972
H  H43  1  0.04750000  0.42770000  0.59420000  1.0 0.0586956447
H  H44  1  0.94280000  0.46980000  0.53180000  1.0 0.0701474918
H  H45  1  0.97220000  0.28080000  0.49060000  1.0 0.0991066557
H  H46  1  0.07150000  0.23590000  0.55940000  1.0 0.0991066557
H  H47  1  0.63750000  0.06710000  0.47310000  1.0 0.3442134147
H  H48  1  0.43160000  0.17700000  0.44220000  1.0 0.333927769
H  H49  1  0.42220000  0.08580000  0.59260000  1.0 0.3508530294
H  H50  1  0.61990000  0.96830000  0.61690000  1.0 0.333927769
H  H51  1  0.22580000  0.63720000  0.13950000  1.0 0.1178803972
H  H52  1  0.27200000  0.61500000  0.99220000  1.0 0.1178803972
H  H53  1  0.30140000  0.71180000  0.14810000  1.0 0.1111611634
H  H54  1  0.35112000  0.68448000  0.00260000  1.0 0.1178803972
H  H55  1  0.13510000  0.73030000  0.87320000  1.0 0.1178803972
H  H56  1  0.95080000  0.83300000  0.91400000  1.0 0.1178803972
H  H57  1  0.13800000  0.83280000  0.81890000  1.0 0.1111611634
H  H58  1  0.95360000  0.93620000  0.85890000  1.0 0.1111611634
H  H59  1  0.34030000  0.81310000  0.13580000  1.0 0.0991066557
H  H60  1  0.40640000  0.74700000  0.16140000  1.0 0.0919794264
H  H61  1  0.30710000  0.84750000  0.03580000  1.0 0.0991066557
H  H62  1  0.35040000  0.80240000  0.99690000  1.0 0.0919794264
H  H63  1  0.45600000  0.69460000  0.03910000  1.0 0.0919794264
H  H64  1  0.47680000  0.67640000  0.10320000  1.0 0.0991066557
H  H65  1  0.10870000  0.91370000  0.74280000  1.0 0.0919794264
H  H66  1  0.14770000  0.94770000  0.78770000  1.0 0.0991066557
H  H67  1  0.97660000  0.93080000  0.73140000  1.0 0.0991066557
H  H68  1  0.99230000  0.03070000  0.84020000  1.0 0.0991066557
H  H69  1  0.07660000  0.01940000  0.84720000  1.0 0.0991066557
H  H70  1  0.53160000  0.75360000  0.15490000  1.0 0.1178803972
H  H71  1  0.54620000  0.82440000  0.12530000  1.0 0.1111611634
H  H72  1  0.36200000  0.92520000  0.08830000  1.0 0.0991066557
H  H73  1  0.44130000  0.92950000  0.08370000  1.0 0.0919794264
H  H74  1  0.51080000  0.85800000  0.02310000  1.0 0.0841503923
H  H75  1  0.47570000  0.80750000  0.98990000  1.0 0.0991066557
H  H76  1  0.49350000  0.93770000  0.16190000  1.0 0.1111611634
H  H77  1  0.39970000  0.80170000  0.22600000  1.0 0.1111611634
H  H78  1  0.45130000  0.97650000  0.00180000  1.0 0.0701474918
H  H79  1  0.29180000  0.89460000  0.95320000  1.0 0.0919794264
H  H80  1  0.62560000  0.80600000  0.05730000  1.0 0.0991066557
H  H81  1  0.57260000  0.62420000  0.07710000  1.0 0.1178803972
H  H82  1  0.13050000  0.08070000  0.77610000  1.0 0.1178803972
H  H83  1  0.50370000  0.98390000  0.24080000  1.0 0.1178803972
H  H84  1  0.41270000  0.84490000  0.30600000  1.0 0.1178803972
H  H85  1  0.39740000  0.07860000  0.93750000  1.0 0.0701474918
H  H86  1  0.25060000  0.99000000  0.88090000  1.0 0.0991066557
H  H87  1  0.73500000  0.74820000  0.04030000  1.0 0.1178803972
H  H88  1  0.68210000  0.56590000  0.06130000  1.0 0.1178803972
H  H89  1  0.21770000  0.92110000  0.72500000  1.0 0.1111611634
H  H90  1  0.11490000  0.11430000  0.64250000  1.0 0.1111611634
H  H91  1  0.31070000  0.91990000  0.67680000  1.0 0.1111611634
H  H92  1  0.20450000  0.11110000  0.59120000  1.0 0.1178803972
H  H93  1  0.42770000  0.04750000  0.90580000  1.0 0.0586956447
H  H94  1  0.46980000  0.94280000  0.96820000  1.0 0.0701474918
H  H95  1  0.28080000  0.97220000  0.00940000  1.0 0.0991066557
H  H96  1  0.23590000  0.07150000  0.94060000  1.0 0.0991066557
H  H97  1  0.06710000  0.63750000  0.02690000  1.0 0.3442134147
H  H98  1  0.17700000  0.43160000  0.05780000  1.0 0.333927769
H  H99  1  0.08580000  0.42220000  0.90740000  1.0 0.3508530294
H  H100  1  0.96830000  0.61990000  0.88310000  1.0 0.333927769
H  H101  1  0.36280000  0.77420000  0.63950000  1.0 0.1178803972
H  H102  1  0.38500000  0.72800000  0.49220000  1.0 0.1178803972
H  H103  1  0.28820000  0.69860000  0.64810000  1.0 0.1111611634
H  H104  1  0.31552000  0.64888000  0.50260000  1.0 0.1178803972
H  H105  1  0.26970000  0.86490000  0.37320000  1.0 0.1178803972
H  H106  1  0.16700000  0.04920000  0.41400000  1.0 0.1178803972
H  H107  1  0.16720000  0.86200000  0.31890000  1.0 0.1111611634
H  H108  1  0.06380000  0.04640000  0.35890000  1.0 0.1111611634
H  H109  1  0.18690000  0.65970000  0.63580000  1.0 0.0991066557
H  H110  1  0.25300000  0.59360000  0.66140000  1.0 0.0919794264
H  H111  1  0.15250000  0.69290000  0.53580000  1.0 0.0991066557
H  H112  1  0.19760000  0.64960000  0.49690000  1.0 0.0919794264
H  H113  1  0.30540000  0.54400000  0.53910000  1.0 0.0919794264
H  H114  1  0.32360000  0.52320000  0.60320000  1.0 0.0991066557
H  H115  1  0.08630000  0.89130000  0.24280000  1.0 0.0919794264
H  H116  1  0.05230000  0.85230000  0.28770000  1.0 0.0991066557
H  H117  1  0.06920000  0.02340000  0.23140000  1.0 0.0991066557
H  H118  1  0.96930000  0.00770000  0.34020000  1.0 0.0991066557
H  H119  1  0.98060000  0.92340000  0.34720000  1.0 0.1111611634
H  H120  1  0.24640000  0.46840000  0.65490000  1.0 0.1178803972
H  H121  1  0.17560000  0.45380000  0.62530000  1.0 0.1111611634
H  H122  1  0.07480000  0.63800000  0.58830000  1.0 0.0991066557
H  H123  1  0.07050000  0.55870000  0.58370000  1.0 0.0919794264
H  H124  1  0.14200000  0.48920000  0.52310000  1.0 0.0841503923
H  H125  1  0.19250000  0.52430000  0.48990000  1.0 0.0991066557
H  H126  1  0.06230000  0.50650000  0.66190000  1.0 0.1111611634
H  H127  1  0.19830000  0.60030000  0.72600000  1.0 0.1111611634
H  H128  1  0.02350000  0.54870000  0.50180000  1.0 0.0701474918
H  H129  1  0.10540000  0.70820000  0.45320000  1.0 0.0919794264
H  H130  1  0.19400000  0.37440000  0.55730000  1.0 0.0991066557
H  H131  1  0.37580000  0.42740000  0.57710000  1.0 0.1178803972
H  H132  1  0.91930000  0.86950000  0.27610000  1.0 0.1178803972
H  H133  1  0.01610000  0.49630000  0.74080000  1.0 0.1178803972
H  H134  1  0.15510000  0.58730000  0.80600000  1.0 0.1178803972
H  H135  1  0.92140000  0.60260000  0.43750000  1.0 0.0701474918
H  H136  1  0.01000000  0.74940000  0.38090000  1.0 0.0991066557
H  H137  1  0.25180000  0.26500000  0.54030000  1.0 0.1178803972
H  H138  1  0.43410000  0.31790000  0.56130000  1.0 0.1178803972
H  H139  1  0.07890000  0.78230000  0.22500000  1.0 0.1111611634
H  H140  1  0.88570000  0.88510000  0.14250000  1.0 0.1111611634
H  H141  1  0.08010000  0.68930000  0.17680000  1.0 0.1111611634
H  H142  1  0.88890000  0.79550000  0.09120000  1.0 0.1178803972
H  H143  1  0.95250000  0.57230000  0.40580000  1.0 0.0586956447
H  H144  1  0.05720000  0.53020000  0.46820000  1.0 0.0701474918
H  H145  1  0.02780000  0.71920000  0.50940000  1.0 0.0991066557
H  H146  1  0.92850000  0.76410000  0.44060000  1.0 0.0991066557
H  H147  1  0.36250000  0.93290000  0.52690000  1.0 0.3442134147
H  H148  1  0.56840000  0.82300000  0.55780000  1.0 0.333927769
H  H149  1  0.57780000  0.91420000  0.40740000  1.0 0.3508530294
H  H150  1  0.38010000  0.03170000  0.38310000  1.0 0.333927769
H  H151  1  0.77420000  0.36280000  0.86050000  1.0 0.1178803972
H  H152  1  0.72800000  0.38500000  0.00780000  1.0 0.1178803972
H  H153  1  0.69860000  0.28820000  0.85190000  1.0 0.1111611634
H  H154  1  0.64888000  0.31552000  0.99740000  1.0 0.1178803972
H  H155  1  0.86490000  0.26970000  0.12680000  1.0 0.1178803972
H  H156  1  0.04920000  0.16700000  0.08600000  1.0 0.1178803972
H  H157  1  0.86200000  0.16720000  0.18110000  1.0 0.1111611634
H  H158  1  0.04640000  0.06380000  0.14110000  1.0 0.1111611634
H  H159  1  0.65970000  0.18690000  0.86420000  1.0 0.0991066557
H  H160  1  0.59360000  0.25300000  0.83860000  1.0 0.0919794264
H  H161  1  0.69290000  0.15250000  0.96420000  1.0 0.0991066557
H  H162  1  0.64960000  0.19760000  0.00310000  1.0 0.0919794264
H  H163  1  0.54400000  0.30540000  0.96090000  1.0 0.0919794264
H  H164  1  0.52320000  0.32360000  0.89680000  1.0 0.0991066557
H  H165  1  0.89130000  0.08630000  0.25720000  1.0 0.0919794264
H  H166  1  0.85230000  0.05230000  0.21230000  1.0 0.0991066557
H  H167  1  0.02340000  0.06920000  0.26860000  1.0 0.0991066557
H  H168  1  0.00770000  0.96930000  0.15980000  1.0 0.0991066557
H  H169  1  0.92340000  0.98060000  0.15280000  1.0 0.1111611634
H  H170  1  0.46840000  0.24640000  0.84510000  1.0 0.1178803972
H  H171  1  0.45380000  0.17560000  0.87470000  1.0 0.1111611634
H  H172  1  0.63800000  0.07480000  0.91170000  1.0 0.0991066557
H  H173  1  0.55870000  0.07050000  0.91630000  1.0 0.0919794264
H  H174  1  0.48920000  0.14200000  0.97690000  1.0 0.0841503923
H  H175  1  0.52430000  0.19250000  0.01010000  1.0 0.0991066557
H  H176  1  0.50650000  0.06230000  0.83810000  1.0 0.1111611634
H  H177  1  0.60030000  0.19830000  0.77400000  1.0 0.1111611634
H  H178  1  0.54870000  0.02350000  0.99820000  1.0 0.0701474918
H  H179  1  0.70820000  0.10540000  0.04680000  1.0 0.0919794264
H  H180  1  0.37440000  0.19400000  0.94270000  1.0 0.0991066557
H  H181  1  0.42740000  0.37580000  0.92290000  1.0 0.1178803972
H  H182  1  0.86950000  0.91930000  0.22390000  1.0 0.1178803972
H  H183  1  0.49630000  0.01610000  0.75920000  1.0 0.1178803972
H  H184  1  0.58730000  0.15510000  0.69400000  1.0 0.1178803972
H  H185  1  0.60260000  0.92140000  0.06250000  1.0 0.0701474918
H  H186  1  0.74940000  0.01000000  0.11910000  1.0 0.0991066557
H  H187  1  0.26500000  0.25180000  0.95970000  1.0 0.1178803972
H  H188  1  0.31790000  0.43410000  0.93870000  1.0 0.1178803972
H  H189  1  0.78230000  0.07890000  0.27500000  1.0 0.1111611634
H  H190  1  0.88510000  0.88570000  0.35750000  1.0 0.1111611634
H  H191  1  0.68930000  0.08010000  0.32320000  1.0 0.1111611634
H  H192  1  0.79550000  0.88890000  0.40880000  1.0 0.1178803972
H  H193  1  0.57230000  0.95250000  0.09420000  1.0 0.0586956447
H  H194  1  0.53020000  0.05720000  0.03180000  1.0 0.0701474918
H  H195  1  0.71920000  0.02780000  0.99060000  1.0 0.0991066557
H  H196  1  0.76410000  0.92850000  0.05940000  1.0 0.0991066557
H  H197  1  0.93290000  0.36250000  0.97310000  1.0 0.3442134147
H  H198  1  0.82300000  0.56840000  0.94220000  1.0 0.333927769
H  H199  1  0.91420000  0.57780000  0.09260000  1.0 0.3508530294
H  H200  1  0.03170000  0.38010000  0.11690000  1.0 0.333927769
C  C1  1  0.57504000  0.18982000  0.44438000  1.0 0.5842062866
C  C2  1  0.61871000  0.24163000  0.43443000  1.0 -0.0371811271
C  C3  1  0.70431000  0.03507000  0.57125000  1.0 0.5605151018
C  C4  1  0.64735000  0.25069000  0.38888000  1.0 -0.1006692709
C  C5  1  0.63377000  0.27857000  0.47554000  1.0 -0.1006692709
C  C6  1  0.77088000  0.04100000  0.60238000  1.0 -0.0496724222
C  C7  1  0.69168000  0.29640000  0.38370000  1.0 -0.1781485046
C  C8  1  0.67610000  0.32490000  0.46950000  1.0 -0.1697008438
C  C9  1  0.77191000  0.09749000  0.63024000  1.0 -0.0923195495
C  C10  1  0.83248000  0.98848000  0.60602000  1.0 -0.0923195495
C  C11  1  0.70671000  0.33427000  0.42375000  1.0 0.0528692042
C  C12  1  0.83295000  0.09897000  0.66259000  1.0 -0.1781485046
C  C13  1  0.89401000  0.99019000  0.63895000  1.0 -0.1781485046
C  C14  1  0.75715000  0.38283000  0.42211000  1.0 0.1596942188
C  C15  1  0.89473000  0.04479000  0.66875000  1.0 0.0586956447
C  C16  1  0.78678000  0.38816000  0.36897000  1.0 -0.3192126626
C  C17  1  0.82039000  0.35481000  0.46853000  1.0 -0.3124862825
C  C18  1  0.71560000  0.45824000  0.42761000  1.0 -0.3124862825
C  C19  1  0.96103000  0.03977000  0.70822000  1.0 0.1532541101
C  C20  1  0.83685000  0.43795000  0.36859000  1.0 0.1976482903
C  C21  1  0.86915000  0.40403000  0.46976000  1.0 0.1596942188
C  C22  1  0.76462000  0.50872000  0.42928000  1.0 0.1928098758
C  C23  1  0.95523000  0.10377000  0.73850000  1.0 -0.3297899033
C  C24  1  0.02603000  0.03315000  0.67937000  1.0 -0.3192126626
C  C25  1  0.79358000  0.51312000  0.37533000  1.0 -0.3124862825
C  C26  1  0.89745000  0.40945000  0.41599000  1.0 -0.3512522096
C  C27  1  0.86610000  0.44426000  0.31530000  1.0 0.0528692042
C  C28  1  0.82628000  0.47854000  0.47582000  1.0 -0.3570226545
C  C29  1  0.92540000  0.37780000  0.51530000  1.0 0.0243276793
C  C30  1  0.72335000  0.58351000  0.43618000  1.0 0.0528692042
C  C31  1  0.02252000  0.09466000  0.77968000  1.0 0.1792389338
C  C32  1  0.91809000  0.47509000  0.30871000  1.0 -0.1471498499
C  C33  1  0.83952000  0.42172000  0.27198000  1.0 -0.1781485046
C  C34  1  0.97830000  0.40930000  0.52190000  1.0 -0.0142626504
C  C35  1  0.92970000  0.31730000  0.55150000  1.0 -0.1006692709
C  C36  1  0.75652000  0.63532000  0.44390000  1.0 -0.1471498499
C  C37  1  0.65121000  0.60461000  0.43230000  1.0 -0.1697008438
C  C38  1  0.01867000  0.15613000  0.81101000  1.0 0.0528692042
C  C39  1  0.94564000  0.48224000  0.26092000  1.0 -0.0923195495
C  C40  1  0.86574000  0.42934000  0.22389000  1.0 -0.1101629643
C  C41  1  0.03710000  0.38090000  0.56380000  1.0 -0.06871198
C  C42  1  0.98640000  0.29360000  0.59590000  1.0 -0.0923195495
C  C43  1  0.72205000  0.70125000  0.45340000  1.0 -0.0923195495
C  C44  1  0.61608000  0.67012000  0.44130000  1.0 -0.1006692709
C  C45  1  0.96056000  0.21510000  0.80164000  1.0 -0.1697008438
C  C46  1  0.07386000  0.15440000  0.85070000  1.0 -0.132373946
C  C47  1  0.91925000  0.45947000  0.21824000  1.0 -0.0260053521
C  C48  1  0.03620000  0.33080000  0.60600000  1.0 0.0414923651
C  C49  1  0.65244000  0.71812000  0.45390000  1.0 -0.0371811271
C  C50  1  0.95954000  0.27022000  0.83085000  1.0 -0.1006692709
C  C51  1  0.07274000  0.20800000  0.88103000  1.0 -0.0776629525
C  C52  1  0.94342000  0.46928000  0.16519000  1.0 0.5935249662
C  C53  1  0.09100000  0.30880000  0.65260000  1.0 0.2899551724
C  C54  1  0.61379000  0.78983000  0.46423000  1.0 0.6032359486
C  C55  1  0.01460000  0.26730000  0.87047000  1.0 -0.0496724222
C  C56  1  0.01295000  0.32603000  0.90237000  1.0 0.5605151018
C  C57  1  0.12130000  0.29790000  0.63580000  1.0 0.2974462693
C  C58  1  0.06000000  0.32360000  0.59420000  1.0 0.0243276793
C  C59  1  0.02710000  0.39430000  0.57850000  1.0 -0.0776629525
C  C60  1  0.96460000  0.42020000  0.53990000  1.0 -0.0204858717
C  C61  1  0.93570000  0.37550000  0.51490000  1.0 0.0121238378
C  C62  1  0.98160000  0.30900000  0.51680000  1.0 -0.06871198
C  C63  1  0.04260000  0.28260000  0.55760000  1.0 -0.1006692709
C  C64  1  0.18982000  0.57504000  0.05562000  1.0 0.5842062866
C  C65  1  0.24163000  0.61871000  0.06557000  1.0 -0.0371811271
C  C66  1  0.03507000  0.70431000  0.92875000  1.0 0.5605151018
C  C67  1  0.25069000  0.64735000  0.11112000  1.0 -0.1006692709
C  C68  1  0.27857000  0.63377000  0.02446000  1.0 -0.1006692709
C  C69  1  0.04100000  0.77088000  0.89762000  1.0 -0.0496724222
C  C70  1  0.29640000  0.69168000  0.11630000  1.0 -0.1781485046
C  C71  1  0.32490000  0.67610000  0.03050000  1.0 -0.1697008438
C  C72  1  0.09749000  0.77191000  0.86976000  1.0 -0.0923195495
C  C73  1  0.98848000  0.83248000  0.89398000  1.0 -0.0923195495
C  C74  1  0.33427000  0.70671000  0.07625000  1.0 0.0586956447
C  C75  1  0.09897000  0.83295000  0.83741000  1.0 -0.1781485046
C  C76  1  0.99019000  0.89401000  0.86105000  1.0 -0.1781485046
C  C77  1  0.38283000  0.75715000  0.07789000  1.0 0.1596942188
C  C78  1  0.04479000  0.89473000  0.83125000  1.0 0.0586956447
C  C79  1  0.38816000  0.78678000  0.13103000  1.0 -0.3192126626
C  C80  1  0.35481000  0.82039000  0.03147000  1.0 -0.3124862825
C  C81  1  0.45824000  0.71560000  0.07239000  1.0 -0.3124862825
C  C82  1  0.03977000  0.96103000  0.79178000  1.0 0.1532541101
C  C83  1  0.43795000  0.83685000  0.13141000  1.0 0.1976482903
C  C84  1  0.40403000  0.86915000  0.03024000  1.0 0.1596942188
C  C85  1  0.50872000  0.76462000  0.07072000  1.0 0.1928098758
C  C86  1  0.10377000  0.95523000  0.76150000  1.0 -0.3297899033
C  C87  1  0.03315000  0.02603000  0.82063000  1.0 -0.3192126626
C  C88  1  0.51312000  0.79358000  0.12467000  1.0 -0.3124862825
C  C89  1  0.40945000  0.89745000  0.08401000  1.0 -0.3512522096
C  C90  1  0.44426000  0.86610000  0.18470000  1.0 0.0528692042
C  C91  1  0.47854000  0.82628000  0.02418000  1.0 -0.3570226545
C  C92  1  0.37780000  0.92540000  0.98470000  1.0 0.0243276793
C  C93  1  0.58351000  0.72335000  0.06382000  1.0 0.0528692042
C  C94  1  0.09466000  0.02252000  0.72032000  1.0 0.1792389338
C  C95  1  0.47509000  0.91809000  0.19129000  1.0 -0.1471498499
C  C96  1  0.42172000  0.83952000  0.22802000  1.0 -0.1781485046
C  C97  1  0.40930000  0.97830000  0.97810000  1.0 -0.0142626504
C  C98  1  0.31730000  0.92970000  0.94850000  1.0 -0.1006692709
C  C99  1  0.63532000  0.75652000  0.05610000  1.0 -0.1471498499
C  C100  1  0.60461000  0.65121000  0.06770000  1.0 -0.1697008438
C  C101  1  0.15613000  0.01867000  0.68899000  1.0 0.0528692042
C  C102  1  0.48224000  0.94564000  0.23908000  1.0 -0.0923195495
C  C103  1  0.42934000  0.86574000  0.27611000  1.0 -0.1101629643
C  C104  1  0.38090000  0.03710000  0.93620000  1.0 -0.06871198
C  C105  1  0.29360000  0.98640000  0.90410000  1.0 -0.0923195495
C  C106  1  0.70125000  0.72205000  0.04660000  1.0 -0.0923195495
C  C107  1  0.67012000  0.61608000  0.05870000  1.0 -0.1006692709
C  C108  1  0.21510000  0.96056000  0.69836000  1.0 -0.1697008438
C  C109  1  0.15440000  0.07386000  0.64930000  1.0 -0.132373946
C  C110  1  0.45947000  0.91925000  0.28176000  1.0 -0.0260053521
C  C111  1  0.33080000  0.03620000  0.89400000  1.0 0.0414923651
C  C112  1  0.71812000  0.65244000  0.04610000  1.0 -0.0371811271
C  C113  1  0.27022000  0.95954000  0.66915000  1.0 -0.1006692709
C  C114  1  0.20800000  0.07274000  0.61897000  1.0 -0.0776629525
C  C115  1  0.46928000  0.94342000  0.33481000  1.0 0.5935249662
C  C116  1  0.30880000  0.09100000  0.84740000  1.0 0.2899551724
C  C117  1  0.78983000  0.61379000  0.03577000  1.0 0.6032359486
C  C118  1  0.26730000  0.01460000  0.62953000  1.0 -0.0496724222
C  C119  1  0.32603000  0.01295000  0.59763000  1.0 0.5605151018
C  C120  1  0.29790000  0.12130000  0.86420000  1.0 0.2974462693
C  C121  1  0.32360000  0.06000000  0.90580000  1.0 0.0243276793
C  C122  1  0.39430000  0.02710000  0.92150000  1.0 -0.0776629525
C  C123  1  0.42020000  0.96460000  0.96010000  1.0 -0.0204858717
C  C124  1  0.37550000  0.93570000  0.98510000  1.0 0.0121238378
C  C125  1  0.30900000  0.98160000  0.98320000  1.0 -0.06871198
C  C126  1  0.28260000  0.04260000  0.94240000  1.0 -0.1006692709
C  C127  1  0.42496000  0.81018000  0.55562000  1.0 0.5842062866
C  C128  1  0.38129000  0.75837000  0.56557000  1.0 -0.0371811271
C  C129  1  0.29569000  0.96493000  0.42875000  1.0 0.5605151018
C  C130  1  0.35265000  0.74931000  0.61112000  1.0 -0.1006692709
C  C131  1  0.36623000  0.72143000  0.52446000  1.0 -0.1006692709
C  C132  1  0.22912000  0.95900000  0.39762000  1.0 -0.0496724222
C  C133  1  0.30832000  0.70360000  0.61630000  1.0 -0.1781485046
C  C134  1  0.32390000  0.67510000  0.53050000  1.0 -0.1697008438
C  C135  1  0.22809000  0.90251000  0.36976000  1.0 -0.0923195495
C  C136  1  0.16752000  0.01152000  0.39398000  1.0 -0.0923195495
C  C137  1  0.29329000  0.66573000  0.57625000  1.0 0.0586956447
C  C138  1  0.16705000  0.90103000  0.33741000  1.0 -0.1781485046
C  C139  1  0.10599000  0.00981000  0.36105000  1.0 -0.1781485046
C  C140  1  0.24285000  0.61717000  0.57789000  1.0 0.1596942188
C  C141  1  0.10527000  0.95521000  0.33125000  1.0 0.0586956447
C  C142  1  0.21322000  0.61184000  0.63103000  1.0 -0.3192126626
C  C143  1  0.17961000  0.64519000  0.53147000  1.0 -0.3124862825
C  C144  1  0.28440000  0.54176000  0.57239000  1.0 -0.3124862825
C  C145  1  0.03897000  0.96023000  0.29178000  1.0 0.1532541101
C  C146  1  0.16315000  0.56205000  0.63141000  1.0 0.1976482903
C  C147  1  0.13085000  0.59597000  0.53024000  1.0 0.1596942188
C  C148  1  0.23538000  0.49128000  0.57072000  1.0 0.1928098758
C  C149  1  0.04477000  0.89623000  0.26150000  1.0 -0.3297899033
C  C150  1  0.97397000  0.96685000  0.32063000  1.0 -0.3192126626
C  C151  1  0.20642000  0.48688000  0.62467000  1.0 -0.3124862825
C  C152  1  0.10255000  0.59055000  0.58401000  1.0 -0.3512522096
C  C153  1  0.13390000  0.55574000  0.68470000  1.0 0.0528692042
C  C154  1  0.17372000  0.52146000  0.52418000  1.0 -0.3570226545
C  C155  1  0.07460000  0.62220000  0.48470000  1.0 0.0243276793
C  C156  1  0.27665000  0.41649000  0.56382000  1.0 0.0528692042
C  C157  1  0.97748000  0.90534000  0.22032000  1.0 0.1792389338
C  C158  1  0.08191000  0.52491000  0.69129000  1.0 -0.1471498499
C  C159  1  0.16048000  0.57828000  0.72802000  1.0 -0.1781485046
C  C160  1  0.02170000  0.59070000  0.47810000  1.0 -0.0142626504
C  C161  1  0.07030000  0.68270000  0.44850000  1.0 -0.1006692709
C  C162  1  0.24348000  0.36468000  0.55610000  1.0 -0.1471498499
C  C163  1  0.34879000  0.39539000  0.56770000  1.0 -0.1697008438
C  C164  1  0.98133000  0.84387000  0.18899000  1.0 0.0528692042
C  C165  1  0.05436000  0.51776000  0.73908000  1.0 -0.0923195495
C  C166  1  0.13426000  0.57066000  0.77611000  1.0 -0.1101629643
C  C167  1  0.96290000  0.61910000  0.43620000  1.0 -0.06871198
C  C168  1  0.01360000  0.70640000  0.40410000  1.0 -0.0923195495
C  C169  1  0.27795000  0.29875000  0.54660000  1.0 -0.0923195495
C  C170  1  0.38392000  0.32988000  0.55870000  1.0 -0.1006692709
C  C171  1  0.03944000  0.78490000  0.19836000  1.0 -0.1697008438
C  C172  1  0.92614000  0.84560000  0.14930000  1.0 -0.132373946
C  C173  1  0.08075000  0.54053000  0.78176000  1.0 -0.0260053521
C  C174  1  0.96380000  0.66920000  0.39400000  1.0 0.0414923651
C  C175  1  0.34756000  0.28188000  0.54610000  1.0 -0.0371811271
C  C176  1  0.04046000  0.72978000  0.16915000  1.0 -0.1006692709
C  C177  1  0.92726000  0.79200000  0.11897000  1.0 -0.0776629525
C  C178  1  0.05658000  0.53072000  0.83481000  1.0 0.5935249662
C  C179  1  0.90900000  0.69120000  0.34740000  1.0 0.2899551724
C  C180  1  0.38621000  0.21017000  0.53577000  1.0 0.6032359486
C  C181  1  0.98540000  0.73270000  0.12953000  1.0 -0.0496724222
C  C182  1  0.98705000  0.67397000  0.09763000  1.0 0.5605151018
C  C183  1  0.87870000  0.70210000  0.36420000  1.0 0.2974462693
C  C184  1  0.94000000  0.67640000  0.40580000  1.0 0.0243276793
C  C185  1  0.97290000  0.60570000  0.42150000  1.0 -0.0776629525
C  C186  1  0.03540000  0.57980000  0.46010000  1.0 -0.0204858717
C  C187  1  0.06430000  0.62450000  0.48510000  1.0 0.0121238378
C  C188  1  0.01840000  0.69100000  0.48320000  1.0 -0.06871198
C  C189  1  0.95740000  0.71740000  0.44240000  1.0 -0.1006692709
C  C190  1  0.81018000  0.42496000  0.94438000  1.0 0.5842062866
C  C191  1  0.75837000  0.38129000  0.93443000  1.0 -0.0371811271
C  C192  1  0.96493000  0.29569000  0.07125000  1.0 0.5605151018
C  C193  1  0.74931000  0.35265000  0.88888000  1.0 -0.1006692709
C  C194  1  0.72143000  0.36623000  0.97554000  1.0 -0.1006692709
C  C195  1  0.95900000  0.22912000  0.10238000  1.0 -0.0496724222
C  C196  1  0.70360000  0.30832000  0.88370000  1.0 -0.1781485046
C  C197  1  0.67510000  0.32390000  0.96950000  1.0 -0.1697008438
C  C198  1  0.90251000  0.22809000  0.13024000  1.0 -0.0923195495
C  C199  1  0.01152000  0.16752000  0.10602000  1.0 -0.0923195495
C  C200  1  0.66573000  0.29329000  0.92375000  1.0 0.0528692042
C  C201  1  0.90103000  0.16705000  0.16259000  1.0 -0.1781485046
C  C202  1  0.00981000  0.10599000  0.13895000  1.0 -0.1781485046
C  C203  1  0.61717000  0.24285000  0.92211000  1.0 0.1596942188
C  C204  1  0.95521000  0.10527000  0.16875000  1.0 0.0586956447
C  C205  1  0.61184000  0.21322000  0.86897000  1.0 -0.3192126626
C  C206  1  0.64519000  0.17961000  0.96853000  1.0 -0.3124862825
C  C207  1  0.54176000  0.28440000  0.92761000  1.0 -0.3124862825
C  C208  1  0.96023000  0.03897000  0.20822000  1.0 0.1532541101
C  C209  1  0.56205000  0.16315000  0.86859000  1.0 0.1976482903
C  C210  1  0.59597000  0.13085000  0.96976000  1.0 0.1596942188
C  C211  1  0.49128000  0.23538000  0.92928000  1.0 0.1928098758
C  C212  1  0.89623000  0.04477000  0.23850000  1.0 -0.3297899033
C  C213  1  0.96685000  0.97397000  0.17937000  1.0 -0.3192126626
C  C214  1  0.48688000  0.20642000  0.87533000  1.0 -0.3124862825
C  C215  1  0.59055000  0.10255000  0.91599000  1.0 -0.3512522096
C  C216  1  0.55574000  0.13390000  0.81530000  1.0 0.0528692042
C  C217  1  0.52146000  0.17372000  0.97582000  1.0 -0.3570226545
C  C218  1  0.62220000  0.07460000  0.01530000  1.0 0.0243276793
C  C219  1  0.41649000  0.27665000  0.93618000  1.0 0.0528692042
C  C220  1  0.90534000  0.97748000  0.27968000  1.0 0.1792389338
C  C221  1  0.52491000  0.08191000  0.80871000  1.0 -0.1471498499
C  C222  1  0.57828000  0.16048000  0.77198000  1.0 -0.1781485046
C  C223  1  0.59070000  0.02170000  0.02190000  1.0 -0.0142626504
C  C224  1  0.68270000  0.07030000  0.05150000  1.0 -0.1006692709
C  C225  1  0.36468000  0.24348000  0.94390000  1.0 -0.1471498499
C  C226  1  0.39539000  0.34879000  0.93230000  1.0 -0.1697008438
C  C227  1  0.84387000  0.98133000  0.31101000  1.0 0.0528692042
C  C228  1  0.51776000  0.05436000  0.76092000  1.0 -0.0923195495
C  C229  1  0.57066000  0.13426000  0.72389000  1.0 -0.1101629643
C  C230  1  0.61910000  0.96290000  0.06380000  1.0 -0.06871198
C  C231  1  0.70640000  0.01360000  0.09590000  1.0 -0.0923195495
C  C232  1  0.29875000  0.27795000  0.95340000  1.0 -0.0923195495
C  C233  1  0.32988000  0.38392000  0.94130000  1.0 -0.1006692709
C  C234  1  0.78490000  0.03944000  0.30164000  1.0 -0.1697008438
C  C235  1  0.84560000  0.92614000  0.35070000  1.0 -0.132373946
C  C236  1  0.54053000  0.08075000  0.71824000  1.0 -0.0260053521
C  C237  1  0.66920000  0.96380000  0.10600000  1.0 0.0414923651
C  C238  1  0.28188000  0.34756000  0.95390000  1.0 -0.0371811271
C  C239  1  0.72978000  0.04046000  0.33085000  1.0 -0.1006692709
C  C240  1  0.79200000  0.92726000  0.38103000  1.0 -0.0776629525
C  C241  1  0.53072000  0.05658000  0.66519000  1.0 0.5935249662
C  C242  1  0.69120000  0.90900000  0.15260000  1.0 0.2899551724
C  C243  1  0.21017000  0.38621000  0.96423000  1.0 0.6032359486
C  C244  1  0.73270000  0.98540000  0.37047000  1.0 -0.0496724222
C  C245  1  0.67397000  0.98705000  0.40237000  1.0 0.5605151018
C  C246  1  0.70210000  0.87870000  0.13580000  1.0 0.2974462693
C  C247  1  0.67640000  0.94000000  0.09420000  1.0 0.0243276793
C  C248  1  0.60570000  0.97290000  0.07850000  1.0 -0.0776629525
C  C249  1  0.57980000  0.03540000  0.03990000  1.0 -0.0204858717
C  C250  1  0.62450000  0.06430000  0.01490000  1.0 0.0121238378
C  C251  1  0.69100000  0.01840000  0.01680000  1.0 -0.06871198
C  C252  1  0.71740000  0.95740000  0.05760000  1.0 -0.1006692709
C  C253  1  0.97256000  0.97256000  0.75000000  1.0 -0.3124862825
C  C254  1  0.08683000  0.08683000  0.75000000  1.0 -0.3192126626
C  C255  1  0.02744000  0.02744000  0.25000000  1.0 -0.3124862825
C  C256  1  0.91317000  0.91317000  0.25000000  1.0 -0.3192126626
O  O1  1  0.57014000  0.03614000  0.48518000  1.0 -0.390350532
O  O2  1  0.46595000  0.09655000  0.47190000  1.0 -0.3988919128
O  O3  1  0.55772000  0.15682000  0.40748000  1.0 -0.6609211479
O  O4  1  0.54274000  0.95494000  0.45200000  1.0 -0.3988919128
O  O5  1  0.43420000  0.01460000  0.43680000  1.0 -0.4300784732
O  O6  1  0.48906000  0.99972000  0.33815000  1.0 -0.6609211479
O  O7  1  0.61442000  0.02788000  0.38150000  1.0 -0.6469648296
O  O8  1  0.55980000  0.18292000  0.49150000  1.0 -0.6381683123
O  O9  1  0.64921000  0.08455000  0.56964000  1.0 -0.6349890346
O  O10  1  0.54374000  0.09644000  0.62653000  1.0 -0.6381683123
O  O11  1  0.45320000  0.19304000  0.54747000  1.0 -0.6381683123
O  O12  1  0.70704000  0.98036000  0.54973000  1.0 -0.6609211479
O  O13  1  0.65173000  0.82671000  0.48484000  1.0 -0.6691889281
O  O14  1  0.68847000  0.94765000  0.44782000  1.0 -0.6469648296
O  O15  1  0.14170000  0.33250000  0.65590000  1.0 -0.3124862825
O  O16  1  0.09230000  0.25150000  0.68150000  1.0 -0.2865472252
O  O17  1  0.14101000  0.33941000  0.66060000  1.0 -0.3816382105
O  O18  1  0.15480000  0.23420000  0.64050000  1.0 -0.2723707373
O  O19  1  0.59737000  0.04737000  0.48055000  1.0 -0.3988919128
O  O20  1  0.45156000  0.12716000  0.45940000  1.0 -0.3988919128
O  O21  1  0.44447000  0.06047000  0.56528000  1.0 -0.3988919128
O  O22  1  0.58560000  0.97820000  0.58330000  1.0 -0.3988919128
O  O23  1  0.03614000  0.57014000  0.01482000  1.0 -0.390350532
O  O24  1  0.09655000  0.46595000  0.02810000  1.0 -0.3988919128
O  O25  1  0.15682000  0.55772000  0.09252000  1.0 -0.6609211479
O  O26  1  0.95494000  0.54274000  0.04800000  1.0 -0.3988919128
O  O27  1  0.01460000  0.43420000  0.06320000  1.0 -0.4300784732
O  O28  1  0.99972000  0.48906000  0.16185000  1.0 -0.6609211479
O  O29  1  0.02788000  0.61442000  0.11850000  1.0 -0.6469648296
O  O30  1  0.18292000  0.55980000  0.00850000  1.0 -0.6381683123
O  O31  1  0.08455000  0.64921000  0.93036000  1.0 -0.6381683123
O  O32  1  0.09644000  0.54374000  0.87347000  1.0 -0.6381683123
O  O33  1  0.19304000  0.45320000  0.95253000  1.0 -0.6381683123
O  O34  1  0.98036000  0.70704000  0.95027000  1.0 -0.6609211479
O  O35  1  0.82671000  0.65173000  0.01516000  1.0 -0.6691889281
O  O36  1  0.94765000  0.68847000  0.05218000  1.0 -0.6469648296
O  O37  1  0.33250000  0.14170000  0.84410000  1.0 -0.3124862825
O  O38  1  0.25150000  0.09230000  0.81850000  1.0 -0.2865472252
O  O39  1  0.33941000  0.14101000  0.83940000  1.0 -0.3816382105
O  O40  1  0.23420000  0.15480000  0.85950000  1.0 -0.2723707373
O  O41  1  0.04737000  0.59737000  0.01945000  1.0 -0.3988919128
O  O42  1  0.12716000  0.45156000  0.04060000  1.0 -0.3988919128
O  O43  1  0.06047000  0.44447000  0.93472000  1.0 -0.3988919128
O  O44  1  0.97820000  0.58560000  0.91670000  1.0 -0.3988919128
O  O45  1  0.42986000  0.96386000  0.51482000  1.0 -0.390350532
O  O46  1  0.53405000  0.90345000  0.52810000  1.0 -0.4055560047
O  O47  1  0.44228000  0.84318000  0.59252000  1.0 -0.6609211479
O  O48  1  0.45726000  0.04506000  0.54800000  1.0 -0.3988919128
O  O49  1  0.56580000  0.98540000  0.56320000  1.0 -0.4300784732
O  O50  1  0.51094000  0.00028000  0.66185000  1.0 -0.6609211479
O  O51  1  0.38558000  0.97212000  0.61850000  1.0 -0.6469648296
O  O52  1  0.44020000  0.81708000  0.50850000  1.0 -0.6381683123
O  O53  1  0.35079000  0.91545000  0.43036000  1.0 -0.6381683123
O  O54  1  0.45626000  0.90356000  0.37347000  1.0 -0.6381683123
O  O55  1  0.54680000  0.80696000  0.45253000  1.0 -0.6381683123
O  O56  1  0.29296000  0.01964000  0.45027000  1.0 -0.6609211479
O  O57  1  0.34827000  0.17329000  0.51516000  1.0 -0.6691889281
O  O58  1  0.31153000  0.05235000  0.55218000  1.0 -0.6469648296
O  O59  1  0.85830000  0.66750000  0.34410000  1.0 -0.3124862825
O  O60  1  0.90770000  0.74850000  0.31850000  1.0 -0.2865472252
O  O61  1  0.85899000  0.66059000  0.33940000  1.0 -0.3816382105
O  O62  1  0.84520000  0.76580000  0.35950000  1.0 -0.2723707373
O  O63  1  0.40263000  0.95263000  0.51945000  1.0 -0.3988919128
O  O64  1  0.54844000  0.87284000  0.54060000  1.0 -0.3988919128
O  O65  1  0.55553000  0.93953000  0.43472000  1.0 -0.3988919128
O  O66  1  0.41440000  0.02180000  0.41670000  1.0 -0.3988919128
O  O67  1  0.96386000  0.42986000  0.98518000  1.0 -0.390350532
O  O68  1  0.90345000  0.53405000  0.97190000  1.0 -0.4055560047
O  O69  1  0.84318000  0.44228000  0.90748000  1.0 -0.6609211479
O  O70  1  0.04506000  0.45726000  0.95200000  1.0 -0.3988919128
O  O71  1  0.98540000  0.56580000  0.93680000  1.0 -0.4300784732
O  O72  1  0.00028000  0.51094000  0.83815000  1.0 -0.6609211479
O  O73  1  0.97212000  0.38558000  0.88150000  1.0 -0.6469648296
O  O74  1  0.81708000  0.44020000  0.99150000  1.0 -0.6381683123
O  O75  1  0.91545000  0.35079000  0.06964000  1.0 -0.6349890346
O  O76  1  0.90356000  0.45626000  0.12653000  1.0 -0.6381683123
O  O77  1  0.80696000  0.54680000  0.04747000  1.0 -0.6381683123
O  O78  1  0.01964000  0.29296000  0.04973000  1.0 -0.6609211479
O  O79  1  0.17329000  0.34827000  0.98484000  1.0 -0.6691889281
O  O80  1  0.05235000  0.31153000  0.94782000  1.0 -0.6469648296
O  O81  1  0.66750000  0.85830000  0.15590000  1.0 -0.3124862825
O  O82  1  0.74850000  0.90770000  0.18150000  1.0 -0.2865472252
O  O83  1  0.66059000  0.85899000  0.16060000  1.0 -0.3816382105
O  O84  1  0.76580000  0.84520000  0.14050000  1.0 -0.2723707373
O  O85  1  0.95263000  0.40263000  0.98055000  1.0 -0.3988919128
O  O86  1  0.87284000  0.54844000  0.95940000  1.0 -0.3988919128
O  O87  1  0.93953000  0.55553000  0.06528000  1.0 -0.3988919128
O  O88  1  0.02180000  0.41440000  0.08330000  1.0 -0.3988919128
