# DDEC6 charges by PACMAN v1.1 (https://github.com/mtap-research/PACMAN-charge/)
data_FOQHUR_FSR_pacman
_symmetry_space_group_name_H-M   'P 1'
_cell_length_a   20.35590000
_cell_length_b   20.35590000
_cell_length_c   20.35590000
_cell_angle_alpha   94.86260000
_cell_angle_beta   94.86260000
_cell_angle_gamma   146.14700000
_symmetry_Int_Tables_number   1
_chemical_formula_structural   Zn4Mo12PH32C48(NO5)8
_chemical_formula_sum   'Zn8 Mo24 P2 H64 C96 N16 O80'
_cell_volume   4495.12425851
_cell_formula_units_Z   2
loop_
 _symmetry_equiv_pos_site_id
 _symmetry_equiv_pos_as_xyz
  1  'x, y, z'
loop_
 _atom_site_type_symbol
 _atom_site_label
 _atom_site_symmetry_multiplicity
 _atom_site_fract_x
 _atom_site_fract_y
 _atom_site_fract_z
 _atom_site_occupancy
 _atom_site_charge
Zn  Zn1  1  0.44025000  0.33080000  0.10945000  1.0 0.8050910837
Zn  Zn2  1  0.22135000  0.33080000  0.89055000  1.0 0.8046169884
Zn  Zn3  1  0.58080000  0.19025000  0.60945000  1.0 0.8050910837
Zn  Zn4  1  0.58080000  0.97135000  0.39055000  1.0 0.8050910837
Zn  Zn5  1  0.80975000  0.41920000  0.39055000  1.0 0.8050910837
Zn  Zn6  1  0.02865000  0.41920000  0.60945000  1.0 0.8050910837
Zn  Zn7  1  0.66920000  0.77865000  0.10945000  1.0 0.8050910837
Zn  Zn8  1  0.66920000  0.55975000  0.89055000  1.0 0.8050910837
Mo  Mo1  1  0.35020000  0.52811000  0.05309000  1.0 2.0131911344
Mo  Mo2  1  0.47502000  0.29711000  0.94691000  1.0 2.0131911344
Mo  Mo3  1  0.54711000  0.10020000  0.32209000  1.0 2.0131911344
Mo  Mo4  1  0.77811000  0.22502000  0.67791000  1.0 2.0131911344
Mo  Mo5  1  0.89980000  0.45289000  0.67791000  1.0 2.0131911344
Mo  Mo6  1  0.77498000  0.22189000  0.32209000  1.0 2.0131911344
Mo  Mo7  1  0.70289000  0.52498000  0.05309000  1.0 2.0131911344
Mo  Mo8  1  0.47189000  0.64980000  0.94691000  1.0 2.0131911344
Mo  Mo9  1  0.89980000  0.22189000  0.44691000  1.0 2.0131911344
Mo  Mo10  1  0.77498000  0.45289000  0.55309000  1.0 2.0131911344
Mo  Mo11  1  0.70289000  0.64980000  0.17791000  1.0 2.0131911344
Mo  Mo12  1  0.47189000  0.52498000  0.82209000  1.0 2.0131911344
Mo  Mo13  1  0.35020000  0.29711000  0.82209000  1.0 2.0131911344
Mo  Mo14  1  0.47502000  0.52811000  0.17791000  1.0 2.0131911344
Mo  Mo15  1  0.54711000  0.22502000  0.44691000  1.0 2.0131911344
Mo  Mo16  1  0.77811000  0.10020000  0.55309000  1.0 2.0131911344
Mo  Mo17  1  0.21207000  0.26056000  0.04849000  1.0 1.8401738561
Mo  Mo18  1  0.21207000  0.16358000  0.95151000  1.0 1.8401738561
Mo  Mo19  1  0.41358000  0.96207000  0.45151000  1.0 1.8401738561
Mo  Mo20  1  0.51056000  0.96207000  0.54849000  1.0 1.8401738561
Mo  Mo21  1  0.03793000  0.58642000  0.54849000  1.0 1.8401738561
Mo  Mo22  1  0.03793000  0.48944000  0.45151000  1.0 1.8401738561
Mo  Mo23  1  0.83642000  0.78793000  0.04849000  1.0 1.8401738561
Mo  Mo24  1  0.73944000  0.78793000  0.95151000  1.0 1.8401738561
P  P1  1  0.50000000  0.50000000  0.00000000  1.0 1.4117402441
P  P2  1  0.75000000  0.25000000  0.50000000  1.0 1.4117402441
H  H1  1  0.51460000  0.28337000  0.20684000  1.0 0.0792253434
H  H2  1  0.41554000  0.12967000  0.25950000  1.0 0.1003958441
H  H3  1  0.09745000  0.91362000  0.13321000  1.0 0.1226315859
H  H4  1  0.20282000  0.07360000  0.08894000  1.0 0.0792253434
H  H5  1  0.07654000  0.30776000  0.79316000  1.0 0.0792253434
H  H6  1  0.87016000  0.15604000  0.74050000  1.0 0.1003958441
H  H7  1  0.78041000  0.96424000  0.86679000  1.0 0.1226315859
H  H8  1  0.98466000  0.11388000  0.91106000  1.0 0.0792253434
H  H9  1  0.55776000  0.26460000  0.73122000  1.0 0.0792253434
H  H10  1  0.40604000  0.16554000  0.78588000  1.0 0.1003958441
H  H11  1  0.21424000  0.84745000  0.68383000  1.0 0.1226315859
H  H12  1  0.36388000  0.95282000  0.62922000  1.0 0.0792253434
H  H13  1  0.53338000  0.82654000  0.26878000  1.0 0.0792253434
H  H14  1  0.37967000  0.62016000  0.21412000  1.0 0.1003958441
H  H15  1  0.16362000  0.53041000  0.31617000  1.0 0.1226315859
H  H16  1  0.32360000  0.73466000  0.37078000  1.0 0.0792253434
H  H17  1  0.73541000  0.44225000  0.26878000  1.0 0.0792253434
H  H18  1  0.83446000  0.59396000  0.21412000  1.0 0.1003958441
H  H19  1  0.15255000  0.78576000  0.31617000  1.0 0.1226315859
H  H20  1  0.04718000  0.63612000  0.37078000  1.0 0.0792253434
H  H21  1  0.17347000  0.46663000  0.73122000  1.0 0.0792253434
H  H22  1  0.37983000  0.62033000  0.78588000  1.0 0.1003958441
H  H23  1  0.46959000  0.83638000  0.68383000  1.0 0.1226315859
H  H24  1  0.26534000  0.67640000  0.62922000  1.0 0.0792253434
H  H25  1  0.69224000  0.92346000  0.20684000  1.0 0.0792253434
H  H26  1  0.84396000  0.12984000  0.25950000  1.0 0.1003958441
H  H27  1  0.03576000  0.21959000  0.13321000  1.0 0.1226315859
H  H28  1  0.88612000  0.01534000  0.08894000  1.0 0.0792253434
H  H29  1  0.71662000  0.48541000  0.79316000  1.0 0.0792253434
H  H30  1  0.87033000  0.58445000  0.74050000  1.0 0.1003958441
H  H31  1  0.08638000  0.90255000  0.86679000  1.0 0.1226315859
H  H32  1  0.92640000  0.79718000  0.91106000  1.0 0.0792253434
H  H33  1  0.73540000  0.46663000  0.29316000  1.0 0.0792253434
H  H34  1  0.83446000  0.62033000  0.24050000  1.0 0.1003958441
H  H35  1  0.15255000  0.83638000  0.36679000  1.0 0.1226315859
H  H36  1  0.04718000  0.67640000  0.41106000  1.0 0.0792253434
H  H37  1  0.17347000  0.44225000  0.70684000  1.0 0.0792253434
H  H38  1  0.37983000  0.59396000  0.75950000  1.0 0.1003958441
H  H39  1  0.46959000  0.78576000  0.63321000  1.0 0.1226315859
H  H40  1  0.26534000  0.63612000  0.58894000  1.0 0.0792253434
H  H41  1  0.69224000  0.48541000  0.76878000  1.0 0.0792253434
H  H42  1  0.84396000  0.58445000  0.71412000  1.0 0.1003958441
H  H43  1  0.03576000  0.90255000  0.81617000  1.0 0.1226315859
H  H44  1  0.88612000  0.79718000  0.87078000  1.0 0.0792253434
H  H45  1  0.71662000  0.92346000  0.23122000  1.0 0.0792253434
H  H46  1  0.87033000  0.12984000  0.28588000  1.0 0.1003958441
H  H47  1  0.08638000  0.21959000  0.18383000  1.0 0.1226315859
H  H48  1  0.92640000  0.01534000  0.12922000  1.0 0.0792253434
H  H49  1  0.51460000  0.30776000  0.23122000  1.0 0.0792253434
H  H50  1  0.41554000  0.15604000  0.28588000  1.0 0.1003958441
H  H51  1  0.09745000  0.96424000  0.18383000  1.0 0.1226315859
H  H52  1  0.20282000  0.11388000  0.12922000  1.0 0.0792253434
H  H53  1  0.07654000  0.28337000  0.76878000  1.0 0.0792253434
H  H54  1  0.87017000  0.12967000  0.71412000  1.0 0.1003958441
H  H55  1  0.78041000  0.91362000  0.81617000  1.0 0.1226315859
H  H56  1  0.98466000  0.07360000  0.87078000  1.0 0.0792253434
H  H57  1  0.55776000  0.82654000  0.29316000  1.0 0.0792253434
H  H58  1  0.40605000  0.62016000  0.24050000  1.0 0.1003958441
H  H59  1  0.21424000  0.53041000  0.36679000  1.0 0.1226315859
H  H60  1  0.36388000  0.73466000  0.41106000  1.0 0.0792253434
H  H61  1  0.53338000  0.26460000  0.70684000  1.0 0.0792253434
H  H62  1  0.37967000  0.16555000  0.75950000  1.0 0.1003958441
H  H63  1  0.16362000  0.84745000  0.63321000  1.0 0.1226315859
H  H64  1  0.32360000  0.95282000  0.58894000  1.0 0.0792253434
C  C1  1  0.42650000  0.20740000  0.19350000  1.0 0.0090720262
C  C2  1  0.36860000  0.11610000  0.22410000  1.0 -0.0447128244
C  C3  1  0.24640000  0.00850000  0.20470000  1.0 0.0872287683
C  C4  1  0.18470000  0.99220000  0.15190000  1.0 -0.0753427663
C  C5  1  0.24790000  0.08680000  0.12590000  1.0 0.0536684112
C  C6  1  0.18700000  0.94840000  0.27500000  1.0 -0.0447128244
C  C7  1  0.01390000  0.23300000  0.80650000  1.0 0.0090720262
C  C8  1  0.89200000  0.14450000  0.77590000  1.0 -0.0447128244
C  C9  1  0.80380000  0.04170000  0.79530000  1.0 0.0872287683
C  C10  1  0.84030000  0.03280000  0.84810000  1.0 -0.0747493425
C  C11  1  0.96090000  0.12200000  0.87410000  1.0 0.0536684112
C  C12  1  0.67340000  0.91200000  0.72500000  1.0 -0.0447128244
C  C13  1  0.48300000  0.17650000  0.71910000  1.0 0.0090720262
C  C14  1  0.39450000  0.11860000  0.75250000  1.0 -0.0476613112
C  C15  1  0.29170000  0.99640000  0.73790000  1.0 0.0872287683
C  C16  1  0.28280000  0.93470000  0.69250000  1.0 -0.0747493425
C  C17  1  0.37200000  0.99790000  0.66110000  1.0 0.0536684112
C  C18  1  0.16200000  0.93700000  0.73860000  1.0 -0.0447128244
C  C19  1  0.45740000  0.76390000  0.28090000  1.0 0.0090720262
C  C20  1  0.36610000  0.64200000  0.24750000  1.0 -0.0476613112
C  C21  1  0.25850000  0.55380000  0.26210000  1.0 0.0872287683
C  C22  1  0.24220000  0.59030000  0.30750000  1.0 -0.0753427663
C  C23  1  0.33680000  0.71090000  0.33890000  1.0 0.0536684112
C  C24  1  0.19840000  0.42340000  0.26140000  1.0 -0.0447128244
C  C25  1  0.82350000  0.51700000  0.28090000  1.0 0.0090720262
C  C26  1  0.88140000  0.60550000  0.24750000  1.0 -0.0447128244
C  C27  1  0.00360000  0.70830000  0.26210000  1.0 0.0872287683
C  C28  1  0.06530000  0.71720000  0.30750000  1.0 -0.0753427663
C  C29  1  0.00210000  0.62800000  0.33890000  1.0 0.0536684112
C  C30  1  0.06300000  0.83800000  0.26140000  1.0 -0.0476613112
C  C31  1  0.23610000  0.54260000  0.71910000  1.0 0.0090720262
C  C32  1  0.35800000  0.63390000  0.75250000  1.0 -0.0476613112
C  C33  1  0.44620000  0.74150000  0.73790000  1.0 0.0872287683
C  C34  1  0.40970000  0.75780000  0.69250000  1.0 -0.0747493425
C  C35  1  0.28910000  0.66320000  0.66110000  1.0 0.0536684112
C  C36  1  0.57660000  0.80160000  0.73860000  1.0 -0.0447128244
C  C37  1  0.76700000  0.98610000  0.19350000  1.0 0.0090720262
C  C38  1  0.85550000  0.10800000  0.22410000  1.0 -0.0447128244
C  C39  1  0.95830000  0.19620000  0.20470000  1.0 0.0872287683
C  C40  1  0.96720000  0.15970000  0.15190000  1.0 -0.0747493425
C  C41  1  0.87800000  0.03910000  0.12590000  1.0 0.0536684112
C  C42  1  0.08800000  0.32660000  0.27500000  1.0 -0.0447128244
C  C43  1  0.79260000  0.57350000  0.80650000  1.0 0.0090720262
C  C44  1  0.88390000  0.63140000  0.77590000  1.0 -0.0447128244
C  C45  1  0.99150000  0.75360000  0.79530000  1.0 0.0872287683
C  C46  1  0.00780000  0.81530000  0.84810000  1.0 -0.0747493425
C  C47  1  0.91320000  0.75210000  0.87410000  1.0 0.0536684112
C  C48  1  0.05160000  0.81300000  0.72500000  1.0 -0.0447128244
C  C49  1  0.82350000  0.54260000  0.30650000  1.0 0.0090720262
C  C50  1  0.88140000  0.63390000  0.27590000  1.0 -0.0447128244
C  C51  1  0.00360000  0.74150000  0.29530000  1.0 0.0872287683
C  C52  1  0.06530000  0.75780000  0.34810000  1.0 -0.0753427663
C  C53  1  0.00210000  0.66320000  0.37410000  1.0 0.0536684112
C  C54  1  0.06300000  0.80160000  0.22500000  1.0 -0.0476613112
C  C55  1  0.23610000  0.51700000  0.69350000  1.0 0.0090720262
C  C56  1  0.35800000  0.60550000  0.72410000  1.0 -0.0476613112
C  C57  1  0.44620000  0.70830000  0.70470000  1.0 0.0872287683
C  C58  1  0.40970000  0.71720000  0.65190000  1.0 -0.0747493425
C  C59  1  0.28910000  0.62800000  0.62590000  1.0 0.0536684112
C  C60  1  0.57660000  0.83800000  0.77500000  1.0 -0.0447128244
C  C61  1  0.76700000  0.57350000  0.78090000  1.0 0.0090720262
C  C62  1  0.85550000  0.63140000  0.74750000  1.0 -0.0447128244
C  C63  1  0.95830000  0.75360000  0.76210000  1.0 0.0872287683
C  C64  1  0.96720000  0.81530000  0.80750000  1.0 -0.0747493425
C  C65  1  0.87800000  0.75210000  0.83890000  1.0 0.0536684112
C  C66  1  0.08800000  0.81300000  0.76140000  1.0 -0.0447128244
C  C67  1  0.79260000  0.98610000  0.21910000  1.0 0.0090720262
C  C68  1  0.88390000  0.10800000  0.25250000  1.0 -0.0447128244
C  C69  1  0.99150000  0.19620000  0.23790000  1.0 0.0872287683
C  C70  1  0.00780000  0.15970000  0.19250000  1.0 -0.0753427663
C  C71  1  0.91320000  0.03910000  0.16110000  1.0 0.0536684112
C  C72  1  0.05160000  0.32660000  0.23860000  1.0 -0.0447128244
C  C73  1  0.42650000  0.23300000  0.21910000  1.0 0.0090720262
C  C74  1  0.36860000  0.14450000  0.25250000  1.0 -0.0447128244
C  C75  1  0.24640000  0.04170000  0.23790000  1.0 0.0872287683
C  C76  1  0.18470000  0.03280000  0.19250000  1.0 -0.0753427663
C  C77  1  0.24790000  0.12200000  0.16110000  1.0 0.0536684112
C  C78  1  0.18700000  0.91200000  0.23860000  1.0 -0.0447128244
C  C79  1  0.01390000  0.20740000  0.78090000  1.0 0.0090720262
C  C80  1  0.89200000  0.11610000  0.74750000  1.0 -0.0447128244
C  C81  1  0.80380000  0.00850000  0.76210000  1.0 0.0872287683
C  C82  1  0.84030000  0.99220000  0.80750000  1.0 -0.0747493425
C  C83  1  0.96090000  0.08680000  0.83890000  1.0 0.0536684112
C  C84  1  0.67340000  0.94840000  0.76140000  1.0 -0.0447128244
C  C85  1  0.48300000  0.76390000  0.30650000  1.0 0.0090720262
C  C86  1  0.39450000  0.64200000  0.27590000  1.0 -0.0476613112
C  C87  1  0.29170000  0.55380000  0.29530000  1.0 0.0872287683
C  C88  1  0.28280000  0.59030000  0.34810000  1.0 -0.0753427663
C  C89  1  0.37200000  0.71090000  0.37410000  1.0 0.0536684112
C  C90  1  0.16200000  0.42340000  0.22500000  1.0 -0.0447128244
C  C91  1  0.45740000  0.17650000  0.69350000  1.0 0.0090720262
C  C92  1  0.36610000  0.11860000  0.72410000  1.0 -0.0476613112
C  C93  1  0.25850000  0.99640000  0.70470000  1.0 0.0872287683
C  C94  1  0.24220000  0.93470000  0.65190000  1.0 -0.0747493425
C  C95  1  0.33680000  0.99790000  0.62590000  1.0 0.0536684112
C  C96  1  0.19840000  0.93700000  0.77500000  1.0 -0.0447128244
N  N1  1  0.36540000  0.19420000  0.14780000  1.0 -0.0476613112
N  N2  1  0.04640000  0.21760000  0.85220000  1.0 -0.0476613112
N  N3  1  0.46760000  0.11540000  0.67120000  1.0 -0.0476613112
N  N4  1  0.44420000  0.79640000  0.32880000  1.0 -0.0476613112
N  N5  1  0.88460000  0.53240000  0.32880000  1.0 -0.0476613112
N  N6  1  0.20360000  0.55580000  0.67120000  1.0 -0.0476613112
N  N7  1  0.78240000  0.95360000  0.14780000  1.0 -0.0476613112
N  N8  1  0.80580000  0.63460000  0.85220000  1.0 -0.0476613112
N  N9  1  0.88460000  0.55580000  0.35220000  1.0 -0.0476613112
N  N10  1  0.20360000  0.53240000  0.64780000  1.0 -0.0476613112
N  N11  1  0.78240000  0.63460000  0.82880000  1.0 -0.0476613112
N  N12  1  0.80580000  0.95360000  0.17120000  1.0 -0.0476613112
N  N13  1  0.36540000  0.21760000  0.17120000  1.0 -0.0476613112
N  N14  1  0.04640000  0.19420000  0.82880000  1.0 -0.0476613112
N  N15  1  0.46760000  0.79640000  0.35220000  1.0 -0.0476613112
N  N16  1  0.44420000  0.11540000  0.64780000  1.0 -0.0476613112
O  O1  1  0.21280000  0.35946000  0.04806000  1.0 -0.828320279
O  O2  1  0.51930000  0.68580000  0.04730000  1.0 -0.8662591756
O  O3  1  0.29690000  0.55980000  0.06410000  1.0 -0.6085673676
O  O4  1  0.31140000  0.16474000  0.95194000  1.0 -0.828320279
O  O5  1  0.63850000  0.47200000  0.95270000  1.0 -0.8662591756
O  O6  1  0.49570000  0.23280000  0.93590000  1.0 -0.6085673676
O  O7  1  0.41474000  0.96280000  0.35334000  1.0 -0.828320279
O  O8  1  0.72200000  0.26930000  0.33350000  1.0 -0.8662591756
O  O9  1  0.48280000  0.04690000  0.23710000  1.0 -0.6085673676
O  O10  1  0.60946000  0.06140000  0.64666000  1.0 -0.828320279
O  O11  1  0.93580000  0.38850000  0.66650000  1.0 -0.8662591756
O  O12  1  0.80980000  0.24570000  0.76290000  1.0 -0.6085673676
O  O13  1  0.03720000  0.58526000  0.64666000  1.0 -0.828320279
O  O14  1  0.73070000  0.27800000  0.66650000  1.0 -0.8662591756
O  O15  1  0.95310000  0.51720000  0.76290000  1.0 -0.6085673676
O  O16  1  0.93860000  0.39054000  0.35334000  1.0 -0.828320279
O  O17  1  0.61150000  0.06420000  0.33350000  1.0 -0.8662591756
O  O18  1  0.75430000  0.19020000  0.23710000  1.0 -0.6085673676
O  O19  1  0.83526000  0.68860000  0.04806000  1.0 -0.828320279
O  O20  1  0.52800000  0.36150000  0.04730000  1.0 -0.8662591756
O  O21  1  0.76720000  0.50430000  0.06410000  1.0 -0.6085673676
O  O22  1  0.64054000  0.78720000  0.95194000  1.0 -0.828320279
O  O23  1  0.31420000  0.48070000  0.95270000  1.0 -0.8662591756
O  O24  1  0.44020000  0.70310000  0.93590000  1.0 -0.6085673676
O  O25  1  0.03720000  0.39054000  0.45194000  1.0 -0.828320279
O  O26  1  0.73070000  0.06420000  0.45270000  1.0 -0.8662591756
O  O27  1  0.95310000  0.19020000  0.43590000  1.0 -0.6085673676
O  O28  1  0.93860000  0.58526000  0.54806000  1.0 -0.828320279
O  O29  1  0.61150000  0.27800000  0.54730000  1.0 -0.8662591756
O  O30  1  0.75430000  0.51720000  0.56410000  1.0 -0.6085673676
O  O31  1  0.83526000  0.78720000  0.14666000  1.0 -0.828320279
O  O32  1  0.52800000  0.48070000  0.16650000  1.0 -0.8662591756
O  O33  1  0.76720000  0.70310000  0.26290000  1.0 -0.6085673676
O  O34  1  0.64054000  0.68860000  0.85334000  1.0 -0.828320279
O  O35  1  0.31420000  0.36150000  0.83350000  1.0 -0.8662591756
O  O36  1  0.44020000  0.50430000  0.73710000  1.0 -0.6085673676
O  O37  1  0.21280000  0.16474000  0.85334000  1.0 -0.828320279
O  O38  1  0.51930000  0.47200000  0.83350000  1.0 -0.8662591756
O  O39  1  0.29690000  0.23280000  0.73710000  1.0 -0.6085673676
O  O40  1  0.31140000  0.35946000  0.14666000  1.0 -0.828320279
O  O41  1  0.63850000  0.68580000  0.16650000  1.0 -0.8662591756
O  O42  1  0.49570000  0.55980000  0.26290000  1.0 -0.6085673676
O  O43  1  0.41474000  0.06140000  0.45194000  1.0 -0.828320279
O  O44  1  0.72200000  0.38850000  0.45270000  1.0 -0.8662591756
O  O45  1  0.48280000  0.24570000  0.43590000  1.0 -0.6085673676
O  O46  1  0.60946000  0.96280000  0.54806000  1.0 -0.828320279
O  O47  1  0.93580000  0.26930000  0.54730000  1.0 -0.8662591756
O  O48  1  0.80980000  0.04690000  0.56410000  1.0 -0.6085673676
O  O49  1  0.42710000  0.57300000  0.14590000  1.0 -0.828320279
O  O50  1  0.07500000  0.13620000  0.06120000  1.0 -0.5193995231
O  O51  1  0.42450000  0.47030000  0.04580000  1.0 -0.8603610092
O  O52  1  0.42710000  0.28120000  0.85410000  1.0 -0.828320279
O  O53  1  0.07500000  0.01380000  0.93880000  1.0 -0.5193995231
O  O54  1  0.42450000  0.37870000  0.95420000  1.0 -0.8603610092
O  O55  1  0.53120000  0.17710000  0.35410000  1.0 -0.828320279
O  O56  1  0.26380000  0.82500000  0.43880000  1.0 -0.5193995231
O  O57  1  0.62870000  0.17450000  0.45420000  1.0 -0.8603610092
O  O58  1  0.82300000  0.17710000  0.64590000  1.0 -0.828320279
O  O59  1  0.38620000  0.82500000  0.56120000  1.0 -0.5193995231
O  O60  1  0.72030000  0.17450000  0.54580000  1.0 -0.8603610092
O  O61  1  0.82290000  0.46880000  0.64590000  1.0 -0.828320279
O  O62  1  0.17500000  0.73620000  0.56120000  1.0 -0.5193995231
O  O63  1  0.82550000  0.37130000  0.54580000  1.0 -0.8603610092
O  O64  1  0.82290000  0.17700000  0.35410000  1.0 -0.828320279
O  O65  1  0.17500000  0.61380000  0.43880000  1.0 -0.5193995231
O  O66  1  0.82550000  0.27970000  0.45420000  1.0 -0.8603610092
O  O67  1  0.71880000  0.57290000  0.14590000  1.0 -0.828320279
O  O68  1  0.98620000  0.92500000  0.06120000  1.0 -0.5193995231
O  O69  1  0.62130000  0.57550000  0.04580000  1.0 -0.8603610092
O  O70  1  0.42700000  0.57290000  0.85410000  1.0 -0.828320279
O  O71  1  0.86380000  0.92500000  0.93880000  1.0 -0.5193995231
O  O72  1  0.52970000  0.57550000  0.95420000  1.0 -0.8603610092
O  O73  1  0.28810000  0.23710000  0.05100000  1.0 -0.8459028595
O  O74  1  0.18610000  0.23710000  0.94900000  1.0 -0.8459028595
O  O75  1  0.48710000  0.03810000  0.55100000  1.0 -0.8459028595
O  O76  1  0.48710000  0.93610000  0.44900000  1.0 -0.8459028595
O  O77  1  0.96190000  0.51290000  0.44900000  1.0 -0.8459028595
O  O78  1  0.06390000  0.51290000  0.55100000  1.0 -0.8459028595
O  O79  1  0.76290000  0.81390000  0.05100000  1.0 -0.8459028595
O  O80  1  0.76290000  0.71190000  0.94900000  1.0 -0.8459028595
