# DDEC6 charges by PACMAN v1.1 (https://github.com/mtap-research/PACMAN-charge/)
data_FOQNOQ02_ASR_pacman
_symmetry_space_group_name_H-M   'P 1'
_cell_length_a   10.01500000
_cell_length_b   32.46700000
_cell_length_c   15.31700000
_cell_angle_alpha   90.00000000
_cell_angle_beta   107.51000000
_cell_angle_gamma   90.00000000
_symmetry_Int_Tables_number   1
_chemical_formula_structural   Cu3H14C28(NO6)4
_chemical_formula_sum   'Cu12 H56 C112 N16 O96'
_cell_volume   4749.65890519
_cell_formula_units_Z   4
loop_
 _symmetry_equiv_pos_site_id
 _symmetry_equiv_pos_as_xyz
  1  'x, y, z'
loop_
 _atom_site_type_symbol
 _atom_site_label
 _atom_site_symmetry_multiplicity
 _atom_site_fract_x
 _atom_site_fract_y
 _atom_site_fract_z
 _atom_site_occupancy
 _atom_site_charge
Cu  Cu1  1  0.99968000  0.27328000  0.34557000  1.0 0.9065235598
Cu  Cu2  1  0.50032000  0.77328000  0.65443000  1.0 0.9065235598
Cu  Cu3  1  0.00032000  0.72672000  0.65443000  1.0 0.9065235598
Cu  Cu4  1  0.49968000  0.22672000  0.34557000  1.0 0.9065235598
Cu  Cu5  1  0.97410000  0.21435000  0.49137000  1.0 0.969834928
Cu  Cu6  1  0.52590000  0.71435000  0.50863000  1.0 0.969834928
Cu  Cu7  1  0.02590000  0.78565000  0.50863000  1.0 0.969834928
Cu  Cu8  1  0.47410000  0.28565000  0.49137000  1.0 0.969834928
Cu  Cu9  1  0.23623000  0.21618000  0.41941000  1.0 0.938743983
Cu  Cu10  1  0.26377000  0.71618000  0.58059000  1.0 0.938743983
Cu  Cu11  1  0.76377000  0.78382000  0.58059000  1.0 0.938743983
Cu  Cu12  1  0.73623000  0.28382000  0.41941000  1.0 0.938743983
H  H1  1  0.99470000  0.19800000  0.34040000  1.0 0.3848104519
H  H2  1  0.50530000  0.69800000  0.65960000  1.0 0.3848104519
H  H3  1  0.00530000  0.80200000  0.65960000  1.0 0.3848104519
H  H4  1  0.49470000  0.30200000  0.34040000  1.0 0.3848104519
H  H5  1  0.98020000  0.29040000  0.49610000  1.0 0.3848104519
H  H6  1  0.51980000  0.79040000  0.50390000  1.0 0.3848104519
H  H7  1  0.01980000  0.70960000  0.50390000  1.0 0.3848104519
H  H8  1  0.48020000  0.20960000  0.49610000  1.0 0.3848104519
H  H9  1  0.29800000  0.08450000  0.45760000  1.0 0.1203020059
H  H10  1  0.20200000  0.58450000  0.54240000  1.0 0.1203020059
H  H11  1  0.70200000  0.91550000  0.54240000  1.0 0.1203020059
H  H12  1  0.79800000  0.41550000  0.45760000  1.0 0.1203020059
H  H13  1  0.32770000  0.01640000  0.49480000  1.0 0.0993319084
H  H14  1  0.17230000  0.51640000  0.50520000  1.0 0.0993319084
H  H15  1  0.67230000  0.98360000  0.50520000  1.0 0.0993319084
H  H16  1  0.82770000  0.48360000  0.49480000  1.0 0.0993319084
H  H17  1  0.08410000  0.09820000  0.63790000  1.0 0.1085911268
H  H18  1  0.41590000  0.59820000  0.36210000  1.0 0.1085911268
H  H19  1  0.91590000  0.90180000  0.36210000  1.0 0.1085911268
H  H20  1  0.58410000  0.40180000  0.63790000  1.0 0.1085911268
H  H21  1  0.51710000  0.90380000  0.69230000  1.0 0.1085911268
H  H22  1  0.98290000  0.40380000  0.30770000  1.0 0.1085911268
H  H23  1  0.48290000  0.09620000  0.30770000  1.0 0.1085911268
H  H24  1  0.01710000  0.59620000  0.69230000  1.0 0.1085911268
H  H25  1  0.11680000  0.88330000  0.56710000  1.0 0.1203020059
H  H26  1  0.38320000  0.38330000  0.43290000  1.0 0.1203020059
H  H27  1  0.88320000  0.11670000  0.43290000  1.0 0.1203020059
H  H28  1  0.61680000  0.61670000  0.56710000  1.0 0.1203020059
H  H29  1  0.07440000  0.95280000  0.55850000  1.0 0.1085911268
H  H30  1  0.42560000  0.45280000  0.44150000  1.0 0.1085911268
H  H31  1  0.92560000  0.04720000  0.44150000  1.0 0.1085911268
H  H32  1  0.57440000  0.54720000  0.55850000  1.0 0.1085911268
H  H33  1  0.08520000  0.30280000  0.10170000  1.0 0.1203020059
H  H34  1  0.41480000  0.80280000  0.89830000  1.0 0.1203020059
H  H35  1  0.91480000  0.69720000  0.89830000  1.0 0.1203020059
H  H36  1  0.58520000  0.19720000  0.10170000  1.0 0.1203020059
H  H37  1  0.33060000  0.20150000  0.00420000  1.0 0.1085911268
H  H38  1  0.16940000  0.70150000  0.99580000  1.0 0.1085911268
H  H39  1  0.66940000  0.79850000  0.99580000  1.0 0.1085911268
H  H40  1  0.83060000  0.29850000  0.00420000  1.0 0.1085911268
H  H41  1  0.29350000  0.19500000  0.14390000  1.0 0.1288256836
H  H42  1  0.20650000  0.69500000  0.85610000  1.0 0.1288256836
H  H43  1  0.70650000  0.80500000  0.85610000  1.0 0.1288256836
H  H44  1  0.79350000  0.30500000  0.14390000  1.0 0.1288256836
H  H45  1  0.16550000  0.20450000  0.83120000  1.0 0.0993319084
H  H46  1  0.33450000  0.70450000  0.16880000  1.0 0.0993319084
H  H47  1  0.83450000  0.79550000  0.16880000  1.0 0.0993319084
H  H48  1  0.66550000  0.29550000  0.83120000  1.0 0.0993319084
H  H49  1  0.18370000  0.20640000  0.68500000  1.0 0.1288256836
H  H50  1  0.31630000  0.70640000  0.31500000  1.0 0.1288256836
H  H51  1  0.81630000  0.79360000  0.31500000  1.0 0.1288256836
H  H52  1  0.68370000  0.29360000  0.68500000  1.0 0.1288256836
H  H53  1  0.40840000  0.30990000  0.74780000  1.0 0.0993319084
H  H54  1  0.09160000  0.80990000  0.25220000  1.0 0.0993319084
H  H55  1  0.59160000  0.69010000  0.25220000  1.0 0.0993319084
H  H56  1  0.90840000  0.19010000  0.74780000  1.0 0.0993319084
C  C1  1  0.15950000  0.14280000  0.51330000  1.0 0.5799283378
C  C2  1  0.34050000  0.64280000  0.48670000  1.0 0.5799283378
C  C3  1  0.84050000  0.85720000  0.48670000  1.0 0.5799283378
C  C4  1  0.65950000  0.35720000  0.51330000  1.0 0.5799283378
C  C5  1  0.18620000  0.09876000  0.54260000  1.0 -0.0041341765
C  C6  1  0.31380000  0.59876000  0.45740000  1.0 -0.0041341765
C  C7  1  0.81380000  0.90124000  0.45740000  1.0 -0.0041341765
C  C8  1  0.68620000  0.40124000  0.54260000  1.0 -0.0041341765
C  C9  1  0.26160000  0.07370000  0.50190000  1.0 -0.1519143148
C  C10  1  0.23840000  0.57370000  0.49810000  1.0 -0.1519143148
C  C11  1  0.73840000  0.92630000  0.49810000  1.0 -0.1519143148
C  C12  1  0.76160000  0.42630000  0.50190000  1.0 -0.1519143148
C  C13  1  0.28290000  0.03310000  0.52650000  1.0 -0.190298106
C  C14  1  0.21710000  0.53310000  0.47350000  1.0 -0.190298106
C  C15  1  0.71710000  0.96690000  0.47350000  1.0 -0.190298106
C  C16  1  0.78290000  0.46690000  0.52650000  1.0 -0.190298106
C  C17  1  0.24080000  0.01616000  0.59590000  1.0 -0.0303201344
C  C18  1  0.25920000  0.51616000  0.40410000  1.0 -0.0303201344
C  C19  1  0.75920000  0.98384000  0.40410000  1.0 -0.0303201344
C  C20  1  0.74080000  0.48384000  0.59590000  1.0 -0.0303201344
C  C21  1  0.16390000  0.04110000  0.63530000  1.0 -0.1166741172
C  C22  1  0.33610000  0.54110000  0.36470000  1.0 -0.1166741172
C  C23  1  0.83610000  0.95890000  0.36470000  1.0 -0.1166741172
C  C24  1  0.66390000  0.45890000  0.63530000  1.0 -0.1166741172
C  C25  1  0.13610000  0.08204000  0.60990000  1.0 -0.1805356922
C  C26  1  0.36390000  0.58204000  0.39010000  1.0 -0.1805356922
C  C27  1  0.86390000  0.91796000  0.39010000  1.0 -0.1805356922
C  C28  1  0.63610000  0.41796000  0.60990000  1.0 -0.1805356922
C  C29  1  0.26750000  0.97102000  0.61700000  1.0 -0.009942865
C  C30  1  0.23250000  0.47102000  0.38300000  1.0 -0.009942865
C  C31  1  0.73250000  0.02898000  0.38300000  1.0 -0.009942865
C  C32  1  0.76750000  0.52898000  0.61700000  1.0 -0.009942865
C  C33  1  0.40050000  0.95503000  0.65570000  1.0 -0.1413413244
C  C34  1  0.09950000  0.45503000  0.34430000  1.0 -0.1413413244
C  C35  1  0.59950000  0.04497000  0.34430000  1.0 -0.1413413244
C  C36  1  0.90050000  0.54497000  0.65570000  1.0 -0.1413413244
C  C37  1  0.42710000  0.91334000  0.66360000  1.0 -0.1614871542
C  C38  1  0.07290000  0.41334000  0.33640000  1.0 -0.1614871542
C  C39  1  0.57290000  0.08666000  0.33640000  1.0 -0.1614871542
C  C40  1  0.92710000  0.58666000  0.66360000  1.0 -0.1614871542
C  C41  1  0.31970000  0.88616000  0.62870000  1.0 0.013996345
C  C42  1  0.18030000  0.38616000  0.37130000  1.0 0.013996345
C  C43  1  0.68030000  0.11384000  0.37130000  1.0 0.013996345
C  C44  1  0.81970000  0.61384000  0.62870000  1.0 0.013996345
C  C45  1  0.19100000  0.90140000  0.59050000  1.0 -0.112411383
C  C46  1  0.30900000  0.40140000  0.40950000  1.0 -0.112411383
C  C47  1  0.80900000  0.09860000  0.40950000  1.0 -0.112411383
C  C48  1  0.69100000  0.59860000  0.59050000  1.0 -0.112411383
C  C49  1  0.16540000  0.94350000  0.58510000  1.0 -0.1614871542
C  C50  1  0.33460000  0.44350000  0.41490000  1.0 -0.1614871542
C  C51  1  0.83460000  0.05650000  0.41490000  1.0 -0.1614871542
C  C52  1  0.66540000  0.55650000  0.58510000  1.0 -0.1614871542
C  C53  1  0.35020000  0.84066000  0.62970000  1.0 0.5799283378
C  C54  1  0.14980000  0.34066000  0.37030000  1.0 0.5799283378
C  C55  1  0.64980000  0.15934000  0.37030000  1.0 0.5799283378
C  C56  1  0.85020000  0.65934000  0.62970000  1.0 0.5799283378
C  C57  1  0.16130000  0.24660000  0.22870000  1.0 0.5799283378
C  C58  1  0.33870000  0.74660000  0.77130000  1.0 0.5799283378
C  C59  1  0.83870000  0.75340000  0.77130000  1.0 0.5799283378
C  C60  1  0.66130000  0.25340000  0.22870000  1.0 0.5799283378
C  C61  1  0.18770000  0.24866000  0.13990000  1.0 -0.0303201344
C  C62  1  0.31230000  0.74866000  0.86010000  1.0 -0.0303201344
C  C63  1  0.81230000  0.75134000  0.86010000  1.0 -0.0303201344
C  C64  1  0.68770000  0.25134000  0.13990000  1.0 -0.0303201344
C  C65  1  0.13490000  0.28230000  0.08270000  1.0 -0.1519143148
C  C66  1  0.36510000  0.78230000  0.91730000  1.0 -0.1519143148
C  C67  1  0.86510000  0.71770000  0.91730000  1.0 -0.1519143148
C  C68  1  0.63490000  0.21770000  0.08270000  1.0 -0.1519143148
C  C69  1  0.15680000  0.28490000  0.99840000  1.0 -0.0530152987
C  C70  1  0.34320000  0.78490000  0.00160000  1.0 -0.0530152987
C  C71  1  0.84320000  0.71510000  0.00160000  1.0 -0.0530152987
C  C72  1  0.65680000  0.21510000  0.99840000  1.0 -0.0530152987
C  C73  1  0.23470000  0.25560000  0.96700000  1.0 0.0169542011
C  C74  1  0.26530000  0.75560000  0.03300000  1.0 0.0169542011
C  C75  1  0.76530000  0.74440000  0.03300000  1.0 0.0169542011
C  C76  1  0.73470000  0.24440000  0.96700000  1.0 0.0169542011
C  C77  1  0.28200000  0.22210000  0.02370000  1.0 -0.1614871542
C  C78  1  0.21800000  0.72210000  0.97630000  1.0 -0.1614871542
C  C79  1  0.71800000  0.77790000  0.97630000  1.0 -0.1614871542
C  C80  1  0.78200000  0.27790000  0.02370000  1.0 -0.1614871542
C  C81  1  0.26010000  0.21813000  0.10810000  1.0 -0.088857857
C  C82  1  0.23990000  0.71813000  0.89190000  1.0 -0.088857857
C  C83  1  0.73990000  0.78187000  0.89190000  1.0 -0.088857857
C  C84  1  0.76010000  0.28187000  0.10810000  1.0 -0.088857857
C  C85  1  0.26470000  0.25730000  0.87680000  1.0 0.013996345
C  C86  1  0.23530000  0.75730000  0.12320000  1.0 0.013996345
C  C87  1  0.73530000  0.74270000  0.12320000  1.0 0.013996345
C  C88  1  0.76470000  0.24270000  0.87680000  1.0 0.013996345
C  C89  1  0.21150000  0.22650000  0.81400000  1.0 -0.1614871542
C  C90  1  0.28850000  0.72650000  0.18600000  1.0 -0.1614871542
C  C91  1  0.78850000  0.77350000  0.18600000  1.0 -0.1614871542
C  C92  1  0.71150000  0.27350000  0.81400000  1.0 -0.1614871542
C  C93  1  0.22380000  0.22710000  0.72650000  1.0 -0.101497983
C  C94  1  0.27620000  0.72710000  0.27350000  1.0 -0.101497983
C  C95  1  0.77620000  0.77290000  0.27350000  1.0 -0.101497983
C  C96  1  0.72380000  0.27290000  0.72650000  1.0 -0.101497983
C  C97  1  0.29650000  0.25894000  0.70150000  1.0 0.0039823214
C  C98  1  0.20350000  0.75894000  0.29850000  1.0 0.0039823214
C  C99  1  0.70350000  0.74106000  0.29850000  1.0 0.0039823214
C  C100  1  0.79650000  0.24106000  0.70150000  1.0 0.0039823214
C  C101  1  0.35710000  0.28896000  0.76420000  1.0 -0.1805356922
C  C102  1  0.14290000  0.78896000  0.23580000  1.0 -0.1805356922
C  C103  1  0.64290000  0.71104000  0.23580000  1.0 -0.1805356922
C  C104  1  0.85710000  0.21104000  0.76420000  1.0 -0.1805356922
C  C105  1  0.34310000  0.28850000  0.84980000  1.0 -0.0688395001
C  C106  1  0.15690000  0.78850000  0.15020000  1.0 -0.0688395001
C  C107  1  0.65690000  0.71150000  0.15020000  1.0 -0.0688395001
C  C108  1  0.84310000  0.21150000  0.84980000  1.0 -0.0688395001
C  C109  1  0.31120000  0.26054000  0.60640000  1.0 0.5954262359
C  C110  1  0.18880000  0.76054000  0.39360000  1.0 0.5954262359
C  C111  1  0.68880000  0.73946000  0.39360000  1.0 0.5954262359
C  C112  1  0.81120000  0.23946000  0.60640000  1.0 0.5954262359
N  N1  1  0.11660000  0.02650000  0.71260000  1.0 0.4209601027
N  N2  1  0.38340000  0.52650000  0.28740000  1.0 0.4209601027
N  N3  1  0.88340000  0.97350000  0.28740000  1.0 0.4209601027
N  N4  1  0.61660000  0.47350000  0.71260000  1.0 0.4209601027
N  N5  1  0.09370000  0.31850000  0.93980000  1.0 0.4536956889
N  N6  1  0.40630000  0.81850000  0.06020000  1.0 0.4536956889
N  N7  1  0.90630000  0.68150000  0.06020000  1.0 0.4536956889
N  N8  1  0.59370000  0.18150000  0.93980000  1.0 0.4536956889
N  N9  1  0.41430000  0.32050000  0.91410000  1.0 0.43876968
N  N10  1  0.08570000  0.82050000  0.08590000  1.0 0.43876968
N  N11  1  0.58570000  0.67950000  0.08590000  1.0 0.43876968
N  N12  1  0.91430000  0.17950000  0.91410000  1.0 0.43876968
N  N13  1  0.52500000  0.98300000  0.69130000  1.0 0.4025073317
N  N14  1  0.97500000  0.48300000  0.30870000  1.0 0.4025073317
N  N15  1  0.47500000  0.01700000  0.30870000  1.0 0.4025073317
N  N16  1  0.02500000  0.51700000  0.69130000  1.0 0.4025073317
O  O1  1  0.03350000  0.21554000  0.38140000  1.0 -0.8108004438
O  O2  1  0.46650000  0.71554000  0.61860000  1.0 -0.8108004438
O  O3  1  0.96650000  0.78446000  0.61860000  1.0 -0.8108004438
O  O4  1  0.53350000  0.28446000  0.38140000  1.0 -0.8108004438
O  O5  1  0.23680000  0.15730000  0.47050000  1.0 -0.5390290874
O  O6  1  0.26320000  0.65730000  0.52950000  1.0 -0.5390290874
O  O7  1  0.76320000  0.84270000  0.52950000  1.0 -0.5390290874
O  O8  1  0.73680000  0.34270000  0.47050000  1.0 -0.5390290874
O  O9  1  0.06080000  0.16043000  0.53420000  1.0 -0.5464378851
O  O10  1  0.43920000  0.66043000  0.46580000  1.0 -0.5464378851
O  O11  1  0.93920000  0.83957000  0.46580000  1.0 -0.5464378851
O  O12  1  0.56080000  0.33957000  0.53420000  1.0 -0.5464378851
O  O13  1  0.24600000  0.22589000  0.29180000  1.0 -0.5914397198
O  O14  1  0.25400000  0.72589000  0.70820000  1.0 -0.5914397198
O  O15  1  0.75400000  0.77411000  0.70820000  1.0 -0.5914397198
O  O16  1  0.74600000  0.27411000  0.29180000  1.0 -0.5914397198
O  O17  1  0.05480000  0.26522000  0.23540000  1.0 -0.5188296544
O  O18  1  0.44520000  0.76522000  0.76460000  1.0 -0.5188296544
O  O19  1  0.94520000  0.73478000  0.76460000  1.0 -0.5188296544
O  O20  1  0.55480000  0.23478000  0.23540000  1.0 -0.5188296544
O  O21  1  0.93420000  0.27381000  0.45520000  1.0 -0.7972010629
O  O22  1  0.56580000  0.77381000  0.54480000  1.0 -0.7972010629
O  O23  1  0.06580000  0.72619000  0.54480000  1.0 -0.7972010629
O  O24  1  0.43420000  0.22619000  0.45520000  1.0 -0.7972010629
O  O25  1  0.15700000  0.34210000  0.90420000  1.0 0.0169542011
O  O26  1  0.34300000  0.84210000  0.09580000  1.0 0.013996345
O  O27  1  0.84300000  0.65790000  0.09580000  1.0 0.013996345
O  O28  1  0.65700000  0.15790000  0.90420000  1.0 0.0169542011
O  O29  1  0.03930000  0.34560000  0.97230000  1.0 -0.2222706018
O  O30  1  0.46070000  0.84560000  0.02770000  1.0 -0.2222706018
O  O31  1  0.96070000  0.65440000  0.02770000  1.0 -0.2222706018
O  O32  1  0.53930000  0.15440000  0.97230000  1.0 -0.2222706018
O  O33  1  0.49460000  0.34340000  0.89060000  1.0 0.0459304904
O  O34  1  0.00540000  0.84340000  0.10940000  1.0 0.0459304904
O  O35  1  0.50540000  0.65660000  0.10940000  1.0 0.0459304904
O  O36  1  0.99460000  0.15660000  0.89060000  1.0 0.0459304904
O  O37  1  0.43630000  0.31560000  0.99550000  1.0 -0.3329175072
O  O38  1  0.06370000  0.81560000  0.00450000  1.0 -0.3329175072
O  O39  1  0.56370000  0.68440000  0.00450000  1.0 -0.3329175072
O  O40  1  0.93630000  0.18440000  0.99550000  1.0 -0.3329175072
O  O41  1  0.98890000  0.03190000  0.68660000  1.0 -0.101497983
O  O42  1  0.51110000  0.53190000  0.31340000  1.0 -0.101497983
O  O43  1  0.01110000  0.96810000  0.31340000  1.0 -0.101497983
O  O44  1  0.48890000  0.46810000  0.68660000  1.0 -0.101497983
O  O45  1  0.19310000  0.00300000  0.76620000  1.0 -0.0179976667
O  O46  1  0.30690000  0.50300000  0.23380000  1.0 -0.0179976667
O  O47  1  0.80690000  0.99700000  0.23380000  1.0 -0.0179976667
O  O48  1  0.69310000  0.49700000  0.76620000  1.0 -0.0179976667
O  O49  1  0.62780000  0.97290000  0.66910000  1.0 -0.088857857
O  O50  1  0.87220000  0.47290000  0.33090000  1.0 -0.088857857
O  O51  1  0.37220000  0.02710000  0.33090000  1.0 -0.088857857
O  O52  1  0.12780000  0.52710000  0.66910000  1.0 -0.088857857
O  O53  1  0.51290000  0.01900000  0.70980000  1.0 0.013996345
O  O54  1  0.98710000  0.51900000  0.29020000  1.0 0.0169542011
O  O55  1  0.48710000  0.98100000  0.29020000  1.0 0.013996345
O  O56  1  0.01290000  0.48100000  0.70980000  1.0 0.013996345
O  O57  1  0.41240000  0.28158000  0.59780000  1.0 -0.5284464615
O  O58  1  0.08760000  0.78158000  0.40220000  1.0 -0.5284464615
O  O59  1  0.58760000  0.71842000  0.40220000  1.0 -0.5284464615
O  O60  1  0.91240000  0.21842000  0.59780000  1.0 -0.5284464615
O  O61  1  0.22440000  0.24045000  0.54390000  1.0 -0.6175105231
O  O62  1  0.27560000  0.74045000  0.45610000  1.0 -0.6175105231
O  O63  1  0.77560000  0.75955000  0.45610000  1.0 -0.6175105231
O  O64  1  0.72440000  0.25955000  0.54390000  1.0 -0.6175105231
O  O65  1  0.25580000  0.81523000  0.59980000  1.0 -0.5914397198
O  O66  1  0.24420000  0.31523000  0.40020000  1.0 -0.5914397198
O  O67  1  0.74420000  0.18477000  0.40020000  1.0 -0.5914397198
O  O68  1  0.75580000  0.68477000  0.59980000  1.0 -0.5914397198
O  O69  1  0.48010000  0.83139000  0.66200000  1.0 -0.5188296544
O  O70  1  0.01990000  0.33139000  0.33800000  1.0 -0.5188296544
O  O71  1  0.51990000  0.16861000  0.33800000  1.0 -0.5188296544
O  O72  1  0.98010000  0.66861000  0.66200000  1.0 -0.5188296544
O  O73  1  0.04950000  0.31210000  0.85750000  1.0 -0.2222706018
O  O74  1  0.45050000  0.81210000  0.14250000  1.0 -0.2222706018
O  O75  1  0.95050000  0.68790000  0.14250000  1.0 -0.2222706018
O  O76  1  0.54950000  0.18790000  0.85750000  1.0 -0.2222706018
O  O77  1  0.42500000  0.35410000  0.88020000  1.0 0.0897696582
O  O78  1  0.07500000  0.85410000  0.11980000  1.0 0.0897696582
O  O79  1  0.57500000  0.64590000  0.11980000  1.0 0.0897696582
O  O80  1  0.92500000  0.14590000  0.88020000  1.0 0.0897696582
O  O81  1  0.05500000  0.05050000  0.74920000  1.0 -0.0603283676
O  O82  1  0.44500000  0.55050000  0.25080000  1.0 -0.0603283676
O  O83  1  0.94500000  0.94950000  0.25080000  1.0 -0.0603283676
O  O84  1  0.55500000  0.44950000  0.74920000  1.0 -0.0603283676
O  O85  1  0.12330000  0.99170000  0.74160000  1.0 0.0565645402
O  O86  1  0.37670000  0.49170000  0.25840000  1.0 0.0565645402
O  O87  1  0.87670000  0.00830000  0.25840000  1.0 0.0565645402
O  O88  1  0.62330000  0.50830000  0.74160000  1.0 0.0565645402
O  O89  1  0.63470000  0.96780000  0.73680000  1.0 0.0795834665
O  O90  1  0.86530000  0.46780000  0.26320000  1.0 0.0795834665
O  O91  1  0.36530000  0.03220000  0.26320000  1.0 0.0795834665
O  O92  1  0.13470000  0.53220000  0.73680000  1.0 0.0795834665
O  O93  1  0.49500000  0.00950000  0.73800000  1.0 0.026832813
O  O94  1  0.00500000  0.50950000  0.26200000  1.0 0.026832813
O  O95  1  0.50500000  0.99050000  0.26200000  1.0 0.026832813
O  O96  1  0.99500000  0.49050000  0.73800000  1.0 0.026832813
