# DDEC6 charges by PACMAN v1.1 (https://github.com/mtap-research/PACMAN-charge/)
data_FOQNUW01_ASR_pacman
_symmetry_space_group_name_H-M   'P 1'
_cell_length_a   10.05650000
_cell_length_b   32.71500000
_cell_length_c   15.32480000
_cell_angle_alpha   90.00000000
_cell_angle_beta   107.14300000
_cell_angle_gamma   90.00000000
_symmetry_Int_Tables_number   1
_chemical_formula_structural   Cu3H14C28(NO6)4
_chemical_formula_sum   'Cu12 H56 C112 N16 O96'
_cell_volume   4817.83636981
_cell_formula_units_Z   4
loop_
 _symmetry_equiv_pos_site_id
 _symmetry_equiv_pos_as_xyz
  1  'x, y, z'
loop_
 _atom_site_type_symbol
 _atom_site_label
 _atom_site_symmetry_multiplicity
 _atom_site_fract_x
 _atom_site_fract_y
 _atom_site_fract_z
 _atom_site_occupancy
 _atom_site_charge
Cu  Cu1  1  0.46781000  0.22545000  0.16513000  1.0 0.9136569869
Cu  Cu2  1  0.03219000  0.72545000  0.83487000  1.0 0.9136569869
Cu  Cu3  1  0.53219000  0.77455000  0.83487000  1.0 0.9136569869
Cu  Cu4  1  0.96781000  0.27455000  0.16513000  1.0 0.9136569869
Cu  Cu5  1  0.48921000  0.28278000  0.01723000  1.0 0.9509548766
Cu  Cu6  1  0.01079000  0.78278000  0.98277000  1.0 0.9509548766
Cu  Cu7  1  0.51079000  0.71722000  0.98277000  1.0 0.9509548766
Cu  Cu8  1  0.98921000  0.21722000  0.01723000  1.0 0.9509548766
Cu  Cu9  1  0.23125000  0.28383000  0.09069000  1.0 0.9509548766
Cu  Cu10  1  0.26875000  0.78383000  0.90931000  1.0 0.9443105878
Cu  Cu11  1  0.76875000  0.71617000  0.90931000  1.0 0.9443105878
Cu  Cu12  1  0.73125000  0.21617000  0.09069000  1.0 0.9443105878
H  H1  1  0.47210000  0.29930000  0.16760000  1.0 0.3825744313
H  H2  1  0.02790000  0.79930000  0.83240000  1.0 0.3825744313
H  H3  1  0.52790000  0.70070000  0.83240000  1.0 0.3825744313
H  H4  1  0.97210000  0.20070000  0.16760000  1.0 0.3825744313
H  H5  1  0.98940000  0.29200000  0.01480000  1.0 0.3864655864
H  H6  1  0.51060000  0.79200000  0.98520000  1.0 0.3864655864
H  H7  1  0.01060000  0.70800000  0.98520000  1.0 0.3864655864
H  H8  1  0.48940000  0.20800000  0.01480000  1.0 0.3864655864
H  H9  1  0.21000000  0.41850000  0.06440000  1.0 0.1185300385
H  H10  1  0.29000000  0.91850000  0.93560000  1.0 0.1185300385
H  H11  1  0.79000000  0.58150000  0.93560000  1.0 0.1185300385
H  H12  1  0.71000000  0.08150000  0.06440000  1.0 0.1185300385
H  H13  1  0.18140000  0.48570000  0.01980000  1.0 0.1012468415
H  H14  1  0.31860000  0.98570000  0.98020000  1.0 0.1012468415
H  H15  1  0.81860000  0.51430000  0.98020000  1.0 0.1012468415
H  H16  1  0.68140000  0.01430000  0.01980000  1.0 0.1012468415
H  H17  1  0.39270000  0.39730000  0.87070000  1.0 0.1185300385
H  H18  1  0.10730000  0.89730000  0.12930000  1.0 0.1185300385
H  H19  1  0.60730000  0.60270000  0.12930000  1.0 0.1185300385
H  H20  1  0.89270000  0.10270000  0.87070000  1.0 0.1185300385
H  H21  1  0.99500000  0.59470000  0.80550000  1.0 0.1120723496
H  H22  1  0.50500000  0.09470000  0.19450000  1.0 0.1120723496
H  H23  1  0.00500000  0.40530000  0.19450000  1.0 0.1120723496
H  H24  1  0.49500000  0.90530000  0.80550000  1.0 0.1120723496
H  H25  1  0.39120000  0.61360000  0.94000000  1.0 0.1301386676
H  H26  1  0.10880000  0.11360000  0.06000000  1.0 0.1301386676
H  H27  1  0.60880000  0.38640000  0.06000000  1.0 0.1301386676
H  H28  1  0.89120000  0.88640000  0.94000000  1.0 0.1301386676
H  H29  1  0.42810000  0.54420000  0.95330000  1.0 0.1120723496
H  H30  1  0.07190000  0.04420000  0.04670000  1.0 0.1120723496
H  H31  1  0.57190000  0.45580000  0.04670000  1.0 0.1120723496
H  H32  1  0.92810000  0.95580000  0.95330000  1.0 0.1120723496
H  H33  1  0.38080000  0.19930000  0.41120000  1.0 0.1012468415
H  H34  1  0.11920000  0.69930000  0.58880000  1.0 0.1012468415
H  H35  1  0.61920000  0.80070000  0.58880000  1.0 0.1012468415
H  H36  1  0.88080000  0.30070000  0.41120000  1.0 0.1012468415
H  H37  1  0.13010000  0.30140000  0.49890000  1.0 0.1012468415
H  H38  1  0.36990000  0.80140000  0.50110000  1.0 0.1012468415
H  H39  1  0.86990000  0.69860000  0.50110000  1.0 0.1012468415
H  H40  1  0.63010000  0.19860000  0.49890000  1.0 0.1012468415
H  H41  1  0.17470000  0.30530000  0.36160000  1.0 0.1424487565
H  H42  1  0.32530000  0.80530000  0.63840000  1.0 0.1424487565
H  H43  1  0.82530000  0.69470000  0.63840000  1.0 0.1424487565
H  H44  1  0.67470000  0.19470000  0.36160000  1.0 0.1424487565
H  H45  1  0.29410000  0.29910000  0.67620000  1.0 0.1120723496
H  H46  1  0.20590000  0.79910000  0.32380000  1.0 0.1120723496
H  H47  1  0.70590000  0.70090000  0.32380000  1.0 0.1120723496
H  H48  1  0.79410000  0.20090000  0.67620000  1.0 0.1120723496
H  H49  1  0.27880000  0.29650000  0.82360000  1.0 0.1301386676
H  H50  1  0.22120000  0.79650000  0.17640000  1.0 0.1301386676
H  H51  1  0.72120000  0.70350000  0.17640000  1.0 0.1301386676
H  H52  1  0.77880000  0.20350000  0.82360000  1.0 0.1301386676
H  H53  1  0.05150000  0.19480000  0.76030000  1.0 0.1301386676
H  H54  1  0.44850000  0.69480000  0.23970000  1.0 0.1301386676
H  H55  1  0.94850000  0.80520000  0.23970000  1.0 0.1301386676
H  H56  1  0.55150000  0.30520000  0.76030000  1.0 0.1301386676
C  C1  1  0.32200000  0.35647000  0.00050000  1.0 0.5877362591
C  C2  1  0.17800000  0.85647000  0.99950000  1.0 0.5877362591
C  C3  1  0.67800000  0.64353000  0.99950000  1.0 0.5877362591
C  C4  1  0.82200000  0.14353000  0.00050000  1.0 0.5877362591
C  C5  1  0.30200000  0.40020000  0.97060000  1.0 0.0030174964
C  C6  1  0.19800000  0.90020000  0.02940000  1.0 0.0030174964
C  C7  1  0.69800000  0.59980000  0.02940000  1.0 0.0030174964
C  C8  1  0.80200000  0.09980000  0.97060000  1.0 0.0030174964
C  C9  1  0.23950000  0.42740000  0.01550000  1.0 -0.1523521039
C  C10  1  0.26050000  0.92740000  0.98450000  1.0 -0.1523521039
C  C11  1  0.76050000  0.57260000  0.98450000  1.0 -0.1523521039
C  C12  1  0.73950000  0.07260000  0.01550000  1.0 -0.1523521039
C  C13  1  0.22080000  0.46760000  0.98770000  1.0 -0.1953964907
C  C14  1  0.27920000  0.96760000  0.01230000  1.0 -0.1934378572
C  C15  1  0.77920000  0.53240000  0.01230000  1.0 -0.1934378572
C  C16  1  0.72080000  0.03240000  0.98770000  1.0 -0.1934378572
C  C17  1  0.25910000  0.48200000  0.91330000  1.0 -0.0199059886
C  C18  1  0.24090000  0.98200000  0.08670000  1.0 -0.0199059886
C  C19  1  0.74090000  0.51800000  0.08670000  1.0 -0.0199059886
C  C20  1  0.75910000  0.01800000  0.91330000  1.0 -0.0199059886
C  C21  1  0.32230000  0.45480000  0.87200000  1.0 -0.1004032356
C  C22  1  0.17770000  0.95480000  0.12800000  1.0 -0.1004032356
C  C23  1  0.67770000  0.54520000  0.12800000  1.0 -0.1004032356
C  C24  1  0.82230000  0.04520000  0.87200000  1.0 -0.1004032356
C  C25  1  0.34630000  0.41470000  0.89990000  1.0 -0.1745195398
C  C26  1  0.15370000  0.91470000  0.10010000  1.0 -0.1757960546
C  C27  1  0.65370000  0.58530000  0.10010000  1.0 -0.1745195398
C  C28  1  0.84630000  0.08530000  0.89990000  1.0 -0.1745195398
C  C29  1  0.23500000  0.52650000  0.89040000  1.0 -0.0094658461
C  C30  1  0.26500000  0.02650000  0.10960000  1.0 -0.0094658461
C  C31  1  0.76500000  0.47350000  0.10960000  1.0 -0.0094658461
C  C32  1  0.73500000  0.97350000  0.89040000  1.0 -0.0094658461
C  C33  1  0.10650000  0.54330000  0.84750000  1.0 -0.1230948254
C  C34  1  0.39350000  0.04330000  0.15250000  1.0 -0.1230948254
C  C35  1  0.89350000  0.45670000  0.15250000  1.0 -0.1230948254
C  C36  1  0.60650000  0.95670000  0.84750000  1.0 -0.1230948254
C  C37  1  0.08330000  0.58480000  0.83570000  1.0 -0.1599830094
C  C38  1  0.41670000  0.08480000  0.16430000  1.0 -0.1599830094
C  C39  1  0.91670000  0.41520000  0.16430000  1.0 -0.1599830094
C  C40  1  0.58330000  0.91520000  0.83570000  1.0 -0.1599830094
C  C41  1  0.19090000  0.61090000  0.86870000  1.0 0.0143412684
C  C42  1  0.30910000  0.11090000  0.13130000  1.0 0.0143412684
C  C43  1  0.80910000  0.38910000  0.13130000  1.0 0.0143412684
C  C44  1  0.69090000  0.88910000  0.86870000  1.0 0.0143412684
C  C45  1  0.31800000  0.59580000  0.91450000  1.0 -0.1101602561
C  C46  1  0.18200000  0.09580000  0.08550000  1.0 -0.1101602561
C  C47  1  0.68200000  0.40420000  0.08550000  1.0 -0.1101602561
C  C48  1  0.81800000  0.90420000  0.91450000  1.0 -0.1101602561
C  C49  1  0.33930000  0.55390000  0.92360000  1.0 -0.1599830094
C  C50  1  0.16070000  0.05390000  0.07640000  1.0 -0.1599830094
C  C51  1  0.66070000  0.44610000  0.07640000  1.0 -0.1599830094
C  C52  1  0.83930000  0.94610000  0.92360000  1.0 -0.1599830094
C  C53  1  0.16790000  0.65640000  0.86250000  1.0 0.5681257171
C  C54  1  0.33210000  0.15640000  0.13750000  1.0 0.5681257171
C  C55  1  0.83210000  0.34360000  0.13750000  1.0 0.5681257171
C  C56  1  0.66790000  0.84360000  0.86250000  1.0 0.5681257171
C  C57  1  0.30480000  0.25278000  0.28010000  1.0 0.5840864402
C  C58  1  0.19520000  0.75278000  0.71990000  1.0 0.5877362591
C  C59  1  0.69520000  0.74722000  0.71990000  1.0 0.5877362591
C  C60  1  0.80480000  0.24722000  0.28010000  1.0 0.5840864402
C  C61  1  0.27780000  0.25220000  0.37060000  1.0 -0.0094658461
C  C62  1  0.22220000  0.75220000  0.62940000  1.0 -0.0094658461
C  C63  1  0.72220000  0.74780000  0.62940000  1.0 -0.0094658461
C  C64  1  0.77780000  0.24780000  0.37060000  1.0 -0.0094658461
C  C65  1  0.33080000  0.22000000  0.42910000  1.0 -0.1745195398
C  C66  1  0.16920000  0.72000000  0.57090000  1.0 -0.1745195398
C  C67  1  0.66920000  0.78000000  0.57090000  1.0 -0.1745195398
C  C68  1  0.83080000  0.28000000  0.42910000  1.0 -0.1745195398
C  C69  1  0.30930000  0.21850000  0.51430000  1.0 -0.1523521039
C  C70  1  0.19070000  0.71850000  0.48570000  1.0 -0.1523521039
C  C71  1  0.69070000  0.78150000  0.48570000  1.0 -0.1445889998
C  C72  1  0.80930000  0.28150000  0.51430000  1.0 -0.1445889998
C  C73  1  0.22990000  0.24790000  0.54230000  1.0 0.025532644
C  C74  1  0.27010000  0.74790000  0.45770000  1.0 0.025532644
C  C75  1  0.77010000  0.75210000  0.45770000  1.0 0.025532644
C  C76  1  0.72990000  0.25210000  0.54230000  1.0 0.025532644
C  C77  1  0.18090000  0.28070000  0.48210000  1.0 -0.1523521039
C  C78  1  0.31910000  0.78070000  0.51790000  1.0 -0.1523521039
C  C79  1  0.81910000  0.71930000  0.51790000  1.0 -0.1523521039
C  C80  1  0.68090000  0.21930000  0.48210000  1.0 -0.1523521039
C  C81  1  0.20630000  0.28280000  0.39920000  1.0 -0.0874760178
C  C82  1  0.29370000  0.78280000  0.60080000  1.0 -0.0874760178
C  C83  1  0.79370000  0.71720000  0.60080000  1.0 -0.0874760178
C  C84  1  0.70630000  0.21720000  0.39920000  1.0 -0.0874760178
C  C85  1  0.19740000  0.24680000  0.63200000  1.0 -0.0094658461
C  C86  1  0.30260000  0.74680000  0.36800000  1.0 -0.0094658461
C  C87  1  0.80260000  0.75320000  0.36800000  1.0 -0.0094658461
C  C88  1  0.69740000  0.25320000  0.63200000  1.0 -0.0094658461
C  C89  1  0.24930000  0.27700000  0.69360000  1.0 -0.1599830094
C  C90  1  0.25070000  0.77700000  0.30640000  1.0 -0.1599830094
C  C91  1  0.75070000  0.72300000  0.30640000  1.0 -0.1599830094
C  C92  1  0.74930000  0.22300000  0.69360000  1.0 -0.1599830094
C  C93  1  0.23760000  0.27610000  0.78210000  1.0 -0.1004032356
C  C94  1  0.26240000  0.77610000  0.21790000  1.0 -0.1004032356
C  C95  1  0.76240000  0.72390000  0.21790000  1.0 -0.1004032356
C  C96  1  0.73760000  0.22390000  0.78210000  1.0 -0.1004032356
C  C97  1  0.16540000  0.24510000  0.80770000  1.0 -0.0094658461
C  C98  1  0.33460000  0.74510000  0.19230000  1.0 -0.0094658461
C  C99  1  0.83460000  0.75490000  0.19230000  1.0 -0.0094658461
C  C100  1  0.66540000  0.25490000  0.80770000  1.0 -0.0094658461
C  C101  1  0.10380000  0.21540000  0.74450000  1.0 -0.1745195398
C  C102  1  0.39620000  0.71540000  0.25550000  1.0 -0.1745195398
C  C103  1  0.89620000  0.78460000  0.25550000  1.0 -0.1745195398
C  C104  1  0.60380000  0.28460000  0.74450000  1.0 -0.1745195398
C  C105  1  0.11980000  0.21620000  0.65740000  1.0 -0.0094658461
C  C106  1  0.38020000  0.71620000  0.34260000  1.0 -0.0094658461
C  C107  1  0.88020000  0.78380000  0.34260000  1.0 -0.0199059886
C  C108  1  0.61980000  0.28380000  0.65740000  1.0 -0.0199059886
C  C109  1  0.15280000  0.24222000  0.90220000  1.0 0.5877362591
C  C110  1  0.34720000  0.74222000  0.09780000  1.0 0.5877362591
C  C111  1  0.84720000  0.75778000  0.09780000  1.0 0.5877362591
C  C112  1  0.65280000  0.25778000  0.90220000  1.0 0.5877362591
N  N1  1  0.36790000  0.46680000  0.78900000  1.0 0.4192188603
N  N2  1  0.13210000  0.96680000  0.21100000  1.0 0.4192188603
N  N3  1  0.63210000  0.53320000  0.21100000  1.0 0.4192188603
N  N4  1  0.86790000  0.03320000  0.78900000  1.0 0.4192188603
N  N5  1  0.37520000  0.18490000  0.57410000  1.0 0.4034477991
N  N6  1  0.12480000  0.68490000  0.42590000  1.0 0.4079956037
N  N7  1  0.62480000  0.81510000  0.42590000  1.0 0.4034477991
N  N8  1  0.87520000  0.31510000  0.57410000  1.0 0.4034477991
N  N9  1  0.04680000  0.18500000  0.59390000  1.0 0.4716428814
N  N10  1  0.45320000  0.68500000  0.40610000  1.0 0.4716428814
N  N11  1  0.95320000  0.81500000  0.40610000  1.0 0.4716428814
N  N12  1  0.54680000  0.31500000  0.59390000  1.0 0.4716428814
N  N13  1  0.98160000  0.51580000  0.81100000  1.0 0.4192188603
N  N14  1  0.51840000  0.01580000  0.18900000  1.0 0.4192188603
N  N15  1  0.01840000  0.48420000  0.18900000  1.0 0.4192188603
N  N16  1  0.48160000  0.98420000  0.81100000  1.0 0.4192188603
O  O1  1  0.43200000  0.28178000  0.12750000  1.0 -0.8088063675
O  O2  1  0.06800000  0.78178000  0.87250000  1.0 -0.8088063675
O  O3  1  0.56800000  0.71822000  0.87250000  1.0 -0.8088063675
O  O4  1  0.93200000  0.21822000  0.12750000  1.0 -0.8088063675
O  O5  1  0.23930000  0.34304000  0.04150000  1.0 -0.5647120553
O  O6  1  0.26070000  0.84304000  0.95850000  1.0 -0.5647120553
O  O7  1  0.76070000  0.65696000  0.95850000  1.0 -0.5647120553
O  O8  1  0.73930000  0.15696000  0.04150000  1.0 -0.5647120553
O  O9  1  0.41860000  0.33768000  0.98080000  1.0 -0.5354259687
O  O10  1  0.08140000  0.83768000  0.01920000  1.0 -0.5354259687
O  O11  1  0.58140000  0.66232000  0.01920000  1.0 -0.5354259687
O  O12  1  0.91860000  0.16232000  0.98080000  1.0 -0.5354259687
O  O13  1  0.21960000  0.27262000  0.21590000  1.0 -0.5977770763
O  O14  1  0.28040000  0.77262000  0.78410000  1.0 -0.5977770763
O  O15  1  0.78040000  0.72738000  0.78410000  1.0 -0.5977770763
O  O16  1  0.71960000  0.22738000  0.21590000  1.0 -0.5977770763
O  O17  1  0.40870000  0.23333000  0.27350000  1.0 -0.5177047553
O  O18  1  0.09130000  0.73333000  0.72650000  1.0 -0.5177047553
O  O19  1  0.59130000  0.76667000  0.72650000  1.0 -0.5177047553
O  O20  1  0.90870000  0.26667000  0.27350000  1.0 -0.5177047553
O  O21  1  0.03360000  0.27507000  0.05490000  1.0 -0.798414998
O  O22  1  0.46640000  0.77507000  0.94510000  1.0 -0.798414998
O  O23  1  0.96640000  0.72493000  0.94510000  1.0 -0.798414998
O  O24  1  0.53360000  0.22493000  0.05490000  1.0 -0.798414998
O  O25  1  0.37700000  0.15300000  0.53320000  1.0 0.0908865944
O  O26  1  0.12300000  0.65300000  0.46680000  1.0 0.1012468415
O  O27  1  0.62300000  0.84700000  0.46680000  1.0 0.0908865944
O  O28  1  0.87700000  0.34700000  0.53320000  1.0 0.1012468415
O  O29  1  0.41010000  0.19270000  0.65620000  1.0 -0.0874760178
O  O30  1  0.08990000  0.69270000  0.34380000  1.0 -0.0799819442
O  O31  1  0.58990000  0.80730000  0.34380000  1.0 -0.0874760178
O  O32  1  0.91010000  0.30730000  0.65620000  1.0 -0.0799819442
O  O33  1  0.03230000  0.18900000  0.51270000  1.0 -0.3178756612
O  O34  1  0.46770000  0.68900000  0.48730000  1.0 -0.3178756612
O  O35  1  0.96770000  0.81100000  0.48730000  1.0 -0.3178756612
O  O36  1  0.53230000  0.31100000  0.51270000  1.0 -0.3178756612
O  O37  1  0.98700000  0.15770000  0.62100000  1.0 -0.3178756612
O  O38  1  0.51300000  0.65770000  0.37900000  1.0 -0.3178756612
O  O39  1  0.01300000  0.84230000  0.37900000  1.0 -0.3178756612
O  O40  1  0.48700000  0.34230000  0.62100000  1.0 -0.3178756612
O  O41  1  0.29470000  0.49300000  0.73970000  1.0 -0.0374919599
O  O42  1  0.20530000  0.99300000  0.26030000  1.0 -0.0322047344
O  O43  1  0.70530000  0.50700000  0.26030000  1.0 -0.0374919599
O  O44  1  0.79470000  0.00700000  0.73970000  1.0 -0.0374919599
O  O45  1  0.49240000  0.45920000  0.80850000  1.0 -0.1101602561
O  O46  1  0.00760000  0.95920000  0.19150000  1.0 -0.1101602561
O  O47  1  0.50760000  0.54080000  0.19150000  1.0 -0.1101602561
O  O48  1  0.99240000  0.04080000  0.80850000  1.0 -0.1101602561
O  O49  1  0.01600000  0.48800000  0.76760000  1.0 0.0030174964
O  O50  1  0.48400000  0.98800000  0.23240000  1.0 0.0030174964
O  O51  1  0.98400000  0.51200000  0.23240000  1.0 0.0030174964
O  O52  1  0.51600000  0.01200000  0.76760000  1.0 0.0030174964
O  O53  1  0.87260000  0.52820000  0.82180000  1.0 -0.0735049176
O  O54  1  0.62740000  0.02820000  0.17820000  1.0 -0.0735049176
O  O55  1  0.12740000  0.47180000  0.17820000  1.0 -0.0735049176
O  O56  1  0.37260000  0.97180000  0.82180000  1.0 -0.0735049176
O  O57  1  0.05280000  0.22165000  0.91130000  1.0 -0.5177047553
O  O58  1  0.44720000  0.72165000  0.08870000  1.0 -0.5177047553
O  O59  1  0.94720000  0.77835000  0.08870000  1.0 -0.5177047553
O  O60  1  0.55280000  0.27835000  0.91130000  1.0 -0.5177047553
O  O61  1  0.24110000  0.26054000  0.96480000  1.0 -0.6105687994
O  O62  1  0.25890000  0.76054000  0.03520000  1.0 -0.6105687994
O  O63  1  0.75890000  0.73946000  0.03520000  1.0 -0.6105687994
O  O64  1  0.74110000  0.23946000  0.96480000  1.0 -0.6105687994
O  O65  1  0.26300000  0.68084000  0.89240000  1.0 -0.5667626339
O  O66  1  0.23700000  0.18084000  0.10760000  1.0 -0.5667626339
O  O67  1  0.73700000  0.31916000  0.10760000  1.0 -0.5667626339
O  O68  1  0.76300000  0.81916000  0.89240000  1.0 -0.5667626339
O  O69  1  0.04130000  0.66736000  0.82570000  1.0 -0.5297114777
O  O70  1  0.45870000  0.16736000  0.17430000  1.0 -0.5297114777
O  O71  1  0.95870000  0.33264000  0.17430000  1.0 -0.5297114777
O  O72  1  0.54130000  0.83264000  0.82570000  1.0 -0.5297114777
O  O73  1  0.45440000  0.16170000  0.55160000  1.0 -0.0374919599
O  O74  1  0.04560000  0.66170000  0.44840000  1.0 -0.0374919599
O  O75  1  0.54560000  0.83830000  0.44840000  1.0 -0.0374919599
O  O76  1  0.95440000  0.33830000  0.55160000  1.0 -0.0374919599
O  O77  1  0.33333333  0.16990000  0.63370000  1.0 0.0908865944
O  O78  1  0.16667000  0.66990000  0.36630000  1.0 0.1012468415
O  O79  1  0.66666667  0.83010000  0.36630000  1.0 0.0908865944
O  O80  1  0.83333000  0.33010000  0.63370000  1.0 0.1012468415
O  O81  1  0.37800000  0.50300000  0.77170000  1.0 0.0169959349
O  O82  1  0.12200000  0.00300000  0.22830000  1.0 0.0169959349
O  O83  1  0.62200000  0.49700000  0.22830000  1.0 0.0169959349
O  O84  1  0.87800000  0.99700000  0.77170000  1.0 0.0169959349
O  O85  1  0.41000000  0.44010000  0.74740000  1.0 -0.0735049176
O  O86  1  0.09000000  0.94010000  0.25260000  1.0 -0.0799819442
O  O87  1  0.59000000  0.55990000  0.25260000  1.0 -0.0799819442
O  O88  1  0.91000000  0.05990000  0.74740000  1.0 -0.0799819442
O  O89  1  0.99600000  0.47910000  0.80250000  1.0 -0.0094658461
O  O90  1  0.50400000  0.97910000  0.19750000  1.0 -0.0094658461
O  O91  1  0.00400000  0.52090000  0.19750000  1.0 -0.0094658461
O  O92  1  0.49600000  0.02090000  0.80250000  1.0 -0.0094658461
O  O93  1  0.87540000  0.53140000  0.76160000  1.0 0.0657438223
O  O94  1  0.62460000  0.03140000  0.23840000  1.0 0.0657438223
O  O95  1  0.12460000  0.46860000  0.23840000  1.0 0.079171471
O  O96  1  0.37540000  0.96860000  0.76160000  1.0 0.0630519238
