# DDEC6 charges by PACMAN v1.1 (https://github.com/mtap-research/PACMAN-charge/)
data_FORTIR_ASR_pacman
_symmetry_space_group_name_H-M   'P 1'
_cell_length_a   26.68220000
_cell_length_b   26.68220000
_cell_length_c   26.68220000
_cell_angle_alpha   141.67900000
_cell_angle_beta   103.70400000
_cell_angle_gamma   88.77070000
_symmetry_Int_Tables_number   1
_chemical_formula_structural   Zn7Cd2H134C140(N5O13)2
_chemical_formula_sum   'Zn14 Cd4 H268 C280 N20 O52'
_cell_volume   11009.11401653
_cell_formula_units_Z   2
loop_
 _symmetry_equiv_pos_site_id
 _symmetry_equiv_pos_as_xyz
  1  'x, y, z'
loop_
 _atom_site_type_symbol
 _atom_site_label
 _atom_site_symmetry_multiplicity
 _atom_site_fract_x
 _atom_site_fract_y
 _atom_site_fract_z
 _atom_site_occupancy
 _atom_site_charge
Zn  Zn1  1  0.00235000  0.75235000  0.25000000  1.0 0.9284752483
Zn  Zn2  1  0.49765000  0.74765000  0.75000000  1.0 0.9284752483
Zn  Zn3  1  0.90930000  0.83433000  0.32017000  1.0 0.8579105263
Zn  Zn4  1  0.01416000  0.58913000  0.17983000  1.0 0.8579105263
Zn  Zn5  1  0.59070000  0.91087000  0.92503000  1.0 0.8579105263
Zn  Zn6  1  0.48584000  0.66567000  0.57497000  1.0 0.8579105263
Zn  Zn7  1  0.09997000  0.67746000  0.19347000  1.0 0.8579105263
Zn  Zn8  1  0.98399000  0.90650000  0.30653000  1.0 0.8579105263
Zn  Zn9  1  0.40003000  0.59350000  0.57749000  1.0 0.8579105263
Zn  Zn10  1  0.51601000  0.82254000  0.92251000  1.0 0.8579105263
Zn  Zn11  1  0.98761000  0.58005000  0.05372000  1.0 0.85440098
Zn  Zn12  1  0.02633000  0.93389000  0.44628000  1.0 0.8579105263
Zn  Zn13  1  0.51239000  0.56611000  0.59244000  1.0 0.85440098
Zn  Zn14  1  0.47367000  0.91995000  0.90756000  1.0 0.85440098
Cd  Cd1  1  0.55764000  0.75000000  0.30764000  1.0 0.8579105263
Cd  Cd2  1  0.94236000  0.25000000  0.19236000  1.0 0.8579105263
Cd  Cd3  1  0.75000000  0.24520000  0.49520000  1.0 0.8654619927
Cd  Cd4  1  0.25000000  0.25480000  0.00480000  1.0 0.8579105263
H  H1  1  0.67180000  0.83050000  0.24610000  1.0 0.130353035
H  H2  1  0.08440000  0.42570000  0.25390000  1.0 0.130353035
H  H3  1  0.82820000  0.07430000  0.15870000  1.0 0.130353035
H  H4  1  0.41560000  0.66950000  0.34130000  1.0 0.130353035
H  H5  1  0.73990000  0.75690000  0.32520000  1.0 0.1203428996
H  H6  1  0.93170000  0.41470000  0.17480000  1.0 0.1203428996
H  H7  1  0.76010000  0.08530000  0.01700000  1.0 0.1203428996
H  H8  1  0.56830000  0.74310000  0.48300000  1.0 0.1203428996
H  H9  1  0.79110000  0.97180000  0.28310000  1.0 0.1203428996
H  H10  1  0.18870000  0.50800000  0.21690000  1.0 0.1203428996
H  H11  1  0.70890000  0.99200000  0.18070000  1.0 0.1203428996
H  H12  1  0.31130000  0.52820000  0.31930000  1.0 0.1203428996
H  H13  1  0.82460000  0.95020000  0.31860000  1.0 0.139613046
H  H14  1  0.13160000  0.50600000  0.18140000  1.0 0.139613046
H  H15  1  0.67540000  0.99400000  0.12560000  1.0 0.139613046
H  H16  1  0.36840000  0.54980000  0.37440000  1.0 0.139613046
H  H17  1  0.77740000  0.99010000  0.34950000  1.0 0.130353035
H  H18  1  0.14060000  0.42790000  0.15050000  1.0 0.130353035
H  H19  1  0.72260000  0.07210000  0.21270000  1.0 0.130353035
H  H20  1  0.35940000  0.50990000  0.28730000  1.0 0.130353035
H  H21  1  0.77210000  0.83090000  0.13540000  1.0 0.130353035
H  H22  1  0.19550000  0.63670000  0.36460000  1.0 0.130353035
H  H23  1  0.72790000  0.86330000  0.05880000  1.0 0.130353035
H  H24  1  0.30450000  0.66910000  0.44120000  1.0 0.130353035
H  H25  1  0.74480000  0.75480000  0.10400000  1.0 0.139613046
H  H26  1  0.15080000  0.64080000  0.39600000  1.0 0.139613046
H  H27  1  0.75520000  0.85920000  0.01000000  1.0 0.139613046
H  H28  1  0.34920000  0.74520000  0.49000000  1.0 0.139613046
H  H29  1  0.80510000  0.80400000  0.16530000  1.0 0.139613046
H  H30  1  0.13870000  0.63980000  0.33470000  1.0 0.139613046
H  H31  1  0.69490000  0.86020000  0.99890000  1.0 0.139613046
H  H32  1  0.36130000  0.69600000  0.50110000  1.0 0.139613046
H  H33  1  0.70250000  0.89780000  0.18790000  1.0 0.130353035
H  H34  1  0.20990000  0.51460000  0.31210000  1.0 0.130353035
H  H35  1  0.79750000  0.98540000  0.19530000  1.0 0.130353035
H  H36  1  0.29010000  0.60220000  0.30470000  1.0 0.130353035
H  H37  1  0.68610000  0.91540000  0.25250000  1.0 0.130353035
H  H38  1  0.16290000  0.43360000  0.24750000  1.0 0.130353035
H  H39  1  0.81390000  0.06640000  0.22930000  1.0 0.130353035
H  H40  1  0.33710000  0.58460000  0.27070000  1.0 0.130353035
H  H41  1  0.67280000  0.82290000  0.15670000  1.0 0.139613046
H  H42  1  0.16620000  0.51610000  0.34330000  1.0 0.139613046
H  H43  1  0.82720000  0.98390000  0.15010000  1.0 0.139613046
H  H44  1  0.33380000  0.67710000  0.34990000  1.0 0.139613046
H  H45  1  0.82220000  0.74500000  0.33800000  1.0 0.0985843365
H  H46  1  0.90700000  0.48420000  0.16200000  1.0 0.0985843365
H  H47  1  0.67780000  0.01580000  0.92280000  1.0 0.0985843365
H  H48  1  0.59300000  0.75500000  0.57720000  1.0 0.0985843365
H  H49  1  0.86930000  0.69240000  0.34950000  1.0 0.139613046
H  H50  1  0.84290000  0.51980000  0.15050000  1.0 0.139613046
H  H51  1  0.63070000  0.98020000  0.82310000  1.0 0.139613046
H  H52  1  0.65710000  0.80760000  0.67690000  1.0 0.139613046
H  H53  1  0.88850000  0.62270000  0.37000000  1.0 0.130353035
H  H54  1  0.75270000  0.51850000  0.13000000  1.0 0.130353035
H  H55  1  0.61150000  0.98150000  0.73420000  1.0 0.130353035
H  H56  1  0.74730000  0.87730000  0.76580000  1.0 0.130353035
H  H57  1  0.94480000  0.66310000  0.43910000  1.0 0.139613046
H  H58  1  0.72400000  0.50570000  0.06090000  1.0 0.139613046
H  H59  1  0.55520000  0.99430000  0.71830000  1.0 0.139613046
H  H60  1  0.77600000  0.83690000  0.78170000  1.0 0.139613046
H  H61  1  0.93540000  0.58090000  0.34030000  1.0 0.130353035
H  H62  1  0.74060000  0.59510000  0.15970000  1.0 0.130353035
H  H63  1  0.56460000  0.90490000  0.64550000  1.0 0.130353035
H  H64  1  0.75940000  0.91910000  0.85450000  1.0 0.130353035
H  H65  1  0.01600000  0.64160000  0.40880000  1.0 0.130353035
H  H66  1  0.73280000  0.60720000  0.09120000  1.0 0.130353035
H  H67  1  0.48400000  0.89280000  0.62560000  1.0 0.130353035
H  H68  1  0.76720000  0.85840000  0.87440000  1.0 0.130353035
H  H69  1  0.06540000  0.71420000  0.46040000  1.0 0.139613046
H  H70  1  0.75380000  0.60500000  0.03960000  1.0 0.139613046
H  H71  1  0.43460000  0.89500000  0.64880000  1.0 0.139613046
H  H72  1  0.74620000  0.78580000  0.85120000  1.0 0.139613046
H  H73  1  0.04770000  0.63120000  0.35970000  1.0 0.130353035
H  H74  1  0.77150000  0.68800000  0.14030000  1.0 0.130353035
H  H75  1  0.45230000  0.81200000  0.58350000  1.0 0.130353035
H  H76  1  0.72850000  0.86880000  0.91650000  1.0 0.130353035
H  H77  1  0.21660000  0.84790000  0.46730000  1.0 0.139613046
H  H78  1  0.88060000  0.74930000  0.03270000  1.0 0.139613046
H  H79  1  0.28340000  0.75070000  0.63130000  1.0 0.139613046
H  H80  1  0.61940000  0.65210000  0.86870000  1.0 0.139613046
H  H81  1  0.11690000  0.91390000  0.62540000  1.0 0.139613046
H  H82  1  0.78850000  0.49150000  0.87460000  1.0 0.139613046
H  H83  1  0.38310000  0.00850000  0.79700000  1.0 0.139613046
H  H84  1  0.71150000  0.58610000  0.70300000  1.0 0.139613046
H  H85  1  0.06750000  0.83440000  0.55510000  1.0 0.139613046
H  H86  1  0.77930000  0.51240000  0.94490000  1.0 0.139613046
H  H87  1  0.43250000  0.98760000  0.76690000  1.0 0.139613046
H  H88  1  0.72070000  0.66560000  0.73310000  1.0 0.139613046
H  H89  1  0.06350000  0.91220000  0.58330000  1.0 0.130353035
H  H90  1  0.82890000  0.48020000  0.91670000  1.0 0.130353035
H  H91  1  0.43650000  0.01980000  0.84870000  1.0 0.130353035
H  H92  1  0.67110000  0.58780000  0.65130000  1.0 0.130353035
H  H93  1  0.19150000  0.93740000  0.64550000  1.0 0.1457996356
H  H94  1  0.79190000  0.54600000  0.85450000  1.0 0.1457996356
H  H95  1  0.30850000  0.95400000  0.74590000  1.0 0.1457996356
H  H96  1  0.70810000  0.56260000  0.75410000  1.0 0.1457996356
H  H97  1  0.22560000  0.96910000  0.63030000  1.0 0.139613046
H  H98  1  0.83880000  0.59530000  0.86970000  1.0 0.139613046
H  H99  1  0.27440000  0.90470000  0.74350000  1.0 0.139613046
H  H100  1  0.66120000  0.53090000  0.75650000  1.0 0.139613046
H  H101  1  0.23260000  0.89020000  0.59900000  1.0 0.139613046
H  H102  1  0.79120000  0.63360000  0.90100000  1.0 0.139613046
H  H103  1  0.26740000  0.86640000  0.65760000  1.0 0.139613046
H  H104  1  0.70880000  0.60980000  0.84240000  1.0 0.139613046
H  H105  1  0.23400000  0.78250000  0.36210000  1.0 0.1086033607
H  H106  1  0.92040000  0.87190000  0.13790000  1.0 0.1086033607
H  H107  1  0.26600000  0.62810000  0.54850000  1.0 0.1086033607
H  H108  1  0.57960000  0.71750000  0.95150000  1.0 0.1086033607
H  H109  1  0.29610000  0.63610000  0.09300000  1.0 0.1203428996
H  H110  1  0.04310000  0.20310000  0.40700000  1.0 0.130353035
H  H111  1  0.20390000  0.29690000  0.34000000  1.0 0.130353035
H  H112  1  0.45690000  0.86390000  0.16000000  1.0 0.130353035
H  H113  1  0.30330000  0.75810000  0.32160000  1.0 0.1203428996
H  H114  1  0.93650000  0.98170000  0.17840000  1.0 0.1203428996
H  H115  1  0.19670000  0.51830000  0.45480000  1.0 0.1203428996
H  H116  1  0.56350000  0.74190000  0.04520000  1.0 0.1203428996
H  H117  1  0.20870000  0.53990000  0.90840000  1.0 0.130353035
H  H118  1  0.13150000  0.30030000  0.59160000  1.0 0.130353035
H  H119  1  0.29130000  0.19970000  0.33120000  1.0 0.130353035
H  H120  1  0.36850000  0.96010000  0.16880000  1.0 0.1203428996
H  H121  1  0.25030000  0.53730000  0.95840000  1.0 0.1203428996
H  H122  1  0.07890000  0.29190000  0.54160000  1.0 0.1203428996
H  H123  1  0.24970000  0.20810000  0.28700000  1.0 0.1203428996
H  H124  1  0.42110000  0.96270000  0.21300000  1.0 0.1203428996
H  H125  1  0.25400000  0.62130000  0.99650000  1.0 0.1203428996
H  H126  1  0.12480000  0.25750000  0.50350000  1.0 0.1203428996
H  H127  1  0.24600000  0.24250000  0.36730000  1.0 0.1203428996
H  H128  1  0.37520000  0.87870000  0.13270000  1.0 0.1203428996
H  H129  1  0.14240000  0.61290000  0.96270000  1.0 0.1203428996
H  H130  1  0.15020000  0.17970000  0.53730000  1.0 0.1203428996
H  H131  1  0.35760000  0.32030000  0.47050000  1.0 0.1203428996
H  H132  1  0.34980000  0.88710000  0.02950000  1.0 0.1203428996
H  H133  1  0.18580000  0.69560000  0.05280000  1.0 0.130353035
H  H134  1  0.14280000  0.13300000  0.44720000  1.0 0.130353035
H  H135  1  0.31420000  0.36700000  0.50980000  1.0 0.130353035
H  H136  1  0.35720000  0.80440000  0.99020000  1.0 0.130353035
H  H137  1  0.13580000  0.66000000  0.04760000  1.0 0.130353035
H  H138  1  0.11240000  0.08820000  0.45240000  1.0 0.130353035
H  H139  1  0.36420000  0.41180000  0.52420000  1.0 0.130353035
H  H140  1  0.38760000  0.84000000  0.97580000  1.0 0.130353035
H  H141  1  0.13430000  0.48030000  0.90280000  1.0 0.1203428996
H  H142  1  0.07750000  0.23150000  0.59720000  1.0 0.1203428996
H  H143  1  0.36570000  0.26850000  0.34600000  1.0 0.1203428996
H  H144  1  0.42250000  0.01970000  0.15400000  1.0 0.1203428996
H  H145  1  0.12810000  0.52240000  0.98590000  1.0 0.130353035
H  H146  1  0.03650000  0.14220000  0.51410000  1.0 0.130353035
H  H147  1  0.37190000  0.35780000  0.39430000  1.0 0.130353035
H  H148  1  0.46350000  0.97760000  0.10570000  1.0 0.130353035
H  H149  1  0.17420000  0.47890000  0.95510000  1.0 0.1086033607
H  H150  1  0.02380000  0.21910000  0.54490000  1.0 0.1086033607
H  H151  1  0.32580000  0.28090000  0.30470000  1.0 0.1086033607
H  H152  1  0.47620000  0.02110000  0.19530000  1.0 0.1086033607
H  H153  1  0.81920000  0.26800000  0.69120000  1.0 0.1203428996
H  H154  1  0.07680000  0.12800000  0.80880000  1.0 0.1203428996
H  H155  1  0.68080000  0.37200000  0.44880000  1.0 0.1203428996
H  H156  1  0.42320000  0.23200000  0.05120000  1.0 0.1203428996
H  H157  1  0.88800000  0.46970000  0.78130000  1.0 0.1203428996
H  H158  1  0.18840000  0.10670000  0.71870000  1.0 0.1203428996
H  H159  1  0.61200000  0.39330000  0.58170000  1.0 0.1203428996
H  H160  1  0.31160000  0.03030000  0.91830000  1.0 0.1203428996
H  H161  1  0.82250000  0.19650000  0.75400000  1.0 0.130353035
H  H162  1  0.94250000  0.06850000  0.74600000  1.0 0.130353035
H  H163  1  0.67750000  0.43150000  0.37400000  1.0 0.130353035
H  H164  1  0.55750000  0.30350000  0.12600000  1.0 0.130353035
H  H165  1  0.83390000  0.18830000  0.69300000  1.0 0.1203428996
H  H166  1  0.99530000  0.14090000  0.80700000  1.0 0.1203428996
H  H167  1  0.66610000  0.35910000  0.35440000  1.0 0.1203428996
H  H168  1  0.50470000  0.31170000  0.14560000  1.0 0.1203428996
H  H169  1  0.79090000  0.23320000  0.73530000  1.0 0.1203428996
H  H170  1  0.99790000  0.05560000  0.76470000  1.0 0.1203428996
H  H171  1  0.70910000  0.44440000  0.44230000  1.0 0.1203428996
H  H172  1  0.50210000  0.26680000  0.05770000  1.0 0.1203428996
H  H173  1  0.87250000  0.41570000  0.95140000  1.0 0.139613046
H  H174  1  0.96430000  0.92110000  0.54860000  1.0 0.139613046
H  H175  1  0.62750000  0.57890000  0.54320000  1.0 0.139613046
H  H176  1  0.53570000  0.08430000  0.95680000  1.0 0.139613046
H  H177  1  0.84360000  0.33280000  0.90780000  1.0 0.130353035
H  H178  1  0.92500000  0.93580000  0.59220000  1.0 0.130353035
H  H179  1  0.65640000  0.56420000  0.48920000  1.0 0.130353035
H  H180  1  0.57500000  0.16720000  0.01080000  1.0 0.130353035
H  H181  1  0.81320000  0.36760000  0.88600000  1.0 0.130353035
H  H182  1  0.98160000  0.92720000  0.61400000  1.0 0.130353035
H  H183  1  0.68680000  0.57280000  0.55440000  1.0 0.130353035
H  H184  1  0.51840000  0.13240000  0.94560000  1.0 0.130353035
H  H185  1  0.94900000  0.34560000  0.88900000  1.0 0.139613046
H  H186  1  0.95660000  0.06000000  0.61100000  1.0 0.139613046
H  H187  1  0.55100000  0.44000000  0.39660000  1.0 0.139613046
H  H188  1  0.54340000  0.15440000  0.10340000  1.0 0.139613046
H  H189  1  0.93230000  0.25620000  0.79030000  1.0 0.1203428996
H  H190  1  0.96590000  0.14200000  0.70970000  1.0 0.1203428996
H  H191  1  0.56770000  0.35800000  0.32390000  1.0 0.1203428996
H  H192  1  0.53410000  0.24380000  0.17610000  1.0 0.1203428996
H  H193  1  0.91733000  0.26773000  0.85180000  1.0 0.130353035
H  H194  1  0.91593000  0.06553000  0.64820000  1.0 0.130353035
H  H195  1  0.58267000  0.43447000  0.35040000  1.0 0.130353035
H  H196  1  0.58407000  0.23227000  0.14960000  1.0 0.130353035
H  H197  1  0.94760000  0.58460000  0.91400000  1.0 0.0985843365
H  H198  1  0.17060000  0.03360000  0.58600000  1.0 0.0985843365
H  H199  1  0.55240000  0.46640000  0.63700000  1.0 0.0985843365
H  H200  1  0.32940000  0.91540000  0.86300000  1.0 0.0985843365
H  H201  1  0.99160000  0.69610000  0.98790000  1.0 0.139613046
H  H202  1  0.20820000  0.00370000  0.51210000  1.0 0.139613046
H  H203  1  0.50840000  0.49630000  0.70450000  1.0 0.139613046
H  H204  1  0.29180000  0.80390000  0.79550000  1.0 0.139613046
H  H205  1  0.01600000  0.80400000  0.01860000  1.0 0.130353035
H  H206  1  0.28540000  0.99740000  0.48140000  1.0 0.130353035
H  H207  1  0.48400000  0.50260000  0.78800000  1.0 0.130353035
H  H208  1  0.21460000  0.69600000  0.71200000  1.0 0.130353035
H  H209  1  0.07460000  0.86250000  0.08330000  1.0 0.139613046
H  H210  1  0.27920000  0.99130000  0.41670000  1.0 0.139613046
H  H211  1  0.42540000  0.50870000  0.78790000  1.0 0.139613046
H  H212  1  0.22080000  0.63750000  0.71210000  1.0 0.139613046
H  H213  1  0.02610000  0.89390000  0.11500000  1.0 0.139613046
H  H214  1  0.27890000  0.91110000  0.38500000  1.0 0.139613046
H  H215  1  0.47390000  0.58890000  0.86780000  1.0 0.139613046
H  H216  1  0.22110000  0.60610000  0.63220000  1.0 0.139613046
H  H217  1  0.12890000  0.96770000  0.29980000  1.0 0.139613046
H  H218  1  0.16790000  0.82910000  0.20020000  1.0 0.139613046
H  H219  1  0.37110000  0.67090000  0.83880000  1.0 0.139613046
H  H220  1  0.33210000  0.53230000  0.66120000  1.0 0.139613046
H  H221  1  0.08550000  0.97460000  0.25550000  1.0 0.139613046
H  H222  1  0.21910000  0.83000000  0.24450000  1.0 0.139613046
H  H223  1  0.41450000  0.67000000  0.88910000  1.0 0.139613046
H  H224  1  0.28090000  0.52540000  0.61090000  1.0 0.139613046
H  H225  1  0.13300000  0.93840000  0.22240000  1.0 0.139613046
H  H226  1  0.21600000  0.91060000  0.27760000  1.0 0.139613046
H  H227  1  0.36700000  0.58940000  0.80540000  1.0 0.139613046
H  H228  1  0.28400000  0.56160000  0.69460000  1.0 0.139613046
H  H229  1  0.55660000  0.91900000  0.37700000  1.0 0.139613046
H  H230  1  0.04200000  0.17960000  0.12300000  1.0 0.139613046
H  H231  1  0.94340000  0.32040000  0.36240000  1.0 0.139613046
H  H232  1  0.45800000  0.58100000  0.13760000  1.0 0.139613046
H  H233  1  0.55520000  0.05800000  0.49400000  1.0 0.139613046
H  H234  1  0.06400000  0.06120000  0.00600000  1.0 0.139613046
H  H235  1  0.94480000  0.43880000  0.50280000  1.0 0.139613046
H  H236  1  0.43600000  0.44200000  0.99720000  1.0 0.139613046
H  H237  1  0.57090000  0.12340000  0.62670000  1.0 0.1203428996
H  H238  1  0.99670000  0.94420000  0.87330000  1.0 0.1203428996
H  H239  1  0.92910000  0.55580000  0.55250000  1.0 0.1203428996
H  H240  1  0.50330000  0.37660000  0.94750000  1.0 0.1203428996
H  H241  1  0.58800000  0.04990000  0.64230000  1.0 0.139613046
H  H242  1  0.90760000  0.94570000  0.85770000  1.0 0.139613046
H  H243  1  0.91200000  0.55430000  0.46190000  1.0 0.139613046
H  H244  1  0.59240000  0.45010000  0.03810000  1.0 0.139613046
H  H245  1  0.58930000  0.91090000  0.52520000  1.0 0.1203428996
H  H246  1  0.88570000  0.06410000  0.97480000  1.0 0.1203428996
H  H247  1  0.91070000  0.43590000  0.32160000  1.0 0.1203428996
H  H248  1  0.61430000  0.58910000  0.17840000  1.0 0.1203428996
H  H249  1  0.66650000  0.10860000  0.31010000  1.0 0.1203428996
H  H250  1  0.29850000  0.35640000  0.18990000  1.0 0.1203428996
H  H251  1  0.83350000  0.14360000  0.44210000  1.0 0.1203428996
H  H252  1  0.20150000  0.39140000  0.05790000  1.0 0.1203428996
H  H253  1  0.58540000  0.00890000  0.22630000  1.0 0.139613046
H  H254  1  0.28260000  0.35910000  0.27370000  1.0 0.139613046
H  H255  1  0.91460000  0.14090000  0.42350000  1.0 0.139613046
H  H256  1  0.21740000  0.49110000  0.07650000  1.0 0.139613046
H  H257  1  0.55780000  0.96850000  0.26910000  1.0 0.1203428996
H  H258  1  0.19940000  0.28870000  0.23090000  1.0 0.1203428996
H  H259  1  0.94220000  0.21130000  0.41070000  1.0 0.1203428996
H  H260  1  0.30060000  0.53150000  0.08930000  1.0 0.1203428996
H  H261  1  0.61120000  0.02770000  0.39570000  1.0 0.139613046
H  H262  1  0.13200000  0.21550000  0.10430000  1.0 0.139613046
H  H263  1  0.88880000  0.28450000  0.41650000  1.0 0.139613046
H  H264  1  0.36800000  0.47230000  0.08350000  1.0 0.139613046
H  H265  1  0.69230000  0.12740000  0.47950000  1.0 0.130353035
H  H266  1  0.14790000  0.21280000  0.02050000  1.0 0.130353035
H  H267  1  0.80770000  0.28720000  0.43510000  1.0 0.130353035
H  H268  1  0.35210000  0.37260000  0.06490000  1.0 0.130353035
C  C1  1  0.64880000  0.77830000  0.29450000  1.0 0.5391383941
C  C2  1  0.98380000  0.35430000  0.20550000  1.0 0.5391383941
C  C3  1  0.85120000  0.14570000  0.12950000  1.0 0.5391383941
C  C4  1  0.51620000  0.72170000  0.37050000  1.0 0.5391383941
C  C5  1  0.69780000  0.79100000  0.28580000  1.0 -0.0400120591
C  C6  1  0.00520000  0.41200000  0.21420000  1.0 -0.0400120591
C  C7  1  0.80220000  0.08800000  0.09320000  1.0 -0.0400120591
C  C8  1  0.49480000  0.70900000  0.40680000  1.0 -0.0400120591
C  C9  1  0.70170000  0.82120000  0.26150000  1.0 -0.1048837801
C  C10  1  0.05970000  0.44020000  0.23850000  1.0 -0.1055652772
C  C11  1  0.79830000  0.05980000  0.11950000  1.0 -0.1048837801
C  C12  1  0.44030000  0.67880000  0.38050000  1.0 -0.1048837801
C  C13  1  0.75020000  0.83730000  0.26030000  1.0 -0.0483120758
C  C14  1  0.07700000  0.48990000  0.23970000  1.0 -0.0483120758
C  C15  1  0.74980000  0.01010000  0.08710000  1.0 -0.0483120758
C  C16  1  0.42300000  0.66270000  0.41290000  1.0 -0.0483120758
C  C17  1  0.79500000  0.82340000  0.28340000  1.0 0.2395430083
C  C18  1  0.04000000  0.51160000  0.21660000  1.0 0.2395430083
C  C19  1  0.70500000  0.98840000  0.02840000  1.0 0.2395430083
C  C20  1  0.46000000  0.67660000  0.47160000  1.0 0.2395430083
C  C21  1  0.79110000  0.79320000  0.30770000  1.0 -0.0703596466
C  C22  1  0.98550000  0.48340000  0.19230000  1.0 -0.0703596466
C  C23  1  0.70890000  0.01660000  0.00210000  1.0 -0.0703596466
C  C24  1  0.51450000  0.70680000  0.49790000  1.0 -0.0703596466
C  C25  1  0.74250000  0.77700000  0.30890000  1.0 -0.1433660376
C  C26  1  0.96810000  0.43360000  0.19110000  1.0 -0.1433660376
C  C27  1  0.75750000  0.06640000  0.03450000  1.0 -0.1433660376
C  C28  1  0.53190000  0.72300000  0.46550000  1.0 -0.1433660376
C  C29  1  0.75300000  0.86970000  0.23130000  1.0 0.2809277723
C  C30  1  0.13840000  0.52170000  0.26870000  1.0 0.2809277723
C  C31  1  0.74700000  0.97830000  0.11670000  1.0 0.2809277723
C  C32  1  0.36160000  0.63030000  0.38330000  1.0 0.2809277723
C  C33  1  0.78950000  0.95220000  0.30130000  1.0 -0.4489297017
C  C34  1  0.15090000  0.48820000  0.19870000  1.0 -0.4489297017
C  C35  1  0.71050000  0.01180000  0.16270000  1.0 -0.4489297017
C  C36  1  0.34910000  0.54780000  0.33730000  1.0 -0.4489297017
C  C37  1  0.77040000  0.80910000  0.15130000  1.0 -0.4599464581
C  C38  1  0.15780000  0.61910000  0.34870000  1.0 -0.4599464581
C  C39  1  0.72960000  0.88090000  0.03870000  1.0 -0.4599464581
C  C40  1  0.34220000  0.69090000  0.46130000  1.0 -0.4599464581
C  C41  1  0.69840000  0.87720000  0.20460000  1.0 -0.4489297017
C  C42  1  0.17260000  0.49380000  0.29540000  1.0 -0.4489297017
C  C43  1  0.80160000  0.00620000  0.17880000  1.0 -0.4489297017
C  C44  1  0.32740000  0.62280000  0.32120000  1.0 -0.4489297017
C  C45  1  0.83250000  0.76940000  0.32850000  1.0 0.1086033607
C  C46  1  0.94090000  0.50400000  0.17150000  1.0 0.1086033607
C  C47  1  0.66750000  0.99600000  0.93690000  1.0 0.1086033607
C  C48  1  0.55910000  0.73060000  0.56310000  1.0 0.1086033607
C  C49  1  0.91950000  0.75280000  0.35430000  1.0 0.0893465509
C  C50  1  0.89850000  0.56520000  0.14570000  1.0 0.0893465509
C  C51  1  0.58050000  0.93480000  0.83330000  1.0 0.0893465509
C  C52  1  0.60150000  0.74720000  0.66666667  1.0 0.0893465509
C  C53  1  0.97280000  0.77600000  0.37000000  1.0 0.1771252404
C  C54  1  0.90600000  0.60280000  0.13000000  1.0 0.1771252404
C  C55  1  0.52720000  0.89720000  0.80320000  1.0 0.1771252404
C  C56  1  0.59400000  0.72400000  0.69680000  1.0 0.1771252404
C  C57  1  0.01160000  0.75440000  0.39120000  1.0 -0.0579686366
C  C58  1  0.86320000  0.62040000  0.10880000  1.0 -0.0579686366
C  C59  1  0.48840000  0.87960000  0.74280000  1.0 -0.0579686366
C  C60  1  0.63680000  0.74560000  0.75720000  1.0 -0.0579686366
C  C61  1  0.99700000  0.70960000  0.39680000  1.0 0.0893465509
C  C62  1  0.81280000  0.60020000  0.10320000  1.0 0.0893465509
C  C63  1  0.50300000  0.89980000  0.71260000  1.0 0.0893465509
C  C64  1  0.68720000  0.79040000  0.78740000  1.0 0.0893465509
C  C65  1  0.94370000  0.68630000  0.38120000  1.0 0.1203428996
C  C66  1  0.80510000  0.56250000  0.11880000  1.0 0.1203428996
C  C67  1  0.55630000  0.93750000  0.74260000  1.0 0.1203428996
C  C68  1  0.69490000  0.81370000  0.75740000  1.0 0.1203428996
C  C69  1  0.90500000  0.70800000  0.36000000  1.0 -0.2535836821
C  C70  1  0.84800000  0.54500000  0.14000000  1.0 -0.2535836821
C  C71  1  0.59500000  0.95500000  0.80300000  1.0 -0.2535836821
C  C72  1  0.65200000  0.79200000  0.69700000  1.0 -0.2535836821
C  C73  1  0.92650000  0.63350000  0.38300000  1.0 -0.4199883441
C  C74  1  0.75050000  0.54350000  0.11700000  1.0 -0.4199883441
C  C75  1  0.57350000  0.95650000  0.70700000  1.0 -0.4199883441
C  C76  1  0.74950000  0.86650000  0.79300000  1.0 -0.4199883441
C  C77  1  0.03530000  0.67040000  0.40750000  1.0 -0.4297817176
C  C78  1  0.76290000  0.62780000  0.09250000  1.0 -0.4297817176
C  C79  1  0.46470000  0.87220000  0.63510000  1.0 -0.4297817176
C  C80  1  0.73710000  0.82960000  0.86490000  1.0 -0.4297817176
C  C81  1  0.07150000  0.78730000  0.41600000  1.0 -0.0579686366
C  C82  1  0.87130000  0.65550000  0.08400000  1.0 -0.0579686366
C  C83  1  0.42850000  0.84450000  0.71580000  1.0 -0.0579686366
C  C84  1  0.62870000  0.71270000  0.78420000  1.0 -0.0579686366
C  C85  1  0.08930000  0.75800000  0.35350000  1.0 0.1771252404
C  C86  1  0.90450000  0.73580000  0.14650000  1.0 0.1771252404
C  C87  1  0.41070000  0.76420000  0.66870000  1.0 0.1771252404
C  C88  1  0.59550000  0.74200000  0.83130000  1.0 0.1771252404
C  C89  1  0.14370000  0.78070000  0.37280000  1.0 0.0985843365
C  C90  1  0.90790000  0.77090000  0.12720000  1.0 0.0985843365
C  C91  1  0.35630000  0.72910000  0.63700000  1.0 0.0985843365
C  C92  1  0.59210000  0.71930000  0.86300000  1.0 0.0985843365
C  C93  1  0.18020000  0.83270000  0.45450000  1.0 -0.2622719904
C  C94  1  0.87820000  0.72570000  0.04550000  1.0 -0.2622719904
C  C95  1  0.31980000  0.77430000  0.65250000  1.0 -0.2622719904
C  C96  1  0.62180000  0.66730000  0.84750000  1.0 -0.2622719904
C  C97  1  0.16240000  0.86190000  0.51690000  1.0 0.130353035
C  C98  1  0.84500000  0.64550000  0.98310000  1.0 0.130353035
C  C99  1  0.33760000  0.85450000  0.69950000  1.0 0.130353035
C  C100  1  0.65500000  0.63810000  0.80050000  1.0 0.130353035
C  C101  1  0.10790000  0.83910000  0.49760000  1.0 0.0793213356
C  C102  1  0.84150000  0.61030000  0.00240000  1.0 0.0793213356
C  C103  1  0.39210000  0.88970000  0.73120000  1.0 0.0793213356
C  C104  1  0.65850000  0.66090000  0.76880000  1.0 0.0793213356
C  C105  1  0.08680000  0.87900000  0.57320000  1.0 -0.4415548499
C  C106  1  0.80580000  0.51360000  0.92680000  1.0 -0.4415548499
C  C107  1  0.41320000  0.98640000  0.79220000  1.0 -0.4415548499
C  C108  1  0.69420000  0.62100000  0.70780000  1.0 -0.4415548499
C  C109  1  0.20740000  0.92030000  0.60670000  1.0 -0.4415548499
C  C110  1  0.81360000  0.60070000  0.89330000  1.0 -0.4415548499
C  C111  1  0.29260000  0.89930000  0.71290000  1.0 -0.4415548499
C  C112  1  0.68640000  0.57970000  0.78710000  1.0 -0.4415548499
C  C113  1  0.20810000  0.75190000  0.31000000  1.0 0.1086033607
C  C114  1  0.94190000  0.89810000  0.19000000  1.0 0.1086033607
C  C115  1  0.29190000  0.60190000  0.54380000  1.0 0.1086033607
C  C116  1  0.55810000  0.74810000  0.95620000  1.0 0.1086033607
C  C117  1  0.22810000  0.71660000  0.24330000  1.0 -0.0807552611
C  C118  1  0.97330000  0.98480000  0.25670000  1.0 -0.0807552611
C  C119  1  0.27190000  0.51520000  0.48850000  1.0 -0.0807552611
C  C120  1  0.52670000  0.78340000  0.01150000  1.0 -0.0807552611
C  C121  1  0.19830000  0.67370000  0.16280000  1.0 0.212850737
C  C122  1  0.01090000  0.03550000  0.33720000  1.0 0.212850737
C  C123  1  0.30170000  0.46450000  0.47540000  1.0 0.212850737
C  C124  1  0.48910000  0.82630000  0.02460000  1.0 0.212850737
C  C125  1  0.22390000  0.64360000  0.10650000  1.0 -0.0483120758
C  C126  1  0.03710000  0.11740000  0.39350000  1.0 -0.0400120591
C  C127  1  0.27610000  0.38260000  0.41970000  1.0 -0.0400120591
C  C128  1  0.46290000  0.85640000  0.08030000  1.0 -0.0483120758
C  C129  1  0.27910000  0.65630000  0.13080000  1.0 -0.1504875657
C  C130  1  0.02550000  0.14830000  0.36920000  1.0 -0.1504875657
C  C131  1  0.22090000  0.35170000  0.37720000  1.0 -0.1504875657
C  C132  1  0.47450000  0.84370000  0.12280000  1.0 -0.1504875657
C  C133  1  0.30890000  0.69920000  0.21130000  1.0 -0.021013684
C  C134  1  0.98790000  0.09760000  0.28870000  1.0 -0.021013684
C  C135  1  0.19110000  0.40240000  0.39030000  1.0 -0.021013684
C  C136  1  0.51210000  0.80080000  0.10970000  1.0 -0.021013684
C  C137  1  0.28330000  0.72930000  0.26760000  1.0 -0.1433660376
C  C138  1  0.96170000  0.01570000  0.23240000  1.0 -0.1433660376
C  C139  1  0.21670000  0.48430000  0.44600000  1.0 -0.1433660376
C  C140  1  0.53830000  0.77070000  0.05400000  1.0 -0.1433660376
C  C141  1  0.36760000  0.70460000  0.23300000  1.0 0.5391383941
C  C142  1  0.97160000  0.13460000  0.26700000  1.0 0.5391383941
C  C143  1  0.13240000  0.36540000  0.33700000  1.0 0.5391383941
C  C144  1  0.52840000  0.79540000  0.16300000  1.0 0.5391383941
C  C145  1  0.19090000  0.59570000  0.01580000  1.0 0.2809277723
C  C146  1  0.07990000  0.17510000  0.48420000  1.0 0.2809277723
C  C147  1  0.30910000  0.32490000  0.40480000  1.0 0.2809277723
C  C148  1  0.42010000  0.90430000  0.09520000  1.0 0.2809277723
C  C149  1  0.22990000  0.57100000  0.96450000  1.0 -0.4297817176
C  C150  1  0.10650000  0.26540000  0.53550000  1.0 -0.4297817176
C  C151  1  0.27010000  0.23460000  0.34110000  1.0 -0.4297817176
C  C152  1  0.39350000  0.92900000  0.15890000  1.0 -0.4297817176
C  C153  1  0.16110000  0.64520000  0.01990000  1.0 -0.4489297017
C  C154  1  0.12530000  0.14120000  0.48010000  1.0 -0.4489297017
C  C155  1  0.33890000  0.35880000  0.48410000  1.0 -0.4489297017
C  C156  1  0.37470000  0.85480000  0.01590000  1.0 -0.4489297017
C  C157  1  0.15330000  0.51150000  0.95980000  1.0 -0.4489297017
C  C158  1  0.05170000  0.19350000  0.54020000  1.0 -0.4489297017
C  C159  1  0.34670000  0.30650000  0.35820000  1.0 -0.4415548499
C  C160  1  0.44830000  0.98850000  0.14180000  1.0 -0.4415548499
C  C161  1  0.81330000  0.32420000  0.64290000  1.0 0.5545949216
C  C162  1  0.18130000  0.17040000  0.85710000  1.0 0.5545949216
C  C163  1  0.68670000  0.32960000  0.51090000  1.0 0.5545949216
C  C164  1  0.31870000  0.17580000  0.98910000  1.0 0.5545949216
C  C165  1  0.84840000  0.36270000  0.72350000  1.0 -0.0400120591
C  C166  1  0.13920000  0.12490000  0.77650000  1.0 -0.0400120591
C  C167  1  0.65160000  0.37510000  0.51430000  1.0 -0.0400120591
C  C168  1  0.36080000  0.13730000  0.98570000  1.0 -0.0400120591
C  C169  1  0.84350000  0.32070000  0.73500000  1.0 -0.1223166802
C  C170  1  0.08570000  0.10850000  0.76500000  1.0 -0.1223166802
C  C171  1  0.65650000  0.39150000  0.47720000  1.0 -0.1223166802
C  C172  1  0.41430000  0.17930000  0.02280000  1.0 -0.1223166802
C  C173  1  0.87480000  0.35740000  0.81180000  1.0 -0.0579686366
C  C174  1  0.04560000  0.06300000  0.68820000  1.0 -0.0579686366
C  C175  1  0.62520000  0.43700000  0.48260000  1.0 -0.0579686366
C  C176  1  0.45440000  0.14260000  0.01740000  1.0 -0.0579686366
C  C177  1  0.91100000  0.43620000  0.87720000  1.0 0.2311140026
C  C178  1  0.05900000  0.03380000  0.62280000  1.0 0.2311140026
C  C179  1  0.58900000  0.46620000  0.52520000  1.0 0.2311140026
C  C180  1  0.44100000  0.06380000  0.97480000  1.0 0.2311140026
C  C181  1  0.91610000  0.47830000  0.86580000  1.0 -0.0703596466
C  C182  1  0.11250000  0.05030000  0.63420000  1.0 -0.0703596466
C  C183  1  0.58390000  0.44970000  0.56220000  1.0 -0.0703596466
C  C184  1  0.38750000  0.02170000  0.93780000  1.0 -0.0703596466
C  C185  1  0.88480000  0.44160000  0.78900000  1.0 -0.1327646751
C  C186  1  0.15260000  0.09580000  0.71100000  1.0 -0.1327646751
C  C187  1  0.61520000  0.40420000  0.55680000  1.0 -0.1327646751
C  C188  1  0.34740000  0.05840000  0.94320000  1.0 -0.1327646751
C  C189  1  0.86850000  0.30840000  0.82230000  1.0 0.2958225781
C  C190  1  0.98610000  0.04620000  0.67770000  1.0 0.2958225781
C  C191  1  0.63150000  0.45380000  0.43990000  1.0 0.2958225781
C  C192  1  0.51390000  0.19160000  0.06010000  1.0 0.2958225781
C  C193  1  0.82480000  0.22350000  0.74370000  1.0 -0.4489297017
C  C194  1  0.97980000  0.08110000  0.75630000  1.0 -0.4415548499
C  C195  1  0.67520000  0.41890000  0.39870000  1.0 -0.4415548499
C  C196  1  0.52020000  0.27650000  0.10130000  1.0 -0.4415548499
C  C197  1  0.84740000  0.36130000  0.89950000  1.0 -0.4599464581
C  C198  1  0.96180000  0.94790000  0.60050000  1.0 -0.4599464581
C  C199  1  0.65260000  0.55210000  0.51390000  1.0 -0.4599464581
C  C200  1  0.53820000  0.13870000  0.98610000  1.0 -0.4599464581
C  C201  1  0.92180000  0.29340000  0.84040000  1.0 -0.4599464581
C  C202  1  0.95300000  0.08140000  0.65960000  1.0 -0.4599464581
C  C203  1  0.57820000  0.41860000  0.37160000  1.0 -0.4599464581
C  C204  1  0.54700000  0.20660000  0.12840000  1.0 -0.4599464581
C  C205  1  0.95000000  0.56360000  0.93000000  1.0 0.1086033607
C  C206  1  0.13360000  0.02000000  0.57000000  1.0 0.1086033607
C  C207  1  0.55000000  0.48000000  0.61360000  1.0 0.1086033607
C  C208  1  0.36640000  0.93640000  0.88640000  1.0 0.1086033607
C  C209  1  0.01320000  0.69570000  0.06550000  1.0 0.0893465509
C  C210  1  0.13020000  0.94770000  0.43450000  1.0 0.0893465509
C  C211  1  0.48680000  0.55230000  0.68250000  1.0 0.0893465509
C  C212  1  0.36980000  0.80430000  0.81750000  1.0 0.0893465509
C  C213  1  0.04520000  0.74360000  0.14760000  1.0 0.1718747343
C  C214  1  0.09600000  0.89760000  0.35240000  1.0 0.1718747343
C  C215  1  0.45480000  0.60240000  0.69840000  1.0 0.1718747343
C  C216  1  0.40400000  0.75640000  0.80160000  1.0 0.1718747343
C  C217  1  0.07680000  0.82400000  0.20720000  1.0 -0.0579686366
C  C218  1  0.11680000  0.86960000  0.29280000  1.0 -0.0579686366
C  C219  1  0.42320000  0.63040000  0.74720000  1.0 -0.0579686366
C  C220  1  0.38320000  0.67600000  0.75280000  1.0 -0.0579686366
C  C221  1  0.07650000  0.85650000  0.18460000  1.0 0.0617541304
C  C222  1  0.17190000  0.89190000  0.31540000  1.0 0.0617541304
C  C223  1  0.42350000  0.60810000  0.78000000  1.0 0.0617541304
C  C224  1  0.32810000  0.64350000  0.72000000  1.0 0.0617541304
C  C225  1  0.04450000  0.80850000  0.10240000  1.0 0.139613046
C  C226  1  0.20610000  0.94210000  0.39760000  1.0 0.139613046
C  C227  1  0.45550000  0.55790000  0.76400000  1.0 0.139613046
C  C228  1  0.29390000  0.69150000  0.73600000  1.0 0.139613046
C  C229  1  0.01290000  0.72810000  0.04280000  1.0 -0.2702099085
C  C230  1  0.18530000  0.97010000  0.45720000  1.0 -0.2702099085
C  C231  1  0.48710000  0.52990000  0.71520000  1.0 -0.2702099085
C  C232  1  0.31470000  0.77190000  0.78480000  1.0 -0.2702099085
C  C233  1  0.03990000  0.84620000  0.07770000  1.0 -0.4199883441
C  C234  1  0.26850000  0.96220000  0.42230000  1.0 -0.4199883441
C  C235  1  0.46010000  0.53780000  0.80630000  1.0 -0.4199883441
C  C236  1  0.23150000  0.65380000  0.69370000  1.0 -0.4199883441
C  C237  1  0.10880000  0.94170000  0.24590000  1.0 -0.4199883441
C  C238  1  0.19580000  0.86290000  0.25410000  1.0 -0.4199883441
C  C239  1  0.39120000  0.63710000  0.83290000  1.0 -0.4199883441
C  C240  1  0.30420000  0.55830000  0.66710000  1.0 -0.4199883441
C  C241  1  0.56290000  0.94500000  0.42990000  1.0 0.0793213356
C  C242  1  0.01510000  0.13300000  0.07010000  1.0 0.0893465509
C  C243  1  0.93710000  0.36700000  0.38210000  1.0 0.0893465509
C  C244  1  0.48490000  0.55500000  0.11790000  1.0 0.0893465509
C  C245  1  0.56210000  0.02810000  0.50000000  1.0 -0.1327646751
C  C246  1  0.02810000  0.06210000  0.00000000  1.0 -0.1327646751
C  C247  1  0.93790000  0.43790000  0.46600000  1.0 -0.1327646751
C  C248  1  0.47190000  0.47190000  0.03400000  1.0 -0.1327646751
C  C249  1  0.57200000  0.06800000  0.58000000  1.0 -0.0400120591
C  C250  1  0.98800000  0.99200000  0.92000000  1.0 -0.0483120758
C  C251  1  0.92800000  0.50800000  0.49600000  1.0 -0.0483120758
C  C252  1  0.51200000  0.43200000  0.00400000  1.0 -0.0483120758
C  C253  1  0.58210000  0.02410000  0.59000000  1.0 -0.1433660376
C  C254  1  0.93410000  0.99210000  0.91000000  1.0 -0.1433660376
C  C255  1  0.91790000  0.50790000  0.44200000  1.0 -0.1433660376
C  C256  1  0.56590000  0.47590000  0.05800000  1.0 -0.1433660376
C  C257  1  0.58250000  0.94000000  0.51850000  1.0 0.0699803928
C  C258  1  0.92150000  0.06400000  0.98150000  1.0 0.0699803928
C  C259  1  0.91750000  0.43600000  0.35750000  1.0 0.0699803928
C  C260  1  0.57850000  0.56000000  0.14250000  1.0 0.0699803928
C  C261  1  0.65540000  0.09240000  0.32720000  1.0 0.0699803928
C  C262  1  0.26520000  0.32820000  0.17280000  1.0 0.0699803928
C  C263  1  0.84460000  0.17180000  0.43700000  1.0 0.0699803928
C  C264  1  0.23480000  0.40760000  0.06300000  1.0 0.0699803928
C  C265  1  0.60680000  0.03220000  0.27660000  1.0 -0.1327646751
C  C266  1  0.25560000  0.33020000  0.22340000  1.0 -0.1327646751
C  C267  1  0.89320000  0.16980000  0.42540000  1.0 -0.1327646751
C  C268  1  0.24440000  0.46780000  0.07460000  1.0 -0.1327646751
C  C269  1  0.59030000  0.00800000  0.30230000  1.0 -0.021013684
C  C270  1  0.20570000  0.28800000  0.19770000  1.0 -0.021013684
C  C271  1  0.90970000  0.21200000  0.41770000  1.0 -0.021013684
C  C272  1  0.29430000  0.49200000  0.08230000  1.0 -0.021013684
C  C273  1  0.62230000  0.04380000  0.37850000  1.0 -0.1327646751
C  C274  1  0.16530000  0.24380000  0.12150000  1.0 -0.1327646751
C  C275  1  0.87770000  0.25620000  0.42150000  1.0 -0.1327646751
C  C276  1  0.33470000  0.45620000  0.07850000  1.0 -0.1327646751
C  C277  1  0.67090000  0.10360000  0.42870000  1.0 0.0793213356
C  C278  1  0.17490000  0.24220000  0.07130000  1.0 0.0793213356
C  C279  1  0.82910000  0.25780000  0.43270000  1.0 0.0793213356
C  C280  1  0.32510000  0.39640000  0.06730000  1.0 0.0793213356
N  N1  1  0.57310000  0.90140000  0.43970000  1.0 -0.2166413417
N  N2  1  0.96170000  0.13340000  0.06030000  1.0 -0.2166413417
N  N3  1  0.92690000  0.36660000  0.32830000  1.0 -0.2166413417
N  N4  1  0.53830000  0.59860000  0.17170000  1.0 -0.2166413417
N  N5  1  0.68750000  0.12790000  0.40320000  1.0 -0.2826810305
N  N6  1  0.22470000  0.28430000  0.09680000  1.0 -0.2826810305
N  N7  1  0.81250000  0.21570000  0.44040000  1.0 -0.2826810305
N  N8  1  0.27530000  0.37210000  0.05960000  1.0 -0.2826810305
N  N9  1  0.88210000  0.77940000  0.33490000  1.0 -0.2702099085
N  N10  1  0.94450000  0.54720000  0.16510000  1.0 -0.2702099085
N  N11  1  0.61790000  0.95280000  0.89730000  1.0 -0.2702099085
N  N12  1  0.55550000  0.72060000  0.60270000  1.0 -0.2702099085
N  N13  1  0.15940000  0.74600000  0.30540000  1.0 -0.2622719904
N  N14  1  0.94060000  0.85400000  0.19460000  1.0 -0.2622719904
N  N15  1  0.34060000  0.64600000  0.58660000  1.0 -0.2622719904
N  N16  1  0.55940000  0.75400000  0.91340000  1.0 -0.2622719904
N  N17  1  0.98210000  0.61110000  0.00520000  1.0 -0.2702099085
N  N18  1  0.10590000  0.97690000  0.49480000  1.0 -0.2702099085
N  N19  1  0.51790000  0.52310000  0.62900000  1.0 -0.2702099085
N  N20  1  0.39410000  0.88890000  0.87100000  1.0 -0.2702099085
O  O1  1  0.04150000  0.71060000  0.16790000  1.0 -0.5599305655
O  O2  1  0.04270000  0.87360000  0.33210000  1.0 -0.5599305655
O  O3  1  0.45850000  0.62640000  0.66910000  1.0 -0.5599305655
O  O4  1  0.45730000  0.78940000  0.83090000  1.0 -0.5599305655
O  O5  1  0.96220000  0.94210000  0.39590000  1.0 -0.7786683564
O  O6  1  0.04620000  0.56630000  0.10410000  1.0 -0.7786683564
O  O7  1  0.53780000  0.93370000  0.97990000  1.0 -0.7786683564
O  O8  1  0.45380000  0.55790000  0.52010000  1.0 -0.7786683564
O  O9  1  0.84170000  0.84220000  0.28550000  1.0 -0.5107199823
O  O10  1  0.05670000  0.55620000  0.21450000  1.0 -0.5107199823
O  O11  1  0.65830000  0.94380000  0.00050000  1.0 -0.5107199823
O  O12  1  0.44330000  0.65780000  0.49950000  1.0 -0.5107199823
O  O13  1  0.98330000  0.81330000  0.35640000  1.0 -0.5599305655
O  O14  1  0.95690000  0.62690000  0.14360000  1.0 -0.5599305655
O  O15  1  0.51670000  0.87310000  0.83000000  1.0 -0.5599305655
O  O16  1  0.54310000  0.68670000  0.67000000  1.0 -0.5599305655
O  O17  1  0.05490000  0.71110000  0.27440000  1.0 -0.5599305655
O  O18  1  0.93670000  0.78050000  0.22560000  1.0 -0.5599305655
O  O19  1  0.44510000  0.71950000  0.65620000  1.0 -0.5599305655
O  O20  1  0.56330000  0.78890000  0.84380000  1.0 -0.5599305655
O  O21  1  0.14500000  0.65670000  0.13470000  1.0 -0.4856206303
O  O22  1  0.02200000  0.01030000  0.36530000  1.0 -0.4856206303
O  O23  1  0.35500000  0.48970000  0.51170000  1.0 -0.4856206303
O  O24  1  0.47800000  0.84330000  0.98830000  1.0 -0.4849441176
O  O25  1  0.94120000  0.46780000  0.94940000  1.0 -0.5045076733
O  O26  1  0.01840000  0.99180000  0.55060000  1.0 -0.5045076733
O  O27  1  0.55880000  0.50820000  0.52660000  1.0 -0.5045076733
O  O28  1  0.48160000  0.03220000  0.97340000  1.0 -0.5045076733
O  O29  1  0.64860000  0.76570000  0.33090000  1.0 -0.521458519
O  O30  1  0.93480000  0.31770000  0.16910000  1.0 -0.521458519
O  O31  1  0.85140000  0.18230000  0.11710000  1.0 -0.521458519
O  O32  1  0.56520000  0.73430000  0.38290000  1.0 -0.521458519
O  O33  1  0.60600000  0.78210000  0.26550000  1.0 -0.4599464581
O  O34  1  0.01660000  0.34050000  0.23450000  1.0 -0.4652292257
O  O35  1  0.89400000  0.15950000  0.17610000  1.0 -0.4599464581
O  O36  1  0.48340000  0.71790000  0.32390000  1.0 -0.4599464581
O  O37  1  0.39070000  0.74160000  0.30790000  1.0 -0.5384356354
O  O38  1  0.93370000  0.08280000  0.19210000  1.0 -0.5384356354
O  O39  1  0.10930000  0.41720000  0.35090000  1.0 -0.5384356354
O  O40  1  0.56630000  0.75840000  0.14910000  1.0 -0.5384356354
O  O41  1  0.38980000  0.67500000  0.18200000  1.0 -0.5107199823
O  O42  1  0.99300000  0.20780000  0.31800000  1.0 -0.5107199823
O  O43  1  0.11020000  0.29220000  0.28520000  1.0 -0.5107199823
O  O44  1  0.50700000  0.82500000  0.21480000  1.0 -0.5107199823
O  O45  1  0.78160000  0.25130000  0.58350000  1.0 -0.5321936583
O  O46  1  0.16780000  0.19810000  0.91650000  1.0 -0.5321936583
O  O47  1  0.71840000  0.30190000  0.46970000  1.0 -0.5321936583
O  O48  1  0.33220000  0.24870000  0.03030000  1.0 -0.5321936583
O  O49  1  0.81900000  0.36270000  0.63130000  1.0 -0.5513269429
O  O50  1  0.23140000  0.18770000  0.86870000  1.0 -0.5513269429
O  O51  1  0.68100000  0.31230000  0.54370000  1.0 -0.5513269429
O  O52  1  0.26860000  0.13730000  0.95630000  1.0 -0.5513269429
