# DDEC6 charges by PACMAN v1.1 (https://github.com/mtap-research/PACMAN-charge/)
data_FORXIU_ASR_pacman
_symmetry_space_group_name_H-M   'P 1'
_cell_length_a   32.97030000
_cell_length_b   32.97030000
_cell_length_c   32.97030000
_cell_angle_alpha   60.00000000
_cell_angle_beta   60.00000000
_cell_angle_gamma   60.00000000
_symmetry_Int_Tables_number   1
_chemical_formula_structural   Zn2H28C32NO8
_chemical_formula_sum   'Zn24 H336 C384 N12 O96'
_cell_volume   25342.74762616
_cell_formula_units_Z   12
loop_
 _symmetry_equiv_pos_site_id
 _symmetry_equiv_pos_as_xyz
  1  'x, y, z'
loop_
 _atom_site_type_symbol
 _atom_site_label
 _atom_site_symmetry_multiplicity
 _atom_site_fract_x
 _atom_site_fract_y
 _atom_site_fract_z
 _atom_site_occupancy
 _atom_site_charge
Zn  Zn1  1  0.00000000  0.00000000  0.39962000  1.0 0.6404910633
Zn  Zn2  1  0.00000000  0.00000000  0.60038000  1.0 0.6404910633
Zn  Zn3  1  0.39962000  0.60038000  0.00000000  1.0 0.6404910633
Zn  Zn4  1  0.60038000  0.39962000  0.00000000  1.0 0.6404910633
Zn  Zn5  1  0.39962000  0.00000000  0.00000000  1.0 0.6404910633
Zn  Zn6  1  0.60038000  0.00000000  0.00000000  1.0 0.6404910633
Zn  Zn7  1  0.00000000  0.39962000  0.60038000  1.0 0.6404910633
Zn  Zn8  1  0.00000000  0.60038000  0.39962000  1.0 0.6404910633
Zn  Zn9  1  0.00000000  0.39962000  0.00000000  1.0 0.6404910633
Zn  Zn10  1  0.00000000  0.60038000  0.00000000  1.0 0.6404910633
Zn  Zn11  1  0.60038000  0.00000000  0.39962000  1.0 0.6404910633
Zn  Zn12  1  0.39962000  0.00000000  0.60038000  1.0 0.6404910633
Zn  Zn13  1  0.00000000  0.00000000  0.31076000  1.0 0.9026672938
Zn  Zn14  1  0.00000000  0.00000000  0.68924000  1.0 0.9026672938
Zn  Zn15  1  0.31076000  0.68924000  0.00000000  1.0 0.9026672938
Zn  Zn16  1  0.68924000  0.31076000  0.00000000  1.0 0.9026672938
Zn  Zn17  1  0.31076000  0.00000000  0.00000000  1.0 0.9026672938
Zn  Zn18  1  0.68924000  0.00000000  0.00000000  1.0 0.9026672938
Zn  Zn19  1  0.00000000  0.31076000  0.68924000  1.0 0.9026672938
Zn  Zn20  1  0.00000000  0.68924000  0.31076000  1.0 0.9026672938
Zn  Zn21  1  0.00000000  0.31076000  0.00000000  1.0 0.9026672938
Zn  Zn22  1  0.00000000  0.68924000  0.00000000  1.0 0.9026672938
Zn  Zn23  1  0.68924000  0.00000000  0.31076000  1.0 0.9026672938
Zn  Zn24  1  0.31076000  0.00000000  0.68924000  1.0 0.9026672938
H  H1  1  0.15210000  0.98310000  0.22810000  1.0 0.1296768945
H  H2  1  0.98310000  0.15210000  0.63670000  1.0 0.1296768945
H  H3  1  0.22810000  0.63670000  0.15210000  1.0 0.1296768945
H  H4  1  0.63670000  0.22810000  0.98310000  1.0 0.1296768945
H  H5  1  0.22810000  0.15210000  0.98310000  1.0 0.1296768945
H  H6  1  0.63670000  0.98310000  0.15210000  1.0 0.1296768945
H  H7  1  0.15210000  0.22810000  0.63670000  1.0 0.1296768945
H  H8  1  0.98310000  0.63670000  0.22810000  1.0 0.1296768945
H  H9  1  0.98310000  0.22810000  0.15210000  1.0 0.1296768945
H  H10  1  0.15210000  0.63670000  0.98310000  1.0 0.1296768945
H  H11  1  0.63670000  0.15210000  0.22810000  1.0 0.1296768945
H  H12  1  0.22810000  0.98310000  0.63670000  1.0 0.1296768945
H  H13  1  0.84790000  0.01690000  0.36330000  1.0 0.1296768945
H  H14  1  0.01690000  0.84790000  0.77190000  1.0 0.1296768945
H  H15  1  0.77190000  0.36330000  0.01690000  1.0 0.1296768945
H  H16  1  0.36330000  0.77190000  0.84790000  1.0 0.1296768945
H  H17  1  0.77190000  0.84790000  0.36330000  1.0 0.1296768945
H  H18  1  0.36330000  0.01690000  0.77190000  1.0 0.1296768945
H  H19  1  0.84790000  0.77190000  0.01690000  1.0 0.1296768945
H  H20  1  0.01690000  0.36330000  0.84790000  1.0 0.1296768945
H  H21  1  0.01690000  0.77190000  0.36330000  1.0 0.1296768945
H  H22  1  0.84790000  0.36330000  0.77190000  1.0 0.1296768945
H  H23  1  0.36330000  0.84790000  0.01690000  1.0 0.1296768945
H  H24  1  0.77190000  0.01690000  0.84790000  1.0 0.1296768945
H  H25  1  0.84790000  0.01690000  0.77190000  1.0 0.1296768945
H  H26  1  0.01690000  0.84790000  0.36330000  1.0 0.1296768945
H  H27  1  0.77190000  0.36330000  0.84790000  1.0 0.1296768945
H  H28  1  0.36330000  0.77190000  0.01690000  1.0 0.1296768945
H  H29  1  0.77190000  0.84790000  0.01690000  1.0 0.1296768945
H  H30  1  0.36330000  0.01690000  0.84790000  1.0 0.1296768945
H  H31  1  0.84790000  0.77190000  0.36330000  1.0 0.1296768945
H  H32  1  0.01690000  0.36330000  0.77190000  1.0 0.1296768945
H  H33  1  0.01690000  0.77190000  0.84790000  1.0 0.1296768945
H  H34  1  0.84790000  0.36330000  0.01690000  1.0 0.1296768945
H  H35  1  0.36330000  0.84790000  0.77190000  1.0 0.1296768945
H  H36  1  0.77190000  0.01690000  0.36330000  1.0 0.1296768945
H  H37  1  0.15210000  0.98310000  0.63670000  1.0 0.1296768945
H  H38  1  0.98310000  0.15210000  0.22810000  1.0 0.1296768945
H  H39  1  0.22810000  0.63670000  0.98310000  1.0 0.1296768945
H  H40  1  0.63670000  0.22810000  0.15210000  1.0 0.1296768945
H  H41  1  0.22810000  0.15210000  0.63670000  1.0 0.1296768945
H  H42  1  0.63670000  0.98310000  0.22810000  1.0 0.1296768945
H  H43  1  0.15210000  0.22810000  0.98310000  1.0 0.1296768945
H  H44  1  0.98310000  0.63670000  0.15210000  1.0 0.1296768945
H  H45  1  0.98310000  0.22810000  0.63670000  1.0 0.1296768945
H  H46  1  0.15210000  0.63670000  0.22810000  1.0 0.1296768945
H  H47  1  0.63670000  0.15210000  0.98310000  1.0 0.1296768945
H  H48  1  0.22810000  0.98310000  0.15210000  1.0 0.1296768945
H  H49  1  0.23820000  0.96900000  0.31420000  1.0 0.1138081983
H  H50  1  0.96900000  0.23820000  0.47860000  1.0 0.1138081983
H  H51  1  0.31420000  0.47860000  0.23820000  1.0 0.1138081983
H  H52  1  0.47860000  0.31420000  0.96900000  1.0 0.1138081983
H  H53  1  0.31420000  0.23820000  0.96900000  1.0 0.1138081983
H  H54  1  0.47860000  0.96900000  0.23820000  1.0 0.1138081983
H  H55  1  0.23820000  0.31420000  0.47860000  1.0 0.1138081983
H  H56  1  0.96900000  0.47860000  0.31420000  1.0 0.1138081983
H  H57  1  0.96900000  0.31420000  0.23820000  1.0 0.1138081983
H  H58  1  0.23820000  0.47860000  0.96900000  1.0 0.1138081983
H  H59  1  0.47860000  0.23820000  0.31420000  1.0 0.1138081983
H  H60  1  0.31420000  0.96900000  0.47860000  1.0 0.1138081983
H  H61  1  0.76180000  0.03100000  0.52140000  1.0 0.1138081983
H  H62  1  0.03100000  0.76180000  0.68580000  1.0 0.1138081983
H  H63  1  0.68580000  0.52140000  0.03100000  1.0 0.1138081983
H  H64  1  0.52140000  0.68580000  0.76180000  1.0 0.1138081983
H  H65  1  0.68580000  0.76180000  0.52140000  1.0 0.1138081983
H  H66  1  0.52140000  0.03100000  0.68580000  1.0 0.1138081983
H  H67  1  0.76180000  0.68580000  0.03100000  1.0 0.1138081983
H  H68  1  0.03100000  0.52140000  0.76180000  1.0 0.1138081983
H  H69  1  0.03100000  0.68580000  0.52140000  1.0 0.1138081983
H  H70  1  0.76180000  0.52140000  0.68580000  1.0 0.1138081983
H  H71  1  0.52140000  0.76180000  0.03100000  1.0 0.1138081983
H  H72  1  0.68580000  0.03100000  0.76180000  1.0 0.1138081983
H  H73  1  0.76180000  0.03100000  0.68580000  1.0 0.1138081983
H  H74  1  0.03100000  0.76180000  0.52140000  1.0 0.1138081983
H  H75  1  0.68580000  0.52140000  0.76180000  1.0 0.1138081983
H  H76  1  0.52140000  0.68580000  0.03100000  1.0 0.1138081983
H  H77  1  0.68580000  0.76180000  0.03100000  1.0 0.1138081983
H  H78  1  0.52140000  0.03100000  0.76180000  1.0 0.1138081983
H  H79  1  0.76180000  0.68580000  0.52140000  1.0 0.1138081983
H  H80  1  0.03100000  0.52140000  0.68580000  1.0 0.1138081983
H  H81  1  0.03100000  0.68580000  0.76180000  1.0 0.1138081983
H  H82  1  0.76180000  0.52140000  0.03100000  1.0 0.1138081983
H  H83  1  0.52140000  0.76180000  0.68580000  1.0 0.1138081983
H  H84  1  0.68580000  0.03100000  0.52140000  1.0 0.1138081983
H  H85  1  0.23820000  0.96900000  0.47860000  1.0 0.1138081983
H  H86  1  0.96900000  0.23820000  0.31420000  1.0 0.1138081983
H  H87  1  0.31420000  0.47860000  0.96900000  1.0 0.1138081983
H  H88  1  0.47860000  0.31420000  0.23820000  1.0 0.1138081983
H  H89  1  0.31420000  0.23820000  0.47860000  1.0 0.1138081983
H  H90  1  0.47860000  0.96900000  0.31420000  1.0 0.1138081983
H  H91  1  0.23820000  0.31420000  0.96900000  1.0 0.1138081983
H  H92  1  0.96900000  0.47860000  0.23820000  1.0 0.1138081983
H  H93  1  0.96900000  0.31420000  0.47860000  1.0 0.1138081983
H  H94  1  0.23820000  0.47860000  0.31420000  1.0 0.1138081983
H  H95  1  0.47860000  0.23820000  0.96900000  1.0 0.1138081983
H  H96  1  0.31420000  0.96900000  0.23820000  1.0 0.1138081983
H  H97  1  0.15670000  0.97290000  0.35250000  1.0 0.1369635002
H  H98  1  0.97290000  0.15670000  0.51790000  1.0 0.1369635002
H  H99  1  0.35250000  0.51790000  0.15670000  1.0 0.1369635002
H  H100  1  0.51790000  0.35250000  0.97290000  1.0 0.1369635002
H  H101  1  0.35250000  0.15670000  0.97290000  1.0 0.1369635002
H  H102  1  0.51790000  0.97290000  0.15670000  1.0 0.1369635002
H  H103  1  0.15670000  0.35250000  0.51790000  1.0 0.1369635002
H  H104  1  0.97290000  0.51790000  0.35250000  1.0 0.1369635002
H  H105  1  0.97290000  0.35250000  0.15670000  1.0 0.1369635002
H  H106  1  0.15670000  0.51790000  0.97290000  1.0 0.1369635002
H  H107  1  0.51790000  0.15670000  0.35250000  1.0 0.1369635002
H  H108  1  0.35250000  0.97290000  0.51790000  1.0 0.1369635002
H  H109  1  0.84330000  0.02710000  0.48210000  1.0 0.1369635002
H  H110  1  0.02710000  0.84330000  0.64750000  1.0 0.1369635002
H  H111  1  0.64750000  0.48210000  0.02710000  1.0 0.1369635002
H  H112  1  0.48210000  0.64750000  0.84330000  1.0 0.1369635002
H  H113  1  0.64750000  0.84330000  0.48210000  1.0 0.1369635002
H  H114  1  0.48210000  0.02710000  0.64750000  1.0 0.1369635002
H  H115  1  0.84330000  0.64750000  0.02710000  1.0 0.1369635002
H  H116  1  0.02710000  0.48210000  0.84330000  1.0 0.1369635002
H  H117  1  0.02710000  0.64750000  0.48210000  1.0 0.1369635002
H  H118  1  0.84330000  0.48210000  0.64750000  1.0 0.1369635002
H  H119  1  0.48210000  0.84330000  0.02710000  1.0 0.1369635002
H  H120  1  0.64750000  0.02710000  0.84330000  1.0 0.1369635002
H  H121  1  0.84330000  0.02710000  0.64750000  1.0 0.1369635002
H  H122  1  0.02710000  0.84330000  0.48210000  1.0 0.1369635002
H  H123  1  0.64750000  0.48210000  0.84330000  1.0 0.1369635002
H  H124  1  0.48210000  0.64750000  0.02710000  1.0 0.1369635002
H  H125  1  0.64750000  0.84330000  0.02710000  1.0 0.1369635002
H  H126  1  0.48210000  0.02710000  0.84330000  1.0 0.1369635002
H  H127  1  0.84330000  0.64750000  0.48210000  1.0 0.1369635002
H  H128  1  0.02710000  0.48210000  0.64750000  1.0 0.1369635002
H  H129  1  0.02710000  0.64750000  0.84330000  1.0 0.1369635002
H  H130  1  0.84330000  0.48210000  0.02710000  1.0 0.1369635002
H  H131  1  0.48210000  0.84330000  0.64750000  1.0 0.1369635002
H  H132  1  0.64750000  0.02710000  0.48210000  1.0 0.1369635002
H  H133  1  0.15670000  0.97290000  0.51790000  1.0 0.1369635002
H  H134  1  0.97290000  0.15670000  0.35250000  1.0 0.1369635002
H  H135  1  0.35250000  0.51790000  0.97290000  1.0 0.1369635002
H  H136  1  0.51790000  0.35250000  0.15670000  1.0 0.1369635002
H  H137  1  0.35250000  0.15670000  0.51790000  1.0 0.1369635002
H  H138  1  0.51790000  0.97290000  0.35250000  1.0 0.1369635002
H  H139  1  0.15670000  0.35250000  0.97290000  1.0 0.1369635002
H  H140  1  0.97290000  0.51790000  0.15670000  1.0 0.1369635002
H  H141  1  0.97290000  0.35250000  0.51790000  1.0 0.1369635002
H  H142  1  0.15670000  0.51790000  0.35250000  1.0 0.1369635002
H  H143  1  0.51790000  0.15670000  0.97290000  1.0 0.1369635002
H  H144  1  0.35250000  0.97290000  0.15670000  1.0 0.1369635002
H  H145  1  0.96010000  0.07430000  0.45050000  1.0 0.078125013
H  H146  1  0.07430000  0.96010000  0.51510000  1.0 0.078125013
H  H147  1  0.45050000  0.51510000  0.96010000  1.0 0.078125013
H  H148  1  0.51510000  0.45050000  0.07430000  1.0 0.078125013
H  H149  1  0.45050000  0.96010000  0.07430000  1.0 0.078125013
H  H150  1  0.51510000  0.07430000  0.96010000  1.0 0.078125013
H  H151  1  0.96010000  0.45050000  0.51510000  1.0 0.078125013
H  H152  1  0.07430000  0.51510000  0.45050000  1.0 0.078125013
H  H153  1  0.07430000  0.45050000  0.96010000  1.0 0.078125013
H  H154  1  0.96010000  0.51510000  0.07430000  1.0 0.078125013
H  H155  1  0.51510000  0.96010000  0.45050000  1.0 0.078125013
H  H156  1  0.45050000  0.07430000  0.51510000  1.0 0.078125013
H  H157  1  0.03990000  0.92570000  0.48490000  1.0 0.078125013
H  H158  1  0.92570000  0.03990000  0.54950000  1.0 0.078125013
H  H159  1  0.54950000  0.48490000  0.92570000  1.0 0.078125013
H  H160  1  0.48490000  0.54950000  0.03990000  1.0 0.078125013
H  H161  1  0.54950000  0.03990000  0.48490000  1.0 0.078125013
H  H162  1  0.48490000  0.92570000  0.54950000  1.0 0.078125013
H  H163  1  0.03990000  0.54950000  0.92570000  1.0 0.078125013
H  H164  1  0.92570000  0.48490000  0.03990000  1.0 0.078125013
H  H165  1  0.92570000  0.54950000  0.48490000  1.0 0.078125013
H  H166  1  0.03990000  0.48490000  0.54950000  1.0 0.078125013
H  H167  1  0.48490000  0.03990000  0.92570000  1.0 0.078125013
H  H168  1  0.54950000  0.92570000  0.03990000  1.0 0.078125013
H  H169  1  0.03990000  0.92570000  0.54950000  1.0 0.078125013
H  H170  1  0.92570000  0.03990000  0.48490000  1.0 0.078125013
H  H171  1  0.54950000  0.48490000  0.03990000  1.0 0.078125013
H  H172  1  0.48490000  0.54950000  0.92570000  1.0 0.078125013
H  H173  1  0.54950000  0.03990000  0.92570000  1.0 0.078125013
H  H174  1  0.48490000  0.92570000  0.03990000  1.0 0.078125013
H  H175  1  0.03990000  0.54950000  0.48490000  1.0 0.078125013
H  H176  1  0.92570000  0.48490000  0.54950000  1.0 0.078125013
H  H177  1  0.92570000  0.54950000  0.03990000  1.0 0.078125013
H  H178  1  0.03990000  0.48490000  0.92570000  1.0 0.078125013
H  H179  1  0.48490000  0.03990000  0.54950000  1.0 0.078125013
H  H180  1  0.54950000  0.92570000  0.48490000  1.0 0.078125013
H  H181  1  0.96010000  0.07430000  0.51510000  1.0 0.078125013
H  H182  1  0.07430000  0.96010000  0.45050000  1.0 0.078125013
H  H183  1  0.45050000  0.51510000  0.07430000  1.0 0.078125013
H  H184  1  0.51510000  0.45050000  0.96010000  1.0 0.078125013
H  H185  1  0.45050000  0.96010000  0.51510000  1.0 0.078125013
H  H186  1  0.51510000  0.07430000  0.45050000  1.0 0.078125013
H  H187  1  0.96010000  0.45050000  0.07430000  1.0 0.078125013
H  H188  1  0.07430000  0.51510000  0.96010000  1.0 0.078125013
H  H189  1  0.07430000  0.45050000  0.51510000  1.0 0.078125013
H  H190  1  0.96010000  0.51510000  0.45050000  1.0 0.078125013
H  H191  1  0.51510000  0.96010000  0.07430000  1.0 0.078125013
H  H192  1  0.45050000  0.07430000  0.96010000  1.0 0.078125013
H  H193  1  0.06480000  0.01620000  0.42780000  1.0 0.078125013
H  H194  1  0.01620000  0.06480000  0.49120000  1.0 0.078125013
H  H195  1  0.42780000  0.49120000  0.06480000  1.0 0.078125013
H  H196  1  0.49120000  0.42780000  0.01620000  1.0 0.078125013
H  H197  1  0.42780000  0.06480000  0.01620000  1.0 0.078125013
H  H198  1  0.49120000  0.01620000  0.06480000  1.0 0.078125013
H  H199  1  0.06480000  0.42780000  0.49120000  1.0 0.078125013
H  H200  1  0.01620000  0.49120000  0.42780000  1.0 0.078125013
H  H201  1  0.01620000  0.42780000  0.06480000  1.0 0.078125013
H  H202  1  0.06480000  0.49120000  0.01620000  1.0 0.078125013
H  H203  1  0.49120000  0.06480000  0.42780000  1.0 0.078125013
H  H204  1  0.42780000  0.01620000  0.49120000  1.0 0.078125013
H  H205  1  0.93520000  0.98380000  0.50880000  1.0 0.078125013
H  H206  1  0.98380000  0.93520000  0.57220000  1.0 0.078125013
H  H207  1  0.57220000  0.50880000  0.98380000  1.0 0.078125013
H  H208  1  0.50880000  0.57220000  0.93520000  1.0 0.078125013
H  H209  1  0.57220000  0.93520000  0.50880000  1.0 0.078125013
H  H210  1  0.50880000  0.98380000  0.57220000  1.0 0.078125013
H  H211  1  0.93520000  0.57220000  0.98380000  1.0 0.078125013
H  H212  1  0.98380000  0.50880000  0.93520000  1.0 0.078125013
H  H213  1  0.98380000  0.57220000  0.50880000  1.0 0.078125013
H  H214  1  0.93520000  0.50880000  0.57220000  1.0 0.078125013
H  H215  1  0.50880000  0.93520000  0.98380000  1.0 0.078125013
H  H216  1  0.57220000  0.98380000  0.93520000  1.0 0.078125013
H  H217  1  0.93520000  0.98380000  0.57220000  1.0 0.078125013
H  H218  1  0.98380000  0.93520000  0.50880000  1.0 0.078125013
H  H219  1  0.57220000  0.50880000  0.93520000  1.0 0.078125013
H  H220  1  0.50880000  0.57220000  0.98380000  1.0 0.078125013
H  H221  1  0.57220000  0.93520000  0.98380000  1.0 0.078125013
H  H222  1  0.50880000  0.98380000  0.93520000  1.0 0.078125013
H  H223  1  0.93520000  0.57220000  0.50880000  1.0 0.078125013
H  H224  1  0.98380000  0.50880000  0.57220000  1.0 0.078125013
H  H225  1  0.98380000  0.57220000  0.93520000  1.0 0.078125013
H  H226  1  0.93520000  0.50880000  0.98380000  1.0 0.078125013
H  H227  1  0.50880000  0.93520000  0.57220000  1.0 0.078125013
H  H228  1  0.57220000  0.98380000  0.50880000  1.0 0.078125013
H  H229  1  0.06480000  0.01620000  0.49120000  1.0 0.078125013
H  H230  1  0.01620000  0.06480000  0.42780000  1.0 0.078125013
H  H231  1  0.42780000  0.49120000  0.01620000  1.0 0.078125013
H  H232  1  0.49120000  0.42780000  0.06480000  1.0 0.078125013
H  H233  1  0.42780000  0.06480000  0.49120000  1.0 0.078125013
H  H234  1  0.49120000  0.01620000  0.42780000  1.0 0.078125013
H  H235  1  0.06480000  0.42780000  0.01620000  1.0 0.078125013
H  H236  1  0.01620000  0.49120000  0.06480000  1.0 0.078125013
H  H237  1  0.01620000  0.42780000  0.49120000  1.0 0.078125013
H  H238  1  0.06480000  0.49120000  0.42780000  1.0 0.078125013
H  H239  1  0.49120000  0.06480000  0.01620000  1.0 0.078125013
H  H240  1  0.42780000  0.01620000  0.06480000  1.0 0.078125013
H  H241  1  0.95720000  0.07100000  0.45240000  1.0 0.0692169032
H  H242  1  0.07100000  0.95720000  0.51940000  1.0 0.0692169032
H  H243  1  0.45240000  0.51940000  0.95720000  1.0 0.0692169032
H  H244  1  0.51940000  0.45240000  0.07100000  1.0 0.0692169032
H  H245  1  0.45240000  0.95720000  0.07100000  1.0 0.0692169032
H  H246  1  0.51940000  0.07100000  0.95720000  1.0 0.0692169032
H  H247  1  0.95720000  0.45240000  0.51940000  1.0 0.0692169032
H  H248  1  0.07100000  0.51940000  0.45240000  1.0 0.0692169032
H  H249  1  0.07100000  0.45240000  0.95720000  1.0 0.0692169032
H  H250  1  0.95720000  0.51940000  0.07100000  1.0 0.0692169032
H  H251  1  0.51940000  0.95720000  0.45240000  1.0 0.0692169032
H  H252  1  0.45240000  0.07100000  0.51940000  1.0 0.0692169032
H  H253  1  0.04280000  0.92900000  0.48060000  1.0 0.0692169032
H  H254  1  0.92900000  0.04280000  0.54760000  1.0 0.0692169032
H  H255  1  0.54760000  0.48060000  0.92900000  1.0 0.0692169032
H  H256  1  0.48060000  0.54760000  0.04280000  1.0 0.0692169032
H  H257  1  0.54760000  0.04280000  0.48060000  1.0 0.0692169032
H  H258  1  0.48060000  0.92900000  0.54760000  1.0 0.0692169032
H  H259  1  0.04280000  0.54760000  0.92900000  1.0 0.0692169032
H  H260  1  0.92900000  0.48060000  0.04280000  1.0 0.0692169032
H  H261  1  0.92900000  0.54760000  0.48060000  1.0 0.0692169032
H  H262  1  0.04280000  0.48060000  0.54760000  1.0 0.0692169032
H  H263  1  0.48060000  0.04280000  0.92900000  1.0 0.0692169032
H  H264  1  0.54760000  0.92900000  0.04280000  1.0 0.0692169032
H  H265  1  0.04280000  0.92900000  0.54760000  1.0 0.0692169032
H  H266  1  0.92900000  0.04280000  0.48060000  1.0 0.0692169032
H  H267  1  0.54760000  0.48060000  0.04280000  1.0 0.0692169032
H  H268  1  0.48060000  0.54760000  0.92900000  1.0 0.0692169032
H  H269  1  0.54760000  0.04280000  0.92900000  1.0 0.0692169032
H  H270  1  0.48060000  0.92900000  0.04280000  1.0 0.0692169032
H  H271  1  0.04280000  0.54760000  0.48060000  1.0 0.0692169032
H  H272  1  0.92900000  0.48060000  0.54760000  1.0 0.0692169032
H  H273  1  0.92900000  0.54760000  0.04280000  1.0 0.0692169032
H  H274  1  0.04280000  0.48060000  0.92900000  1.0 0.0692169032
H  H275  1  0.48060000  0.04280000  0.54760000  1.0 0.0692169032
H  H276  1  0.54760000  0.92900000  0.48060000  1.0 0.0692169032
H  H277  1  0.95720000  0.07100000  0.51940000  1.0 0.0692169032
H  H278  1  0.07100000  0.95720000  0.45240000  1.0 0.0692169032
H  H279  1  0.45240000  0.51940000  0.07100000  1.0 0.0692169032
H  H280  1  0.51940000  0.45240000  0.95720000  1.0 0.0692169032
H  H281  1  0.45240000  0.95720000  0.51940000  1.0 0.0692169032
H  H282  1  0.51940000  0.07100000  0.45240000  1.0 0.0692169032
H  H283  1  0.95720000  0.45240000  0.07100000  1.0 0.0692169032
H  H284  1  0.07100000  0.51940000  0.95720000  1.0 0.0692169032
H  H285  1  0.07100000  0.45240000  0.51940000  1.0 0.0692169032
H  H286  1  0.95720000  0.51940000  0.45240000  1.0 0.0692169032
H  H287  1  0.51940000  0.95720000  0.07100000  1.0 0.0692169032
H  H288  1  0.45240000  0.07100000  0.95720000  1.0 0.0692169032
H  H289  1  0.01550000  0.06290000  0.42730000  1.0 0.078125013
H  H290  1  0.06290000  0.01550000  0.49430000  1.0 0.078125013
H  H291  1  0.42730000  0.49430000  0.01550000  1.0 0.078125013
H  H292  1  0.49430000  0.42730000  0.06290000  1.0 0.078125013
H  H293  1  0.42730000  0.01550000  0.06290000  1.0 0.078125013
H  H294  1  0.49430000  0.06290000  0.01550000  1.0 0.078125013
H  H295  1  0.01550000  0.42730000  0.49430000  1.0 0.078125013
H  H296  1  0.06290000  0.49430000  0.42730000  1.0 0.078125013
H  H297  1  0.06290000  0.42730000  0.01550000  1.0 0.078125013
H  H298  1  0.01550000  0.49430000  0.06290000  1.0 0.078125013
H  H299  1  0.49430000  0.01550000  0.42730000  1.0 0.078125013
H  H300  1  0.42730000  0.06290000  0.49430000  1.0 0.078125013
H  H301  1  0.98450000  0.93710000  0.50570000  1.0 0.078125013
H  H302  1  0.93710000  0.98450000  0.57270000  1.0 0.078125013
H  H303  1  0.57270000  0.50570000  0.93710000  1.0 0.078125013
H  H304  1  0.50570000  0.57270000  0.98450000  1.0 0.078125013
H  H305  1  0.57270000  0.98450000  0.50570000  1.0 0.078125013
H  H306  1  0.50570000  0.93710000  0.57270000  1.0 0.078125013
H  H307  1  0.98450000  0.57270000  0.93710000  1.0 0.078125013
H  H308  1  0.93710000  0.50570000  0.98450000  1.0 0.078125013
H  H309  1  0.93710000  0.57270000  0.50570000  1.0 0.078125013
H  H310  1  0.98450000  0.50570000  0.57270000  1.0 0.078125013
H  H311  1  0.50570000  0.98450000  0.93710000  1.0 0.078125013
H  H312  1  0.57270000  0.93710000  0.98450000  1.0 0.078125013
H  H313  1  0.98450000  0.93710000  0.57270000  1.0 0.078125013
H  H314  1  0.93710000  0.98450000  0.50570000  1.0 0.078125013
H  H315  1  0.57270000  0.50570000  0.98450000  1.0 0.078125013
H  H316  1  0.50570000  0.57270000  0.93710000  1.0 0.078125013
H  H317  1  0.57270000  0.98450000  0.93710000  1.0 0.078125013
H  H318  1  0.50570000  0.93710000  0.98450000  1.0 0.078125013
H  H319  1  0.98450000  0.57270000  0.50570000  1.0 0.078125013
H  H320  1  0.93710000  0.50570000  0.57270000  1.0 0.078125013
H  H321  1  0.93710000  0.57270000  0.98450000  1.0 0.078125013
H  H322  1  0.98450000  0.50570000  0.93710000  1.0 0.078125013
H  H323  1  0.50570000  0.98450000  0.57270000  1.0 0.078125013
H  H324  1  0.57270000  0.93710000  0.50570000  1.0 0.078125013
H  H325  1  0.01550000  0.06290000  0.49430000  1.0 0.078125013
H  H326  1  0.06290000  0.01550000  0.42730000  1.0 0.078125013
H  H327  1  0.42730000  0.49430000  0.06290000  1.0 0.078125013
H  H328  1  0.49430000  0.42730000  0.01550000  1.0 0.078125013
H  H329  1  0.42730000  0.01550000  0.49430000  1.0 0.078125013
H  H330  1  0.49430000  0.06290000  0.42730000  1.0 0.078125013
H  H331  1  0.01550000  0.42730000  0.06290000  1.0 0.078125013
H  H332  1  0.06290000  0.49430000  0.01550000  1.0 0.078125013
H  H333  1  0.06290000  0.42730000  0.49430000  1.0 0.078125013
H  H334  1  0.01550000  0.49430000  0.42730000  1.0 0.078125013
H  H335  1  0.49430000  0.01550000  0.06290000  1.0 0.078125013
H  H336  1  0.42730000  0.06290000  0.01550000  1.0 0.078125013
C  C1  1  0.09271000  0.98709000  0.31531000  1.0 0.5542586159
C  C2  1  0.98709000  0.09271000  0.60489000  1.0 0.5542586159
C  C3  1  0.31531000  0.60489000  0.09271000  1.0 0.5542586159
C  C4  1  0.60489000  0.31531000  0.98709000  1.0 0.5542586159
C  C5  1  0.31531000  0.09271000  0.98709000  1.0 0.5542586159
C  C6  1  0.60489000  0.98709000  0.09271000  1.0 0.5542586159
C  C7  1  0.09271000  0.31531000  0.60489000  1.0 0.5542586159
C  C8  1  0.98709000  0.60489000  0.31531000  1.0 0.5542586159
C  C9  1  0.98709000  0.31531000  0.09271000  1.0 0.5542586159
C  C10  1  0.09271000  0.60489000  0.98709000  1.0 0.5542586159
C  C11  1  0.60489000  0.09271000  0.31531000  1.0 0.5542586159
C  C12  1  0.31531000  0.98709000  0.60489000  1.0 0.5542586159
C  C13  1  0.90729000  0.01291000  0.39511000  1.0 0.5542586159
C  C14  1  0.01291000  0.90729000  0.68469000  1.0 0.5542586159
C  C15  1  0.68469000  0.39511000  0.01291000  1.0 0.5542586159
C  C16  1  0.39511000  0.68469000  0.90729000  1.0 0.5542586159
C  C17  1  0.68469000  0.90729000  0.39511000  1.0 0.5542586159
C  C18  1  0.39511000  0.01291000  0.68469000  1.0 0.5542586159
C  C19  1  0.90729000  0.68469000  0.01291000  1.0 0.5542586159
C  C20  1  0.01291000  0.39511000  0.90729000  1.0 0.5542586159
C  C21  1  0.01291000  0.68469000  0.39511000  1.0 0.5542586159
C  C22  1  0.90729000  0.39511000  0.68469000  1.0 0.5542586159
C  C23  1  0.39511000  0.90729000  0.01291000  1.0 0.5542586159
C  C24  1  0.68469000  0.01291000  0.90729000  1.0 0.5542586159
C  C25  1  0.90729000  0.01291000  0.68469000  1.0 0.5542586159
C  C26  1  0.01291000  0.90729000  0.39511000  1.0 0.5542586159
C  C27  1  0.68469000  0.39511000  0.90729000  1.0 0.5542586159
C  C28  1  0.39511000  0.68469000  0.01291000  1.0 0.5542586159
C  C29  1  0.68469000  0.90729000  0.01291000  1.0 0.5542586159
C  C30  1  0.39511000  0.01291000  0.90729000  1.0 0.5542586159
C  C31  1  0.90729000  0.68469000  0.39511000  1.0 0.5542586159
C  C32  1  0.01291000  0.39511000  0.68469000  1.0 0.5542586159
C  C33  1  0.01291000  0.68469000  0.90729000  1.0 0.5542586159
C  C34  1  0.90729000  0.39511000  0.01291000  1.0 0.5542586159
C  C35  1  0.39511000  0.90729000  0.68469000  1.0 0.5542586159
C  C36  1  0.68469000  0.01291000  0.39511000  1.0 0.5542586159
C  C37  1  0.09271000  0.98709000  0.60489000  1.0 0.5542586159
C  C38  1  0.98709000  0.09271000  0.31531000  1.0 0.5542586159
C  C39  1  0.31531000  0.60489000  0.98709000  1.0 0.5542586159
C  C40  1  0.60489000  0.31531000  0.09271000  1.0 0.5542586159
C  C41  1  0.31531000  0.09271000  0.60489000  1.0 0.5542586159
C  C42  1  0.60489000  0.98709000  0.31531000  1.0 0.5542586159
C  C43  1  0.09271000  0.31531000  0.98709000  1.0 0.5542586159
C  C44  1  0.98709000  0.60489000  0.09271000  1.0 0.5542586159
C  C45  1  0.98709000  0.31531000  0.60489000  1.0 0.5542586159
C  C46  1  0.09271000  0.60489000  0.31531000  1.0 0.5542586159
C  C47  1  0.60489000  0.09271000  0.98709000  1.0 0.5542586159
C  C48  1  0.31531000  0.98709000  0.09271000  1.0 0.5542586159
C  C49  1  0.14682000  0.97954000  0.29250000  1.0 -0.0193254104
C  C50  1  0.97954000  0.14682000  0.58114000  1.0 -0.0193254104
C  C51  1  0.29250000  0.58114000  0.14682000  1.0 -0.0193254104
C  C52  1  0.58114000  0.29250000  0.97954000  1.0 -0.0193254104
C  C53  1  0.29250000  0.14682000  0.97954000  1.0 -0.0193254104
C  C54  1  0.58114000  0.97954000  0.14682000  1.0 -0.0193254104
C  C55  1  0.14682000  0.29250000  0.58114000  1.0 -0.0193254104
C  C56  1  0.97954000  0.58114000  0.29250000  1.0 -0.0193254104
C  C57  1  0.97954000  0.29250000  0.14682000  1.0 -0.0193254104
C  C58  1  0.14682000  0.58114000  0.97954000  1.0 -0.0193254104
C  C59  1  0.58114000  0.14682000  0.29250000  1.0 -0.0193254104
C  C60  1  0.29250000  0.97954000  0.58114000  1.0 -0.0193254104
C  C61  1  0.85318000  0.02046000  0.41886000  1.0 -0.0193254104
C  C62  1  0.02046000  0.85318000  0.70750000  1.0 -0.0193254104
C  C63  1  0.70750000  0.41886000  0.02046000  1.0 -0.0193254104
C  C64  1  0.41886000  0.70750000  0.85318000  1.0 -0.0193254104
C  C65  1  0.70750000  0.85318000  0.41886000  1.0 -0.0193254104
C  C66  1  0.41886000  0.02046000  0.70750000  1.0 -0.0193254104
C  C67  1  0.85318000  0.70750000  0.02046000  1.0 -0.0193254104
C  C68  1  0.02046000  0.41886000  0.85318000  1.0 -0.0193254104
C  C69  1  0.02046000  0.70750000  0.41886000  1.0 -0.0193254104
C  C70  1  0.85318000  0.41886000  0.70750000  1.0 -0.0193254104
C  C71  1  0.41886000  0.85318000  0.02046000  1.0 -0.0193254104
C  C72  1  0.70750000  0.02046000  0.85318000  1.0 -0.0193254104
C  C73  1  0.85318000  0.02046000  0.70750000  1.0 -0.0193254104
C  C74  1  0.02046000  0.85318000  0.41886000  1.0 -0.0193254104
C  C75  1  0.70750000  0.41886000  0.85318000  1.0 -0.0193254104
C  C76  1  0.41886000  0.70750000  0.02046000  1.0 -0.0193254104
C  C77  1  0.70750000  0.85318000  0.02046000  1.0 -0.0193254104
C  C78  1  0.41886000  0.02046000  0.85318000  1.0 -0.0193254104
C  C79  1  0.85318000  0.70750000  0.41886000  1.0 -0.0193254104
C  C80  1  0.02046000  0.41886000  0.70750000  1.0 -0.0193254104
C  C81  1  0.02046000  0.70750000  0.85318000  1.0 -0.0193254104
C  C82  1  0.85318000  0.41886000  0.02046000  1.0 -0.0193254104
C  C83  1  0.41886000  0.85318000  0.70750000  1.0 -0.0193254104
C  C84  1  0.70750000  0.02046000  0.41886000  1.0 -0.0193254104
C  C85  1  0.14682000  0.97954000  0.58114000  1.0 -0.0193254104
C  C86  1  0.97954000  0.14682000  0.29250000  1.0 -0.0193254104
C  C87  1  0.29250000  0.58114000  0.97954000  1.0 -0.0193254104
C  C88  1  0.58114000  0.29250000  0.14682000  1.0 -0.0193254104
C  C89  1  0.29250000  0.14682000  0.58114000  1.0 -0.0193254104
C  C90  1  0.58114000  0.97954000  0.29250000  1.0 -0.0193254104
C  C91  1  0.14682000  0.29250000  0.97954000  1.0 -0.0193254104
C  C92  1  0.97954000  0.58114000  0.14682000  1.0 -0.0193254104
C  C93  1  0.97954000  0.29250000  0.58114000  1.0 -0.0193254104
C  C94  1  0.14682000  0.58114000  0.29250000  1.0 -0.0193254104
C  C95  1  0.58114000  0.14682000  0.97954000  1.0 -0.0193254104
C  C96  1  0.29250000  0.97954000  0.14682000  1.0 -0.0193254104
C  C97  1  0.17008000  0.98040000  0.24508000  1.0 -0.1528000324
C  C98  1  0.98040000  0.17008000  0.60444000  1.0 -0.1528000324
C  C99  1  0.24508000  0.60444000  0.17008000  1.0 -0.1528000324
C  C100  1  0.60444000  0.24508000  0.98040000  1.0 -0.1528000324
C  C101  1  0.24508000  0.17008000  0.98040000  1.0 -0.1528000324
C  C102  1  0.60444000  0.98040000  0.17008000  1.0 -0.1528000324
C  C103  1  0.17008000  0.24508000  0.60444000  1.0 -0.1528000324
C  C104  1  0.98040000  0.60444000  0.24508000  1.0 -0.1528000324
C  C105  1  0.98040000  0.24508000  0.17008000  1.0 -0.1528000324
C  C106  1  0.17008000  0.60444000  0.98040000  1.0 -0.1528000324
C  C107  1  0.60444000  0.17008000  0.24508000  1.0 -0.1528000324
C  C108  1  0.24508000  0.98040000  0.60444000  1.0 -0.1528000324
C  C109  1  0.82992000  0.01960000  0.39556000  1.0 -0.1528000324
C  C110  1  0.01960000  0.82992000  0.75492000  1.0 -0.1528000324
C  C111  1  0.75492000  0.39556000  0.01960000  1.0 -0.1528000324
C  C112  1  0.39556000  0.75492000  0.82992000  1.0 -0.1528000324
C  C113  1  0.75492000  0.82992000  0.39556000  1.0 -0.1528000324
C  C114  1  0.39556000  0.01960000  0.75492000  1.0 -0.1528000324
C  C115  1  0.82992000  0.75492000  0.01960000  1.0 -0.1528000324
C  C116  1  0.01960000  0.39556000  0.82992000  1.0 -0.1528000324
C  C117  1  0.01960000  0.75492000  0.39556000  1.0 -0.1528000324
C  C118  1  0.82992000  0.39556000  0.75492000  1.0 -0.1528000324
C  C119  1  0.39556000  0.82992000  0.01960000  1.0 -0.1528000324
C  C120  1  0.75492000  0.01960000  0.82992000  1.0 -0.1528000324
C  C121  1  0.82992000  0.01960000  0.75492000  1.0 -0.1528000324
C  C122  1  0.01960000  0.82992000  0.39556000  1.0 -0.1528000324
C  C123  1  0.75492000  0.39556000  0.82992000  1.0 -0.1528000324
C  C124  1  0.39556000  0.75492000  0.01960000  1.0 -0.1528000324
C  C125  1  0.75492000  0.82992000  0.01960000  1.0 -0.1528000324
C  C126  1  0.39556000  0.01960000  0.82992000  1.0 -0.1528000324
C  C127  1  0.82992000  0.75492000  0.39556000  1.0 -0.1528000324
C  C128  1  0.01960000  0.39556000  0.75492000  1.0 -0.1528000324
C  C129  1  0.01960000  0.75492000  0.82992000  1.0 -0.1528000324
C  C130  1  0.82992000  0.39556000  0.01960000  1.0 -0.1528000324
C  C131  1  0.39556000  0.82992000  0.75492000  1.0 -0.1528000324
C  C132  1  0.75492000  0.01960000  0.39556000  1.0 -0.1528000324
C  C133  1  0.17008000  0.98040000  0.60444000  1.0 -0.1528000324
C  C134  1  0.98040000  0.17008000  0.24508000  1.0 -0.1528000324
C  C135  1  0.24508000  0.60444000  0.98040000  1.0 -0.1528000324
C  C136  1  0.60444000  0.24508000  0.17008000  1.0 -0.1528000324
C  C137  1  0.24508000  0.17008000  0.60444000  1.0 -0.1528000324
C  C138  1  0.60444000  0.98040000  0.24508000  1.0 -0.1528000324
C  C139  1  0.17008000  0.24508000  0.98040000  1.0 -0.1528000324
C  C140  1  0.98040000  0.60444000  0.17008000  1.0 -0.1528000324
C  C141  1  0.98040000  0.24508000  0.60444000  1.0 -0.1528000324
C  C142  1  0.17008000  0.60444000  0.24508000  1.0 -0.1528000324
C  C143  1  0.60444000  0.17008000  0.98040000  1.0 -0.1528000324
C  C144  1  0.24508000  0.98040000  0.17008000  1.0 -0.1528000324
C  C145  1  0.22001000  0.97747000  0.22001000  1.0 0.0692169032
C  C146  1  0.97747000  0.22001000  0.58251000  1.0 0.0692169032
C  C147  1  0.22001000  0.58251000  0.22001000  1.0 0.0692169032
C  C148  1  0.58251000  0.22001000  0.97747000  1.0 0.0692169032
C  C149  1  0.22001000  0.22001000  0.97747000  1.0 0.0692169032
C  C150  1  0.58251000  0.97747000  0.22001000  1.0 0.0692169032
C  C151  1  0.22001000  0.22001000  0.58251000  1.0 0.0692169032
C  C152  1  0.97747000  0.58251000  0.22001000  1.0 0.0692169032
C  C153  1  0.97747000  0.22001000  0.22001000  1.0 0.0692169032
C  C154  1  0.22001000  0.58251000  0.97747000  1.0 0.0692169032
C  C155  1  0.58251000  0.22001000  0.22001000  1.0 0.0692169032
C  C156  1  0.22001000  0.97747000  0.58251000  1.0 0.0692169032
C  C157  1  0.77999000  0.02253000  0.41749000  1.0 0.0692169032
C  C158  1  0.02253000  0.77999000  0.77999000  1.0 0.0692169032
C  C159  1  0.77999000  0.41749000  0.02253000  1.0 0.0692169032
C  C160  1  0.41749000  0.77999000  0.77999000  1.0 0.0692169032
C  C161  1  0.77999000  0.77999000  0.41749000  1.0 0.0692169032
C  C162  1  0.41749000  0.02253000  0.77999000  1.0 0.0692169032
C  C163  1  0.77999000  0.77999000  0.02253000  1.0 0.0692169032
C  C164  1  0.02253000  0.41749000  0.77999000  1.0 0.0692169032
C  C165  1  0.02253000  0.77999000  0.41749000  1.0 0.0692169032
C  C166  1  0.77999000  0.41749000  0.77999000  1.0 0.0692169032
C  C167  1  0.41749000  0.77999000  0.02253000  1.0 0.0692169032
C  C168  1  0.77999000  0.02253000  0.77999000  1.0 0.0692169032
C  C169  1  0.24716000  0.97278000  0.24716000  1.0 0.078125013
C  C170  1  0.97278000  0.24716000  0.53290000  1.0 0.078125013
C  C171  1  0.24716000  0.53290000  0.24716000  1.0 0.078125013
C  C172  1  0.53290000  0.24716000  0.97278000  1.0 0.078125013
C  C173  1  0.24716000  0.24716000  0.97278000  1.0 0.078125013
C  C174  1  0.53290000  0.97278000  0.24716000  1.0 0.078125013
C  C175  1  0.24716000  0.24716000  0.53290000  1.0 0.078125013
C  C176  1  0.97278000  0.53290000  0.24716000  1.0 0.078125013
C  C177  1  0.97278000  0.24716000  0.24716000  1.0 0.078125013
C  C178  1  0.24716000  0.53290000  0.97278000  1.0 0.078125013
C  C179  1  0.53290000  0.24716000  0.24716000  1.0 0.078125013
C  C180  1  0.24716000  0.97278000  0.53290000  1.0 0.078125013
C  C181  1  0.75284000  0.02722000  0.46710000  1.0 0.078125013
C  C182  1  0.02722000  0.75284000  0.75284000  1.0 0.078125013
C  C183  1  0.75284000  0.46710000  0.02722000  1.0 0.078125013
C  C184  1  0.46710000  0.75284000  0.75284000  1.0 0.078125013
C  C185  1  0.75284000  0.75284000  0.46710000  1.0 0.078125013
C  C186  1  0.46710000  0.02722000  0.75284000  1.0 0.078125013
C  C187  1  0.75284000  0.75284000  0.02722000  1.0 0.078125013
C  C188  1  0.02722000  0.46710000  0.75284000  1.0 0.078125013
C  C189  1  0.02722000  0.75284000  0.46710000  1.0 0.078125013
C  C190  1  0.75284000  0.46710000  0.75284000  1.0 0.078125013
C  C191  1  0.46710000  0.75284000  0.02722000  1.0 0.078125013
C  C192  1  0.75284000  0.02722000  0.75284000  1.0 0.078125013
C  C193  1  0.22136000  0.97172000  0.29598000  1.0 -0.1393515622
C  C194  1  0.97172000  0.22136000  0.51094000  1.0 -0.1393515622
C  C195  1  0.29598000  0.51094000  0.22136000  1.0 -0.1393515622
C  C196  1  0.51094000  0.29598000  0.97172000  1.0 -0.1393515622
C  C197  1  0.29598000  0.22136000  0.97172000  1.0 -0.1393515622
C  C198  1  0.51094000  0.97172000  0.22136000  1.0 -0.1393515622
C  C199  1  0.22136000  0.29598000  0.51094000  1.0 -0.1393515622
C  C200  1  0.97172000  0.51094000  0.29598000  1.0 -0.1393515622
C  C201  1  0.97172000  0.29598000  0.22136000  1.0 -0.1393515622
C  C202  1  0.22136000  0.51094000  0.97172000  1.0 -0.1393515622
C  C203  1  0.51094000  0.22136000  0.29598000  1.0 -0.1393515622
C  C204  1  0.29598000  0.97172000  0.51094000  1.0 -0.1393515622
C  C205  1  0.77864000  0.02828000  0.48906000  1.0 -0.1393515622
C  C206  1  0.02828000  0.77864000  0.70402000  1.0 -0.1393515622
C  C207  1  0.70402000  0.48906000  0.02828000  1.0 -0.1393515622
C  C208  1  0.48906000  0.70402000  0.77864000  1.0 -0.1393515622
C  C209  1  0.70402000  0.77864000  0.48906000  1.0 -0.1393515622
C  C210  1  0.48906000  0.02828000  0.70402000  1.0 -0.1393515622
C  C211  1  0.77864000  0.70402000  0.02828000  1.0 -0.1393515622
C  C212  1  0.02828000  0.48906000  0.77864000  1.0 -0.1393515622
C  C213  1  0.02828000  0.70402000  0.48906000  1.0 -0.1393515622
C  C214  1  0.77864000  0.48906000  0.70402000  1.0 -0.1393515622
C  C215  1  0.48906000  0.77864000  0.02828000  1.0 -0.1393515622
C  C216  1  0.70402000  0.02828000  0.77864000  1.0 -0.1393515622
C  C217  1  0.77864000  0.02828000  0.70402000  1.0 -0.1393515622
C  C218  1  0.02828000  0.77864000  0.48906000  1.0 -0.1393515622
C  C219  1  0.70402000  0.48906000  0.77864000  1.0 -0.1393515622
C  C220  1  0.48906000  0.70402000  0.02828000  1.0 -0.1393515622
C  C221  1  0.70402000  0.77864000  0.02828000  1.0 -0.1393515622
C  C222  1  0.48906000  0.02828000  0.77864000  1.0 -0.1393515622
C  C223  1  0.77864000  0.70402000  0.48906000  1.0 -0.1393515622
C  C224  1  0.02828000  0.48906000  0.70402000  1.0 -0.1393515622
C  C225  1  0.02828000  0.70402000  0.77864000  1.0 -0.1393515622
C  C226  1  0.77864000  0.48906000  0.02828000  1.0 -0.1393515622
C  C227  1  0.48906000  0.77864000  0.70402000  1.0 -0.1393515622
C  C228  1  0.70402000  0.02828000  0.48906000  1.0 -0.1393515622
C  C229  1  0.22136000  0.97172000  0.51094000  1.0 -0.1393515622
C  C230  1  0.97172000  0.22136000  0.29598000  1.0 -0.1393515622
C  C231  1  0.29598000  0.51094000  0.97172000  1.0 -0.1393515622
C  C232  1  0.51094000  0.29598000  0.22136000  1.0 -0.1393515622
C  C233  1  0.29598000  0.22136000  0.51094000  1.0 -0.1393515622
C  C234  1  0.51094000  0.97172000  0.29598000  1.0 -0.1393515622
C  C235  1  0.22136000  0.29598000  0.97172000  1.0 -0.1393515622
C  C236  1  0.97172000  0.51094000  0.22136000  1.0 -0.1393515622
C  C237  1  0.97172000  0.29598000  0.51094000  1.0 -0.1393515622
C  C238  1  0.22136000  0.51094000  0.29598000  1.0 -0.1393515622
C  C239  1  0.51094000  0.22136000  0.97172000  1.0 -0.1393515622
C  C240  1  0.29598000  0.97172000  0.22136000  1.0 -0.1393515622
C  C241  1  0.17290000  0.97446000  0.31872000  1.0 -0.1277272783
C  C242  1  0.97446000  0.17290000  0.53392000  1.0 -0.1277272783
C  C243  1  0.31872000  0.53392000  0.17290000  1.0 -0.1277272783
C  C244  1  0.53392000  0.31872000  0.97446000  1.0 -0.1277272783
C  C245  1  0.31872000  0.17290000  0.97446000  1.0 -0.1277272783
C  C246  1  0.53392000  0.97446000  0.17290000  1.0 -0.1277272783
C  C247  1  0.17290000  0.31872000  0.53392000  1.0 -0.1277272783
C  C248  1  0.97446000  0.53392000  0.31872000  1.0 -0.1277272783
C  C249  1  0.97446000  0.31872000  0.17290000  1.0 -0.1277272783
C  C250  1  0.17290000  0.53392000  0.97446000  1.0 -0.1277272783
C  C251  1  0.53392000  0.17290000  0.31872000  1.0 -0.1277272783
C  C252  1  0.31872000  0.97446000  0.53392000  1.0 -0.1277272783
C  C253  1  0.82710000  0.02554000  0.46608000  1.0 -0.1277272783
C  C254  1  0.02554000  0.82710000  0.68128000  1.0 -0.1277272783
C  C255  1  0.68128000  0.46608000  0.02554000  1.0 -0.1277272783
C  C256  1  0.46608000  0.68128000  0.82710000  1.0 -0.1277272783
C  C257  1  0.68128000  0.82710000  0.46608000  1.0 -0.1277272783
C  C258  1  0.46608000  0.02554000  0.68128000  1.0 -0.1277272783
C  C259  1  0.82710000  0.68128000  0.02554000  1.0 -0.1277272783
C  C260  1  0.02554000  0.46608000  0.82710000  1.0 -0.1277272783
C  C261  1  0.02554000  0.68128000  0.46608000  1.0 -0.1277272783
C  C262  1  0.82710000  0.46608000  0.68128000  1.0 -0.1277272783
C  C263  1  0.46608000  0.82710000  0.02554000  1.0 -0.1277272783
C  C264  1  0.68128000  0.02554000  0.82710000  1.0 -0.1277272783
C  C265  1  0.82710000  0.02554000  0.68128000  1.0 -0.1277272783
C  C266  1  0.02554000  0.82710000  0.46608000  1.0 -0.1277272783
C  C267  1  0.68128000  0.46608000  0.82710000  1.0 -0.1277272783
C  C268  1  0.46608000  0.68128000  0.02554000  1.0 -0.1277272783
C  C269  1  0.68128000  0.82710000  0.02554000  1.0 -0.1277272783
C  C270  1  0.46608000  0.02554000  0.82710000  1.0 -0.1277272783
C  C271  1  0.82710000  0.68128000  0.46608000  1.0 -0.1277272783
C  C272  1  0.02554000  0.46608000  0.68128000  1.0 -0.1277272783
C  C273  1  0.02554000  0.68128000  0.82710000  1.0 -0.1277272783
C  C274  1  0.82710000  0.46608000  0.02554000  1.0 -0.1277272783
C  C275  1  0.46608000  0.82710000  0.68128000  1.0 -0.1277272783
C  C276  1  0.68128000  0.02554000  0.46608000  1.0 -0.1277272783
C  C277  1  0.17290000  0.97446000  0.53392000  1.0 -0.1277272783
C  C278  1  0.97446000  0.17290000  0.31872000  1.0 -0.1277272783
C  C279  1  0.31872000  0.53392000  0.97446000  1.0 -0.1277272783
C  C280  1  0.53392000  0.31872000  0.17290000  1.0 -0.1277272783
C  C281  1  0.31872000  0.17290000  0.53392000  1.0 -0.1277272783
C  C282  1  0.53392000  0.97446000  0.31872000  1.0 -0.1277272783
C  C283  1  0.17290000  0.31872000  0.97446000  1.0 -0.1277272783
C  C284  1  0.97446000  0.53392000  0.17290000  1.0 -0.1277272783
C  C285  1  0.97446000  0.31872000  0.53392000  1.0 -0.1277272783
C  C286  1  0.17290000  0.53392000  0.31872000  1.0 -0.1277272783
C  C287  1  0.53392000  0.17290000  0.97446000  1.0 -0.1277272783
C  C288  1  0.31872000  0.97446000  0.17290000  1.0 -0.1277272783
C  C289  1  0.95730000  0.04270000  0.47770000  1.0 -0.0802629948
C  C290  1  0.04270000  0.95730000  0.52230000  1.0 -0.0802629948
C  C291  1  0.47770000  0.52230000  0.95730000  1.0 -0.0802629948
C  C292  1  0.52230000  0.47770000  0.04270000  1.0 -0.0802629948
C  C293  1  0.47770000  0.95730000  0.04270000  1.0 -0.0802629948
C  C294  1  0.52230000  0.04270000  0.95730000  1.0 -0.0802629948
C  C295  1  0.95730000  0.47770000  0.52230000  1.0 -0.0802629948
C  C296  1  0.04270000  0.52230000  0.47770000  1.0 -0.0802629948
C  C297  1  0.04270000  0.47770000  0.95730000  1.0 -0.0802629948
C  C298  1  0.95730000  0.52230000  0.04270000  1.0 -0.0802629948
C  C299  1  0.52230000  0.95730000  0.47770000  1.0 -0.0802629948
C  C300  1  0.47770000  0.04270000  0.52230000  1.0 -0.0802629948
C  C301  1  0.04270000  0.95730000  0.47770000  1.0 -0.0802629948
C  C302  1  0.95730000  0.04270000  0.52230000  1.0 -0.0802629948
C  C303  1  0.52230000  0.47770000  0.95730000  1.0 -0.0802629948
C  C304  1  0.47770000  0.52230000  0.04270000  1.0 -0.0802629948
C  C305  1  0.52230000  0.04270000  0.47770000  1.0 -0.0802629948
C  C306  1  0.47770000  0.95730000  0.52230000  1.0 -0.0802629948
C  C307  1  0.04270000  0.52230000  0.95730000  1.0 -0.0802629948
C  C308  1  0.95730000  0.47770000  0.04270000  1.0 -0.0802629948
C  C309  1  0.95730000  0.52230000  0.47770000  1.0 -0.0802629948
C  C310  1  0.04270000  0.47770000  0.52230000  1.0 -0.0802629948
C  C311  1  0.47770000  0.04270000  0.95730000  1.0 -0.0802629948
C  C312  1  0.52230000  0.95730000  0.04270000  1.0 -0.0802629948
C  C313  1  0.03020000  0.03020000  0.44810000  1.0 -0.0936705712
C  C314  1  0.03020000  0.03020000  0.49150000  1.0 -0.0936705712
C  C315  1  0.44810000  0.49150000  0.03020000  1.0 -0.0950054726
C  C316  1  0.49150000  0.44810000  0.03020000  1.0 -0.0936705712
C  C317  1  0.44810000  0.03020000  0.03020000  1.0 -0.0936705712
C  C318  1  0.49150000  0.03020000  0.03020000  1.0 -0.0950054726
C  C319  1  0.03020000  0.44810000  0.49150000  1.0 -0.0950054726
C  C320  1  0.03020000  0.49150000  0.44810000  1.0 -0.0936705712
C  C321  1  0.03020000  0.44810000  0.03020000  1.0 -0.0950054726
C  C322  1  0.03020000  0.49150000  0.03020000  1.0 -0.0936705712
C  C323  1  0.49150000  0.03020000  0.44810000  1.0 -0.0936705712
C  C324  1  0.44810000  0.03020000  0.49150000  1.0 -0.0950054726
C  C325  1  0.96980000  0.96980000  0.50850000  1.0 -0.0950054726
C  C326  1  0.96980000  0.96980000  0.55190000  1.0 -0.0950054726
C  C327  1  0.55190000  0.50850000  0.96980000  1.0 -0.0950054726
C  C328  1  0.50850000  0.55190000  0.96980000  1.0 -0.0950054726
C  C329  1  0.55190000  0.96980000  0.50850000  1.0 -0.0950054726
C  C330  1  0.50850000  0.96980000  0.55190000  1.0 -0.0950054726
C  C331  1  0.96980000  0.55190000  0.96980000  1.0 -0.0950054726
C  C332  1  0.96980000  0.50850000  0.96980000  1.0 -0.0950054726
C  C333  1  0.96980000  0.55190000  0.50850000  1.0 -0.0950054726
C  C334  1  0.96980000  0.50850000  0.55190000  1.0 -0.0950054726
C  C335  1  0.50850000  0.96980000  0.96980000  1.0 -0.0950054726
C  C336  1  0.55190000  0.96980000  0.96980000  1.0 -0.0950054726
C  C337  1  0.99000000  0.04940000  0.45680000  1.0 -0.0737661799
C  C338  1  0.04940000  0.99000000  0.50380000  1.0 -0.0737661799
C  C339  1  0.45680000  0.50380000  0.99000000  1.0 -0.0737661799
C  C340  1  0.50380000  0.45680000  0.04940000  1.0 -0.0737661799
C  C341  1  0.45680000  0.99000000  0.04940000  1.0 -0.0737661799
C  C342  1  0.50380000  0.04940000  0.99000000  1.0 -0.0737661799
C  C343  1  0.99000000  0.45680000  0.50380000  1.0 -0.0737661799
C  C344  1  0.04940000  0.50380000  0.45680000  1.0 -0.0737661799
C  C345  1  0.04940000  0.45680000  0.99000000  1.0 -0.0737661799
C  C346  1  0.99000000  0.50380000  0.04940000  1.0 -0.0737661799
C  C347  1  0.50380000  0.99000000  0.45680000  1.0 -0.0737661799
C  C348  1  0.45680000  0.04940000  0.50380000  1.0 -0.0737661799
C  C349  1  0.01000000  0.95060000  0.49620000  1.0 -0.0737661799
C  C350  1  0.95060000  0.01000000  0.54320000  1.0 -0.0737661799
C  C351  1  0.54320000  0.49620000  0.95060000  1.0 -0.0737661799
C  C352  1  0.49620000  0.54320000  0.01000000  1.0 -0.0737661799
C  C353  1  0.54320000  0.01000000  0.49620000  1.0 -0.0737661799
C  C354  1  0.49620000  0.95060000  0.54320000  1.0 -0.0737661799
C  C355  1  0.01000000  0.54320000  0.95060000  1.0 -0.0737661799
C  C356  1  0.95060000  0.49620000  0.01000000  1.0 -0.0737661799
C  C357  1  0.95060000  0.54320000  0.49620000  1.0 -0.0737661799
C  C358  1  0.01000000  0.49620000  0.54320000  1.0 -0.0737661799
C  C359  1  0.49620000  0.01000000  0.95060000  1.0 -0.0737661799
C  C360  1  0.54320000  0.95060000  0.01000000  1.0 -0.0737661799
C  C361  1  0.01000000  0.95060000  0.54320000  1.0 -0.0737661799
C  C362  1  0.95060000  0.01000000  0.49620000  1.0 -0.0737661799
C  C363  1  0.54320000  0.49620000  0.01000000  1.0 -0.0737661799
C  C364  1  0.49620000  0.54320000  0.95060000  1.0 -0.0737661799
C  C365  1  0.54320000  0.01000000  0.95060000  1.0 -0.0737661799
C  C366  1  0.49620000  0.95060000  0.01000000  1.0 -0.0737661799
C  C367  1  0.01000000  0.54320000  0.49620000  1.0 -0.0737661799
C  C368  1  0.95060000  0.49620000  0.54320000  1.0 -0.0737661799
C  C369  1  0.95060000  0.54320000  0.01000000  1.0 -0.0737661799
C  C370  1  0.01000000  0.49620000  0.95060000  1.0 -0.0737661799
C  C371  1  0.49620000  0.01000000  0.54320000  1.0 -0.0737661799
C  C372  1  0.54320000  0.95060000  0.49620000  1.0 -0.0737661799
C  C373  1  0.99000000  0.04940000  0.50380000  1.0 -0.0737661799
C  C374  1  0.04940000  0.99000000  0.45680000  1.0 -0.0737661799
C  C375  1  0.45680000  0.50380000  0.04940000  1.0 -0.0737661799
C  C376  1  0.50380000  0.45680000  0.99000000  1.0 -0.0737661799
C  C377  1  0.45680000  0.99000000  0.50380000  1.0 -0.0737661799
C  C378  1  0.50380000  0.04940000  0.45680000  1.0 -0.0737661799
C  C379  1  0.99000000  0.45680000  0.04940000  1.0 -0.0737661799
C  C380  1  0.04940000  0.50380000  0.99000000  1.0 -0.0737661799
C  C381  1  0.04940000  0.45680000  0.50380000  1.0 -0.0737661799
C  C382  1  0.99000000  0.50380000  0.45680000  1.0 -0.0737661799
C  C383  1  0.50380000  0.99000000  0.04940000  1.0 -0.0737661799
C  C384  1  0.45680000  0.04940000  0.99000000  1.0 -0.0737661799
N  N1  1  0.00000000  0.00000000  0.46142000  1.0 -0.1393515622
N  N2  1  0.00000000  0.00000000  0.53858000  1.0 -0.1393515622
N  N3  1  0.46142000  0.53858000  0.00000000  1.0 -0.1393515622
N  N4  1  0.53858000  0.46142000  0.00000000  1.0 -0.1393515622
N  N5  1  0.46142000  0.00000000  0.00000000  1.0 -0.1393515622
N  N6  1  0.53858000  0.00000000  0.00000000  1.0 -0.1393515622
N  N7  1  0.00000000  0.46142000  0.53858000  1.0 -0.1393515622
N  N8  1  0.00000000  0.53858000  0.46142000  1.0 -0.1393515622
N  N9  1  0.00000000  0.46142000  0.00000000  1.0 -0.1393515622
N  N10  1  0.00000000  0.53858000  0.00000000  1.0 -0.1393515622
N  N11  1  0.53858000  0.00000000  0.46142000  1.0 -0.1393515622
N  N12  1  0.46142000  0.00000000  0.53858000  1.0 -0.1393515622
O  O1  1  0.07213000  0.98815000  0.35841000  1.0 -0.5667403391
O  O2  1  0.98815000  0.07213000  0.58131000  1.0 -0.5667403391
O  O3  1  0.35841000  0.58131000  0.07213000  1.0 -0.5667403391
O  O4  1  0.58131000  0.35841000  0.98815000  1.0 -0.5667403391
O  O5  1  0.35841000  0.07213000  0.98815000  1.0 -0.5667403391
O  O6  1  0.58131000  0.98815000  0.07213000  1.0 -0.5667403391
O  O7  1  0.07213000  0.35841000  0.58131000  1.0 -0.5667403391
O  O8  1  0.98815000  0.58131000  0.35841000  1.0 -0.5667403391
O  O9  1  0.98815000  0.35841000  0.07213000  1.0 -0.5667403391
O  O10  1  0.07213000  0.58131000  0.98815000  1.0 -0.5667403391
O  O11  1  0.58131000  0.07213000  0.35841000  1.0 -0.5667403391
O  O12  1  0.35841000  0.98815000  0.58131000  1.0 -0.5667403391
O  O13  1  0.92787000  0.01185000  0.41869000  1.0 -0.5667403391
O  O14  1  0.01185000  0.92787000  0.64159000  1.0 -0.5667403391
O  O15  1  0.64159000  0.41869000  0.01185000  1.0 -0.5667403391
O  O16  1  0.41869000  0.64159000  0.92787000  1.0 -0.5667403391
O  O17  1  0.64159000  0.92787000  0.41869000  1.0 -0.5667403391
O  O18  1  0.41869000  0.01185000  0.64159000  1.0 -0.5667403391
O  O19  1  0.92787000  0.64159000  0.01185000  1.0 -0.5667403391
O  O20  1  0.01185000  0.41869000  0.92787000  1.0 -0.5667403391
O  O21  1  0.01185000  0.64159000  0.41869000  1.0 -0.5667403391
O  O22  1  0.92787000  0.41869000  0.64159000  1.0 -0.5667403391
O  O23  1  0.41869000  0.92787000  0.01185000  1.0 -0.5667403391
O  O24  1  0.64159000  0.01185000  0.92787000  1.0 -0.5667403391
O  O25  1  0.92787000  0.01185000  0.64159000  1.0 -0.5667403391
O  O26  1  0.01185000  0.92787000  0.41869000  1.0 -0.5667403391
O  O27  1  0.64159000  0.41869000  0.92787000  1.0 -0.5667403391
O  O28  1  0.41869000  0.64159000  0.01185000  1.0 -0.5667403391
O  O29  1  0.64159000  0.92787000  0.01185000  1.0 -0.5667403391
O  O30  1  0.41869000  0.01185000  0.92787000  1.0 -0.5667403391
O  O31  1  0.92787000  0.64159000  0.41869000  1.0 -0.5667403391
O  O32  1  0.01185000  0.41869000  0.64159000  1.0 -0.5667403391
O  O33  1  0.01185000  0.64159000  0.92787000  1.0 -0.5667403391
O  O34  1  0.92787000  0.41869000  0.01185000  1.0 -0.5667403391
O  O35  1  0.41869000  0.92787000  0.64159000  1.0 -0.5667403391
O  O36  1  0.64159000  0.01185000  0.41869000  1.0 -0.5667403391
O  O37  1  0.07213000  0.98815000  0.58131000  1.0 -0.5667403391
O  O38  1  0.98815000  0.07213000  0.35841000  1.0 -0.5667403391
O  O39  1  0.35841000  0.58131000  0.98815000  1.0 -0.5667403391
O  O40  1  0.58131000  0.35841000  0.07213000  1.0 -0.5667403391
O  O41  1  0.35841000  0.07213000  0.58131000  1.0 -0.5667403391
O  O42  1  0.58131000  0.98815000  0.35841000  1.0 -0.5667403391
O  O43  1  0.07213000  0.35841000  0.98815000  1.0 -0.5667403391
O  O44  1  0.98815000  0.58131000  0.07213000  1.0 -0.5667403391
O  O45  1  0.98815000  0.35841000  0.58131000  1.0 -0.5667403391
O  O46  1  0.07213000  0.58131000  0.35841000  1.0 -0.5667403391
O  O47  1  0.58131000  0.07213000  0.98815000  1.0 -0.5667403391
O  O48  1  0.35841000  0.98815000  0.07213000  1.0 -0.5667403391
O  O49  1  0.07280000  0.98752000  0.29184000  1.0 -0.4962992829
O  O50  1  0.98752000  0.07280000  0.64784000  1.0 -0.4948917149
O  O51  1  0.29184000  0.64784000  0.07280000  1.0 -0.4948917149
O  O52  1  0.64784000  0.29184000  0.98752000  1.0 -0.4948917149
O  O53  1  0.29184000  0.07280000  0.98752000  1.0 -0.4962992829
O  O54  1  0.64784000  0.98752000  0.07280000  1.0 -0.4962992829
O  O55  1  0.07280000  0.29184000  0.64784000  1.0 -0.4948917149
O  O56  1  0.98752000  0.64784000  0.29184000  1.0 -0.4948917149
O  O57  1  0.98752000  0.29184000  0.07280000  1.0 -0.4948917149
O  O58  1  0.07280000  0.64784000  0.98752000  1.0 -0.4962992829
O  O59  1  0.64784000  0.07280000  0.29184000  1.0 -0.4948917149
O  O60  1  0.29184000  0.98752000  0.64784000  1.0 -0.4962992829
O  O61  1  0.92720000  0.01248000  0.35216000  1.0 -0.4962992829
O  O62  1  0.01248000  0.92720000  0.70816000  1.0 -0.4962992829
O  O63  1  0.70816000  0.35216000  0.01248000  1.0 -0.4962992829
O  O64  1  0.35216000  0.70816000  0.92720000  1.0 -0.4962992829
O  O65  1  0.70816000  0.92720000  0.35216000  1.0 -0.4948917149
O  O66  1  0.35216000  0.01248000  0.70816000  1.0 -0.4962992829
O  O67  1  0.92720000  0.70816000  0.01248000  1.0 -0.4962992829
O  O68  1  0.01248000  0.35216000  0.92720000  1.0 -0.4962992829
O  O69  1  0.01248000  0.70816000  0.35216000  1.0 -0.4948917149
O  O70  1  0.92720000  0.35216000  0.70816000  1.0 -0.4948917149
O  O71  1  0.35216000  0.92720000  0.01248000  1.0 -0.4962992829
O  O72  1  0.70816000  0.01248000  0.92720000  1.0 -0.4962992829
O  O73  1  0.92720000  0.01248000  0.70816000  1.0 -0.4962992829
O  O74  1  0.01248000  0.92720000  0.35216000  1.0 -0.4948917149
O  O75  1  0.70816000  0.35216000  0.92720000  1.0 -0.4962992829
O  O76  1  0.35216000  0.70816000  0.01248000  1.0 -0.4948917149
O  O77  1  0.70816000  0.92720000  0.01248000  1.0 -0.4962992829
O  O78  1  0.35216000  0.01248000  0.92720000  1.0 -0.4962992829
O  O79  1  0.92720000  0.70816000  0.35216000  1.0 -0.4962992829
O  O80  1  0.01248000  0.35216000  0.70816000  1.0 -0.4962992829
O  O81  1  0.01248000  0.70816000  0.92720000  1.0 -0.4962992829
O  O82  1  0.92720000  0.35216000  0.01248000  1.0 -0.4948917149
O  O83  1  0.35216000  0.92720000  0.70816000  1.0 -0.4948917149
O  O84  1  0.70816000  0.01248000  0.35216000  1.0 -0.4962992829
O  O85  1  0.07280000  0.98752000  0.64784000  1.0 -0.4962992829
O  O86  1  0.98752000  0.07280000  0.29184000  1.0 -0.4948917149
O  O87  1  0.29184000  0.64784000  0.98752000  1.0 -0.4962992829
O  O88  1  0.64784000  0.29184000  0.07280000  1.0 -0.4948917149
O  O89  1  0.29184000  0.07280000  0.64784000  1.0 -0.4962992829
O  O90  1  0.64784000  0.98752000  0.29184000  1.0 -0.4962992829
O  O91  1  0.07280000  0.29184000  0.98752000  1.0 -0.4962992829
O  O92  1  0.98752000  0.64784000  0.07280000  1.0 -0.4948917149
O  O93  1  0.98752000  0.29184000  0.64784000  1.0 -0.4962992829
O  O94  1  0.07280000  0.64784000  0.29184000  1.0 -0.4948917149
O  O95  1  0.64784000  0.07280000  0.98752000  1.0 -0.4962992829
O  O96  1  0.29184000  0.98752000  0.07280000  1.0 -0.4962992829
