# DDEC6 charges by PACMAN v1.1 (https://github.com/mtap-research/PACMAN-charge/)
data_FORXAM_ASR_pacman
_symmetry_space_group_name_H-M   'P 1'
_cell_length_a   28.23550000
_cell_length_b   28.23550000
_cell_length_c   28.23550000
_cell_angle_alpha   60.00000000
_cell_angle_beta   60.00000000
_cell_angle_gamma   60.00000000
_symmetry_Int_Tables_number   1
_chemical_formula_structural   Zn2H26C28NO8
_chemical_formula_sum   'Zn24 H312 C336 N12 O96'
_cell_volume   15917.37508451
_cell_formula_units_Z   12
loop_
 _symmetry_equiv_pos_site_id
 _symmetry_equiv_pos_as_xyz
  1  'x, y, z'
loop_
 _atom_site_type_symbol
 _atom_site_label
 _atom_site_symmetry_multiplicity
 _atom_site_fract_x
 _atom_site_fract_y
 _atom_site_fract_z
 _atom_site_occupancy
 _atom_site_charge
Zn  Zn1  1  0.77843000  0.22157000  0.50000000  1.0 0.9344246827
Zn  Zn2  1  0.22157000  0.77843000  0.50000000  1.0 0.9344246827
Zn  Zn3  1  0.50000000  0.50000000  0.77843000  1.0 0.9344246827
Zn  Zn4  1  0.50000000  0.50000000  0.22157000  1.0 0.9344246827
Zn  Zn5  1  0.50000000  0.77843000  0.22157000  1.0 0.9371407054
Zn  Zn6  1  0.50000000  0.22157000  0.77843000  1.0 0.9344246827
Zn  Zn7  1  0.77843000  0.50000000  0.50000000  1.0 0.9344246827
Zn  Zn8  1  0.22157000  0.50000000  0.50000000  1.0 0.9344246827
Zn  Zn9  1  0.22157000  0.50000000  0.77843000  1.0 0.9371407054
Zn  Zn10  1  0.77843000  0.50000000  0.22157000  1.0 0.9344246827
Zn  Zn11  1  0.50000000  0.77843000  0.50000000  1.0 0.9344246827
Zn  Zn12  1  0.50000000  0.22157000  0.50000000  1.0 0.9344246827
Zn  Zn13  1  0.88257000  0.11744000  0.50000000  1.0 0.7598515175
Zn  Zn14  1  0.11743000  0.88257000  0.50000000  1.0 0.7598515175
Zn  Zn15  1  0.50000000  0.50000000  0.88257000  1.0 0.7598515175
Zn  Zn16  1  0.50000000  0.50000000  0.11743000  1.0 0.7598515175
Zn  Zn17  1  0.50000000  0.88257000  0.11743000  1.0 0.7598515175
Zn  Zn18  1  0.50000000  0.11743000  0.88257000  1.0 0.7598515175
Zn  Zn19  1  0.88256000  0.50000000  0.50000000  1.0 0.7598515175
Zn  Zn20  1  0.11744000  0.50000000  0.50000000  1.0 0.7598515175
Zn  Zn21  1  0.11744000  0.50000000  0.88257000  1.0 0.7598515175
Zn  Zn22  1  0.88257000  0.50000000  0.11743000  1.0 0.7598515175
Zn  Zn23  1  0.50000000  0.88257000  0.50000000  1.0 0.7598515175
Zn  Zn24  1  0.50000000  0.11744000  0.50000000  1.0 0.7598515175
H  H1  1  0.67910000  0.15728000  0.67910000  1.0 0.1419812282
H  H2  1  0.15728000  0.67910000  0.48452000  1.0 0.1419812282
H  H3  1  0.67910000  0.48452000  0.67910000  1.0 0.1419812282
H  H4  1  0.48452000  0.67910000  0.15728000  1.0 0.1419812282
H  H5  1  0.67910000  0.67910000  0.15728000  1.0 0.1419812282
H  H6  1  0.48452000  0.15728000  0.67910000  1.0 0.1419812282
H  H7  1  0.67910000  0.67910000  0.48452000  1.0 0.1419812282
H  H8  1  0.15728000  0.48452000  0.67910000  1.0 0.1419812282
H  H9  1  0.15728000  0.67910000  0.67910000  1.0 0.1419812282
H  H10  1  0.67910000  0.48452000  0.15728000  1.0 0.1419812282
H  H11  1  0.48452000  0.67910000  0.67910000  1.0 0.1419812282
H  H12  1  0.67910000  0.15728000  0.48452000  1.0 0.1419812282
H  H13  1  0.32090000  0.84272000  0.51548000  1.0 0.1419812282
H  H14  1  0.84272000  0.32090000  0.32090000  1.0 0.1419812282
H  H15  1  0.32090000  0.51548000  0.84272000  1.0 0.1419812282
H  H16  1  0.51548000  0.32090000  0.32090000  1.0 0.1419812282
H  H17  1  0.32090000  0.32090000  0.51548000  1.0 0.1419812282
H  H18  1  0.51548000  0.84272000  0.32090000  1.0 0.1419812282
H  H19  1  0.32090000  0.32090000  0.84272000  1.0 0.1419812282
H  H20  1  0.84272000  0.51548000  0.32090000  1.0 0.1419812282
H  H21  1  0.84272000  0.32090000  0.51548000  1.0 0.1419812282
H  H22  1  0.32090000  0.51548000  0.32090000  1.0 0.1419812282
H  H23  1  0.51548000  0.32090000  0.84272000  1.0 0.1419812282
H  H24  1  0.32090000  0.84272000  0.32090000  1.0 0.1419812282
H  H25  1  0.82050000  0.01468000  0.68090000  1.0 0.0673040701
H  H26  1  0.01468000  0.82050000  0.48392000  1.0 0.0673040701
H  H27  1  0.68090000  0.48392000  0.82050000  1.0 0.0673040701
H  H28  1  0.48392000  0.68090000  0.01468000  1.0 0.0673040701
H  H29  1  0.68090000  0.82050000  0.01468000  1.0 0.0673040701
H  H30  1  0.48392000  0.01468000  0.82050000  1.0 0.0673040701
H  H31  1  0.82050000  0.68090000  0.48392000  1.0 0.0673040701
H  H32  1  0.01468000  0.48392000  0.68090000  1.0 0.0673040701
H  H33  1  0.01468000  0.68090000  0.82050000  1.0 0.0673040701
H  H34  1  0.82050000  0.48392000  0.01468000  1.0 0.0673040701
H  H35  1  0.48392000  0.82050000  0.68090000  1.0 0.0673040701
H  H36  1  0.68090000  0.01468000  0.48392000  1.0 0.0673040701
H  H37  1  0.17950000  0.98532000  0.51608000  1.0 0.0673040701
H  H38  1  0.98532000  0.17950000  0.31910000  1.0 0.0673040701
H  H39  1  0.31910000  0.51608000  0.98532000  1.0 0.0673040701
H  H40  1  0.51608000  0.31910000  0.17950000  1.0 0.0673040701
H  H41  1  0.31910000  0.17950000  0.51608000  1.0 0.0673040701
H  H42  1  0.51608000  0.98532000  0.31910000  1.0 0.0673040701
H  H43  1  0.17950000  0.31910000  0.98532000  1.0 0.0673040701
H  H44  1  0.98532000  0.51608000  0.17950000  1.0 0.0673040701
H  H45  1  0.98532000  0.31910000  0.51608000  1.0 0.0673040701
H  H46  1  0.17950000  0.51608000  0.31910000  1.0 0.0673040701
H  H47  1  0.51608000  0.17950000  0.98532000  1.0 0.0673040701
H  H48  1  0.31910000  0.98532000  0.17950000  1.0 0.0673040701
H  H49  1  0.17950000  0.98532000  0.31910000  1.0 0.0673040701
H  H50  1  0.98532000  0.17950000  0.51608000  1.0 0.0673040701
H  H51  1  0.31910000  0.51608000  0.17950000  1.0 0.0673040701
H  H52  1  0.51608000  0.31910000  0.98532000  1.0 0.0673040701
H  H53  1  0.31910000  0.17950000  0.98532000  1.0 0.0673040701
H  H54  1  0.51608000  0.98532000  0.17950000  1.0 0.0673040701
H  H55  1  0.17950000  0.31910000  0.51608000  1.0 0.0673040701
H  H56  1  0.98532000  0.51608000  0.31910000  1.0 0.0673040701
H  H57  1  0.98532000  0.31910000  0.17950000  1.0 0.0673040701
H  H58  1  0.17950000  0.51608000  0.98532000  1.0 0.0673040701
H  H59  1  0.51608000  0.17950000  0.31910000  1.0 0.0673040701
H  H60  1  0.31910000  0.98532000  0.51608000  1.0 0.0673040701
H  H61  1  0.82050000  0.01468000  0.48392000  1.0 0.0673040701
H  H62  1  0.01468000  0.82050000  0.68090000  1.0 0.0673040701
H  H63  1  0.68090000  0.48392000  0.01468000  1.0 0.0673040701
H  H64  1  0.48392000  0.68090000  0.82050000  1.0 0.0673040701
H  H65  1  0.68090000  0.82050000  0.48392000  1.0 0.0673040701
H  H66  1  0.48392000  0.01468000  0.68090000  1.0 0.0673040701
H  H67  1  0.82050000  0.68090000  0.01468000  1.0 0.0673040701
H  H68  1  0.01468000  0.48392000  0.82050000  1.0 0.0673040701
H  H69  1  0.01468000  0.68090000  0.48392000  1.0 0.0673040701
H  H70  1  0.82050000  0.48392000  0.68090000  1.0 0.0673040701
H  H71  1  0.48392000  0.82050000  0.01468000  1.0 0.0673040701
H  H72  1  0.68090000  0.01468000  0.82050000  1.0 0.0673040701
H  H73  1  0.77280000  0.96498000  0.77280000  1.0 0.0606997918
H  H74  1  0.96498000  0.77280000  0.48942000  1.0 0.0606997918
H  H75  1  0.77280000  0.48942000  0.77280000  1.0 0.0606997918
H  H76  1  0.48942000  0.77280000  0.96498000  1.0 0.0606997918
H  H77  1  0.77280000  0.77280000  0.96498000  1.0 0.0606997918
H  H78  1  0.48942000  0.96498000  0.77280000  1.0 0.0606997918
H  H79  1  0.77280000  0.77280000  0.48942000  1.0 0.0606997918
H  H80  1  0.96498000  0.48942000  0.77280000  1.0 0.0606997918
H  H81  1  0.96498000  0.77280000  0.77280000  1.0 0.0606997918
H  H82  1  0.77280000  0.48942000  0.96498000  1.0 0.0606997918
H  H83  1  0.48942000  0.77280000  0.77280000  1.0 0.0606997918
H  H84  1  0.77280000  0.96498000  0.48942000  1.0 0.0606997918
H  H85  1  0.22720000  0.03502000  0.51058000  1.0 0.0606997918
H  H86  1  0.03502000  0.22720000  0.22720000  1.0 0.0606997918
H  H87  1  0.22720000  0.51058000  0.03502000  1.0 0.0606997918
H  H88  1  0.51058000  0.22720000  0.22720000  1.0 0.0606997918
H  H89  1  0.22720000  0.22720000  0.51058000  1.0 0.0606997918
H  H90  1  0.51058000  0.03502000  0.22720000  1.0 0.0606997918
H  H91  1  0.22720000  0.22720000  0.03502000  1.0 0.0606997918
H  H92  1  0.03502000  0.51058000  0.22720000  1.0 0.0606997918
H  H93  1  0.03502000  0.22720000  0.51058000  1.0 0.0606997918
H  H94  1  0.22720000  0.51058000  0.22720000  1.0 0.0606997918
H  H95  1  0.51058000  0.22720000  0.03502000  1.0 0.0606997918
H  H96  1  0.22720000  0.03502000  0.22720000  1.0 0.0606997918
H  H97  1  0.91020000  0.98958000  0.55720000  1.0 0.0904262669
H  H98  1  0.98958000  0.91020000  0.54302000  1.0 0.0904262669
H  H99  1  0.55720000  0.54302000  0.91020000  1.0 0.0904262669
H  H100  1  0.54302000  0.55720000  0.98958000  1.0 0.0904262669
H  H101  1  0.55720000  0.91020000  0.98958000  1.0 0.0904262669
H  H102  1  0.54302000  0.98958000  0.91020000  1.0 0.0904262669
H  H103  1  0.91020000  0.55720000  0.54302000  1.0 0.0904262669
H  H104  1  0.98958000  0.54302000  0.55720000  1.0 0.0904262669
H  H105  1  0.98958000  0.55720000  0.91020000  1.0 0.0904262669
H  H106  1  0.91020000  0.54302000  0.98958000  1.0 0.0904262669
H  H107  1  0.54302000  0.91020000  0.55720000  1.0 0.0904262669
H  H108  1  0.55720000  0.98958000  0.54302000  1.0 0.0904262669
H  H109  1  0.08980000  0.01042000  0.45698000  1.0 0.0904262669
H  H110  1  0.01042000  0.08980000  0.44280000  1.0 0.0904262669
H  H111  1  0.44280000  0.45698000  0.01042000  1.0 0.0904262669
H  H112  1  0.45698000  0.44280000  0.08980000  1.0 0.0904262669
H  H113  1  0.44280000  0.08980000  0.45698000  1.0 0.0904262669
H  H114  1  0.45698000  0.01042000  0.44280000  1.0 0.0904262669
H  H115  1  0.08980000  0.44280000  0.01042000  1.0 0.0904262669
H  H116  1  0.01042000  0.45698000  0.08980000  1.0 0.0904262669
H  H117  1  0.01042000  0.44280000  0.45698000  1.0 0.0904262669
H  H118  1  0.08980000  0.45698000  0.44280000  1.0 0.0904262669
H  H119  1  0.45698000  0.08980000  0.01042000  1.0 0.0904262669
H  H120  1  0.44280000  0.01042000  0.08980000  1.0 0.0904262669
H  H121  1  0.08980000  0.01042000  0.44280000  1.0 0.0904262669
H  H122  1  0.01042000  0.08980000  0.45698000  1.0 0.0904262669
H  H123  1  0.44280000  0.45698000  0.08980000  1.0 0.0904262669
H  H124  1  0.45698000  0.44280000  0.01042000  1.0 0.0904262669
H  H125  1  0.44280000  0.08980000  0.01042000  1.0 0.0904262669
H  H126  1  0.45698000  0.01042000  0.08980000  1.0 0.0904262669
H  H127  1  0.08980000  0.44280000  0.45698000  1.0 0.0904262669
H  H128  1  0.01042000  0.45698000  0.44280000  1.0 0.0904262669
H  H129  1  0.01042000  0.44280000  0.08980000  1.0 0.0904262669
H  H130  1  0.08980000  0.45698000  0.01042000  1.0 0.0904262669
H  H131  1  0.45698000  0.08980000  0.44280000  1.0 0.0904262669
H  H132  1  0.44280000  0.01042000  0.45698000  1.0 0.0904262669
H  H133  1  0.91020000  0.98958000  0.54302000  1.0 0.0904262669
H  H134  1  0.98958000  0.91020000  0.55720000  1.0 0.0904262669
H  H135  1  0.55720000  0.54302000  0.98958000  1.0 0.0904262669
H  H136  1  0.54302000  0.55720000  0.91020000  1.0 0.0904262669
H  H137  1  0.55720000  0.91020000  0.54302000  1.0 0.0904262669
H  H138  1  0.54302000  0.98958000  0.55720000  1.0 0.0904262669
H  H139  1  0.91020000  0.55720000  0.98958000  1.0 0.0904262669
H  H140  1  0.98958000  0.54302000  0.91020000  1.0 0.0904262669
H  H141  1  0.98958000  0.55720000  0.54302000  1.0 0.0904262669
H  H142  1  0.91020000  0.54302000  0.55720000  1.0 0.0904262669
H  H143  1  0.54302000  0.91020000  0.98958000  1.0 0.0904262669
H  H144  1  0.55720000  0.98958000  0.91020000  1.0 0.0904262669
H  H145  1  0.92990000  0.00928000  0.58710000  1.0 0.0606997918
H  H146  1  0.00928000  0.92990000  0.47372000  1.0 0.0606997918
H  H147  1  0.58710000  0.47372000  0.92990000  1.0 0.0606997918
H  H148  1  0.47372000  0.58710000  0.00928000  1.0 0.0606997918
H  H149  1  0.58710000  0.92990000  0.00928000  1.0 0.0606997918
H  H150  1  0.47372000  0.00928000  0.92990000  1.0 0.0606997918
H  H151  1  0.92990000  0.58710000  0.47372000  1.0 0.0606997918
H  H152  1  0.00928000  0.47372000  0.58710000  1.0 0.0606997918
H  H153  1  0.00928000  0.58710000  0.92990000  1.0 0.0606997918
H  H154  1  0.92990000  0.47372000  0.00928000  1.0 0.0606997918
H  H155  1  0.47372000  0.92990000  0.58710000  1.0 0.0606997918
H  H156  1  0.58710000  0.00928000  0.47372000  1.0 0.0606997918
H  H157  1  0.07010000  0.99072000  0.52628000  1.0 0.0606997918
H  H158  1  0.99072000  0.07010000  0.41290000  1.0 0.0606997918
H  H159  1  0.41290000  0.52628000  0.99072000  1.0 0.0606997918
H  H160  1  0.52628000  0.41290000  0.07010000  1.0 0.0606997918
H  H161  1  0.41290000  0.07010000  0.52628000  1.0 0.0606997918
H  H162  1  0.52628000  0.99072000  0.41290000  1.0 0.0606997918
H  H163  1  0.07010000  0.41290000  0.99072000  1.0 0.0606997918
H  H164  1  0.99072000  0.52628000  0.07010000  1.0 0.0606997918
H  H165  1  0.99072000  0.41290000  0.52628000  1.0 0.0606997918
H  H166  1  0.07010000  0.52628000  0.41290000  1.0 0.0606997918
H  H167  1  0.52628000  0.07010000  0.99072000  1.0 0.0606997918
H  H168  1  0.41290000  0.99072000  0.07010000  1.0 0.0606997918
H  H169  1  0.07010000  0.99072000  0.41290000  1.0 0.0606997918
H  H170  1  0.99072000  0.07010000  0.52628000  1.0 0.0606997918
H  H171  1  0.41290000  0.52628000  0.07010000  1.0 0.0606997918
H  H172  1  0.52628000  0.41290000  0.99072000  1.0 0.0606997918
H  H173  1  0.41290000  0.07010000  0.99072000  1.0 0.0606997918
H  H174  1  0.52628000  0.99072000  0.07010000  1.0 0.0606997918
H  H175  1  0.07010000  0.41290000  0.52628000  1.0 0.0606997918
H  H176  1  0.99072000  0.52628000  0.41290000  1.0 0.0606997918
H  H177  1  0.99072000  0.41290000  0.07010000  1.0 0.0606997918
H  H178  1  0.07010000  0.52628000  0.99072000  1.0 0.0606997918
H  H179  1  0.52628000  0.07010000  0.41290000  1.0 0.0606997918
H  H180  1  0.41290000  0.99072000  0.52628000  1.0 0.0606997918
H  H181  1  0.92990000  0.00928000  0.47372000  1.0 0.0606997918
H  H182  1  0.00928000  0.92990000  0.58710000  1.0 0.0606997918
H  H183  1  0.58710000  0.47372000  0.00928000  1.0 0.0606997918
H  H184  1  0.47372000  0.58710000  0.92990000  1.0 0.0606997918
H  H185  1  0.58710000  0.92990000  0.47372000  1.0 0.0606997918
H  H186  1  0.47372000  0.00928000  0.58710000  1.0 0.0606997918
H  H187  1  0.92990000  0.58710000  0.00928000  1.0 0.0606997918
H  H188  1  0.00928000  0.47372000  0.92990000  1.0 0.0606997918
H  H189  1  0.00928000  0.58710000  0.47372000  1.0 0.0606997918
H  H190  1  0.92990000  0.47372000  0.58710000  1.0 0.0606997918
H  H191  1  0.47372000  0.92990000  0.00928000  1.0 0.0606997918
H  H192  1  0.58710000  0.00928000  0.92990000  1.0 0.0606997918
H  H193  1  0.94360000  0.01638000  0.58640000  1.0 0.0673040701
H  H194  1  0.01638000  0.94360000  0.45362000  1.0 0.0673040701
H  H195  1  0.58640000  0.45362000  0.94360000  1.0 0.0673040701
H  H196  1  0.45362000  0.58640000  0.01638000  1.0 0.0673040701
H  H197  1  0.58640000  0.94360000  0.01638000  1.0 0.0673040701
H  H198  1  0.45362000  0.01638000  0.94360000  1.0 0.0673040701
H  H199  1  0.94360000  0.58640000  0.45362000  1.0 0.0673040701
H  H200  1  0.01638000  0.45362000  0.58640000  1.0 0.0673040701
H  H201  1  0.01638000  0.58640000  0.94360000  1.0 0.0673040701
H  H202  1  0.94360000  0.45362000  0.01638000  1.0 0.0673040701
H  H203  1  0.45362000  0.94360000  0.58640000  1.0 0.0673040701
H  H204  1  0.58640000  0.01638000  0.45362000  1.0 0.0673040701
H  H205  1  0.05640000  0.98362000  0.54638000  1.0 0.0673040701
H  H206  1  0.98362000  0.05640000  0.41360000  1.0 0.0673040701
H  H207  1  0.41360000  0.54638000  0.98362000  1.0 0.0673040701
H  H208  1  0.54638000  0.41360000  0.05640000  1.0 0.0673040701
H  H209  1  0.41360000  0.05640000  0.54638000  1.0 0.0673040701
H  H210  1  0.54638000  0.98362000  0.41360000  1.0 0.0673040701
H  H211  1  0.05640000  0.41360000  0.98362000  1.0 0.0673040701
H  H212  1  0.98362000  0.54638000  0.05640000  1.0 0.0673040701
H  H213  1  0.98362000  0.41360000  0.54638000  1.0 0.0673040701
H  H214  1  0.05640000  0.54638000  0.41360000  1.0 0.0673040701
H  H215  1  0.54638000  0.05640000  0.98362000  1.0 0.0673040701
H  H216  1  0.41360000  0.98362000  0.05640000  1.0 0.0673040701
H  H217  1  0.05640000  0.98362000  0.41360000  1.0 0.0673040701
H  H218  1  0.98362000  0.05640000  0.54638000  1.0 0.0673040701
H  H219  1  0.41360000  0.54638000  0.05640000  1.0 0.0673040701
H  H220  1  0.54638000  0.41360000  0.98362000  1.0 0.0673040701
H  H221  1  0.41360000  0.05640000  0.98362000  1.0 0.0673040701
H  H222  1  0.54638000  0.98362000  0.05640000  1.0 0.0673040701
H  H223  1  0.05640000  0.41360000  0.54638000  1.0 0.0673040701
H  H224  1  0.98362000  0.54638000  0.41360000  1.0 0.0673040701
H  H225  1  0.98362000  0.41360000  0.05640000  1.0 0.0673040701
H  H226  1  0.05640000  0.54638000  0.98362000  1.0 0.0673040701
H  H227  1  0.54638000  0.05640000  0.41360000  1.0 0.0673040701
H  H228  1  0.41360000  0.98362000  0.54638000  1.0 0.0673040701
H  H229  1  0.94360000  0.01638000  0.45362000  1.0 0.0673040701
H  H230  1  0.01638000  0.94360000  0.58640000  1.0 0.0673040701
H  H231  1  0.58640000  0.45362000  0.01638000  1.0 0.0673040701
H  H232  1  0.45362000  0.58640000  0.94360000  1.0 0.0673040701
H  H233  1  0.58640000  0.94360000  0.45362000  1.0 0.0673040701
H  H234  1  0.45362000  0.01638000  0.58640000  1.0 0.0673040701
H  H235  1  0.94360000  0.58640000  0.01638000  1.0 0.0673040701
H  H236  1  0.01638000  0.45362000  0.94360000  1.0 0.0673040701
H  H237  1  0.01638000  0.58640000  0.45362000  1.0 0.0673040701
H  H238  1  0.94360000  0.45362000  0.58640000  1.0 0.0673040701
H  H239  1  0.45362000  0.94360000  0.01638000  1.0 0.0673040701
H  H240  1  0.58640000  0.01638000  0.94360000  1.0 0.0673040701
H  H241  1  0.96840000  0.16638000  0.30980000  1.0 0.0606997918
H  H242  1  0.16638000  0.96840000  0.55542000  1.0 0.0606997918
H  H243  1  0.30980000  0.55542000  0.96840000  1.0 0.0606997918
H  H244  1  0.55542000  0.30980000  0.16638000  1.0 0.0606997918
H  H245  1  0.30980000  0.96840000  0.16638000  1.0 0.0606997918
H  H246  1  0.55542000  0.16638000  0.96840000  1.0 0.0606997918
H  H247  1  0.96840000  0.30980000  0.55542000  1.0 0.0606997918
H  H248  1  0.16638000  0.55542000  0.30980000  1.0 0.0606997918
H  H249  1  0.16638000  0.30980000  0.96840000  1.0 0.0606997918
H  H250  1  0.96840000  0.55542000  0.16638000  1.0 0.0606997918
H  H251  1  0.55542000  0.96840000  0.30980000  1.0 0.0606997918
H  H252  1  0.30980000  0.16638000  0.55542000  1.0 0.0606997918
H  H253  1  0.03160000  0.83362000  0.44458000  1.0 0.0606997918
H  H254  1  0.83362000  0.03160000  0.69020000  1.0 0.0606997918
H  H255  1  0.69020000  0.44458000  0.83362000  1.0 0.0606997918
H  H256  1  0.44458000  0.69020000  0.03160000  1.0 0.0606997918
H  H257  1  0.69020000  0.03160000  0.44458000  1.0 0.0606997918
H  H258  1  0.44458000  0.83362000  0.69020000  1.0 0.0606997918
H  H259  1  0.03160000  0.69020000  0.83362000  1.0 0.0606997918
H  H260  1  0.83362000  0.44458000  0.03160000  1.0 0.0606997918
H  H261  1  0.83362000  0.69020000  0.44458000  1.0 0.0606997918
H  H262  1  0.03160000  0.44458000  0.69020000  1.0 0.0606997918
H  H263  1  0.44458000  0.03160000  0.83362000  1.0 0.0606997918
H  H264  1  0.69020000  0.83362000  0.03160000  1.0 0.0606997918
H  H265  1  0.03160000  0.83362000  0.69020000  1.0 0.0606997918
H  H266  1  0.83362000  0.03160000  0.44458000  1.0 0.0606997918
H  H267  1  0.69020000  0.44458000  0.03160000  1.0 0.0606997918
H  H268  1  0.44458000  0.69020000  0.83362000  1.0 0.0606997918
H  H269  1  0.69020000  0.03160000  0.83362000  1.0 0.0606997918
H  H270  1  0.44458000  0.83362000  0.03160000  1.0 0.0606997918
H  H271  1  0.03160000  0.69020000  0.44458000  1.0 0.0606997918
H  H272  1  0.83362000  0.44458000  0.69020000  1.0 0.0606997918
H  H273  1  0.83362000  0.69020000  0.03160000  1.0 0.0606997918
H  H274  1  0.03160000  0.44458000  0.83362000  1.0 0.0606997918
H  H275  1  0.44458000  0.03160000  0.69020000  1.0 0.0606997918
H  H276  1  0.69020000  0.83362000  0.44458000  1.0 0.0606997918
H  H277  1  0.96840000  0.16638000  0.55542000  1.0 0.0606997918
H  H278  1  0.16638000  0.96840000  0.30980000  1.0 0.0606997918
H  H279  1  0.30980000  0.55542000  0.16638000  1.0 0.0606997918
H  H280  1  0.55542000  0.30980000  0.96840000  1.0 0.0606997918
H  H281  1  0.30980000  0.96840000  0.55542000  1.0 0.0606997918
H  H282  1  0.55542000  0.16638000  0.30980000  1.0 0.0606997918
H  H283  1  0.96840000  0.30980000  0.16638000  1.0 0.0606997918
H  H284  1  0.16638000  0.55542000  0.96840000  1.0 0.0606997918
H  H285  1  0.16638000  0.30980000  0.55542000  1.0 0.0606997918
H  H286  1  0.96840000  0.55542000  0.30980000  1.0 0.0606997918
H  H287  1  0.55542000  0.96840000  0.16638000  1.0 0.0606997918
H  H288  1  0.30980000  0.16638000  0.96840000  1.0 0.0606997918
H  H289  1  0.01190000  0.21349000  0.21349000  1.0 0.0384613707
H  H290  1  0.21349000  0.01190000  0.56112000  1.0 0.0384613707
H  H291  1  0.21349000  0.56112000  0.01190000  1.0 0.0384613707
H  H292  1  0.56112000  0.21349000  0.21349000  1.0 0.0384613707
H  H293  1  0.21349000  0.01190000  0.21349000  1.0 0.0384613707
H  H294  1  0.56112000  0.21349000  0.01190000  1.0 0.0384613707
H  H295  1  0.01190000  0.21349000  0.56112000  1.0 0.0384613707
H  H296  1  0.21349000  0.56112000  0.21349000  1.0 0.0384613707
H  H297  1  0.21349000  0.21349000  0.01190000  1.0 0.0384613707
H  H298  1  0.01190000  0.56112000  0.21349000  1.0 0.0384613707
H  H299  1  0.56112000  0.01190000  0.21349000  1.0 0.0384613707
H  H300  1  0.21349000  0.21349000  0.56112000  1.0 0.0384613707
H  H301  1  0.98810000  0.78651000  0.43888000  1.0 0.0384613707
H  H302  1  0.78651000  0.98810000  0.78651000  1.0 0.0384613707
H  H303  1  0.78651000  0.43888000  0.78651000  1.0 0.0384613707
H  H304  1  0.43888000  0.78651000  0.98810000  1.0 0.0384613707
H  H305  1  0.78651000  0.98810000  0.43888000  1.0 0.0384613707
H  H306  1  0.43888000  0.78651000  0.78651000  1.0 0.0384613707
H  H307  1  0.98810000  0.78651000  0.78651000  1.0 0.0384613707
H  H308  1  0.78651000  0.43888000  0.98810000  1.0 0.0384613707
H  H309  1  0.78651000  0.78651000  0.43888000  1.0 0.0384613707
H  H310  1  0.98810000  0.43888000  0.78651000  1.0 0.0384613707
H  H311  1  0.43888000  0.98810000  0.78651000  1.0 0.0384613707
H  H312  1  0.78651000  0.78651000  0.98810000  1.0 0.0384613707
C  C1  1  0.78517000  0.12195000  0.60919000  1.0 0.5355520568
C  C2  1  0.12195000  0.78517000  0.48369000  1.0 0.5355520568
C  C3  1  0.60919000  0.48369000  0.78517000  1.0 0.5355520568
C  C4  1  0.48369000  0.60919000  0.12195000  1.0 0.5355520568
C  C5  1  0.60919000  0.78517000  0.12195000  1.0 0.5355520568
C  C6  1  0.48369000  0.12195000  0.78517000  1.0 0.5355520568
C  C7  1  0.78517000  0.60919000  0.48369000  1.0 0.5355520568
C  C8  1  0.12195000  0.48369000  0.60919000  1.0 0.5355520568
C  C9  1  0.12195000  0.60919000  0.78517000  1.0 0.5355520568
C  C10  1  0.78517000  0.48369000  0.12195000  1.0 0.5355520568
C  C11  1  0.48369000  0.78517000  0.60919000  1.0 0.5355520568
C  C12  1  0.60919000  0.12195000  0.48369000  1.0 0.5355520568
C  C13  1  0.21483000  0.87805000  0.51631000  1.0 0.5355520568
C  C14  1  0.87805000  0.21483000  0.39081000  1.0 0.5355520568
C  C15  1  0.39081000  0.51631000  0.87805000  1.0 0.5355520568
C  C16  1  0.51631000  0.39081000  0.21483000  1.0 0.5355520568
C  C17  1  0.39081000  0.21483000  0.51631000  1.0 0.5355520568
C  C18  1  0.51631000  0.87805000  0.39081000  1.0 0.5355520568
C  C19  1  0.21483000  0.39081000  0.87805000  1.0 0.5355520568
C  C20  1  0.87805000  0.51631000  0.21483000  1.0 0.5355520568
C  C21  1  0.87805000  0.39081000  0.51631000  1.0 0.5355520568
C  C22  1  0.21483000  0.51631000  0.39081000  1.0 0.5355520568
C  C23  1  0.51631000  0.21483000  0.87805000  1.0 0.5355520568
C  C24  1  0.39081000  0.87805000  0.21483000  1.0 0.5355520568
C  C25  1  0.21483000  0.87805000  0.39081000  1.0 0.5355520568
C  C26  1  0.87805000  0.21483000  0.51631000  1.0 0.5355520568
C  C27  1  0.39081000  0.51631000  0.21483000  1.0 0.5355520568
C  C28  1  0.51631000  0.39081000  0.87805000  1.0 0.5355520568
C  C29  1  0.39081000  0.21483000  0.87805000  1.0 0.5355520568
C  C30  1  0.51631000  0.87805000  0.21483000  1.0 0.5355520568
C  C31  1  0.21483000  0.39081000  0.51631000  1.0 0.5355520568
C  C32  1  0.87805000  0.51631000  0.39081000  1.0 0.5355520568
C  C33  1  0.87805000  0.39081000  0.21483000  1.0 0.5355520568
C  C34  1  0.21483000  0.51631000  0.87805000  1.0 0.5355520568
C  C35  1  0.51631000  0.21483000  0.39081000  1.0 0.5355520568
C  C36  1  0.39081000  0.87805000  0.51631000  1.0 0.5355520568
C  C37  1  0.78517000  0.12195000  0.48369000  1.0 0.5355520568
C  C38  1  0.12195000  0.78517000  0.60919000  1.0 0.5355520568
C  C39  1  0.60919000  0.48369000  0.12195000  1.0 0.5355520568
C  C40  1  0.48369000  0.60919000  0.78517000  1.0 0.5355520568
C  C41  1  0.60919000  0.78517000  0.48369000  1.0 0.5355520568
C  C42  1  0.48369000  0.12195000  0.60919000  1.0 0.5355520568
C  C43  1  0.78517000  0.60919000  0.12195000  1.0 0.5355520568
C  C44  1  0.12195000  0.48369000  0.78517000  1.0 0.5355520568
C  C45  1  0.12195000  0.60919000  0.48369000  1.0 0.5355520568
C  C46  1  0.78517000  0.48369000  0.60919000  1.0 0.5355520568
C  C47  1  0.48369000  0.78517000  0.12195000  1.0 0.5355520568
C  C48  1  0.60919000  0.12195000  0.78517000  1.0 0.5355520568
C  C49  1  0.75690000  0.09396000  0.67172000  1.0 -0.0123512974
C  C50  1  0.09396000  0.75690000  0.47742000  1.0 -0.0123512974
C  C51  1  0.67172000  0.47742000  0.75690000  1.0 -0.0123512974
C  C52  1  0.47742000  0.67172000  0.09396000  1.0 -0.0123512974
C  C53  1  0.67172000  0.75690000  0.09396000  1.0 -0.0123512974
C  C54  1  0.47742000  0.09396000  0.75690000  1.0 -0.0123512974
C  C55  1  0.75690000  0.67172000  0.47742000  1.0 -0.0123512974
C  C56  1  0.09396000  0.47742000  0.67172000  1.0 -0.0123512974
C  C57  1  0.09396000  0.67172000  0.75690000  1.0 -0.0123512974
C  C58  1  0.75690000  0.47742000  0.09396000  1.0 -0.0123512974
C  C59  1  0.47742000  0.75690000  0.67172000  1.0 -0.0123512974
C  C60  1  0.67172000  0.09396000  0.47742000  1.0 -0.0123512974
C  C61  1  0.24310000  0.90604000  0.52258000  1.0 -0.0123512974
C  C62  1  0.90604000  0.24310000  0.32828000  1.0 -0.0123512974
C  C63  1  0.32828000  0.52258000  0.90604000  1.0 -0.0123512974
C  C64  1  0.52258000  0.32828000  0.24310000  1.0 -0.0123512974
C  C65  1  0.32828000  0.24310000  0.52258000  1.0 -0.0123512974
C  C66  1  0.52258000  0.90604000  0.32828000  1.0 -0.0123512974
C  C67  1  0.24310000  0.32828000  0.90604000  1.0 -0.0123512974
C  C68  1  0.90604000  0.52258000  0.24310000  1.0 -0.0123512974
C  C69  1  0.90604000  0.32828000  0.52258000  1.0 -0.0123512974
C  C70  1  0.24310000  0.52258000  0.32828000  1.0 -0.0123512974
C  C71  1  0.52258000  0.24310000  0.90604000  1.0 -0.0123512974
C  C72  1  0.32828000  0.90604000  0.24310000  1.0 -0.0123512974
C  C73  1  0.24310000  0.90604000  0.32828000  1.0 -0.0123512974
C  C74  1  0.90604000  0.24310000  0.52258000  1.0 -0.0123512974
C  C75  1  0.32828000  0.52258000  0.24310000  1.0 -0.0123512974
C  C76  1  0.52258000  0.32828000  0.90604000  1.0 -0.0123512974
C  C77  1  0.32828000  0.24310000  0.90604000  1.0 -0.0123512974
C  C78  1  0.52258000  0.90604000  0.24310000  1.0 -0.0123512974
C  C79  1  0.24310000  0.32828000  0.52258000  1.0 -0.0123512974
C  C80  1  0.90604000  0.52258000  0.32828000  1.0 -0.0123512974
C  C81  1  0.90604000  0.32828000  0.24310000  1.0 -0.0123512974
C  C82  1  0.24310000  0.52258000  0.90604000  1.0 -0.0123512974
C  C83  1  0.52258000  0.24310000  0.32828000  1.0 -0.0123512974
C  C84  1  0.32828000  0.90604000  0.52258000  1.0 -0.0123512974
C  C85  1  0.75690000  0.09396000  0.47742000  1.0 -0.0123512974
C  C86  1  0.09396000  0.75690000  0.67172000  1.0 -0.0123512974
C  C87  1  0.67172000  0.47742000  0.09396000  1.0 -0.0123512974
C  C88  1  0.47742000  0.67172000  0.75690000  1.0 -0.0123512974
C  C89  1  0.67172000  0.75690000  0.47742000  1.0 -0.0123512974
C  C90  1  0.47742000  0.09396000  0.67172000  1.0 -0.0123512974
C  C91  1  0.75690000  0.67172000  0.09396000  1.0 -0.0123512974
C  C92  1  0.09396000  0.47742000  0.75690000  1.0 -0.0123512974
C  C93  1  0.09396000  0.67172000  0.47742000  1.0 -0.0123512974
C  C94  1  0.75690000  0.47742000  0.67172000  1.0 -0.0123512974
C  C95  1  0.47742000  0.75690000  0.09396000  1.0 -0.0123512974
C  C96  1  0.67172000  0.09396000  0.75690000  1.0 -0.0123512974
C  C97  1  0.69979000  0.12009000  0.69979000  1.0 -0.1835089871
C  C98  1  0.12009000  0.69979000  0.48033000  1.0 -0.1835089871
C  C99  1  0.69979000  0.48033000  0.69979000  1.0 -0.1835089871
C  C100  1  0.48033000  0.69979000  0.12009000  1.0 -0.1835089871
C  C101  1  0.69979000  0.69979000  0.12009000  1.0 -0.1855632542
C  C102  1  0.48033000  0.12009000  0.69979000  1.0 -0.1835089871
C  C103  1  0.69979000  0.69979000  0.48033000  1.0 -0.1855632542
C  C104  1  0.12009000  0.48033000  0.69979000  1.0 -0.1835089871
C  C105  1  0.12009000  0.69979000  0.69979000  1.0 -0.1835089871
C  C106  1  0.69979000  0.48033000  0.12009000  1.0 -0.1835089871
C  C107  1  0.48033000  0.69979000  0.69979000  1.0 -0.1835089871
C  C108  1  0.69979000  0.12009000  0.48033000  1.0 -0.1835089871
C  C109  1  0.30021000  0.87991000  0.51967000  1.0 -0.1855632542
C  C110  1  0.87991000  0.30021000  0.30021000  1.0 -0.1835089871
C  C111  1  0.30021000  0.51967000  0.87991000  1.0 -0.1855632542
C  C112  1  0.51967000  0.30021000  0.30021000  1.0 -0.1835089871
C  C113  1  0.30021000  0.30021000  0.51967000  1.0 -0.1855632542
C  C114  1  0.51967000  0.87991000  0.30021000  1.0 -0.1855632542
C  C115  1  0.30021000  0.30021000  0.87991000  1.0 -0.1835089871
C  C116  1  0.87991000  0.51967000  0.30021000  1.0 -0.1835089871
C  C117  1  0.87991000  0.30021000  0.51967000  1.0 -0.1835089871
C  C118  1  0.30021000  0.51967000  0.30021000  1.0 -0.1855632542
C  C119  1  0.51967000  0.30021000  0.87991000  1.0 -0.1855632542
C  C120  1  0.30021000  0.87991000  0.30021000  1.0 -0.1855632542
C  C121  1  0.78210000  0.03468000  0.70070000  1.0 -0.0513255432
C  C122  1  0.03468000  0.78210000  0.48252000  1.0 -0.0513255432
C  C123  1  0.70070000  0.48252000  0.78210000  1.0 -0.0513255432
C  C124  1  0.48252000  0.70070000  0.03468000  1.0 -0.0513255432
C  C125  1  0.70070000  0.78210000  0.03468000  1.0 -0.0513255432
C  C126  1  0.48252000  0.03468000  0.78210000  1.0 -0.0513255432
C  C127  1  0.78210000  0.70070000  0.48252000  1.0 -0.0513255432
C  C128  1  0.03468000  0.48252000  0.70070000  1.0 -0.0513255432
C  C129  1  0.03468000  0.70070000  0.78210000  1.0 -0.0513255432
C  C130  1  0.78210000  0.48252000  0.03468000  1.0 -0.0513255432
C  C131  1  0.48252000  0.78210000  0.70070000  1.0 -0.0513255432
C  C132  1  0.70070000  0.03468000  0.48252000  1.0 -0.0513255432
C  C133  1  0.21790000  0.96532000  0.51748000  1.0 -0.0513255432
C  C134  1  0.96532000  0.21790000  0.29930000  1.0 -0.0513255432
C  C135  1  0.29930000  0.51748000  0.96532000  1.0 -0.0513255432
C  C136  1  0.51748000  0.29930000  0.21790000  1.0 -0.0513255432
C  C137  1  0.29930000  0.21790000  0.51748000  1.0 -0.0513255432
C  C138  1  0.51748000  0.96532000  0.29930000  1.0 -0.0513255432
C  C139  1  0.21790000  0.29930000  0.96532000  1.0 -0.0513255432
C  C140  1  0.96532000  0.51748000  0.21790000  1.0 -0.0513255432
C  C141  1  0.96532000  0.29930000  0.51748000  1.0 -0.0513255432
C  C142  1  0.21790000  0.51748000  0.29930000  1.0 -0.0513255432
C  C143  1  0.51748000  0.21790000  0.96532000  1.0 -0.0513255432
C  C144  1  0.29930000  0.96532000  0.21790000  1.0 -0.0513255432
C  C145  1  0.21790000  0.96532000  0.29930000  1.0 -0.0513255432
C  C146  1  0.96532000  0.21790000  0.51748000  1.0 -0.0513255432
C  C147  1  0.29930000  0.51748000  0.21790000  1.0 -0.0513255432
C  C148  1  0.51748000  0.29930000  0.96532000  1.0 -0.0513255432
C  C149  1  0.29930000  0.21790000  0.96532000  1.0 -0.0513255432
C  C150  1  0.51748000  0.96532000  0.21790000  1.0 -0.0513255432
C  C151  1  0.21790000  0.29930000  0.51748000  1.0 -0.0513255432
C  C152  1  0.96532000  0.51748000  0.29930000  1.0 -0.0513255432
C  C153  1  0.96532000  0.29930000  0.21790000  1.0 -0.0513255432
C  C154  1  0.21790000  0.51748000  0.96532000  1.0 -0.0513255432
C  C155  1  0.51748000  0.21790000  0.29930000  1.0 -0.0513255432
C  C156  1  0.29930000  0.96532000  0.51748000  1.0 -0.0513255432
C  C157  1  0.78210000  0.03468000  0.48252000  1.0 -0.0513255432
C  C158  1  0.03468000  0.78210000  0.70070000  1.0 -0.0513255432
C  C159  1  0.70070000  0.48252000  0.03468000  1.0 -0.0513255432
C  C160  1  0.48252000  0.70070000  0.78210000  1.0 -0.0513255432
C  C161  1  0.70070000  0.78210000  0.48252000  1.0 -0.0513255432
C  C162  1  0.48252000  0.03468000  0.70070000  1.0 -0.0513255432
C  C163  1  0.78210000  0.70070000  0.03468000  1.0 -0.0513255432
C  C164  1  0.03468000  0.48252000  0.78210000  1.0 -0.0513255432
C  C165  1  0.03468000  0.70070000  0.48252000  1.0 -0.0513255432
C  C166  1  0.78210000  0.48252000  0.70070000  1.0 -0.0513255432
C  C167  1  0.48252000  0.78210000  0.03468000  1.0 -0.0513255432
C  C168  1  0.70070000  0.03468000  0.78210000  1.0 -0.0513255432
C  C169  1  0.75480000  0.00498000  0.75480000  1.0 -0.0303042408
C  C170  1  0.00498000  0.75480000  0.48542000  1.0 -0.0303042408
C  C171  1  0.75480000  0.48542000  0.75480000  1.0 -0.0303042408
C  C172  1  0.48542000  0.75480000  0.00498000  1.0 -0.0303042408
C  C173  1  0.75480000  0.75480000  0.00498000  1.0 -0.0203372273
C  C174  1  0.48542000  0.00498000  0.75480000  1.0 -0.0303042408
C  C175  1  0.75480000  0.75480000  0.48542000  1.0 -0.0303042408
C  C176  1  0.00498000  0.48542000  0.75480000  1.0 -0.0303042408
C  C177  1  0.00498000  0.75480000  0.75480000  1.0 -0.0303042408
C  C178  1  0.75480000  0.48542000  0.00498000  1.0 -0.0303042408
C  C179  1  0.48542000  0.75480000  0.75480000  1.0 -0.0303042408
C  C180  1  0.75480000  0.00498000  0.48542000  1.0 -0.0303042408
C  C181  1  0.24520000  0.99502000  0.51458000  1.0 -0.0303042408
C  C182  1  0.99502000  0.24520000  0.24520000  1.0 -0.0203372273
C  C183  1  0.24520000  0.51458000  0.99502000  1.0 -0.0203372273
C  C184  1  0.51458000  0.24520000  0.24520000  1.0 -0.0303042408
C  C185  1  0.24520000  0.24520000  0.51458000  1.0 -0.0303042408
C  C186  1  0.51458000  0.99502000  0.24520000  1.0 -0.0203372273
C  C187  1  0.24520000  0.24520000  0.99502000  1.0 -0.0303042408
C  C188  1  0.99502000  0.51458000  0.24520000  1.0 -0.0203372273
C  C189  1  0.99502000  0.24520000  0.51458000  1.0 -0.0303042408
C  C190  1  0.24520000  0.51458000  0.24520000  1.0 -0.0203372273
C  C191  1  0.51458000  0.24520000  0.99502000  1.0 -0.0203372273
C  C192  1  0.24520000  0.99502000  0.24520000  1.0 -0.0303042408
C  C193  1  0.94228000  0.99786000  0.55372000  1.0 -0.1073851067
C  C194  1  0.99786000  0.94228000  0.50614000  1.0 -0.1073851067
C  C195  1  0.55372000  0.50614000  0.94228000  1.0 -0.1073851067
C  C196  1  0.50614000  0.55372000  0.99786000  1.0 -0.1073851067
C  C197  1  0.55372000  0.94228000  0.99786000  1.0 -0.1073851067
C  C198  1  0.50614000  0.99786000  0.94228000  1.0 -0.1073851067
C  C199  1  0.94228000  0.55372000  0.50614000  1.0 -0.1073851067
C  C200  1  0.99786000  0.50614000  0.55372000  1.0 -0.1073851067
C  C201  1  0.99786000  0.55372000  0.94228000  1.0 -0.1073851067
C  C202  1  0.94228000  0.50614000  0.99786000  1.0 -0.1073851067
C  C203  1  0.50614000  0.94228000  0.55372000  1.0 -0.1073851067
C  C204  1  0.55372000  0.99786000  0.50614000  1.0 -0.1073851067
C  C205  1  0.05772000  0.00214000  0.49386000  1.0 -0.1073851067
C  C206  1  0.00214000  0.05772000  0.44628000  1.0 -0.1073851067
C  C207  1  0.44628000  0.49386000  0.00214000  1.0 -0.1073851067
C  C208  1  0.49386000  0.44628000  0.05772000  1.0 -0.1073851067
C  C209  1  0.44628000  0.05772000  0.49386000  1.0 -0.1073851067
C  C210  1  0.49386000  0.00214000  0.44628000  1.0 -0.1073851067
C  C211  1  0.05772000  0.44628000  0.00214000  1.0 -0.1073851067
C  C212  1  0.00214000  0.49386000  0.05772000  1.0 -0.1073851067
C  C213  1  0.00214000  0.44628000  0.49386000  1.0 -0.1073851067
C  C214  1  0.05772000  0.49386000  0.44628000  1.0 -0.1073851067
C  C215  1  0.49386000  0.05772000  0.00214000  1.0 -0.1073851067
C  C216  1  0.44628000  0.00214000  0.05772000  1.0 -0.1073851067
C  C217  1  0.05772000  0.00214000  0.44628000  1.0 -0.1073851067
C  C218  1  0.00214000  0.05772000  0.49386000  1.0 -0.1073851067
C  C219  1  0.44628000  0.49386000  0.05772000  1.0 -0.1073851067
C  C220  1  0.49386000  0.44628000  0.00214000  1.0 -0.1073851067
C  C221  1  0.44628000  0.05772000  0.00214000  1.0 -0.1073851067
C  C222  1  0.49386000  0.00214000  0.05772000  1.0 -0.1073851067
C  C223  1  0.05772000  0.44628000  0.49386000  1.0 -0.1073851067
C  C224  1  0.00214000  0.49386000  0.44628000  1.0 -0.1073851067
C  C225  1  0.00214000  0.44628000  0.05772000  1.0 -0.1073851067
C  C226  1  0.05772000  0.49386000  0.00214000  1.0 -0.1073851067
C  C227  1  0.49386000  0.05772000  0.44628000  1.0 -0.1073851067
C  C228  1  0.44628000  0.00214000  0.49386000  1.0 -0.1073851067
C  C229  1  0.94228000  0.99786000  0.50614000  1.0 -0.1073851067
C  C230  1  0.99786000  0.94228000  0.55372000  1.0 -0.1073851067
C  C231  1  0.55372000  0.50614000  0.99786000  1.0 -0.1073851067
C  C232  1  0.50614000  0.55372000  0.94228000  1.0 -0.1073851067
C  C233  1  0.55372000  0.94228000  0.50614000  1.0 -0.1073851067
C  C234  1  0.50614000  0.99786000  0.55372000  1.0 -0.1073851067
C  C235  1  0.94228000  0.55372000  0.99786000  1.0 -0.1073851067
C  C236  1  0.99786000  0.50614000  0.94228000  1.0 -0.1073851067
C  C237  1  0.99786000  0.55372000  0.50614000  1.0 -0.1073851067
C  C238  1  0.94228000  0.50614000  0.55372000  1.0 -0.1073851067
C  C239  1  0.50614000  0.94228000  0.99786000  1.0 -0.1073851067
C  C240  1  0.55372000  0.99786000  0.94228000  1.0 -0.1073851067
C  C241  1  0.97511000  0.02489000  0.54929000  1.0 -0.1073851067
C  C242  1  0.02489000  0.97511000  0.45071000  1.0 -0.1073851067
C  C243  1  0.54929000  0.45071000  0.97511000  1.0 -0.1073851067
C  C244  1  0.45071000  0.54929000  0.02489000  1.0 -0.1073851067
C  C245  1  0.54929000  0.97511000  0.02489000  1.0 -0.1073851067
C  C246  1  0.45071000  0.02489000  0.97511000  1.0 -0.1073851067
C  C247  1  0.97511000  0.54929000  0.45071000  1.0 -0.1073851067
C  C248  1  0.02489000  0.45071000  0.54929000  1.0 -0.1073851067
C  C249  1  0.02489000  0.54929000  0.97511000  1.0 -0.1073851067
C  C250  1  0.97511000  0.45071000  0.02489000  1.0 -0.1073851067
C  C251  1  0.45071000  0.97511000  0.54929000  1.0 -0.1073851067
C  C252  1  0.54929000  0.02489000  0.45071000  1.0 -0.1073851067
C  C253  1  0.02489000  0.97511000  0.54929000  1.0 -0.1073851067
C  C254  1  0.97511000  0.02489000  0.45071000  1.0 -0.1073851067
C  C255  1  0.45071000  0.54929000  0.97511000  1.0 -0.1073851067
C  C256  1  0.54929000  0.45071000  0.02489000  1.0 -0.1073851067
C  C257  1  0.45071000  0.02489000  0.54929000  1.0 -0.1073851067
C  C258  1  0.54929000  0.97511000  0.45071000  1.0 -0.1073851067
C  C259  1  0.02489000  0.45071000  0.97511000  1.0 -0.1073851067
C  C260  1  0.97511000  0.54929000  0.02489000  1.0 -0.1073851067
C  C261  1  0.97511000  0.45071000  0.54929000  1.0 -0.1073851067
C  C262  1  0.02489000  0.54929000  0.45071000  1.0 -0.1073851067
C  C263  1  0.54929000  0.02489000  0.97511000  1.0 -0.1073851067
C  C264  1  0.45071000  0.97511000  0.02489000  1.0 -0.1073851067
C  C265  1  0.95400000  0.20718000  0.29340000  1.0 -0.0399414052
C  C266  1  0.20718000  0.95400000  0.54542000  1.0 -0.0399414052
C  C267  1  0.29340000  0.54542000  0.95400000  1.0 -0.0399414052
C  C268  1  0.54542000  0.29340000  0.20718000  1.0 -0.0399414052
C  C269  1  0.29340000  0.95400000  0.20718000  1.0 -0.0399414052
C  C270  1  0.54542000  0.20718000  0.95400000  1.0 -0.0399414052
C  C271  1  0.95400000  0.29340000  0.54542000  1.0 -0.0399414052
C  C272  1  0.20718000  0.54542000  0.29340000  1.0 -0.0399414052
C  C273  1  0.20718000  0.29340000  0.95400000  1.0 -0.0399414052
C  C274  1  0.95400000  0.54542000  0.20718000  1.0 -0.0399414052
C  C275  1  0.54542000  0.95400000  0.29340000  1.0 -0.0399414052
C  C276  1  0.29340000  0.20718000  0.54542000  1.0 -0.0399414052
C  C277  1  0.04600000  0.79282000  0.45458000  1.0 -0.0399414052
C  C278  1  0.79282000  0.04600000  0.70660000  1.0 -0.0399414052
C  C279  1  0.70660000  0.45458000  0.79282000  1.0 -0.0399414052
C  C280  1  0.45458000  0.70660000  0.04600000  1.0 -0.0399414052
C  C281  1  0.70660000  0.04600000  0.45458000  1.0 -0.0399414052
C  C282  1  0.45458000  0.79282000  0.70660000  1.0 -0.0399414052
C  C283  1  0.04600000  0.70660000  0.79282000  1.0 -0.0399414052
C  C284  1  0.79282000  0.45458000  0.04600000  1.0 -0.0399414052
C  C285  1  0.79282000  0.70660000  0.45458000  1.0 -0.0399414052
C  C286  1  0.04600000  0.45458000  0.70660000  1.0 -0.0399414052
C  C287  1  0.45458000  0.04600000  0.79282000  1.0 -0.0399414052
C  C288  1  0.70660000  0.79282000  0.04600000  1.0 -0.0399414052
C  C289  1  0.04600000  0.79282000  0.70660000  1.0 -0.0399414052
C  C290  1  0.79282000  0.04600000  0.45458000  1.0 -0.0399414052
C  C291  1  0.70660000  0.45458000  0.04600000  1.0 -0.0399414052
C  C292  1  0.45458000  0.70660000  0.79282000  1.0 -0.0399414052
C  C293  1  0.70660000  0.04600000  0.79282000  1.0 -0.0399414052
C  C294  1  0.45458000  0.79282000  0.04600000  1.0 -0.0399414052
C  C295  1  0.04600000  0.70660000  0.45458000  1.0 -0.0399414052
C  C296  1  0.79282000  0.45458000  0.70660000  1.0 -0.0399414052
C  C297  1  0.79282000  0.70660000  0.04600000  1.0 -0.0399414052
C  C298  1  0.04600000  0.45458000  0.79282000  1.0 -0.0399414052
C  C299  1  0.45458000  0.04600000  0.70660000  1.0 -0.0399414052
C  C300  1  0.70660000  0.79282000  0.45458000  1.0 -0.0399414052
C  C301  1  0.95400000  0.20718000  0.54542000  1.0 -0.0399414052
C  C302  1  0.20718000  0.95400000  0.29340000  1.0 -0.0399414052
C  C303  1  0.29340000  0.54542000  0.20718000  1.0 -0.0399414052
C  C304  1  0.54542000  0.29340000  0.95400000  1.0 -0.0399414052
C  C305  1  0.29340000  0.95400000  0.54542000  1.0 -0.0399414052
C  C306  1  0.54542000  0.20718000  0.29340000  1.0 -0.0399414052
C  C307  1  0.95400000  0.29340000  0.20718000  1.0 -0.0399414052
C  C308  1  0.20718000  0.54542000  0.95400000  1.0 -0.0399414052
C  C309  1  0.20718000  0.29340000  0.54542000  1.0 -0.0399414052
C  C310  1  0.95400000  0.54542000  0.29340000  1.0 -0.0399414052
C  C311  1  0.54542000  0.95400000  0.20718000  1.0 -0.0399414052
C  C312  1  0.29340000  0.20718000  0.95400000  1.0 -0.0399414052
C  C313  1  0.97720000  0.23559000  0.23559000  1.0 -0.0007606932
C  C314  1  0.23559000  0.97720000  0.55162000  1.0 -0.0123512974
C  C315  1  0.23559000  0.55162000  0.97720000  1.0 -0.0123512974
C  C316  1  0.55162000  0.23559000  0.23559000  1.0 0.0015078786
C  C317  1  0.23559000  0.97720000  0.23559000  1.0 0.0015078786
C  C318  1  0.55162000  0.23559000  0.97720000  1.0 -0.0123512974
C  C319  1  0.97720000  0.23559000  0.55162000  1.0 -0.0123512974
C  C320  1  0.23559000  0.55162000  0.23559000  1.0 -0.0123512974
C  C321  1  0.23559000  0.23559000  0.97720000  1.0 -0.0123512974
C  C322  1  0.97720000  0.55162000  0.23559000  1.0 -0.0123512974
C  C323  1  0.55162000  0.97720000  0.23559000  1.0 -0.0007606932
C  C324  1  0.23559000  0.23559000  0.55162000  1.0 -0.0123512974
C  C325  1  0.02280000  0.76441000  0.44838000  1.0 -0.0123512974
C  C326  1  0.76441000  0.02280000  0.76441000  1.0 -0.0123512974
C  C327  1  0.76441000  0.44838000  0.76441000  1.0 -0.0123512974
C  C328  1  0.44838000  0.76441000  0.02280000  1.0 -0.0123512974
C  C329  1  0.76441000  0.02280000  0.44838000  1.0 0.0015078786
C  C330  1  0.44838000  0.76441000  0.76441000  1.0 -0.0123512974
C  C331  1  0.02280000  0.76441000  0.76441000  1.0 -0.0123512974
C  C332  1  0.76441000  0.44838000  0.02280000  1.0 -0.0123512974
C  C333  1  0.76441000  0.76441000  0.44838000  1.0 -0.0123512974
C  C334  1  0.02280000  0.44838000  0.76441000  1.0 -0.0123512974
C  C335  1  0.44838000  0.02280000  0.76441000  1.0 -0.0123512974
C  C336  1  0.76441000  0.76441000  0.02280000  1.0 -0.0123512974
N  N1  1  0.95520000  0.04480000  0.50000000  1.0 -0.0785123064
N  N2  1  0.04480000  0.95520000  0.50000000  1.0 -0.0785123064
N  N3  1  0.50000000  0.50000000  0.95520000  1.0 -0.0785123064
N  N4  1  0.50000000  0.50000000  0.04480000  1.0 -0.0785123064
N  N5  1  0.50000000  0.95520000  0.04480000  1.0 -0.0785123064
N  N6  1  0.50000000  0.04480000  0.95520000  1.0 -0.0785123064
N  N7  1  0.95520000  0.50000000  0.50000000  1.0 -0.0785123064
N  N8  1  0.04480000  0.50000000  0.50000000  1.0 -0.0785123064
N  N9  1  0.04480000  0.50000000  0.95520000  1.0 -0.0785123064
N  N10  1  0.95520000  0.50000000  0.04480000  1.0 -0.0785123064
N  N11  1  0.50000000  0.95520000  0.50000000  1.0 -0.0785123064
N  N12  1  0.50000000  0.04480000  0.50000000  1.0 -0.0785123064
O  O1  1  0.75639000  0.17265000  0.58511000  1.0 -0.5077968417
O  O2  1  0.17265000  0.75639000  0.48585000  1.0 -0.5077968417
O  O3  1  0.58511000  0.48585000  0.75639000  1.0 -0.5077968417
O  O4  1  0.48585000  0.58511000  0.17265000  1.0 -0.5077968417
O  O5  1  0.58511000  0.75639000  0.17265000  1.0 -0.5077968417
O  O6  1  0.48585000  0.17265000  0.75639000  1.0 -0.5077968417
O  O7  1  0.75639000  0.58511000  0.48585000  1.0 -0.5077968417
O  O8  1  0.17265000  0.48585000  0.58511000  1.0 -0.5077968417
O  O9  1  0.17265000  0.58511000  0.75639000  1.0 -0.5077968417
O  O10  1  0.75639000  0.48585000  0.17265000  1.0 -0.5077968417
O  O11  1  0.48585000  0.75639000  0.58511000  1.0 -0.5077968417
O  O12  1  0.58511000  0.17265000  0.48585000  1.0 -0.5077968417
O  O13  1  0.24361000  0.82735000  0.51415000  1.0 -0.5077968417
O  O14  1  0.82735000  0.24361000  0.41489000  1.0 -0.5077968417
O  O15  1  0.41489000  0.51415000  0.82735000  1.0 -0.5077968417
O  O16  1  0.51415000  0.41489000  0.24361000  1.0 -0.5077968417
O  O17  1  0.41489000  0.24361000  0.51415000  1.0 -0.5077968417
O  O18  1  0.51415000  0.82735000  0.41489000  1.0 -0.5077968417
O  O19  1  0.24361000  0.41489000  0.82735000  1.0 -0.5077968417
O  O20  1  0.82735000  0.51415000  0.24361000  1.0 -0.5077968417
O  O21  1  0.82735000  0.41489000  0.51415000  1.0 -0.5077968417
O  O22  1  0.24361000  0.51415000  0.41489000  1.0 -0.5077968417
O  O23  1  0.51415000  0.24361000  0.82735000  1.0 -0.5077968417
O  O24  1  0.41489000  0.82735000  0.24361000  1.0 -0.5077968417
O  O25  1  0.24361000  0.82735000  0.41489000  1.0 -0.5077968417
O  O26  1  0.82735000  0.24361000  0.51415000  1.0 -0.5077968417
O  O27  1  0.41489000  0.51415000  0.24361000  1.0 -0.5077968417
O  O28  1  0.51415000  0.41489000  0.82735000  1.0 -0.5077968417
O  O29  1  0.41489000  0.24361000  0.82735000  1.0 -0.5077968417
O  O30  1  0.51415000  0.82735000  0.24361000  1.0 -0.5077968417
O  O31  1  0.24361000  0.41489000  0.51415000  1.0 -0.5077968417
O  O32  1  0.82735000  0.51415000  0.41489000  1.0 -0.5077968417
O  O33  1  0.82735000  0.41489000  0.24361000  1.0 -0.5077968417
O  O34  1  0.24361000  0.51415000  0.82735000  1.0 -0.5077968417
O  O35  1  0.51415000  0.24361000  0.41489000  1.0 -0.5077968417
O  O36  1  0.41489000  0.82735000  0.51415000  1.0 -0.5077968417
O  O37  1  0.75639000  0.17265000  0.48585000  1.0 -0.5077968417
O  O38  1  0.17265000  0.75639000  0.58511000  1.0 -0.5077968417
O  O39  1  0.58511000  0.48585000  0.17265000  1.0 -0.5077968417
O  O40  1  0.48585000  0.58511000  0.75639000  1.0 -0.5077968417
O  O41  1  0.58511000  0.75639000  0.48585000  1.0 -0.5077968417
O  O42  1  0.48585000  0.17265000  0.58511000  1.0 -0.5077968417
O  O43  1  0.75639000  0.58511000  0.17265000  1.0 -0.5077968417
O  O44  1  0.17265000  0.48585000  0.75639000  1.0 -0.5077968417
O  O45  1  0.17265000  0.58511000  0.48585000  1.0 -0.5077968417
O  O46  1  0.75639000  0.48585000  0.58511000  1.0 -0.5077968417
O  O47  1  0.48585000  0.75639000  0.17265000  1.0 -0.5077968417
O  O48  1  0.58511000  0.17265000  0.75639000  1.0 -0.5077968417
O  O49  1  0.83516000  0.09438000  0.58428000  1.0 -0.523420144
O  O50  1  0.09438000  0.83516000  0.48618000  1.0 -0.523420144
O  O51  1  0.58428000  0.48618000  0.83516000  1.0 -0.523420144
O  O52  1  0.48618000  0.58428000  0.09438000  1.0 -0.523420144
O  O53  1  0.58428000  0.83516000  0.09438000  1.0 -0.523420144
O  O54  1  0.48618000  0.09438000  0.83516000  1.0 -0.523420144
O  O55  1  0.83516000  0.58428000  0.48618000  1.0 -0.523420144
O  O56  1  0.09438000  0.48618000  0.58428000  1.0 -0.523420144
O  O57  1  0.09438000  0.58428000  0.83516000  1.0 -0.523420144
O  O58  1  0.83516000  0.48618000  0.09438000  1.0 -0.523420144
O  O59  1  0.48618000  0.83516000  0.58428000  1.0 -0.523420144
O  O60  1  0.58428000  0.09438000  0.48618000  1.0 -0.523420144
O  O61  1  0.16484000  0.90562000  0.51382000  1.0 -0.523420144
O  O62  1  0.90562000  0.16484000  0.41572000  1.0 -0.523420144
O  O63  1  0.41572000  0.51382000  0.90562000  1.0 -0.523420144
O  O64  1  0.51382000  0.41572000  0.16484000  1.0 -0.523420144
O  O65  1  0.41572000  0.16484000  0.51382000  1.0 -0.523420144
O  O66  1  0.51382000  0.90562000  0.41572000  1.0 -0.523420144
O  O67  1  0.16484000  0.41572000  0.90562000  1.0 -0.523420144
O  O68  1  0.90562000  0.51382000  0.16484000  1.0 -0.523420144
O  O69  1  0.90562000  0.41572000  0.51382000  1.0 -0.523420144
O  O70  1  0.16484000  0.51382000  0.41572000  1.0 -0.523420144
O  O71  1  0.51382000  0.16484000  0.90562000  1.0 -0.523420144
O  O72  1  0.41572000  0.90562000  0.16484000  1.0 -0.523420144
O  O73  1  0.16484000  0.90562000  0.41572000  1.0 -0.523420144
O  O74  1  0.90562000  0.16484000  0.51382000  1.0 -0.523420144
O  O75  1  0.41572000  0.51382000  0.16484000  1.0 -0.523420144
O  O76  1  0.51382000  0.41572000  0.90562000  1.0 -0.523420144
O  O77  1  0.41572000  0.16484000  0.90562000  1.0 -0.523420144
O  O78  1  0.51382000  0.90562000  0.16484000  1.0 -0.523420144
O  O79  1  0.16484000  0.41572000  0.51382000  1.0 -0.5250385978
O  O80  1  0.90562000  0.51382000  0.41572000  1.0 -0.523420144
O  O81  1  0.90562000  0.41572000  0.16484000  1.0 -0.523420144
O  O82  1  0.16484000  0.51382000  0.90562000  1.0 -0.523420144
O  O83  1  0.51382000  0.16484000  0.41572000  1.0 -0.523420144
O  O84  1  0.41572000  0.90562000  0.51382000  1.0 -0.523420144
O  O85  1  0.83516000  0.09438000  0.48618000  1.0 -0.523420144
O  O86  1  0.09438000  0.83516000  0.58428000  1.0 -0.523420144
O  O87  1  0.58428000  0.48618000  0.09438000  1.0 -0.523420144
O  O88  1  0.48618000  0.58428000  0.83516000  1.0 -0.523420144
O  O89  1  0.58428000  0.83516000  0.48618000  1.0 -0.523420144
O  O90  1  0.48618000  0.09438000  0.58428000  1.0 -0.523420144
O  O91  1  0.83516000  0.58428000  0.09438000  1.0 -0.523420144
O  O92  1  0.09438000  0.48618000  0.83516000  1.0 -0.523420144
O  O93  1  0.09438000  0.58428000  0.48618000  1.0 -0.523420144
O  O94  1  0.83516000  0.48618000  0.58428000  1.0 -0.523420144
O  O95  1  0.48618000  0.83516000  0.09438000  1.0 -0.523420144
O  O96  1  0.58428000  0.09438000  0.83516000  1.0 -0.523420144
