# DDEC6 charges by PACMAN v1.1 (https://github.com/mtap-research/PACMAN-charge/)
data_FOSTOY_FSR_pacman
_symmetry_space_group_name_H-M   'P 1'
_cell_length_a   29.61830000
_cell_length_b   29.61830000
_cell_length_c   29.61830000
_cell_angle_alpha   100.66200000
_cell_angle_beta   100.66200000
_cell_angle_gamma   100.66200000
_symmetry_Int_Tables_number   1
_chemical_formula_structural   In2H23C90O17
_chemical_formula_sum   'In12 H138 C540 O102'
_cell_volume   24437.91801019
_cell_formula_units_Z   6
loop_
 _symmetry_equiv_pos_site_id
 _symmetry_equiv_pos_as_xyz
  1  'x, y, z'
loop_
 _atom_site_type_symbol
 _atom_site_label
 _atom_site_symmetry_multiplicity
 _atom_site_fract_x
 _atom_site_fract_y
 _atom_site_fract_z
 _atom_site_occupancy
 _atom_site_charge
In  In1  1  0.71845000  0.30154000  0.60661000  1.0 1.0793826833
In  In2  1  0.30154000  0.60661000  0.71845000  1.0 1.0793826833
In  In3  1  0.60661000  0.71845000  0.30154000  1.0 1.0793826833
In  In4  1  0.44582000  0.13629000  0.03426000  1.0 1.2189735825
In  In5  1  0.13629000  0.03426000  0.44582000  1.0 1.2189735825
In  In6  1  0.03426000  0.44582000  0.13629000  1.0 1.2189735825
In  In7  1  0.28155000  0.69846000  0.39339000  1.0 1.0793826833
In  In8  1  0.69846000  0.39339000  0.28155000  1.0 1.0865168825
In  In9  1  0.39339000  0.28155000  0.69846000  1.0 1.0865168825
In  In10  1  0.55418000  0.86371000  0.96574000  1.0 1.2189735825
In  In11  1  0.86371000  0.96574000  0.55418000  1.0 1.2189735825
In  In12  1  0.96574000  0.55418000  0.86371000  1.0 1.2189735825
H  H1  1  0.64270000  0.14440000  0.51610000  1.0 0.1115915582
H  H2  1  0.14440000  0.51610000  0.64270000  1.0 0.1115915582
H  H3  1  0.51610000  0.64270000  0.14440000  1.0 0.1205855652
H  H4  1  0.69920000  0.22980000  0.45430000  1.0 0.1308873018
H  H5  1  0.22980000  0.45430000  0.69920000  1.0 0.1308873018
H  H6  1  0.45430000  0.69920000  0.22980000  1.0 0.1308873018
H  H7  1  0.61670000  0.08640000  0.44920000  1.0 0.1205855652
H  H8  1  0.08640000  0.44920000  0.61670000  1.0 0.1205855652
H  H9  1  0.44920000  0.61670000  0.08640000  1.0 0.1205855652
H  H10  1  0.67410000  0.18410000  0.38230000  1.0 0.0984720291
H  H11  1  0.18410000  0.38230000  0.67410000  1.0 0.0984720291
H  H12  1  0.38230000  0.67410000  0.18410000  1.0 0.0984720291
H  H13  1  0.53840000  0.43570000  0.57330000  1.0 0.1308873018
H  H14  1  0.43570000  0.57330000  0.53840000  1.0 0.1308873018
H  H15  1  0.57330000  0.53840000  0.43570000  1.0 0.1308873018
H  H16  1  0.66140000  0.50050000  0.55770000  1.0 0.1455805704
H  H17  1  0.50050000  0.55770000  0.66140000  1.0 0.1455805704
H  H18  1  0.55770000  0.66140000  0.50050000  1.0 0.1390010532
H  H19  1  0.59140000  0.12640000  0.32140000  1.0 0.1205855652
H  H20  1  0.12640000  0.32140000  0.59140000  1.0 0.1205855652
H  H21  1  0.32140000  0.59140000  0.12640000  1.0 0.1205855652
H  H22  1  0.62960000  0.02960000  0.38870000  1.0 0.1205855652
H  H23  1  0.02960000  0.38870000  0.62960000  1.0 0.1205855652
H  H24  1  0.38870000  0.62960000  0.02960000  1.0 0.1205855652
H  H25  1  0.60320000  0.52610000  0.50780000  1.0 0.1308873018
H  H26  1  0.52610000  0.50780000  0.60320000  1.0 0.1308873018
H  H27  1  0.50780000  0.60320000  0.52610000  1.0 0.1308873018
H  H28  1  0.56320000  0.99290000  0.25300000  1.0 0.1390010532
H  H29  1  0.99290000  0.25300000  0.56320000  1.0 0.1390010532
H  H30  1  0.25300000  0.56320000  0.99290000  1.0 0.1390010532
H  H31  1  0.53630000  0.13300000  0.26790000  1.0 0.1308873018
H  H32  1  0.13300000  0.26790000  0.53630000  1.0 0.1308873018
H  H33  1  0.26790000  0.53630000  0.13300000  1.0 0.1308873018
H  H34  1  0.61320000  0.94030000  0.25260000  1.0 0.1115915582
H  H35  1  0.94030000  0.25260000  0.61320000  1.0 0.1115915582
H  H36  1  0.25260000  0.61320000  0.94030000  1.0 0.1115915582
H  H37  1  0.59600000  0.94940000  0.38460000  1.0 0.1390010532
H  H38  1  0.94940000  0.38460000  0.59600000  1.0 0.1390010532
H  H39  1  0.38460000  0.59600000  0.94940000  1.0 0.1390010532
H  H40  1  0.50450000  0.15320000  0.19880000  1.0 0.1390010532
H  H41  1  0.15320000  0.19880000  0.50450000  1.0 0.1390010532
H  H42  1  0.19880000  0.50450000  0.15320000  1.0 0.1390010532
H  H43  1  0.62060000  0.86360000  0.24810000  1.0 0.1115915582
H  H44  1  0.86360000  0.24810000  0.62060000  1.0 0.1115915582
H  H45  1  0.24810000  0.62060000  0.86360000  1.0 0.1115915582
H  H46  1  0.59600000  0.87030000  0.37460000  1.0 0.1115915582
H  H47  1  0.87030000  0.37460000  0.59600000  1.0 0.1115915582
H  H48  1  0.37460000  0.59600000  0.87030000  1.0 0.1115915582
H  H49  1  0.28670000  0.01410000  0.72950000  1.0 0.1308873018
H  H50  1  0.01410000  0.72950000  0.28670000  1.0 0.1308873018
H  H51  1  0.72950000  0.28670000  0.01410000  1.0 0.1308873018
H  H52  1  0.32700000  0.91070000  0.78450000  1.0 0.1390010532
H  H53  1  0.91070000  0.78450000  0.32700000  1.0 0.1308873018
H  H54  1  0.78450000  0.32700000  0.91070000  1.0 0.1308873018
H  H55  1  0.25910000  0.88150000  0.64970000  1.0 0.1308873018
H  H56  1  0.88150000  0.64970000  0.25910000  1.0 0.1308873018
H  H57  1  0.64970000  0.25910000  0.88150000  1.0 0.1308873018
H  H58  1  0.23290000  0.80510000  0.66650000  1.0 0.1308873018
H  H59  1  0.80510000  0.66650000  0.23290000  1.0 0.1308873018
H  H60  1  0.66650000  0.23290000  0.80510000  1.0 0.1308873018
H  H61  1  0.36150000  0.84980000  0.75630000  1.0 0.1205855652
H  H62  1  0.84980000  0.75630000  0.36150000  1.0 0.1205855652
H  H63  1  0.75630000  0.36150000  0.84980000  1.0 0.1205855652
H  H64  1  0.24340000  0.72830000  0.66590000  1.0 0.1308873018
H  H65  1  0.72830000  0.66590000  0.24340000  1.0 0.1308873018
H  H66  1  0.66590000  0.24340000  0.72830000  1.0 0.1308873018
H  H67  1  0.36700000  0.77510000  0.75110000  1.0 0.1390010532
H  H68  1  0.77510000  0.75110000  0.36700000  1.0 0.1390010532
H  H69  1  0.75110000  0.36700000  0.77510000  1.0 0.1390010532
H  H70  1  0.35730000  0.85560000  0.48390000  1.0 0.1205855652
H  H71  1  0.85560000  0.48390000  0.35730000  1.0 0.1115915582
H  H72  1  0.48390000  0.35730000  0.85560000  1.0 0.1115915582
H  H73  1  0.30080000  0.77020000  0.54570000  1.0 0.1308873018
H  H74  1  0.77020000  0.54570000  0.30080000  1.0 0.1308873018
H  H75  1  0.54570000  0.30080000  0.77020000  1.0 0.1308873018
H  H76  1  0.38330000  0.91360000  0.55080000  1.0 0.1205855652
H  H77  1  0.91360000  0.55080000  0.38330000  1.0 0.1205855652
H  H78  1  0.55080000  0.38330000  0.91360000  1.0 0.1205855652
H  H79  1  0.32590000  0.81590000  0.61770000  1.0 0.0984720291
H  H80  1  0.81590000  0.61770000  0.32590000  1.0 0.0984720291
H  H81  1  0.61770000  0.32590000  0.81590000  1.0 0.0984720291
H  H82  1  0.46160000  0.56430000  0.42670000  1.0 0.1308873018
H  H83  1  0.56430000  0.42670000  0.46160000  1.0 0.1308873018
H  H84  1  0.42670000  0.46160000  0.56430000  1.0 0.1308873018
H  H85  1  0.33860000  0.49950000  0.44230000  1.0 0.1455805704
H  H86  1  0.49950000  0.44230000  0.33860000  1.0 0.1390010532
H  H87  1  0.44230000  0.33860000  0.49950000  1.0 0.1390010532
H  H88  1  0.40860000  0.87360000  0.67860000  1.0 0.1205855652
H  H89  1  0.87360000  0.67860000  0.40860000  1.0 0.1205855652
H  H90  1  0.67860000  0.40860000  0.87360000  1.0 0.1205855652
H  H91  1  0.37040000  0.97040000  0.61130000  1.0 0.1205855652
H  H92  1  0.97040000  0.61130000  0.37040000  1.0 0.1205855652
H  H93  1  0.61130000  0.37040000  0.97040000  1.0 0.1205855652
H  H94  1  0.39680000  0.47390000  0.49220000  1.0 0.1308873018
H  H95  1  0.47390000  0.49220000  0.39680000  1.0 0.1308873018
H  H96  1  0.49220000  0.39680000  0.47390000  1.0 0.1308873018
H  H97  1  0.43680000  0.00710000  0.74700000  1.0 0.1390010532
H  H98  1  0.00710000  0.74700000  0.43680000  1.0 0.1390010532
H  H99  1  0.74700000  0.43680000  0.00710000  1.0 0.1308873018
H  H100  1  0.46370000  0.86700000  0.73210000  1.0 0.1308873018
H  H101  1  0.86700000  0.73210000  0.46370000  1.0 0.1308873018
H  H102  1  0.73210000  0.46370000  0.86700000  1.0 0.1308873018
H  H103  1  0.38680000  0.05970000  0.74740000  1.0 0.1115915582
H  H104  1  0.05970000  0.74740000  0.38680000  1.0 0.1115915582
H  H105  1  0.74740000  0.38680000  0.05970000  1.0 0.1115915582
H  H106  1  0.40400000  0.05060000  0.61540000  1.0 0.1390010532
H  H107  1  0.05060000  0.61540000  0.40400000  1.0 0.1390010532
H  H108  1  0.61540000  0.40400000  0.05060000  1.0 0.1390010532
H  H109  1  0.49550000  0.84680000  0.80120000  1.0 0.1390010532
H  H110  1  0.84680000  0.80120000  0.49550000  1.0 0.1390010532
H  H111  1  0.80120000  0.49550000  0.84680000  1.0 0.1390010532
H  H112  1  0.37940000  0.13640000  0.75190000  1.0 0.1115915582
H  H113  1  0.13640000  0.75190000  0.37940000  1.0 0.1115915582
H  H114  1  0.75190000  0.37940000  0.13640000  1.0 0.1115915582
H  H115  1  0.40400000  0.12970000  0.62540000  1.0 0.1115915582
H  H116  1  0.12970000  0.62540000  0.40400000  1.0 0.1115915582
H  H117  1  0.62540000  0.40400000  0.12970000  1.0 0.1115915582
H  H118  1  0.71330000  0.98590000  0.27050000  1.0 0.1308873018
H  H119  1  0.98590000  0.27050000  0.71330000  1.0 0.1308873018
H  H120  1  0.27050000  0.71330000  0.98590000  1.0 0.1308873018
H  H121  1  0.67300000  0.08930000  0.21550000  1.0 0.1308873018
H  H122  1  0.08930000  0.21550000  0.67300000  1.0 0.1390010532
H  H123  1  0.21550000  0.67300000  0.08930000  1.0 0.1308873018
H  H124  1  0.74090000  0.11850000  0.35030000  1.0 0.1308873018
H  H125  1  0.11850000  0.35030000  0.74090000  1.0 0.1308873018
H  H126  1  0.35030000  0.74090000  0.11850000  1.0 0.1308873018
H  H127  1  0.76710000  0.19490000  0.33350000  1.0 0.1308873018
H  H128  1  0.19490000  0.33350000  0.76710000  1.0 0.1308873018
H  H129  1  0.33350000  0.76710000  0.19490000  1.0 0.1308873018
H  H130  1  0.63850000  0.15020000  0.24370000  1.0 0.1205855652
H  H131  1  0.15020000  0.24370000  0.63850000  1.0 0.1205855652
H  H132  1  0.24370000  0.63850000  0.15020000  1.0 0.1205855652
H  H133  1  0.75660000  0.27170000  0.33410000  1.0 0.1308873018
H  H134  1  0.27170000  0.33410000  0.75660000  1.0 0.1308873018
H  H135  1  0.33410000  0.75660000  0.27170000  1.0 0.1308873018
H  H136  1  0.63300000  0.22490000  0.24890000  1.0 0.1390010532
H  H137  1  0.22490000  0.24890000  0.63300000  1.0 0.1390010532
H  H138  1  0.24890000  0.63300000  0.22490000  1.0 0.1390010532
C  C1  1  0.68570000  0.23050000  0.53550000  1.0 0.3644562915
C  C2  1  0.23050000  0.53550000  0.68570000  1.0 0.3644562915
C  C3  1  0.53550000  0.68570000  0.23050000  1.0 0.3644562915
C  C4  1  0.65800000  0.36290000  0.58830000  1.0 0.2691092745
C  C5  1  0.36290000  0.58830000  0.65800000  1.0 0.2609091207
C  C6  1  0.58830000  0.65800000  0.36290000  1.0 0.2544286505
C  C7  1  0.67910000  0.21010000  0.50220000  1.0 0.0896742134
C  C8  1  0.21010000  0.50220000  0.67910000  1.0 0.0845947892
C  C9  1  0.50220000  0.67910000  0.21010000  1.0 0.0845947892
C  C10  1  0.63360000  0.39480000  0.58020000  1.0 -0.0416278379
C  C11  1  0.39480000  0.58020000  0.63360000  1.0 -0.0416278379
C  C12  1  0.58020000  0.63360000  0.39480000  1.0 -0.0416278379
C  C13  1  0.64940000  0.15390000  0.48940000  1.0 -0.0987212821
C  C14  1  0.15390000  0.48940000  0.64940000  1.0 -0.0987212821
C  C15  1  0.48940000  0.64940000  0.15390000  1.0 -0.0987212821
C  C16  1  0.67960000  0.20230000  0.45670000  1.0 -0.1096503816
C  C17  1  0.20230000  0.45670000  0.67960000  1.0 -0.1096503816
C  C18  1  0.45670000  0.67960000  0.20230000  1.0 -0.1096503816
C  C19  1  0.58700000  0.39460000  0.58170000  1.0 -0.0416278379
C  C20  1  0.39460000  0.58170000  0.58700000  1.0 -0.0416278379
C  C21  1  0.58170000  0.58700000  0.39460000  1.0 -0.0416278379
C  C22  1  0.66120000  0.43480000  0.57260000  1.0 0.0306802025
C  C23  1  0.43480000  0.57260000  0.66120000  1.0 0.0306802025
C  C24  1  0.57260000  0.66120000  0.43480000  1.0 0.0306802025
C  C25  1  0.63180000  0.11620000  0.44750000  1.0 -0.168046952
C  C26  1  0.11620000  0.44750000  0.63180000  1.0 -0.168046952
C  C27  1  0.44750000  0.63180000  0.11620000  1.0 -0.1613196552
C  C28  1  0.66590000  0.17350000  0.40800000  1.0 -0.1807556539
C  C29  1  0.17350000  0.40800000  0.66590000  1.0 -0.1807556539
C  C30  1  0.40800000  0.66590000  0.17350000  1.0 -0.1807556539
C  C31  1  0.56980000  0.43580000  0.57330000  1.0 -0.198819431
C  C32  1  0.43580000  0.57330000  0.56980000  1.0 -0.198819431
C  C33  1  0.57330000  0.56980000  0.43580000  1.0 -0.198819431
C  C34  1  0.64260000  0.47460000  0.56400000  1.0 -0.254654561
C  C35  1  0.47460000  0.56400000  0.64260000  1.0 -0.2550705418
C  C36  1  0.56400000  0.64260000  0.47460000  1.0 -0.254654561
C  C37  1  0.63790000  0.12590000  0.40500000  1.0 0.0896742134
C  C38  1  0.12590000  0.40500000  0.63790000  1.0 0.0896742134
C  C39  1  0.40500000  0.63790000  0.12590000  1.0 0.0896742134
C  C40  1  0.59650000  0.47340000  0.56540000  1.0 0.0984720291
C  C41  1  0.47340000  0.56540000  0.59650000  1.0 0.0984720291
C  C42  1  0.56540000  0.59650000  0.47340000  1.0 0.0984720291
C  C43  1  0.61410000  0.08580000  0.36240000  1.0 0.0984720291
C  C44  1  0.08580000  0.36240000  0.61410000  1.0 0.0984720291
C  C45  1  0.36240000  0.61410000  0.08580000  1.0 0.0984720291
C  C46  1  0.56680000  0.51170000  0.55680000  1.0 0.1115915582
C  C47  1  0.51170000  0.55680000  0.56680000  1.0 0.1115915582
C  C48  1  0.55680000  0.56680000  0.51170000  1.0 0.1115915582
C  C49  1  0.59300000  0.09540000  0.32140000  1.0 -0.192116313
C  C50  1  0.09540000  0.32140000  0.59300000  1.0 -0.192116313
C  C51  1  0.32140000  0.59300000  0.09540000  1.0 -0.198819431
C  C52  1  0.61580000  0.03770000  0.36140000  1.0 -0.192116313
C  C53  1  0.03770000  0.36140000  0.61580000  1.0 -0.192116313
C  C54  1  0.36140000  0.61580000  0.03770000  1.0 -0.192116313
C  C55  1  0.57980000  0.53360000  0.52250000  1.0 -0.1807556539
C  C56  1  0.53360000  0.52250000  0.57980000  1.0 -0.192116313
C  C57  1  0.52250000  0.57980000  0.53360000  1.0 -0.1807556539
C  C58  1  0.57350000  0.06170000  0.27980000  1.0 0.0896742134
C  C59  1  0.06170000  0.27980000  0.57350000  1.0 0.0896742134
C  C60  1  0.27980000  0.57350000  0.06170000  1.0 0.0896742134
C  C61  1  0.59690000  0.00290000  0.31970000  1.0 0.0896742134
C  C62  1  0.00290000  0.31970000  0.59690000  1.0 0.0896742134
C  C63  1  0.31970000  0.59690000  0.00290000  1.0 0.0896742134
C  C64  1  0.57620000  0.01600000  0.28050000  1.0 -0.1807556539
C  C65  1  0.01600000  0.28050000  0.57620000  1.0 -0.1807556539
C  C66  1  0.28050000  0.57620000  0.01600000  1.0 -0.1807556539
C  C67  1  0.55026000  0.07200000  0.23694000  1.0 0.0666234862
C  C68  1  0.07200000  0.23694000  0.55026000  1.0 0.0666234862
C  C69  1  0.23694000  0.55026000  0.07200000  1.0 0.0666234862
C  C70  1  0.60100000  0.95330000  0.31930000  1.0 0.0984720291
C  C71  1  0.95330000  0.31930000  0.60100000  1.0 0.0984720291
C  C72  1  0.31930000  0.60100000  0.95330000  1.0 0.0984720291
C  C73  1  0.53423000  0.11342000  0.23891000  1.0 -0.1499457768
C  C74  1  0.11342000  0.23891000  0.53423000  1.0 -0.1499457768
C  C75  1  0.23891000  0.53423000  0.11342000  1.0 -0.1499457768
C  C76  1  0.54716000  0.04264000  0.19350000  1.0 0.0306802025
C  C77  1  0.04264000  0.19350000  0.54716000  1.0 0.0405607275
C  C78  1  0.19350000  0.54716000  0.04264000  1.0 0.0306802025
C  C79  1  0.61000000  0.92650000  0.27800000  1.0 -0.1499457768
C  C80  1  0.92650000  0.27800000  0.61000000  1.0 -0.1499457768
C  C81  1  0.27800000  0.61000000  0.92650000  1.0 -0.1499457768
C  C82  1  0.59870000  0.93250000  0.35590000  1.0 -0.1499457768
C  C83  1  0.93250000  0.35590000  0.59870000  1.0 -0.1499457768
C  C84  1  0.35590000  0.59870000  0.93250000  1.0 -0.1499457768
C  C85  1  0.51519000  0.12551000  0.19750000  1.0 -0.0757043853
C  C86  1  0.12551000  0.19750000  0.51519000  1.0 -0.0691532015
C  C87  1  0.19750000  0.51519000  0.12551000  1.0 -0.0757043853
C  C88  1  0.52820000  0.05470000  0.15210000  1.0 -0.168046952
C  C89  1  0.05470000  0.15210000  0.52820000  1.0 -0.1807556539
C  C90  1  0.15210000  0.52820000  0.05470000  1.0 -0.168046952
C  C91  1  0.61410000  0.88040000  0.27500000  1.0 -0.129642044
C  C92  1  0.88040000  0.27500000  0.61410000  1.0 -0.129642044
C  C93  1  0.27500000  0.61410000  0.88040000  1.0 -0.129642044
C  C94  1  0.60060000  0.88490000  0.35000000  1.0 -0.0987212821
C  C95  1  0.88490000  0.35000000  0.60060000  1.0 -0.0987212821
C  C96  1  0.35000000  0.60060000  0.88490000  1.0 -0.0987212821
C  C97  1  0.51226000  0.09623000  0.15411000  1.0 0.0613031449
C  C98  1  0.09623000  0.15411000  0.51226000  1.0 0.0613031449
C  C99  1  0.15411000  0.51226000  0.09623000  1.0 0.0613031449
C  C100  1  0.60830000  0.85940000  0.31200000  1.0 -0.0316849005
C  C101  1  0.85940000  0.31200000  0.60830000  1.0 -0.0316849005
C  C102  1  0.31200000  0.60830000  0.85940000  1.0 -0.0316849005
C  C103  1  0.48910000  0.11280000  0.10790000  1.0 0.5270796572
C  C104  1  0.11280000  0.10790000  0.48910000  1.0 0.5270796572
C  C105  1  0.10790000  0.48910000  0.11280000  1.0 0.5270796572
C  C106  1  0.61140000  0.80940000  0.30730000  1.0 0.2818237499
C  C107  1  0.80940000  0.30730000  0.61140000  1.0 0.2907525108
C  C108  1  0.30730000  0.61140000  0.80940000  1.0 0.2907525108
C  C109  1  0.40350000  0.08480000  0.95210000  1.0 0.5270796572
C  C110  1  0.08480000  0.95210000  0.40350000  1.0 0.5270796572
C  C111  1  0.95210000  0.40350000  0.08480000  1.0 0.5270796572
C  C112  1  0.37820000  0.15460000  0.07080000  1.0 0.5411696092
C  C113  1  0.15460000  0.07080000  0.37820000  1.0 0.5411696092
C  C114  1  0.07080000  0.37820000  0.15460000  1.0 0.5411696092
C  C115  1  0.37639000  0.05679000  0.90129000  1.0 0.0195556662
C  C116  1  0.05679000  0.90129000  0.37639000  1.0 0.0195556662
C  C117  1  0.90129000  0.37639000  0.05679000  1.0 0.0195556662
C  C118  1  0.33640000  0.16090000  0.09370000  1.0 -0.0181107704
C  C119  1  0.16090000  0.09370000  0.33640000  1.0 -0.0181107704
C  C120  1  0.09370000  0.33640000  0.16090000  1.0 -0.0106590391
C  C121  1  0.36850000  0.07610000  0.86200000  1.0 -0.0106590391
C  C122  1  0.07610000  0.86200000  0.36850000  1.0 -0.0106590391
C  C123  1  0.86200000  0.36850000  0.07610000  1.0 -0.0106590391
C  C124  1  0.36075000  0.00859000  0.89676000  1.0 0.0093789264
C  C125  1  0.00859000  0.89676000  0.36075000  1.0 0.0093789264
C  C126  1  0.89676000  0.36075000  0.00859000  1.0 0.0093789264
C  C127  1  0.30340000  0.12200000  0.09600000  1.0 0.0613031449
C  C128  1  0.12200000  0.09600000  0.30340000  1.0 0.0613031449
C  C129  1  0.09600000  0.30340000  0.12200000  1.0 0.0613031449
C  C130  1  0.33108000  0.20620000  0.11072000  1.0 -0.0316849005
C  C131  1  0.20620000  0.11072000  0.33108000  1.0 -0.0316849005
C  C132  1  0.11072000  0.33108000  0.20620000  1.0 -0.0316849005
C  C133  1  0.34515000  0.04728000  0.81817000  1.0 -0.0316849005
C  C134  1  0.04728000  0.81817000  0.34515000  1.0 -0.0316849005
C  C135  1  0.81817000  0.34515000  0.04728000  1.0 -0.0181107704
C  C136  1  0.33737000  0.97975000  0.85301000  1.0 0.0093789264
C  C137  1  0.97975000  0.85301000  0.33737000  1.0 0.0093789264
C  C138  1  0.85301000  0.33737000  0.97975000  1.0 0.0093789264
C  C139  1  0.26490000  0.12830000  0.11530000  1.0 0.0093789264
C  C140  1  0.12830000  0.11530000  0.26490000  1.0 0.0093789264
C  C141  1  0.11530000  0.26490000  0.12830000  1.0 0.0093789264
C  C142  1  0.29280000  0.21250000  0.13010000  1.0 -0.0106590391
C  C143  1  0.21250000  0.13010000  0.29280000  1.0 -0.0181107704
C  C144  1  0.13010000  0.29280000  0.21250000  1.0 -0.0181107704
C  C145  1  0.32966000  0.99906000  0.81366000  1.0 0.0195556662
C  C146  1  0.99906000  0.81366000  0.32966000  1.0 0.0195556662
C  C147  1  0.81366000  0.32966000  0.99906000  1.0 0.0093789264
C  C148  1  0.25970000  0.17350000  0.13230000  1.0 0.0405607275
C  C149  1  0.17350000  0.13230000  0.25970000  1.0 0.0405607275
C  C150  1  0.13230000  0.25970000  0.17350000  1.0 0.0405607275
C  C151  1  0.30970000  0.96760000  0.76620000  1.0 0.0984720291
C  C152  1  0.96760000  0.76620000  0.30970000  1.0 0.0984720291
C  C153  1  0.76620000  0.30970000  0.96760000  1.0 0.0896742134
C  C154  1  0.22490000  0.18040000  0.16140000  1.0 0.0666234862
C  C155  1  0.18040000  0.16140000  0.22490000  1.0 0.0666234862
C  C156  1  0.16140000  0.22490000  0.18040000  1.0 0.0666234862
C  C157  1  0.28840000  0.98270000  0.72680000  1.0 -0.2092263544
C  C158  1  0.98270000  0.72680000  0.28840000  1.0 -0.2092263544
C  C159  1  0.72680000  0.28840000  0.98270000  1.0 -0.2092263544
C  C160  1  0.31180000  0.92070000  0.75910000  1.0 -0.1807556539
C  C161  1  0.92070000  0.75910000  0.31180000  1.0 -0.1807556539
C  C162  1  0.75910000  0.31180000  0.92070000  1.0 -0.1807556539
C  C163  1  0.19230000  0.21170000  0.15220000  1.0 0.0306802025
C  C164  1  0.21170000  0.15220000  0.19230000  1.0 0.0306802025
C  C165  1  0.15220000  0.19230000  0.21170000  1.0 0.0306802025
C  C166  1  0.26990000  0.95020000  0.68360000  1.0 0.1115915582
C  C167  1  0.95020000  0.68360000  0.26990000  1.0 0.1115915582
C  C168  1  0.68360000  0.26990000  0.95020000  1.0 0.1115915582
C  C169  1  0.29350000  0.88870000  0.71850000  1.0 0.0896742134
C  C170  1  0.88870000  0.71850000  0.29350000  1.0 0.0896742134
C  C171  1  0.71850000  0.29350000  0.88870000  1.0 0.0896742134
C  C172  1  0.27170000  0.90290000  0.67840000  1.0 -0.198819431
C  C173  1  0.90290000  0.67840000  0.27170000  1.0 -0.198819431
C  C174  1  0.67840000  0.27170000  0.90290000  1.0 -0.198819431
C  C175  1  0.24611000  0.96691000  0.64181000  1.0 0.0306802025
C  C176  1  0.96691000  0.64181000  0.24611000  1.0 0.0306802025
C  C177  1  0.64181000  0.24611000  0.96691000  1.0 0.0306802025
C  C178  1  0.29580000  0.83750000  0.71220000  1.0 0.0984720291
C  C179  1  0.83750000  0.71220000  0.29580000  1.0 0.0984720291
C  C180  1  0.71220000  0.29580000  0.83750000  1.0 0.0984720291
C  C181  1  0.21196000  0.99300000  0.64564000  1.0 -0.0316849005
C  C182  1  0.99300000  0.64564000  0.21196000  1.0 -0.0316849005
C  C183  1  0.64564000  0.21196000  0.99300000  1.0 -0.0416278379
C  C184  1  0.25917000  0.95573000  0.59910000  1.0 -0.0502864932
C  C185  1  0.95573000  0.59910000  0.25917000  1.0 -0.0502864932
C  C186  1  0.59910000  0.25917000  0.95573000  1.0 -0.0502864932
C  C187  1  0.26000000  0.80010000  0.68460000  1.0 -0.168046952
C  C188  1  0.80010000  0.68460000  0.26000000  1.0 -0.168046952
C  C189  1  0.68460000  0.26000000  0.80010000  1.0 -0.168046952
C  C190  1  0.33660000  0.82570000  0.73780000  1.0 -0.1613196552
C  C191  1  0.82570000  0.73780000  0.33660000  1.0 -0.1613196552
C  C192  1  0.73780000  0.33660000  0.82570000  1.0 -0.1613196552
C  C193  1  0.19090000  0.00790000  0.60680000  1.0 0.0026721567
C  C194  1  0.00790000  0.60680000  0.19090000  1.0 0.0026721567
C  C195  1  0.60680000  0.19090000  0.00790000  1.0 0.0026721567
C  C196  1  0.23814000  0.97060000  0.56026000  1.0 -0.0316849005
C  C197  1  0.97060000  0.56026000  0.23814000  1.0 -0.0316849005
C  C198  1  0.56026000  0.23814000  0.97060000  1.0 -0.0316849005
C  C199  1  0.26630000  0.75380000  0.68500000  1.0 -0.0868133102
C  C200  1  0.75380000  0.68500000  0.26630000  1.0 -0.0868133102
C  C201  1  0.68500000  0.26630000  0.75380000  1.0 -0.0868133102
C  C202  1  0.33920000  0.78100000  0.73550000  1.0 -0.0647801503
C  C203  1  0.78100000  0.73550000  0.33920000  1.0 -0.0647801503
C  C204  1  0.73550000  0.33920000  0.78100000  1.0 -0.0691532015
C  C205  1  0.20397000  0.99671000  0.56409000  1.0 0.0195556662
C  C206  1  0.99671000  0.56409000  0.20397000  1.0 0.0195556662
C  C207  1  0.56409000  0.20397000  0.99671000  1.0 0.0195556662
C  C208  1  0.30520000  0.74550000  0.71290000  1.0 -0.0181107704
C  C209  1  0.74550000  0.71290000  0.30520000  1.0 -0.0181107704
C  C210  1  0.71290000  0.30520000  0.74550000  1.0 -0.0181107704
C  C211  1  0.17840000  0.01180000  0.52000000  1.0 0.4396177486
C  C212  1  0.01180000  0.52000000  0.17840000  1.0 0.4396177486
C  C213  1  0.52000000  0.17840000  0.01180000  1.0 0.4396177486
C  C214  1  0.30490000  0.69540000  0.71260000  1.0 0.5465549782
C  C215  1  0.69540000  0.71260000  0.30490000  1.0 0.5465549782
C  C216  1  0.71260000  0.30490000  0.69540000  1.0 0.5465549782
C  C217  1  0.53450000  0.05880000  0.15280000  1.0 -0.192116313
C  C218  1  0.05880000  0.15280000  0.53450000  1.0 -0.192116313
C  C219  1  0.15280000  0.53450000  0.05880000  1.0 -0.192116313
C  C220  1  0.27820000  0.13760000  0.13890000  1.0 -0.0106590391
C  C221  1  0.13760000  0.13890000  0.27820000  1.0 -0.0106590391
C  C222  1  0.13890000  0.27820000  0.13760000  1.0 -0.0106590391
C  C223  1  0.31500000  0.13010000  0.11770000  1.0 0.0195556662
C  C224  1  0.13010000  0.11770000  0.31500000  1.0 0.0195556662
C  C225  1  0.11770000  0.31500000  0.13010000  1.0 0.0195556662
C  C226  1  0.27890000  0.18500000  0.15500000  1.0 0.0405607275
C  C227  1  0.18500000  0.15500000  0.27890000  1.0 0.0405607275
C  C228  1  0.15500000  0.27890000  0.18500000  1.0 0.0451691143
C  C229  1  0.30940000  0.22250000  0.14640000  1.0 0.0195556662
C  C230  1  0.22250000  0.14640000  0.30940000  1.0 0.0195556662
C  C231  1  0.14640000  0.30940000  0.22250000  1.0 0.0195556662
C  C232  1  0.24630000  0.19980000  0.18420000  1.0 0.0613031449
C  C233  1  0.19980000  0.18420000  0.24630000  1.0 0.0613031449
C  C234  1  0.18420000  0.24630000  0.19980000  1.0 0.0613031449
C  C235  1  0.21440000  0.23040000  0.17050000  1.0 0.0195556662
C  C236  1  0.23040000  0.17050000  0.21440000  1.0 0.0195556662
C  C237  1  0.17050000  0.21440000  0.23040000  1.0 0.0195556662
C  C238  1  0.66190000  0.36390000  0.60020000  1.0 0.3382639245
C  C239  1  0.36390000  0.60020000  0.66190000  1.0 0.3512154177
C  C240  1  0.60020000  0.66190000  0.36390000  1.0 0.3512154177
C  C241  1  0.65730000  0.40580000  0.56890000  1.0 0.0405607275
C  C242  1  0.40580000  0.56890000  0.65730000  1.0 0.0405607275
C  C243  1  0.56890000  0.65730000  0.40580000  1.0 0.0405607275
C  C244  1  0.36780000  0.98840000  0.84120000  1.0 -0.0106590391
C  C245  1  0.98840000  0.84120000  0.36780000  1.0 -0.0181107704
C  C246  1  0.84120000  0.36780000  0.98840000  1.0 -0.0181107704
C  C247  1  0.38880000  0.01440000  0.88690000  1.0 -0.0043669919
C  C248  1  0.01440000  0.88690000  0.38880000  1.0 -0.0106590391
C  C249  1  0.88690000  0.38880000  0.01440000  1.0 -0.0043669919
C  C250  1  0.32250000  0.04440000  0.82600000  1.0 -0.0106590391
C  C251  1  0.04440000  0.82600000  0.32250000  1.0 -0.0106590391
C  C252  1  0.82600000  0.32250000  0.04440000  1.0 -0.0106590391
C  C253  1  0.34740000  0.07390000  0.86910000  1.0 0.0093789264
C  C254  1  0.07390000  0.86910000  0.34740000  1.0 0.0093789264
C  C255  1  0.86910000  0.34740000  0.07390000  1.0 0.0093789264
C  C256  1  0.19810000  0.95190000  0.62140000  1.0 -0.0106590391
C  C257  1  0.95190000  0.62140000  0.19810000  1.0 -0.0106590391
C  C258  1  0.62140000  0.19810000  0.95190000  1.0 -0.0106590391
C  C259  1  0.17630000  0.96300000  0.58050000  1.0 -0.0106590391
C  C260  1  0.96300000  0.58050000  0.17630000  1.0 -0.0106590391
C  C261  1  0.58050000  0.17630000  0.96300000  1.0 -0.0181107704
C  C262  1  0.25220000  0.01370000  0.58230000  1.0 -0.0416278379
C  C263  1  0.01370000  0.58230000  0.25220000  1.0 -0.0502864932
C  C264  1  0.58230000  0.25220000  0.01370000  1.0 -0.0416278379
C  C265  1  0.26920000  0.00370000  0.62540000  1.0 -0.0502864932
C  C266  1  0.00370000  0.62540000  0.26920000  1.0 -0.0502864932
C  C267  1  0.62540000  0.26920000  0.00370000  1.0 -0.0502864932
C  C268  1  0.61753000  0.81130000  0.30977000  1.0 0.2818237499
C  C269  1  0.81130000  0.30977000  0.61753000  1.0 0.2691092745
C  C270  1  0.30977000  0.61753000  0.81130000  1.0 0.2609091207
C  C271  1  0.31430000  0.76950000  0.46450000  1.0 0.3656782761
C  C272  1  0.76950000  0.46450000  0.31430000  1.0 0.3644562915
C  C273  1  0.46450000  0.31430000  0.76950000  1.0 0.3656782761
C  C274  1  0.34200000  0.63710000  0.41170000  1.0 0.2609091207
C  C275  1  0.63710000  0.41170000  0.34200000  1.0 0.2691092745
C  C276  1  0.41170000  0.34200000  0.63710000  1.0 0.2609091207
C  C277  1  0.32090000  0.78990000  0.49780000  1.0 0.0845947892
C  C278  1  0.78990000  0.49780000  0.32090000  1.0 0.0896742134
C  C279  1  0.49780000  0.32090000  0.78990000  1.0 0.0845947892
C  C280  1  0.36640000  0.60520000  0.41980000  1.0 -0.0416278379
C  C281  1  0.60520000  0.41980000  0.36640000  1.0 -0.0416278379
C  C282  1  0.41980000  0.36640000  0.60520000  1.0 -0.0416278379
C  C283  1  0.35060000  0.84610000  0.51060000  1.0 -0.0987212821
C  C284  1  0.84610000  0.51060000  0.35060000  1.0 -0.0987212821
C  C285  1  0.51060000  0.35060000  0.84610000  1.0 -0.0987212821
C  C286  1  0.32040000  0.79770000  0.54330000  1.0 -0.1096503816
C  C287  1  0.79770000  0.54330000  0.32040000  1.0 -0.1096503816
C  C288  1  0.54330000  0.32040000  0.79770000  1.0 -0.1096503816
C  C289  1  0.41300000  0.60540000  0.41830000  1.0 -0.0416278379
C  C290  1  0.60540000  0.41830000  0.41300000  1.0 -0.0416278379
C  C291  1  0.41830000  0.41300000  0.60540000  1.0 -0.0416278379
C  C292  1  0.33880000  0.56520000  0.42740000  1.0 0.0306802025
C  C293  1  0.56520000  0.42740000  0.33880000  1.0 0.0306802025
C  C294  1  0.42740000  0.33880000  0.56520000  1.0 0.0306802025
C  C295  1  0.36820000  0.88380000  0.55250000  1.0 -0.1613196552
C  C296  1  0.88380000  0.55250000  0.36820000  1.0 -0.1613196552
C  C297  1  0.55250000  0.36820000  0.88380000  1.0 -0.168046952
C  C298  1  0.33410000  0.82650000  0.59200000  1.0 -0.1807556539
C  C299  1  0.82650000  0.59200000  0.33410000  1.0 -0.1807556539
C  C300  1  0.59200000  0.33410000  0.82650000  1.0 -0.1807556539
C  C301  1  0.43020000  0.56420000  0.42670000  1.0 -0.198819431
C  C302  1  0.56420000  0.42670000  0.43020000  1.0 -0.198819431
C  C303  1  0.42670000  0.43020000  0.56420000  1.0 -0.198819431
C  C304  1  0.35740000  0.52540000  0.43600000  1.0 -0.254654561
C  C305  1  0.52540000  0.43600000  0.35740000  1.0 -0.254654561
C  C306  1  0.43600000  0.35740000  0.52540000  1.0 -0.254654561
C  C307  1  0.36210000  0.87410000  0.59500000  1.0 0.0896742134
C  C308  1  0.87410000  0.59500000  0.36210000  1.0 0.0896742134
C  C309  1  0.59500000  0.36210000  0.87410000  1.0 0.0896742134
C  C310  1  0.40350000  0.52660000  0.43460000  1.0 0.0984720291
C  C311  1  0.52660000  0.43460000  0.40350000  1.0 0.0984720291
C  C312  1  0.43460000  0.40350000  0.52660000  1.0 0.0984720291
C  C313  1  0.38590000  0.91420000  0.63760000  1.0 0.0984720291
C  C314  1  0.91420000  0.63760000  0.38590000  1.0 0.0984720291
C  C315  1  0.63760000  0.38590000  0.91420000  1.0 0.0896742134
C  C316  1  0.43320000  0.48830000  0.44320000  1.0 0.1115915582
C  C317  1  0.48830000  0.44320000  0.43320000  1.0 0.1115915582
C  C318  1  0.44320000  0.43320000  0.48830000  1.0 0.1115915582
C  C319  1  0.40700000  0.90460000  0.67860000  1.0 -0.192116313
C  C320  1  0.90460000  0.67860000  0.40700000  1.0 -0.192116313
C  C321  1  0.67860000  0.40700000  0.90460000  1.0 -0.192116313
C  C322  1  0.38420000  0.96230000  0.63860000  1.0 -0.192116313
C  C323  1  0.96230000  0.63860000  0.38420000  1.0 -0.192116313
C  C324  1  0.63860000  0.38420000  0.96230000  1.0 -0.192116313
C  C325  1  0.42020000  0.46640000  0.47750000  1.0 -0.1807556539
C  C326  1  0.46640000  0.47750000  0.42020000  1.0 -0.1807556539
C  C327  1  0.47750000  0.42020000  0.46640000  1.0 -0.192116313
C  C328  1  0.42650000  0.93830000  0.72020000  1.0 0.0896742134
C  C329  1  0.93830000  0.72020000  0.42650000  1.0 0.0896742134
C  C330  1  0.72020000  0.42650000  0.93830000  1.0 0.0896742134
C  C331  1  0.40310000  0.99710000  0.68030000  1.0 0.0896742134
C  C332  1  0.99710000  0.68030000  0.40310000  1.0 0.0896742134
C  C333  1  0.68030000  0.40310000  0.99710000  1.0 0.0896742134
C  C334  1  0.42380000  0.98400000  0.71950000  1.0 -0.1807556539
C  C335  1  0.98400000  0.71950000  0.42380000  1.0 -0.1807556539
C  C336  1  0.71950000  0.42380000  0.98400000  1.0 -0.1807556539
C  C337  1  0.44974000  0.92800000  0.76306000  1.0 0.0666234862
C  C338  1  0.92800000  0.76306000  0.44974000  1.0 0.0666234862
C  C339  1  0.76306000  0.44974000  0.92800000  1.0 0.0666234862
C  C340  1  0.39900000  0.04670000  0.68070000  1.0 0.0984720291
C  C341  1  0.04670000  0.68070000  0.39900000  1.0 0.0984720291
C  C342  1  0.68070000  0.39900000  0.04670000  1.0 0.0984720291
C  C343  1  0.46577000  0.88658000  0.76109000  1.0 -0.1499457768
C  C344  1  0.88658000  0.76109000  0.46577000  1.0 -0.1499457768
C  C345  1  0.76109000  0.46577000  0.88658000  1.0 -0.1499457768
C  C346  1  0.45284000  0.95736000  0.80650000  1.0 0.0405607275
C  C347  1  0.95736000  0.80650000  0.45284000  1.0 0.0405607275
C  C348  1  0.80650000  0.45284000  0.95736000  1.0 0.0405607275
C  C349  1  0.39000000  0.07350000  0.72200000  1.0 -0.1499457768
C  C350  1  0.07350000  0.72200000  0.39000000  1.0 -0.1499457768
C  C351  1  0.72200000  0.39000000  0.07350000  1.0 -0.1499457768
C  C352  1  0.40130000  0.06750000  0.64410000  1.0 -0.1499457768
C  C353  1  0.06750000  0.64410000  0.40130000  1.0 -0.1499457768
C  C354  1  0.64410000  0.40130000  0.06750000  1.0 -0.1499457768
C  C355  1  0.48481000  0.87449000  0.80250000  1.0 -0.0757043853
C  C356  1  0.87449000  0.80250000  0.48481000  1.0 -0.0757043853
C  C357  1  0.80250000  0.48481000  0.87449000  1.0 -0.0691532015
C  C358  1  0.47180000  0.94530000  0.84790000  1.0 -0.1613196552
C  C359  1  0.94530000  0.84790000  0.47180000  1.0 -0.168046952
C  C360  1  0.84790000  0.47180000  0.94530000  1.0 -0.1807556539
C  C361  1  0.38590000  0.11960000  0.72500000  1.0 -0.129642044
C  C362  1  0.11960000  0.72500000  0.38590000  1.0 -0.129642044
C  C363  1  0.72500000  0.38590000  0.11960000  1.0 -0.129642044
C  C364  1  0.39940000  0.11510000  0.65000000  1.0 -0.0987212821
C  C365  1  0.11510000  0.65000000  0.39940000  1.0 -0.0987212821
C  C366  1  0.65000000  0.39940000  0.11510000  1.0 -0.0987212821
C  C367  1  0.48774000  0.90377000  0.84589000  1.0 0.0613031449
C  C368  1  0.90377000  0.84589000  0.48774000  1.0 0.0613031449
C  C369  1  0.84589000  0.48774000  0.90377000  1.0 0.0666234862
C  C370  1  0.39170000  0.14060000  0.68800000  1.0 -0.0316849005
C  C371  1  0.14060000  0.68800000  0.39170000  1.0 -0.0316849005
C  C372  1  0.68800000  0.39170000  0.14060000  1.0 -0.0316849005
C  C373  1  0.51090000  0.88720000  0.89210000  1.0 0.5270796572
C  C374  1  0.88720000  0.89210000  0.51090000  1.0 0.5270796572
C  C375  1  0.89210000  0.51090000  0.88720000  1.0 0.5270796572
C  C376  1  0.38860000  0.19060000  0.69270000  1.0 0.2907525108
C  C377  1  0.19060000  0.69270000  0.38860000  1.0 0.2818237499
C  C378  1  0.69270000  0.38860000  0.19060000  1.0 0.2907525108
C  C379  1  0.59650000  0.91520000  0.04790000  1.0 0.5270796572
C  C380  1  0.91520000  0.04790000  0.59650000  1.0 0.5270796572
C  C381  1  0.04790000  0.59650000  0.91520000  1.0 0.5270796572
C  C382  1  0.62180000  0.84540000  0.92920000  1.0 0.5411696092
C  C383  1  0.84540000  0.92920000  0.62180000  1.0 0.5411696092
C  C384  1  0.92920000  0.62180000  0.84540000  1.0 0.5411696092
C  C385  1  0.62361000  0.94321000  0.09871000  1.0 0.0195556662
C  C386  1  0.94321000  0.09871000  0.62361000  1.0 0.0195556662
C  C387  1  0.09871000  0.62361000  0.94321000  1.0 0.0195556662
C  C388  1  0.66360000  0.83910000  0.90630000  1.0 -0.0181107704
C  C389  1  0.83910000  0.90630000  0.66360000  1.0 -0.0181107704
C  C390  1  0.90630000  0.66360000  0.83910000  1.0 -0.0181107704
C  C391  1  0.63150000  0.92390000  0.13800000  1.0 -0.0106590391
C  C392  1  0.92390000  0.13800000  0.63150000  1.0 -0.0106590391
C  C393  1  0.13800000  0.63150000  0.92390000  1.0 -0.0106590391
C  C394  1  0.63925000  0.99141000  0.10324000  1.0 0.0093789264
C  C395  1  0.99141000  0.10324000  0.63925000  1.0 0.0093789264
C  C396  1  0.10324000  0.63925000  0.99141000  1.0 0.0026721567
C  C397  1  0.69660000  0.87800000  0.90400000  1.0 0.0613031449
C  C398  1  0.87800000  0.90400000  0.69660000  1.0 0.0613031449
C  C399  1  0.90400000  0.69660000  0.87800000  1.0 0.0613031449
C  C400  1  0.66892000  0.79380000  0.88928000  1.0 -0.0316849005
C  C401  1  0.79380000  0.88928000  0.66892000  1.0 -0.0416278379
C  C402  1  0.88928000  0.66892000  0.79380000  1.0 -0.0316849005
C  C403  1  0.65485000  0.95272000  0.18183000  1.0 -0.0316849005
C  C404  1  0.95272000  0.18183000  0.65485000  1.0 -0.0316849005
C  C405  1  0.18183000  0.65485000  0.95272000  1.0 -0.0316849005
C  C406  1  0.66263000  0.02025000  0.14699000  1.0 0.0093789264
C  C407  1  0.02025000  0.14699000  0.66263000  1.0 0.0093789264
C  C408  1  0.14699000  0.66263000  0.02025000  1.0 0.0093789264
C  C409  1  0.73510000  0.87170000  0.88470000  1.0 0.0093789264
C  C410  1  0.87170000  0.88470000  0.73510000  1.0 0.0093789264
C  C411  1  0.88470000  0.73510000  0.87170000  1.0 0.0093789264
C  C412  1  0.70720000  0.78750000  0.86990000  1.0 -0.0106590391
C  C413  1  0.78750000  0.86990000  0.70720000  1.0 -0.0181107704
C  C414  1  0.86990000  0.70720000  0.78750000  1.0 -0.0181107704
C  C415  1  0.67034000  0.00094000  0.18634000  1.0 0.0093789264
C  C416  1  0.00094000  0.18634000  0.67034000  1.0 0.0093789264
C  C417  1  0.18634000  0.67034000  0.00094000  1.0 0.0195556662
C  C418  1  0.74030000  0.82650000  0.86770000  1.0 0.0405607275
C  C419  1  0.82650000  0.86770000  0.74030000  1.0 0.0405607275
C  C420  1  0.86770000  0.74030000  0.82650000  1.0 0.0405607275
C  C421  1  0.69030000  0.03240000  0.23380000  1.0 0.0984720291
C  C422  1  0.03240000  0.23380000  0.69030000  1.0 0.0984720291
C  C423  1  0.23380000  0.69030000  0.03240000  1.0 0.0984720291
C  C424  1  0.77510000  0.81960000  0.83860000  1.0 0.0666234862
C  C425  1  0.81960000  0.83860000  0.77510000  1.0 0.0613031449
C  C426  1  0.83860000  0.77510000  0.81960000  1.0 0.0613031449
C  C427  1  0.71160000  0.01730000  0.27320000  1.0 -0.2092263544
C  C428  1  0.01730000  0.27320000  0.71160000  1.0 -0.2092263544
C  C429  1  0.27320000  0.71160000  0.01730000  1.0 -0.2092263544
C  C430  1  0.68820000  0.07930000  0.24090000  1.0 -0.1807556539
C  C431  1  0.07930000  0.24090000  0.68820000  1.0 -0.1807556539
C  C432  1  0.24090000  0.68820000  0.07930000  1.0 -0.1807556539
C  C433  1  0.80770000  0.78830000  0.84780000  1.0 0.0306802025
C  C434  1  0.78830000  0.84780000  0.80770000  1.0 0.0306802025
C  C435  1  0.84780000  0.80770000  0.78830000  1.0 0.0306802025
C  C436  1  0.73010000  0.04980000  0.31640000  1.0 0.1115915582
C  C437  1  0.04980000  0.31640000  0.73010000  1.0 0.1115915582
C  C438  1  0.31640000  0.73010000  0.04980000  1.0 0.1115915582
C  C439  1  0.70650000  0.11130000  0.28150000  1.0 0.0896742134
C  C440  1  0.11130000  0.28150000  0.70650000  1.0 0.0896742134
C  C441  1  0.28150000  0.70650000  0.11130000  1.0 0.0896742134
C  C442  1  0.72830000  0.09710000  0.32160000  1.0 -0.198819431
C  C443  1  0.09710000  0.32160000  0.72830000  1.0 -0.198819431
C  C444  1  0.32160000  0.72830000  0.09710000  1.0 -0.198819431
C  C445  1  0.75389000  0.03309000  0.35819000  1.0 0.0306802025
C  C446  1  0.03309000  0.35819000  0.75389000  1.0 0.0306802025
C  C447  1  0.35819000  0.75389000  0.03309000  1.0 0.0306802025
C  C448  1  0.70420000  0.16250000  0.28780000  1.0 0.0984720291
C  C449  1  0.16250000  0.28780000  0.70420000  1.0 0.0984720291
C  C450  1  0.28780000  0.70420000  0.16250000  1.0 0.0984720291
C  C451  1  0.78804000  0.00700000  0.35436000  1.0 -0.0316849005
C  C452  1  0.00700000  0.35436000  0.78804000  1.0 -0.0416278379
C  C453  1  0.35436000  0.78804000  0.00700000  1.0 -0.0316849005
C  C454  1  0.74083000  0.04427000  0.40090000  1.0 -0.0502864932
C  C455  1  0.04427000  0.40090000  0.74083000  1.0 -0.0502864932
C  C456  1  0.40090000  0.74083000  0.04427000  1.0 -0.0502864932
C  C457  1  0.74000000  0.19990000  0.31540000  1.0 -0.168046952
C  C458  1  0.19990000  0.31540000  0.74000000  1.0 -0.168046952
C  C459  1  0.31540000  0.74000000  0.19990000  1.0 -0.168046952
C  C460  1  0.66340000  0.17430000  0.26220000  1.0 -0.1613196552
C  C461  1  0.17430000  0.26220000  0.66340000  1.0 -0.1613196552
C  C462  1  0.26220000  0.66340000  0.17430000  1.0 -0.1613196552
C  C463  1  0.80910000  0.99210000  0.39320000  1.0 0.0026721567
C  C464  1  0.99210000  0.39320000  0.80910000  1.0 0.0026721567
C  C465  1  0.39320000  0.80910000  0.99210000  1.0 0.0026721567
C  C466  1  0.76186000  0.02940000  0.43974000  1.0 -0.0316849005
C  C467  1  0.02940000  0.43974000  0.76186000  1.0 -0.0316849005
C  C468  1  0.43974000  0.76186000  0.02940000  1.0 -0.0316849005
C  C469  1  0.73370000  0.24620000  0.31500000  1.0 -0.0868133102
C  C470  1  0.24620000  0.31500000  0.73370000  1.0 -0.0868133102
C  C471  1  0.31500000  0.73370000  0.24620000  1.0 -0.0868133102
C  C472  1  0.66080000  0.21900000  0.26450000  1.0 -0.0647801503
C  C473  1  0.21900000  0.26450000  0.66080000  1.0 -0.0691532015
C  C474  1  0.26450000  0.66080000  0.21900000  1.0 -0.0691532015
C  C475  1  0.79603000  0.00329000  0.43591000  1.0 0.0195556662
C  C476  1  0.00329000  0.43591000  0.79603000  1.0 0.0195556662
C  C477  1  0.43591000  0.79603000  0.00329000  1.0 0.0195556662
C  C478  1  0.69480000  0.25450000  0.28710000  1.0 -0.0181107704
C  C479  1  0.25450000  0.28710000  0.69480000  1.0 -0.0181107704
C  C480  1  0.28710000  0.69480000  0.25450000  1.0 -0.0181107704
C  C481  1  0.82160000  0.98820000  0.48000000  1.0 0.4396177486
C  C482  1  0.98820000  0.48000000  0.82160000  1.0 0.4396177486
C  C483  1  0.48000000  0.82160000  0.98820000  1.0 0.4396177486
C  C484  1  0.69510000  0.30460000  0.28740000  1.0 0.5465549782
C  C485  1  0.30460000  0.28740000  0.69510000  1.0 0.5465549782
C  C486  1  0.28740000  0.69510000  0.30460000  1.0 0.5465549782
C  C487  1  0.46550000  0.94120000  0.84720000  1.0 -0.192116313
C  C488  1  0.94120000  0.84720000  0.46550000  1.0 -0.198819431
C  C489  1  0.84720000  0.46550000  0.94120000  1.0 -0.192116313
C  C490  1  0.72180000  0.86240000  0.86110000  1.0 -0.0106590391
C  C491  1  0.86240000  0.86110000  0.72180000  1.0 -0.0106590391
C  C492  1  0.86110000  0.72180000  0.86240000  1.0 -0.0106590391
C  C493  1  0.68500000  0.86990000  0.88230000  1.0 0.0195556662
C  C494  1  0.86990000  0.88230000  0.68500000  1.0 0.0306802025
C  C495  1  0.88230000  0.68500000  0.86990000  1.0 0.0306802025
C  C496  1  0.72110000  0.81500000  0.84500000  1.0 0.0405607275
C  C497  1  0.81500000  0.84500000  0.72110000  1.0 0.0405607275
C  C498  1  0.84500000  0.72110000  0.81500000  1.0 0.0405607275
C  C499  1  0.69060000  0.77750000  0.85360000  1.0 0.0195556662
C  C500  1  0.77750000  0.85360000  0.69060000  1.0 0.0195556662
C  C501  1  0.85360000  0.69060000  0.77750000  1.0 0.0195556662
C  C502  1  0.75370000  0.80020000  0.81580000  1.0 0.0613031449
C  C503  1  0.80020000  0.81580000  0.75370000  1.0 0.0613031449
C  C504  1  0.81580000  0.75370000  0.80020000  1.0 0.0613031449
C  C505  1  0.78560000  0.76960000  0.82950000  1.0 0.0195556662
C  C506  1  0.76960000  0.82950000  0.78560000  1.0 0.0195556662
C  C507  1  0.82950000  0.78560000  0.76960000  1.0 0.0093789264
C  C508  1  0.33810000  0.63610000  0.39980000  1.0 0.3512154177
C  C509  1  0.63610000  0.39980000  0.33810000  1.0 0.3382639245
C  C510  1  0.39980000  0.33810000  0.63610000  1.0 0.3382639245
C  C511  1  0.34270000  0.59420000  0.43110000  1.0 0.0405607275
C  C512  1  0.59420000  0.43110000  0.34270000  1.0 0.0405607275
C  C513  1  0.43110000  0.34270000  0.59420000  1.0 0.0405607275
C  C514  1  0.63220000  0.01160000  0.15880000  1.0 -0.0181107704
C  C515  1  0.01160000  0.15880000  0.63220000  1.0 -0.0181107704
C  C516  1  0.15880000  0.63220000  0.01160000  1.0 -0.0181107704
C  C517  1  0.61120000  0.98560000  0.11310000  1.0 -0.0043669919
C  C518  1  0.98560000  0.11310000  0.61120000  1.0 -0.0106590391
C  C519  1  0.11310000  0.61120000  0.98560000  1.0 -0.0106590391
C  C520  1  0.67750000  0.95560000  0.17400000  1.0 -0.0106590391
C  C521  1  0.95560000  0.17400000  0.67750000  1.0 -0.0106590391
C  C522  1  0.17400000  0.67750000  0.95560000  1.0 -0.0106590391
C  C523  1  0.65260000  0.92610000  0.13090000  1.0 0.0195556662
C  C524  1  0.92610000  0.13090000  0.65260000  1.0 0.0093789264
C  C525  1  0.13090000  0.65260000  0.92610000  1.0 0.0195556662
C  C526  1  0.80190000  0.04810000  0.37860000  1.0 -0.0106590391
C  C527  1  0.04810000  0.37860000  0.80190000  1.0 -0.0106590391
C  C528  1  0.37860000  0.80190000  0.04810000  1.0 -0.0106590391
C  C529  1  0.82370000  0.03700000  0.41950000  1.0 -0.0181107704
C  C530  1  0.03700000  0.41950000  0.82370000  1.0 -0.0181107704
C  C531  1  0.41950000  0.82370000  0.03700000  1.0 -0.0106590391
C  C532  1  0.74780000  0.98630000  0.41770000  1.0 -0.0416278379
C  C533  1  0.98630000  0.41770000  0.74780000  1.0 -0.0416278379
C  C534  1  0.41770000  0.74780000  0.98630000  1.0 -0.0416278379
C  C535  1  0.73080000  0.99630000  0.37460000  1.0 -0.0502864932
C  C536  1  0.99630000  0.37460000  0.73080000  1.0 -0.0502864932
C  C537  1  0.37460000  0.73080000  0.99630000  1.0 -0.0502864932
C  C538  1  0.38247000  0.18870000  0.69023000  1.0 0.2691092745
C  C539  1  0.18870000  0.69023000  0.38247000  1.0 0.2691092745
C  C540  1  0.69023000  0.38247000  0.18870000  1.0 0.2691092745
O  O1  1  0.68103000  0.23273000  0.56863000  1.0 -0.3487701427
O  O2  1  0.23273000  0.56863000  0.68103000  1.0 -0.3487701427
O  O3  1  0.56863000  0.68103000  0.23273000  1.0 -0.3487701427
O  O4  1  0.71350000  0.27490000  0.52840000  1.0 -0.5508905545
O  O5  1  0.27490000  0.52840000  0.71350000  1.0 -0.5508905545
O  O6  1  0.52840000  0.71350000  0.27490000  1.0 -0.5508905545
O  O7  1  0.63880000  0.32320000  0.59260000  1.0 -0.330465968
O  O8  1  0.32320000  0.59260000  0.63880000  1.0 -0.330465968
O  O9  1  0.59260000  0.63880000  0.32320000  1.0 -0.330465968
O  O10  1  0.70097000  0.36553000  0.59040000  1.0 -0.3487701427
O  O11  1  0.36553000  0.59040000  0.70097000  1.0 -0.3431139305
O  O12  1  0.59040000  0.70097000  0.36553000  1.0 -0.3431139305
O  O13  1  0.79202000  0.34090000  0.60483000  1.0 -0.3431139305
O  O14  1  0.34090000  0.60483000  0.79202000  1.0 -0.3431139305
O  O15  1  0.60483000  0.79202000  0.34090000  1.0 -0.3431139305
O  O16  1  0.78520000  0.27139000  0.61741000  1.0 -0.330465968
O  O17  1  0.27139000  0.61741000  0.78520000  1.0 -0.330465968
O  O18  1  0.61741000  0.78520000  0.27139000  1.0 -0.3431139305
O  O19  1  0.69334000  0.26978000  0.66258000  1.0 -0.4998112663
O  O20  1  0.26978000  0.66258000  0.69334000  1.0 -0.4914512787
O  O21  1  0.66258000  0.69334000  0.26978000  1.0 -0.4914512787
O  O22  1  0.73620000  0.34010000  0.68590000  1.0 -0.5563525155
O  O23  1  0.34010000  0.68590000  0.73620000  1.0 -0.5508905545
O  O24  1  0.68590000  0.73620000  0.34010000  1.0 -0.5508905545
O  O25  1  0.48285000  0.15285000  0.11145000  1.0 -0.4914512787
O  O26  1  0.15285000  0.11145000  0.48285000  1.0 -0.4914512787
O  O27  1  0.11145000  0.48285000  0.15285000  1.0 -0.4914512787
O  O28  1  0.47864000  0.08109000  0.07309000  1.0 -0.4219030655
O  O29  1  0.08109000  0.07309000  0.47864000  1.0 -0.4219030655
O  O30  1  0.07309000  0.47864000  0.08109000  1.0 -0.4219030655
O  O31  1  0.40202000  0.12899000  0.95976000  1.0 -0.5276538079
O  O32  1  0.12899000  0.95976000  0.40202000  1.0 -0.5276538079
O  O33  1  0.95976000  0.40202000  0.12899000  1.0 -0.5276538079
O  O34  1  0.42269000  0.06593000  0.98061000  1.0 -0.4219030655
O  O35  1  0.06593000  0.98061000  0.42269000  1.0 -0.4260139211
O  O36  1  0.98061000  0.42269000  0.06593000  1.0 -0.4219030655
O  O37  1  0.40360000  0.18789000  0.06323000  1.0 -0.4219030655
O  O38  1  0.18789000  0.06323000  0.40360000  1.0 -0.4219030655
O  O39  1  0.06323000  0.40360000  0.18789000  1.0 -0.4219030655
O  O40  1  0.37977000  0.11066000  0.05881000  1.0 -0.5093377456
O  O41  1  0.11066000  0.05881000  0.37977000  1.0 -0.5093377456
O  O42  1  0.05881000  0.37977000  0.11066000  1.0 -0.5093377456
O  O43  1  0.49333000  0.20250000  0.02336000  1.0 -0.4219030655
O  O44  1  0.20250000  0.02336000  0.49333000  1.0 -0.4219030655
O  O45  1  0.02336000  0.49333000  0.20250000  1.0 -0.4260139211
O  O46  1  0.50520000  0.13490000  0.99710000  1.0 -0.1096503816
O  O47  1  0.13490000  0.99710000  0.50520000  1.0 -0.1096503816
O  O48  1  0.99710000  0.50520000  0.13490000  1.0 -0.1160368927
O  O49  1  0.13990000  0.02170000  0.52340000  1.0 -0.1096503816
O  O50  1  0.02170000  0.52340000  0.13990000  1.0 -0.1096503816
O  O51  1  0.52340000  0.13990000  0.02170000  1.0 -0.1096503816
O  O52  1  0.31897000  0.76727000  0.43137000  1.0 -0.3487701427
O  O53  1  0.76727000  0.43137000  0.31897000  1.0 -0.3487701427
O  O54  1  0.43137000  0.31897000  0.76727000  1.0 -0.3487701427
O  O55  1  0.28650000  0.72510000  0.47160000  1.0 -0.5508905545
O  O56  1  0.72510000  0.47160000  0.28650000  1.0 -0.5508905545
O  O57  1  0.47160000  0.28650000  0.72510000  1.0 -0.5508905545
O  O58  1  0.36120000  0.67680000  0.40740000  1.0 -0.330465968
O  O59  1  0.67680000  0.40740000  0.36120000  1.0 -0.330465968
O  O60  1  0.40740000  0.36120000  0.67680000  1.0 -0.3244635805
O  O61  1  0.29903000  0.63447000  0.40960000  1.0 -0.3431139305
O  O62  1  0.63447000  0.40960000  0.29903000  1.0 -0.3487701427
O  O63  1  0.40960000  0.29903000  0.63447000  1.0 -0.3431139305
O  O64  1  0.20798000  0.65910000  0.39517000  1.0 -0.3431139305
O  O65  1  0.65910000  0.39517000  0.20798000  1.0 -0.3431139305
O  O66  1  0.39517000  0.20798000  0.65910000  1.0 -0.3487701427
O  O67  1  0.21480000  0.72861000  0.38259000  1.0 -0.330465968
O  O68  1  0.72861000  0.38259000  0.21480000  1.0 -0.330465968
O  O69  1  0.38259000  0.21480000  0.72861000  1.0 -0.330465968
O  O70  1  0.30666000  0.73022000  0.33742000  1.0 -0.4914512787
O  O71  1  0.73022000  0.33742000  0.30666000  1.0 -0.4914512787
O  O72  1  0.33742000  0.30666000  0.73022000  1.0 -0.4914512787
O  O73  1  0.26380000  0.65990000  0.31410000  1.0 -0.5563525155
O  O74  1  0.65990000  0.31410000  0.26380000  1.0 -0.5563525155
O  O75  1  0.31410000  0.26380000  0.65990000  1.0 -0.5563525155
O  O76  1  0.51715000  0.84715000  0.88855000  1.0 -0.4914512787
O  O77  1  0.84715000  0.88855000  0.51715000  1.0 -0.4914512787
O  O78  1  0.88855000  0.51715000  0.84715000  1.0 -0.4914512787
O  O79  1  0.52136000  0.91891000  0.92691000  1.0 -0.4219030655
O  O80  1  0.91891000  0.92691000  0.52136000  1.0 -0.4219030655
O  O81  1  0.92691000  0.52136000  0.91891000  1.0 -0.4219030655
O  O82  1  0.59798000  0.87101000  0.04024000  1.0 -0.5276538079
O  O83  1  0.87101000  0.04024000  0.59798000  1.0 -0.5276538079
O  O84  1  0.04024000  0.59798000  0.87101000  1.0 -0.5276538079
O  O85  1  0.57731000  0.93407000  0.01939000  1.0 -0.4219030655
O  O86  1  0.93407000  0.01939000  0.57731000  1.0 -0.4219030655
O  O87  1  0.01939000  0.57731000  0.93407000  1.0 -0.4219030655
O  O88  1  0.59640000  0.81211000  0.93677000  1.0 -0.4219030655
O  O89  1  0.81211000  0.93677000  0.59640000  1.0 -0.4219030655
O  O90  1  0.93677000  0.59640000  0.81211000  1.0 -0.4219030655
O  O91  1  0.62023000  0.88934000  0.94119000  1.0 -0.4998112663
O  O92  1  0.88934000  0.94119000  0.62023000  1.0 -0.5093377456
O  O93  1  0.94119000  0.62023000  0.88934000  1.0 -0.5093377456
O  O94  1  0.50667000  0.79750000  0.97664000  1.0 -0.4260139211
O  O95  1  0.79750000  0.97664000  0.50667000  1.0 -0.4219030655
O  O96  1  0.97664000  0.50667000  0.79750000  1.0 -0.4219030655
O  O97  1  0.49480000  0.86510000  0.00290000  1.0 -0.1160368927
O  O98  1  0.86510000  0.00290000  0.49480000  1.0 -0.1096503816
O  O99  1  0.00290000  0.49480000  0.86510000  1.0 -0.1096503816
O  O100  1  0.86010000  0.97830000  0.47660000  1.0 -0.1096503816
O  O101  1  0.97830000  0.47660000  0.86010000  1.0 -0.1096503816
O  O102  1  0.47660000  0.86010000  0.97830000  1.0 -0.1096503816
