# DDEC6 charges by PACMAN v1.1 (https://github.com/mtap-research/PACMAN-charge/)
data_FOTBOI_FSR_pacman
_symmetry_space_group_name_H-M   'P 1'
_cell_length_a   10.78420000
_cell_length_b   11.64930000
_cell_length_c   12.24950000
_cell_angle_alpha   98.61000000
_cell_angle_beta   113.03800000
_cell_angle_gamma   98.62700000
_symmetry_Int_Tables_number   1
_chemical_formula_structural   Zn4H14C19O16
_chemical_formula_sum   'Zn8 H28 C38 O32'
_cell_volume   1362.90190963
_cell_formula_units_Z   2
loop_
 _symmetry_equiv_pos_site_id
 _symmetry_equiv_pos_as_xyz
  1  'x, y, z'
loop_
 _atom_site_type_symbol
 _atom_site_label
 _atom_site_symmetry_multiplicity
 _atom_site_fract_x
 _atom_site_fract_y
 _atom_site_fract_z
 _atom_site_occupancy
 _atom_site_charge
Zn  Zn1  1  0.91117000  0.36978000  0.92690000  1.0 0.9456897452
Zn  Zn2  1  0.01691000  0.92616000  0.20849000  1.0 0.8971802964
Zn  Zn3  1  0.65275000  0.07230000  0.54972000  1.0 0.6845960095
Zn  Zn4  1  0.57650000  0.02119000  0.64493000  1.0 0.6506639197
Zn  Zn5  1  0.08883000  0.63022000  0.07310000  1.0 0.9456897452
Zn  Zn6  1  0.98309000  0.07384000  0.79151000  1.0 0.8971802964
Zn  Zn7  1  0.34725000  0.92770000  0.45028000  1.0 0.6845960095
Zn  Zn8  1  0.42350000  0.97881000  0.35507000  1.0 0.6506639197
H  H1  1  0.17431000  0.34561000  0.64603000  1.0 0.1215589195
H  H2  1  0.53136000  0.46603000  0.70686000  1.0 0.1215589195
H  H3  1  0.26002000  0.69945000  0.73759000  1.0 0.1262830704
H  H4  1  0.17096000  0.31993000  0.42176000  1.0 0.1262830704
H  H5  1  0.38463000  0.70927000  0.62885000  1.0 0.1386303156
H  H6  1  0.46842000  0.63045000  0.58348000  1.0 0.1262830704
H  H7  1  0.47890000  0.64085000  0.71604000  1.0 0.1262830704
H  H8  1  0.10272000  0.48018000  0.43888000  1.0 0.1262830704
H  H9  1  0.21847000  0.54285000  0.40616000  1.0 0.1386303156
H  H10  1  0.15857000  0.61893000  0.48187000  1.0 0.1386303156
H  H11  1  0.08200000  0.89100000  0.03200000  1.0 0.3816312327
H  H12  1  0.82600000  0.01990000  0.11900000  1.0 0.3713099136
H  H13  1  0.82800000  0.92500000  0.17500000  1.0 0.3512644246
H  H14  1  0.17700000  0.98900000  0.11900000  1.0 0.3425880446
H  H15  1  0.82569000  0.65439000  0.35397000  1.0 0.1215589195
H  H16  1  0.46864000  0.53397000  0.29314000  1.0 0.1215589195
H  H17  1  0.73998000  0.30055000  0.26241000  1.0 0.1262830704
H  H18  1  0.82904000  0.68007000  0.57824000  1.0 0.1262830704
H  H19  1  0.61537000  0.29073000  0.37115000  1.0 0.1386303156
H  H20  1  0.53158000  0.36955000  0.41652000  1.0 0.1262830704
H  H21  1  0.52110000  0.35915000  0.28396000  1.0 0.1262830704
H  H22  1  0.89728000  0.51982000  0.56112000  1.0 0.1262830704
H  H23  1  0.78153000  0.45715000  0.59384000  1.0 0.1386303156
H  H24  1  0.84143000  0.38107000  0.51813000  1.0 0.1386303156
H  H25  1  0.91800000  0.10900000  0.96800000  1.0 0.3816312327
H  H26  1  0.17400000  0.98010000  0.88100000  1.0 0.3713099136
H  H27  1  0.17200000  0.07500000  0.82500000  1.0 0.3512644246
H  H28  1  0.82300000  0.01100000  0.88100000  1.0 0.3425880446
C  C1  1  0.10440000  0.51310000  0.84400000  1.0 0.3164712264
C  C2  1  0.17230000  0.41580000  0.69210000  1.0 -0.1380405352
C  C3  1  0.23180000  0.52320000  0.67850000  1.0 0.0514135546
C  C4  1  0.47340000  0.40190000  0.64280000  1.0 -0.1295676158
C  C5  1  0.05380000  0.28630000  0.77830000  1.0 0.5818249657
C  C6  1  0.43440000  0.19860000  0.53240000  1.0 0.2589781954
C  C7  1  0.34460000  0.41420000  0.56510000  1.0 0.0514135546
C  C8  1  0.22370000  0.62590000  0.74700000  1.0 -0.1105340664
C  C9  1  0.51990000  0.29740000  0.62920000  1.0 -0.1593390071
C  C10  1  0.10910000  0.40780000  0.77190000  1.0 -0.1593390071
C  C11  1  0.16530000  0.74270000  0.89810000  1.0 0.5955075993
C  C12  1  0.29530000  0.52890000  0.58640000  1.0 0.175501205
C  C13  1  0.16350000  0.62400000  0.82970000  1.0 -0.1674504505
C  C14  1  0.25880000  0.31480000  0.47420000  1.0 -0.1105340664
C  C15  1  0.29910000  0.20710000  0.45830000  1.0 -0.1484801099
C  C16  1  0.65870000  0.29240000  0.72040000  1.0 0.4963887109
C  C17  1  0.19340000  0.10380000  0.36710000  1.0 0.5472382679
C  C18  1  0.41840000  0.63760000  0.63310000  1.0 -0.4484087205
C  C19  1  0.18310000  0.54420000  0.46700000  1.0 -0.4591272698
C  C20  1  0.89560000  0.48690000  0.15600000  1.0 0.3164712264
C  C21  1  0.82770000  0.58420000  0.30790000  1.0 -0.1380405352
C  C22  1  0.76820000  0.47680000  0.32150000  1.0 0.0514135546
C  C23  1  0.52660000  0.59810000  0.35720000  1.0 -0.1295676158
C  C24  1  0.94620000  0.71370000  0.22170000  1.0 0.5818249657
C  C25  1  0.56560000  0.80140000  0.46760000  1.0 0.2589781954
C  C26  1  0.65540000  0.58580000  0.43490000  1.0 0.0514135546
C  C27  1  0.77630000  0.37410000  0.25300000  1.0 -0.1105340664
C  C28  1  0.48010000  0.70260000  0.37080000  1.0 -0.1593390071
C  C29  1  0.89090000  0.59220000  0.22810000  1.0 -0.1593390071
C  C30  1  0.83470000  0.25730000  0.10190000  1.0 0.5955075993
C  C31  1  0.70470000  0.47110000  0.41360000  1.0 0.175501205
C  C32  1  0.83650000  0.37600000  0.17030000  1.0 -0.1674504505
C  C33  1  0.74120000  0.68520000  0.52580000  1.0 -0.1105340664
C  C34  1  0.70090000  0.79290000  0.54170000  1.0 -0.1484801099
C  C35  1  0.34130000  0.70760000  0.27960000  1.0 0.4963887109
C  C36  1  0.80660000  0.89620000  0.63290000  1.0 0.5472382679
C  C37  1  0.58160000  0.36240000  0.36690000  1.0 -0.4484087205
C  C38  1  0.81690000  0.45580000  0.53300000  1.0 -0.4591272698
O  O1  1  0.63020000  0.93600000  0.78050000  1.0 -0.345423244
O  O2  1  0.04730000  0.50740000  0.92130000  1.0 -0.5769531653
O  O3  1  0.00850000  0.26580000  0.85700000  1.0 -0.5627948568
O  O4  1  0.73050000  0.38210000  0.80360000  1.0 -0.4484087205
O  O5  1  0.09220000  0.95400000  0.08290000  1.0 -0.6298310385
O  O6  1  0.11480000  0.74930000  0.97650000  1.0 -0.5627948568
O  O7  1  0.05520000  0.19670000  0.70700000  1.0 -0.5075516031
O  O8  1  0.21390000  0.99940000  0.35220000  1.0 -0.5025788919
O  O9  1  0.82520000  0.94600000  0.11140000  1.0 -0.6404501126
O  O10  1  0.21830000  0.83470000  0.87690000  1.0 -0.4928679989
O  O11  1  0.47990000  0.10350000  0.51170000  1.0 -0.5025788919
O  O12  1  0.07410000  0.11240000  0.30730000  1.0 -0.4484087205
O  O13  1  0.72360000  0.21830000  0.68330000  1.0 -0.1902118847
O  O14  1  0.69570000  0.09790000  0.41540000  1.0 -0.2703624443
O  O15  1  0.67830000  0.18880000  0.75260000  1.0 -0.1295676158
O  O16  1  0.60920000  0.99090000  0.33050000  1.0 -0.1484801099
O  O17  1  0.36980000  0.06400000  0.21950000  1.0 -0.345423244
O  O18  1  0.95270000  0.49260000  0.07870000  1.0 -0.5769531653
O  O19  1  0.99150000  0.73420000  0.14300000  1.0 -0.5627948568
O  O20  1  0.26950000  0.61790000  0.19640000  1.0 -0.4484087205
O  O21  1  0.90780000  0.04600000  0.91710000  1.0 -0.6298310385
O  O22  1  0.88520000  0.25070000  0.02350000  1.0 -0.5627948568
O  O23  1  0.94480000  0.80330000  0.29300000  1.0 -0.5075516031
O  O24  1  0.78610000  0.00060000  0.64780000  1.0 -0.5025788919
O  O25  1  0.17480000  0.05400000  0.88860000  1.0 -0.6404501126
O  O26  1  0.78170000  0.16530000  0.12310000  1.0 -0.4928679989
O  O27  1  0.52010000  0.89650000  0.48830000  1.0 -0.5025788919
O  O28  1  0.92590000  0.88760000  0.69270000  1.0 -0.4484087205
O  O29  1  0.27640000  0.78170000  0.31670000  1.0 -0.1902118847
O  O30  1  0.30430000  0.90210000  0.58460000  1.0 -0.2703624443
O  O31  1  0.32170000  0.81120000  0.24740000  1.0 -0.1295676158
O  O32  1  0.39080000  0.00910000  0.66950000  1.0 -0.1484801099
