# DDEC6 charges by PACMAN v1.1 (https://github.com/mtap-research/PACMAN-charge/)
data_FOTNIN_FSR_pacman
_symmetry_space_group_name_H-M   'P 1'
_cell_length_a   39.29290000
_cell_length_b   39.29290000
_cell_length_c   39.29290000
_cell_angle_alpha   60.00000000
_cell_angle_beta   60.00000000
_cell_angle_gamma   60.00000000
_symmetry_Int_Tables_number   1
_chemical_formula_structural   Zr3H12C24N3O16
_chemical_formula_sum   'Zr24 H96 C192 N24 O128'
_cell_volume   42897.03261237
_cell_formula_units_Z   8
loop_
 _symmetry_equiv_pos_site_id
 _symmetry_equiv_pos_as_xyz
  1  'x, y, z'
loop_
 _atom_site_type_symbol
 _atom_site_label
 _atom_site_symmetry_multiplicity
 _atom_site_fract_x
 _atom_site_fract_y
 _atom_site_fract_z
 _atom_site_occupancy
 _atom_site_charge
Zr  Zr1  1  0.80010000  0.89100000  0.41790000  1.0 2.5241259695
Zr  Zr2  1  0.89100000  0.41790000  0.80010000  1.0 2.5257832821
Zr  Zr3  1  0.89100000  0.80010000  0.89100000  1.0 2.5241259695
Zr  Zr4  1  0.41790000  0.89100000  0.89100000  1.0 2.5241259695
Zr  Zr5  1  0.89100000  0.89100000  0.80010000  1.0 2.5241259695
Zr  Zr6  1  0.89100000  0.41790000  0.89100000  1.0 2.5241259695
Zr  Zr7  1  0.41790000  0.80010000  0.89100000  1.0 2.5241259695
Zr  Zr8  1  0.41790000  0.89100000  0.80010000  1.0 2.5241259695
Zr  Zr9  1  0.80010000  0.89100000  0.89100000  1.0 2.5241259695
Zr  Zr10  1  0.80010000  0.41790000  0.89100000  1.0 2.5241259695
Zr  Zr11  1  0.89100000  0.89100000  0.41790000  1.0 2.5241259695
Zr  Zr12  1  0.89100000  0.80010000  0.41790000  1.0 2.5241259695
Zr  Zr13  1  0.85948000  0.95016000  0.33088000  1.0 2.462697885
Zr  Zr14  1  0.85948000  0.33088000  0.85948000  1.0 2.462697885
Zr  Zr15  1  0.95016000  0.85948000  0.85948000  1.0 2.462697885
Zr  Zr16  1  0.33088000  0.85948000  0.95016000  1.0 2.462697885
Zr  Zr17  1  0.85948000  0.33088000  0.95016000  1.0 2.462697885
Zr  Zr18  1  0.33088000  0.85948000  0.85948000  1.0 2.462697885
Zr  Zr19  1  0.95016000  0.33088000  0.85948000  1.0 2.462697885
Zr  Zr20  1  0.85948000  0.85948000  0.95016000  1.0 2.462697885
Zr  Zr21  1  0.33088000  0.95016000  0.85948000  1.0 2.462697885
Zr  Zr22  1  0.85948000  0.95016000  0.85948000  1.0 2.462697885
Zr  Zr23  1  0.95016000  0.85948000  0.33088000  1.0 2.462697885
Zr  Zr24  1  0.85948000  0.85948000  0.33088000  1.0 2.462697885
H  H1  1  0.71902000  0.82948000  0.53518000  1.0 0.1591431533
H  H2  1  0.91632000  0.53518000  0.71902000  1.0 0.1591431533
H  H3  1  0.82948000  0.71902000  0.91632000  1.0 0.1591431533
H  H4  1  0.53518000  0.91632000  0.82948000  1.0 0.1591431533
H  H5  1  0.82948000  0.91632000  0.71902000  1.0 0.1591431533
H  H6  1  0.91632000  0.53518000  0.82948000  1.0 0.1591431533
H  H7  1  0.53518000  0.71902000  0.91632000  1.0 0.1591431533
H  H8  1  0.82948000  0.53518000  0.91632000  1.0 0.1591431533
H  H9  1  0.53518000  0.91632000  0.71902000  1.0 0.1591431533
H  H10  1  0.91632000  0.71902000  0.82948000  1.0 0.1591431533
H  H11  1  0.53518000  0.71902000  0.82948000  1.0 0.1591431533
H  H12  1  0.82948000  0.53518000  0.71902000  1.0 0.1591431533
H  H13  1  0.53518000  0.82948000  0.91632000  1.0 0.1591431533
H  H14  1  0.91632000  0.82948000  0.71902000  1.0 0.1591431533
H  H15  1  0.71902000  0.91632000  0.82948000  1.0 0.1591431533
H  H16  1  0.71902000  0.53518000  0.91632000  1.0 0.1591431533
H  H17  1  0.82948000  0.91632000  0.53518000  1.0 0.1591431533
H  H18  1  0.91632000  0.71902000  0.53518000  1.0 0.1591431533
H  H19  1  0.71902000  0.82948000  0.91632000  1.0 0.1591431533
H  H20  1  0.82948000  0.71902000  0.53518000  1.0 0.1591431533
H  H21  1  0.91632000  0.82948000  0.53518000  1.0 0.1591431533
H  H22  1  0.71902000  0.53518000  0.82948000  1.0 0.1591431533
H  H23  1  0.71902000  0.91632000  0.53518000  1.0 0.1591431533
H  H24  1  0.53518000  0.82948000  0.71902000  1.0 0.1591431533
H  H25  1  0.68021000  0.79067000  0.60317000  1.0 0.1533444333
H  H26  1  0.92595000  0.60317000  0.68021000  1.0 0.1533444333
H  H27  1  0.79067000  0.68021000  0.92595000  1.0 0.1533444333
H  H28  1  0.60317000  0.92595000  0.79067000  1.0 0.1533444333
H  H29  1  0.79067000  0.92595000  0.68021000  1.0 0.1533444333
H  H30  1  0.92595000  0.60317000  0.79067000  1.0 0.1533444333
H  H31  1  0.60317000  0.68021000  0.92595000  1.0 0.1533444333
H  H32  1  0.79067000  0.60317000  0.92595000  1.0 0.1533444333
H  H33  1  0.60317000  0.92595000  0.68021000  1.0 0.1533444333
H  H34  1  0.92595000  0.68021000  0.79067000  1.0 0.1533444333
H  H35  1  0.60317000  0.68021000  0.79067000  1.0 0.1533444333
H  H36  1  0.79067000  0.60317000  0.68021000  1.0 0.1533444333
H  H37  1  0.60317000  0.79067000  0.92595000  1.0 0.1533444333
H  H38  1  0.92595000  0.79067000  0.68021000  1.0 0.1533444333
H  H39  1  0.68021000  0.92595000  0.79067000  1.0 0.1533444333
H  H40  1  0.68021000  0.60317000  0.92595000  1.0 0.1533444333
H  H41  1  0.79067000  0.92595000  0.60317000  1.0 0.1533444333
H  H42  1  0.92595000  0.68021000  0.60317000  1.0 0.1533444333
H  H43  1  0.68021000  0.79067000  0.92595000  1.0 0.1533444333
H  H44  1  0.79067000  0.68021000  0.60317000  1.0 0.1533444333
H  H45  1  0.92595000  0.79067000  0.60317000  1.0 0.1533444333
H  H46  1  0.68021000  0.60317000  0.79067000  1.0 0.1533444333
H  H47  1  0.68021000  0.92595000  0.60317000  1.0 0.1533444333
H  H48  1  0.60317000  0.79067000  0.68021000  1.0 0.1533444333
H  H49  1  0.91937000  0.02983000  0.21273000  1.0 0.1591431533
H  H50  1  0.83807000  0.21273000  0.91937000  1.0 0.1591431533
H  H51  1  0.02983000  0.91937000  0.83807000  1.0 0.1591431533
H  H52  1  0.21273000  0.83807000  0.02983000  1.0 0.1591431533
H  H53  1  0.02983000  0.83807000  0.91937000  1.0 0.1591431533
H  H54  1  0.83807000  0.21273000  0.02983000  1.0 0.1591431533
H  H55  1  0.21273000  0.91937000  0.83807000  1.0 0.1591431533
H  H56  1  0.02983000  0.21273000  0.83807000  1.0 0.1591431533
H  H57  1  0.21273000  0.83807000  0.91937000  1.0 0.1591431533
H  H58  1  0.83807000  0.91937000  0.02983000  1.0 0.1591431533
H  H59  1  0.21273000  0.91937000  0.02983000  1.0 0.1591431533
H  H60  1  0.02983000  0.21273000  0.91937000  1.0 0.1591431533
H  H61  1  0.21273000  0.02983000  0.83807000  1.0 0.1591431533
H  H62  1  0.83807000  0.02983000  0.91937000  1.0 0.1591431533
H  H63  1  0.91937000  0.83807000  0.02983000  1.0 0.1591431533
H  H64  1  0.91937000  0.21273000  0.83807000  1.0 0.1591431533
H  H65  1  0.02983000  0.83807000  0.21273000  1.0 0.1591431533
H  H66  1  0.83807000  0.91937000  0.21273000  1.0 0.1591431533
H  H67  1  0.91937000  0.02983000  0.83807000  1.0 0.1591431533
H  H68  1  0.02983000  0.91937000  0.21273000  1.0 0.1591431533
H  H69  1  0.83807000  0.02983000  0.21273000  1.0 0.1591431533
H  H70  1  0.91937000  0.21273000  0.02983000  1.0 0.1591431533
H  H71  1  0.91937000  0.83807000  0.21273000  1.0 0.1591431533
H  H72  1  0.21273000  0.02983000  0.91937000  1.0 0.1591431533
H  H73  1  0.95818000  0.06864000  0.14474000  1.0 0.1533444333
H  H74  1  0.82844000  0.14474000  0.95818000  1.0 0.1533444333
H  H75  1  0.06864000  0.95818000  0.82844000  1.0 0.1533444333
H  H76  1  0.14474000  0.82844000  0.06864000  1.0 0.1533444333
H  H77  1  0.06864000  0.82844000  0.95818000  1.0 0.1533444333
H  H78  1  0.82844000  0.14474000  0.06864000  1.0 0.1533444333
H  H79  1  0.14474000  0.95818000  0.82844000  1.0 0.1533444333
H  H80  1  0.06864000  0.14474000  0.82844000  1.0 0.1533444333
H  H81  1  0.14474000  0.82844000  0.95818000  1.0 0.1533444333
H  H82  1  0.82844000  0.95818000  0.06864000  1.0 0.1533444333
H  H83  1  0.14474000  0.95818000  0.06864000  1.0 0.1533444333
H  H84  1  0.06864000  0.14474000  0.95818000  1.0 0.1533444333
H  H85  1  0.14474000  0.06864000  0.82844000  1.0 0.1533444333
H  H86  1  0.82844000  0.06864000  0.95818000  1.0 0.1533444333
H  H87  1  0.95818000  0.82844000  0.06864000  1.0 0.1533444333
H  H88  1  0.95818000  0.14474000  0.82844000  1.0 0.1533444333
H  H89  1  0.06864000  0.82844000  0.14474000  1.0 0.1533444333
H  H90  1  0.82844000  0.95818000  0.14474000  1.0 0.1533444333
H  H91  1  0.95818000  0.06864000  0.82844000  1.0 0.1533444333
H  H92  1  0.06864000  0.95818000  0.14474000  1.0 0.1533444333
H  H93  1  0.82844000  0.06864000  0.14474000  1.0 0.1533444333
H  H94  1  0.95818000  0.14474000  0.06864000  1.0 0.1533444333
H  H95  1  0.95818000  0.82844000  0.14474000  1.0 0.1533444333
H  H96  1  0.14474000  0.06864000  0.95818000  1.0 0.1533444333
C  C1  1  0.80209000  0.80209000  0.49005000  1.0 0.6823746826
C  C2  1  0.90577000  0.49005000  0.80209000  1.0 0.6823746826
C  C3  1  0.80209000  0.80209000  0.90577000  1.0 0.6823746826
C  C4  1  0.49005000  0.90577000  0.80209000  1.0 0.6823746826
C  C5  1  0.80209000  0.90577000  0.80209000  1.0 0.6823746826
C  C6  1  0.49005000  0.80209000  0.90577000  1.0 0.6823746826
C  C7  1  0.80209000  0.49005000  0.90577000  1.0 0.6823746826
C  C8  1  0.90577000  0.80209000  0.80209000  1.0 0.6823746826
C  C9  1  0.49005000  0.80209000  0.80209000  1.0 0.6823746826
C  C10  1  0.80209000  0.49005000  0.80209000  1.0 0.6823746826
C  C11  1  0.80209000  0.90577000  0.49005000  1.0 0.6823746826
C  C12  1  0.90577000  0.80209000  0.49005000  1.0 0.6823746826
C  C13  1  0.77746000  0.77746000  0.52968000  1.0 -0.0030475653
C  C14  1  0.91540000  0.52968000  0.77746000  1.0 -0.0030475653
C  C15  1  0.77746000  0.77746000  0.91540000  1.0 -0.0030475653
C  C16  1  0.52968000  0.91540000  0.77746000  1.0 -0.0030475653
C  C17  1  0.77746000  0.91540000  0.77746000  1.0 -0.0030475653
C  C18  1  0.52968000  0.77746000  0.91540000  1.0 -0.0030475653
C  C19  1  0.77746000  0.52968000  0.91540000  1.0 -0.0030475653
C  C20  1  0.91540000  0.77746000  0.77746000  1.0 -0.0030475653
C  C21  1  0.52968000  0.77746000  0.77746000  1.0 -0.0030475653
C  C22  1  0.77746000  0.52968000  0.77746000  1.0 -0.0030475653
C  C23  1  0.77746000  0.91540000  0.52968000  1.0 -0.0030475653
C  C24  1  0.91540000  0.77746000  0.52968000  1.0 -0.0030475653
C  C25  1  0.73494000  0.79680000  0.54944000  1.0 -0.039725986
C  C26  1  0.91882000  0.54944000  0.73494000  1.0 -0.039725986
C  C27  1  0.79680000  0.73494000  0.91882000  1.0 -0.039725986
C  C28  1  0.54944000  0.91882000  0.79680000  1.0 -0.039725986
C  C29  1  0.79680000  0.91882000  0.73494000  1.0 -0.039725986
C  C30  1  0.91882000  0.54944000  0.79680000  1.0 -0.039725986
C  C31  1  0.54944000  0.73494000  0.91882000  1.0 -0.039725986
C  C32  1  0.79680000  0.54944000  0.91882000  1.0 -0.039725986
C  C33  1  0.54944000  0.91882000  0.73494000  1.0 -0.039725986
C  C34  1  0.91882000  0.73494000  0.79680000  1.0 -0.039725986
C  C35  1  0.54944000  0.73494000  0.79680000  1.0 -0.039725986
C  C36  1  0.79680000  0.54944000  0.73494000  1.0 -0.039725986
C  C37  1  0.54944000  0.79680000  0.91882000  1.0 -0.039725986
C  C38  1  0.91882000  0.79680000  0.73494000  1.0 -0.039725986
C  C39  1  0.73494000  0.91882000  0.79680000  1.0 -0.039725986
C  C40  1  0.73494000  0.54944000  0.91882000  1.0 -0.039725986
C  C41  1  0.79680000  0.91882000  0.54944000  1.0 -0.039725986
C  C42  1  0.91882000  0.73494000  0.54944000  1.0 -0.039725986
C  C43  1  0.73494000  0.79680000  0.91882000  1.0 -0.039725986
C  C44  1  0.79680000  0.73494000  0.54944000  1.0 -0.039725986
C  C45  1  0.91882000  0.79680000  0.54944000  1.0 -0.039725986
C  C46  1  0.73494000  0.54944000  0.79680000  1.0 -0.039725986
C  C47  1  0.73494000  0.91882000  0.54944000  1.0 -0.039725986
C  C48  1  0.54944000  0.79680000  0.73494000  1.0 -0.039725986
C  C49  1  0.71267000  0.77451000  0.58853000  1.0 -0.0524663338
C  C50  1  0.92429000  0.58853000  0.71267000  1.0 -0.0524663338
C  C51  1  0.77451000  0.71267000  0.92429000  1.0 -0.0524663338
C  C52  1  0.58853000  0.92429000  0.77451000  1.0 -0.0524663338
C  C53  1  0.77451000  0.92429000  0.71267000  1.0 -0.0524663338
C  C54  1  0.92429000  0.58853000  0.77451000  1.0 -0.0524663338
C  C55  1  0.58853000  0.71267000  0.92429000  1.0 -0.0524663338
C  C56  1  0.77451000  0.58853000  0.92429000  1.0 -0.0524663338
C  C57  1  0.58853000  0.92429000  0.71267000  1.0 -0.0524663338
C  C58  1  0.92429000  0.71267000  0.77451000  1.0 -0.0524663338
C  C59  1  0.58853000  0.71267000  0.77451000  1.0 -0.0524663338
C  C60  1  0.77451000  0.58853000  0.71267000  1.0 -0.0524663338
C  C61  1  0.58853000  0.77451000  0.92429000  1.0 -0.0524663338
C  C62  1  0.92429000  0.77451000  0.71267000  1.0 -0.0524663338
C  C63  1  0.71267000  0.92429000  0.77451000  1.0 -0.0524663338
C  C64  1  0.71267000  0.58853000  0.92429000  1.0 -0.0524663338
C  C65  1  0.77451000  0.92429000  0.58853000  1.0 -0.0524663338
C  C66  1  0.92429000  0.71267000  0.58853000  1.0 -0.0524663338
C  C67  1  0.71267000  0.77451000  0.92429000  1.0 -0.0524663338
C  C68  1  0.77451000  0.71267000  0.58853000  1.0 -0.0524663338
C  C69  1  0.92429000  0.77451000  0.58853000  1.0 -0.0524663338
C  C70  1  0.71267000  0.58853000  0.77451000  1.0 -0.0524663338
C  C71  1  0.71267000  0.92429000  0.58853000  1.0 -0.0524663338
C  C72  1  0.58853000  0.77451000  0.71267000  1.0 -0.0524663338
C  C73  1  0.73235000  0.73235000  0.60885000  1.0 0.0549559857
C  C74  1  0.92645000  0.60885000  0.73235000  1.0 0.0607685916
C  C75  1  0.73235000  0.73235000  0.92645000  1.0 0.0607685916
C  C76  1  0.60885000  0.92645000  0.73235000  1.0 0.0549559857
C  C77  1  0.73235000  0.92645000  0.73235000  1.0 0.0549559857
C  C78  1  0.60885000  0.73235000  0.92645000  1.0 0.0549559857
C  C79  1  0.73235000  0.60885000  0.92645000  1.0 0.0607685916
C  C80  1  0.92645000  0.73235000  0.73235000  1.0 0.0549559857
C  C81  1  0.60885000  0.73235000  0.73235000  1.0 0.0549559857
C  C82  1  0.73235000  0.60885000  0.73235000  1.0 0.0549559857
C  C83  1  0.73235000  0.92645000  0.60885000  1.0 0.0607685916
C  C84  1  0.92645000  0.73235000  0.60885000  1.0 0.0549559857
C  C85  1  0.70965000  0.70965000  0.65171000  1.0 0.4377907828
C  C86  1  0.92899000  0.65171000  0.70965000  1.0 0.4377907828
C  C87  1  0.70965000  0.70965000  0.92899000  1.0 0.4377907828
C  C88  1  0.65171000  0.92899000  0.70965000  1.0 0.4377907828
C  C89  1  0.70965000  0.92899000  0.70965000  1.0 0.4377907828
C  C90  1  0.65171000  0.70965000  0.92899000  1.0 0.4377907828
C  C91  1  0.70965000  0.65171000  0.92899000  1.0 0.4377907828
C  C92  1  0.92899000  0.70965000  0.70965000  1.0 0.4377907828
C  C93  1  0.65171000  0.70965000  0.70965000  1.0 0.4377907828
C  C94  1  0.70965000  0.65171000  0.70965000  1.0 0.4377907828
C  C95  1  0.70965000  0.92899000  0.65171000  1.0 0.4377907828
C  C96  1  0.92899000  0.70965000  0.65171000  1.0 0.4377907828
C  C97  1  0.94676000  0.94676000  0.25786000  1.0 0.6494151965
C  C98  1  0.84862000  0.25786000  0.94676000  1.0 0.6494151965
C  C99  1  0.94676000  0.94676000  0.84862000  1.0 0.6494151965
C  C100  1  0.25786000  0.84862000  0.94676000  1.0 0.6494151965
C  C101  1  0.94676000  0.84862000  0.94676000  1.0 0.6494151965
C  C102  1  0.25786000  0.94676000  0.84862000  1.0 0.6494151965
C  C103  1  0.94676000  0.25786000  0.84862000  1.0 0.6494151965
C  C104  1  0.84862000  0.94676000  0.94676000  1.0 0.6494151965
C  C105  1  0.25786000  0.94676000  0.94676000  1.0 0.6494151965
C  C106  1  0.94676000  0.25786000  0.94676000  1.0 0.6494151965
C  C107  1  0.94676000  0.84862000  0.25786000  1.0 0.6494151965
C  C108  1  0.84862000  0.94676000  0.25786000  1.0 0.6494151965
C  C109  1  0.97139000  0.97139000  0.21823000  1.0 -0.0151361756
C  C110  1  0.83899000  0.21823000  0.97139000  1.0 -0.0151361756
C  C111  1  0.97139000  0.97139000  0.83899000  1.0 -0.0151361756
C  C112  1  0.21823000  0.83899000  0.97139000  1.0 -0.0151361756
C  C113  1  0.97139000  0.83899000  0.97139000  1.0 -0.0151361756
C  C114  1  0.21823000  0.97139000  0.83899000  1.0 -0.0151361756
C  C115  1  0.97139000  0.21823000  0.83899000  1.0 -0.0151361756
C  C116  1  0.83899000  0.97139000  0.97139000  1.0 -0.0151361756
C  C117  1  0.21823000  0.97139000  0.97139000  1.0 -0.0151361756
C  C118  1  0.97139000  0.21823000  0.97139000  1.0 -0.0151361756
C  C119  1  0.97139000  0.83899000  0.21823000  1.0 -0.0145031323
C  C120  1  0.83899000  0.97139000  0.21823000  1.0 -0.0151361756
C  C121  1  0.95205000  0.01391000  0.19847000  1.0 -0.039725986
C  C122  1  0.83557000  0.19847000  0.95205000  1.0 -0.039725986
C  C123  1  0.01391000  0.95205000  0.83557000  1.0 -0.039725986
C  C124  1  0.19847000  0.83557000  0.01391000  1.0 -0.039725986
C  C125  1  0.01391000  0.83557000  0.95205000  1.0 -0.039725986
C  C126  1  0.83557000  0.19847000  0.01391000  1.0 -0.039725986
C  C127  1  0.19847000  0.95205000  0.83557000  1.0 -0.039725986
C  C128  1  0.01391000  0.19847000  0.83557000  1.0 -0.039725986
C  C129  1  0.19847000  0.83557000  0.95205000  1.0 -0.039725986
C  C130  1  0.83557000  0.95205000  0.01391000  1.0 -0.039725986
C  C131  1  0.19847000  0.95205000  0.01391000  1.0 -0.039725986
C  C132  1  0.01391000  0.19847000  0.95205000  1.0 -0.039725986
C  C133  1  0.19847000  0.01391000  0.83557000  1.0 -0.039725986
C  C134  1  0.83557000  0.01391000  0.95205000  1.0 -0.039725986
C  C135  1  0.95205000  0.83557000  0.01391000  1.0 -0.039725986
C  C136  1  0.95205000  0.19847000  0.83557000  1.0 -0.039725986
C  C137  1  0.01391000  0.83557000  0.19847000  1.0 -0.039725986
C  C138  1  0.83557000  0.95205000  0.19847000  1.0 -0.039725986
C  C139  1  0.95205000  0.01391000  0.83557000  1.0 -0.039725986
C  C140  1  0.01391000  0.95205000  0.19847000  1.0 -0.039725986
C  C141  1  0.83557000  0.01391000  0.19847000  1.0 -0.039725986
C  C142  1  0.95205000  0.19847000  0.01391000  1.0 -0.039725986
C  C143  1  0.95205000  0.83557000  0.19847000  1.0 -0.039725986
C  C144  1  0.19847000  0.01391000  0.95205000  1.0 -0.039725986
C  C145  1  0.97434000  0.03618000  0.15938000  1.0 -0.0555205031
C  C146  1  0.83010000  0.15938000  0.97434000  1.0 -0.0555205031
C  C147  1  0.03618000  0.97434000  0.83010000  1.0 -0.0555205031
C  C148  1  0.15938000  0.83010000  0.03618000  1.0 -0.0555205031
C  C149  1  0.03618000  0.83010000  0.97434000  1.0 -0.0555205031
C  C150  1  0.83010000  0.15938000  0.03618000  1.0 -0.0555205031
C  C151  1  0.15938000  0.97434000  0.83010000  1.0 -0.0555205031
C  C152  1  0.03618000  0.15938000  0.83010000  1.0 -0.0555205031
C  C153  1  0.15938000  0.83010000  0.97434000  1.0 -0.0555205031
C  C154  1  0.83010000  0.97434000  0.03618000  1.0 -0.0555205031
C  C155  1  0.15938000  0.97434000  0.03618000  1.0 -0.0555205031
C  C156  1  0.03618000  0.15938000  0.97434000  1.0 -0.0555205031
C  C157  1  0.15938000  0.03618000  0.83010000  1.0 -0.0555205031
C  C158  1  0.83010000  0.03618000  0.97434000  1.0 -0.0555205031
C  C159  1  0.97434000  0.83010000  0.03618000  1.0 -0.0555205031
C  C160  1  0.97434000  0.15938000  0.83010000  1.0 -0.0555205031
C  C161  1  0.03618000  0.83010000  0.15938000  1.0 -0.0555205031
C  C162  1  0.83010000  0.97434000  0.15938000  1.0 -0.0555205031
C  C163  1  0.97434000  0.03618000  0.83010000  1.0 -0.0555205031
C  C164  1  0.03618000  0.97434000  0.15938000  1.0 -0.0555205031
C  C165  1  0.83010000  0.03618000  0.15938000  1.0 -0.0555205031
C  C166  1  0.97434000  0.15938000  0.03618000  1.0 -0.0555205031
C  C167  1  0.97434000  0.83010000  0.15938000  1.0 -0.0555205031
C  C168  1  0.15938000  0.03618000  0.97434000  1.0 -0.0555205031
C  C169  1  0.01650000  0.01650000  0.13906000  1.0 0.0607685916
C  C170  1  0.82794000  0.13906000  0.01650000  1.0 0.0607685916
C  C171  1  0.01650000  0.01650000  0.82794000  1.0 0.0607685916
C  C172  1  0.13906000  0.82794000  0.01650000  1.0 0.0607685916
C  C173  1  0.01650000  0.82794000  0.01650000  1.0 0.0607685916
C  C174  1  0.13906000  0.01650000  0.82794000  1.0 0.0607685916
C  C175  1  0.01650000  0.13906000  0.82794000  1.0 0.0607685916
C  C176  1  0.82794000  0.01650000  0.01650000  1.0 0.0607685916
C  C177  1  0.13906000  0.01650000  0.01650000  1.0 0.0607685916
C  C178  1  0.01650000  0.13906000  0.01650000  1.0 0.0607685916
C  C179  1  0.01650000  0.82794000  0.13906000  1.0 0.0607685916
C  C180  1  0.82794000  0.01650000  0.13906000  1.0 0.0607685916
C  C181  1  0.03920000  0.03920000  0.09620000  1.0 0.4281511124
C  C182  1  0.82540000  0.09620000  0.03920000  1.0 0.4244668151
C  C183  1  0.03920000  0.03920000  0.82540000  1.0 0.4244668151
C  C184  1  0.09620000  0.82540000  0.03920000  1.0 0.4244668151
C  C185  1  0.03920000  0.82540000  0.03920000  1.0 0.4244668151
C  C186  1  0.09620000  0.03920000  0.82540000  1.0 0.4244668151
C  C187  1  0.03920000  0.09620000  0.82540000  1.0 0.4281511124
C  C188  1  0.82540000  0.03920000  0.03920000  1.0 0.4244668151
C  C189  1  0.09620000  0.03920000  0.03920000  1.0 0.4244668151
C  C190  1  0.03920000  0.09620000  0.03920000  1.0 0.4244668151
C  C191  1  0.03920000  0.82540000  0.09620000  1.0 0.4244668151
C  C192  1  0.82540000  0.03920000  0.09620000  1.0 0.4244668151
N  N1  1  0.72825000  0.67081000  0.67081000  1.0 -0.3505597025
N  N2  1  0.93013000  0.67081000  0.72825000  1.0 -0.3505597025
N  N3  1  0.67081000  0.72825000  0.93013000  1.0 -0.3505597025
N  N4  1  0.67081000  0.93013000  0.67081000  1.0 -0.3505597025
N  N5  1  0.67081000  0.93013000  0.72825000  1.0 -0.3505597025
N  N6  1  0.93013000  0.67081000  0.67081000  1.0 -0.3505597025
N  N7  1  0.67081000  0.67081000  0.93013000  1.0 -0.3505597025
N  N8  1  0.93013000  0.72825000  0.67081000  1.0 -0.3505597025
N  N9  1  0.67081000  0.72825000  0.67081000  1.0 -0.3505597025
N  N10  1  0.67081000  0.67081000  0.72825000  1.0 -0.3505597025
N  N11  1  0.72825000  0.93013000  0.67081000  1.0 -0.3505597025
N  N12  1  0.72825000  0.67081000  0.93013000  1.0 -0.3505597025
N  N13  1  0.07757000  0.02107000  0.07757000  1.0 -0.3435726424
N  N14  1  0.82379000  0.07757000  0.07757000  1.0 -0.3435726424
N  N15  1  0.02107000  0.07757000  0.82379000  1.0 -0.3435726424
N  N16  1  0.07757000  0.82379000  0.02107000  1.0 -0.3435726424
N  N17  1  0.02107000  0.82379000  0.07757000  1.0 -0.3435726424
N  N18  1  0.82379000  0.07757000  0.02107000  1.0 -0.3435726424
N  N19  1  0.07757000  0.07757000  0.82379000  1.0 -0.3435726424
N  N20  1  0.07757000  0.82379000  0.07757000  1.0 -0.3435726424
N  N21  1  0.07757000  0.07757000  0.02107000  1.0 -0.3435726424
N  N22  1  0.02107000  0.07757000  0.07757000  1.0 -0.3435726424
N  N23  1  0.07757000  0.02107000  0.82379000  1.0 -0.3435726424
N  N24  1  0.82379000  0.02107000  0.07757000  1.0 -0.3435726424
O  O1  1  0.82316000  0.91316000  0.35052000  1.0 -1.1010852152
O  O2  1  0.91316000  0.35052000  0.82316000  1.0 -1.1010852152
O  O3  1  0.91316000  0.82316000  0.91316000  1.0 -1.1010852152
O  O4  1  0.35052000  0.91316000  0.91316000  1.0 -1.1010852152
O  O5  1  0.91316000  0.91316000  0.82316000  1.0 -1.1010852152
O  O6  1  0.91316000  0.35052000  0.91316000  1.0 -1.1010852152
O  O7  1  0.35052000  0.82316000  0.91316000  1.0 -1.1069730704
O  O8  1  0.35052000  0.91316000  0.82316000  1.0 -1.1010852152
O  O9  1  0.82316000  0.91316000  0.91316000  1.0 -1.1010852152
O  O10  1  0.82316000  0.35052000  0.91316000  1.0 -1.1010852152
O  O11  1  0.91316000  0.91316000  0.35052000  1.0 -1.1010852152
O  O12  1  0.91316000  0.82316000  0.35052000  1.0 -1.1010852152
O  O13  1  0.83727000  0.92769000  0.39777000  1.0 -1.1255515203
O  O14  1  0.83727000  0.39777000  0.83727000  1.0 -1.1225420155
O  O15  1  0.92769000  0.83727000  0.83727000  1.0 -1.1225420155
O  O16  1  0.39777000  0.83727000  0.92769000  1.0 -1.1225420155
O  O17  1  0.83727000  0.39777000  0.92769000  1.0 -1.1225420155
O  O18  1  0.39777000  0.83727000  0.83727000  1.0 -1.1255515203
O  O19  1  0.92769000  0.39777000  0.83727000  1.0 -1.1225420155
O  O20  1  0.83727000  0.83727000  0.92769000  1.0 -1.1225420155
O  O21  1  0.39777000  0.92769000  0.83727000  1.0 -1.1255515203
O  O22  1  0.83727000  0.92769000  0.83727000  1.0 -1.1225420155
O  O23  1  0.92769000  0.83727000  0.39777000  1.0 -1.1225420155
O  O24  1  0.83727000  0.83727000  0.39777000  1.0 -1.1225420155
O  O25  1  0.85355000  0.85355000  0.43935000  1.0 -1.0228499358
O  O26  1  0.85355000  0.43935000  0.85355000  1.0 -1.0289214437
O  O27  1  0.85355000  0.85355000  0.85355000  1.0 -1.0289214437
O  O28  1  0.43935000  0.85355000  0.85355000  1.0 -1.0228499358
O  O29  1  0.89682000  0.89682000  0.30954000  1.0 -0.955967683
O  O30  1  0.89682000  0.30954000  0.89682000  1.0 -0.9527214949
O  O31  1  0.89682000  0.89682000  0.89682000  1.0 -0.9527214949
O  O32  1  0.30954000  0.89682000  0.89682000  1.0 -0.9527214949
O  O33  1  0.75147000  0.95075000  0.40711000  1.0 -0.6617745855
O  O34  1  0.89067000  0.40711000  0.75147000  1.0 -0.6496486512
O  O35  1  0.95075000  0.75147000  0.89067000  1.0 -0.6617745855
O  O36  1  0.40711000  0.89067000  0.95075000  1.0 -0.6496486512
O  O37  1  0.95075000  0.89067000  0.75147000  1.0 -0.6496486512
O  O38  1  0.89067000  0.40711000  0.95075000  1.0 -0.6496486512
O  O39  1  0.40711000  0.75147000  0.89067000  1.0 -0.6496486512
O  O40  1  0.95075000  0.40711000  0.89067000  1.0 -0.6496486512
O  O41  1  0.40711000  0.89067000  0.75147000  1.0 -0.6496486512
O  O42  1  0.89067000  0.75147000  0.95075000  1.0 -0.6441309039
O  O43  1  0.40711000  0.75147000  0.95075000  1.0 -0.6496486512
O  O44  1  0.95075000  0.40711000  0.75147000  1.0 -0.6496486512
O  O45  1  0.40711000  0.95075000  0.89067000  1.0 -0.6617745855
O  O46  1  0.89067000  0.95075000  0.75147000  1.0 -0.6496486512
O  O47  1  0.75147000  0.89067000  0.95075000  1.0 -0.6496486512
O  O48  1  0.75147000  0.40711000  0.89067000  1.0 -0.6496486512
O  O49  1  0.95075000  0.89067000  0.40711000  1.0 -0.6617745855
O  O50  1  0.89067000  0.75147000  0.40711000  1.0 -0.6617745855
O  O51  1  0.75147000  0.95075000  0.89067000  1.0 -0.6496486512
O  O52  1  0.95075000  0.75147000  0.40711000  1.0 -0.6617745855
O  O53  1  0.89067000  0.95075000  0.40711000  1.0 -0.6496486512
O  O54  1  0.75147000  0.40711000  0.95075000  1.0 -0.6496486512
O  O55  1  0.75147000  0.89067000  0.40711000  1.0 -0.6617745855
O  O56  1  0.40711000  0.95075000  0.75147000  1.0 -0.6496486512
O  O57  1  0.80498000  0.00466000  0.32608000  1.0 -0.5887759312
O  O58  1  0.86428000  0.32608000  0.80498000  1.0 -0.5887759312
O  O59  1  0.00466000  0.80498000  0.86428000  1.0 -0.5887759312
O  O60  1  0.32608000  0.86428000  0.00466000  1.0 -0.5887759312
O  O61  1  0.00466000  0.86428000  0.80498000  1.0 -0.5887759312
O  O62  1  0.86428000  0.32608000  0.00466000  1.0 -0.6019425509
O  O63  1  0.32608000  0.80498000  0.86428000  1.0 -0.5887759312
O  O64  1  0.00466000  0.32608000  0.86428000  1.0 -0.5887759312
O  O65  1  0.32608000  0.86428000  0.80498000  1.0 -0.5887759312
O  O66  1  0.86428000  0.80498000  0.00466000  1.0 -0.6019425509
O  O67  1  0.32608000  0.80498000  0.00466000  1.0 -0.6019425509
O  O68  1  0.00466000  0.32608000  0.80498000  1.0 -0.6019425509
O  O69  1  0.32608000  0.00466000  0.86428000  1.0 -0.5887759312
O  O70  1  0.86428000  0.00466000  0.80498000  1.0 -0.5887759312
O  O71  1  0.80498000  0.86428000  0.00466000  1.0 -0.6019425509
O  O72  1  0.80498000  0.32608000  0.86428000  1.0 -0.5887759312
O  O73  1  0.00466000  0.86428000  0.32608000  1.0 -0.5887759312
O  O74  1  0.86428000  0.80498000  0.32608000  1.0 -0.6019425509
O  O75  1  0.80498000  0.00466000  0.86428000  1.0 -0.5887759312
O  O76  1  0.00466000  0.80498000  0.32608000  1.0 -0.6019425509
O  O77  1  0.86428000  0.00466000  0.32608000  1.0 -0.5887759312
O  O78  1  0.80498000  0.32608000  0.00466000  1.0 -0.6019425509
O  O79  1  0.80498000  0.86428000  0.32608000  1.0 -0.6019425509
O  O80  1  0.32608000  0.00466000  0.80498000  1.0 -0.5887759312
O  O81  1  0.78315000  0.84129000  0.47435000  1.0 -0.5506709873
O  O82  1  0.90121000  0.47435000  0.78315000  1.0 -0.5506709873
O  O83  1  0.84129000  0.78315000  0.90121000  1.0 -0.5506709873
O  O84  1  0.47435000  0.90121000  0.84129000  1.0 -0.5506709873
O  O85  1  0.84129000  0.90121000  0.78315000  1.0 -0.5506709873
O  O86  1  0.90121000  0.47435000  0.84129000  1.0 -0.5506709873
O  O87  1  0.47435000  0.78315000  0.90121000  1.0 -0.5506709873
O  O88  1  0.84129000  0.47435000  0.90121000  1.0 -0.5506709873
O  O89  1  0.47435000  0.90121000  0.78315000  1.0 -0.5506709873
O  O90  1  0.90121000  0.78315000  0.84129000  1.0 -0.5506709873
O  O91  1  0.47435000  0.78315000  0.84129000  1.0 -0.5506709873
O  O92  1  0.84129000  0.47435000  0.78315000  1.0 -0.5506709873
O  O93  1  0.47435000  0.84129000  0.90121000  1.0 -0.5506709873
O  O94  1  0.90121000  0.84129000  0.78315000  1.0 -0.5506709873
O  O95  1  0.78315000  0.90121000  0.84129000  1.0 -0.5506709873
O  O96  1  0.78315000  0.47435000  0.90121000  1.0 -0.5506709873
O  O97  1  0.84129000  0.90121000  0.47435000  1.0 -0.5506709873
O  O98  1  0.90121000  0.78315000  0.47435000  1.0 -0.5506709873
O  O99  1  0.78315000  0.84129000  0.90121000  1.0 -0.5506709873
O  O100  1  0.84129000  0.78315000  0.47435000  1.0 -0.5506709873
O  O101  1  0.90121000  0.84129000  0.47435000  1.0 -0.5506709873
O  O102  1  0.78315000  0.47435000  0.84129000  1.0 -0.5506709873
O  O103  1  0.78315000  0.90121000  0.47435000  1.0 -0.5506709873
O  O104  1  0.47435000  0.84129000  0.78315000  1.0 -0.5506709873
O  O105  1  0.90756000  0.96570000  0.27356000  1.0 -0.4913693701
O  O106  1  0.85318000  0.27356000  0.90756000  1.0 -0.4913693701
O  O107  1  0.96570000  0.90756000  0.85318000  1.0 -0.4913693701
O  O108  1  0.27356000  0.85318000  0.96570000  1.0 -0.4913693701
O  O109  1  0.96570000  0.85318000  0.90756000  1.0 -0.4913693701
O  O110  1  0.85318000  0.27356000  0.96570000  1.0 -0.4913693701
O  O111  1  0.27356000  0.90756000  0.85318000  1.0 -0.4913693701
O  O112  1  0.96570000  0.27356000  0.85318000  1.0 -0.4913693701
O  O113  1  0.27356000  0.85318000  0.90756000  1.0 -0.4913693701
O  O114  1  0.85318000  0.90756000  0.96570000  1.0 -0.4913693701
O  O115  1  0.27356000  0.90756000  0.96570000  1.0 -0.4913693701
O  O116  1  0.96570000  0.27356000  0.90756000  1.0 -0.4913693701
O  O117  1  0.27356000  0.96570000  0.85318000  1.0 -0.4913693701
O  O118  1  0.85318000  0.96570000  0.90756000  1.0 -0.4913693701
O  O119  1  0.90756000  0.85318000  0.96570000  1.0 -0.4913693701
O  O120  1  0.90756000  0.27356000  0.85318000  1.0 -0.4913693701
O  O121  1  0.96570000  0.85318000  0.27356000  1.0 -0.4913693701
O  O122  1  0.85318000  0.90756000  0.27356000  1.0 -0.4913693701
O  O123  1  0.90756000  0.96570000  0.85318000  1.0 -0.4913693701
O  O124  1  0.96570000  0.90756000  0.27356000  1.0 -0.4913693701
O  O125  1  0.85318000  0.96570000  0.27356000  1.0 -0.4913693701
O  O126  1  0.90756000  0.27356000  0.96570000  1.0 -0.4913693701
O  O127  1  0.90756000  0.85318000  0.27356000  1.0 -0.4913693701
O  O128  1  0.27356000  0.96570000  0.90756000  1.0 -0.4913693701
