# DDEC6 charges by PACMAN v1.1 (https://github.com/mtap-research/PACMAN-charge/)
data_FOXSUJ_ASR_pacman
_symmetry_space_group_name_H-M   'P 1'
_cell_length_a   27.03470000
_cell_length_b   27.03470000
_cell_length_c   27.03470000
_cell_angle_alpha   109.47100000
_cell_angle_beta   109.47100000
_cell_angle_gamma   109.47100000
_symmetry_Int_Tables_number   1
_chemical_formula_structural   RbH38(C6O5)4
_chemical_formula_sum   'Rb12 H456 C288 O240'
_cell_volume   15210.59912856
_cell_formula_units_Z   12
loop_
 _symmetry_equiv_pos_site_id
 _symmetry_equiv_pos_as_xyz
  1  'x, y, z'
loop_
 _atom_site_type_symbol
 _atom_site_label
 _atom_site_symmetry_multiplicity
 _atom_site_fract_x
 _atom_site_fract_y
 _atom_site_fract_z
 _atom_site_occupancy
 _atom_site_charge
Rb  Rb1  1  0.68650000  0.37300000  0.68650000  1.0 0.8436784703
Rb  Rb2  1  0.31350000  0.62700000  0.31350000  1.0 0.8436784703
Rb  Rb3  1  0.31350000  0.00000000  0.68650000  1.0 0.8436784703
Rb  Rb4  1  0.68650000  0.00000000  0.31350000  1.0 0.8436784703
Rb  Rb5  1  0.31350000  0.31350000  0.62700000  1.0 0.8436784703
Rb  Rb6  1  0.68650000  0.68650000  0.37300000  1.0 0.8436784703
Rb  Rb7  1  0.31350000  0.68650000  0.00000000  1.0 0.8436784703
Rb  Rb8  1  0.68650000  0.31350000  0.00000000  1.0 0.8436784703
Rb  Rb9  1  0.00000000  0.31350000  0.68650000  1.0 0.8436784703
Rb  Rb10  1  0.00000000  0.68650000  0.31350000  1.0 0.8436784703
Rb  Rb11  1  0.62700000  0.31350000  0.31350000  1.0 0.8436784703
Rb  Rb12  1  0.37300000  0.68650000  0.68650000  1.0 0.8436784703
H  H1  1  0.07382000  0.45937000  0.77005000  1.0 0.2022555205
H  H2  1  0.90153000  0.36587000  0.65992000  1.0 0.238441734
H  H3  1  0.86153000  0.50826000  0.82433000  1.0 0.340013516
H  H4  1  0.85436000  0.36574000  0.63072000  1.0 0.238441734
H  H5  1  0.72918000  0.38261000  0.49065000  1.0 0.2201895151
H  H6  1  0.07761000  0.53719000  0.86364000  1.0 0.1088584578
H  H7  1  0.99096000  0.43928000  0.80660000  1.0 0.0999610233
H  H8  1  0.98299000  0.46433000  0.70690000  1.0 0.0926764001
H  H9  1  0.90618000  0.44406000  0.76118000  1.0 0.1088584578
H  H10  1  0.97507000  0.55952000  0.77387000  1.0 0.0926764001
H  H11  1  0.94253000  0.60195000  0.83954000  1.0 0.1088584578
H  H12  1  0.88364000  0.54842000  0.77542000  1.0 0.0999610233
H  H13  1  0.81294000  0.38762000  0.68268000  1.0 0.0815005829
H  H14  1  0.74355000  0.34008000  0.57833000  1.0 0.1088584578
H  H15  1  0.82751000  0.45145000  0.59072000  1.0 0.0926764001
H  H16  1  0.70412000  0.41803000  0.57089000  1.0 0.0926764001
H  H17  1  0.82775000  0.51733000  0.66938000  1.0 0.0815005829
H  H18  1  0.77288000  0.53966000  0.72064000  1.0 0.1088584578
H  H19  1  0.74958000  0.54366000  0.66016000  1.0 0.1088584578
H  H20  1  0.31068000  0.54063000  0.61445000  1.0 0.2022555205
H  H21  1  0.29405000  0.63413000  0.53566000  1.0 0.238441734
H  H22  1  0.31607000  0.49174000  0.35327000  1.0 0.340013516
H  H23  1  0.26498000  0.63426000  0.48862000  1.0 0.238441734
H  H24  1  0.10804000  0.61739000  0.34657000  1.0 0.2201895151
H  H25  1  0.32645000  0.46281000  0.54042000  1.0 0.1088584578
H  H26  1  0.36732000  0.56072000  0.55168000  1.0 0.0999610233
H  H27  1  0.24257000  0.53567000  0.51866000  1.0 0.0926764001
H  H28  1  0.31712000  0.55594000  0.46212000  1.0 0.1088584578
H  H29  1  0.21435000  0.44048000  0.41555000  1.0 0.0926764001
H  H30  1  0.23759000  0.39805000  0.34058000  1.0 0.1088584578
H  H31  1  0.22700000  0.45158000  0.33522000  1.0 0.0999610233
H  H32  1  0.29506000  0.61238000  0.42532000  1.0 0.0815005829
H  H33  1  0.23825000  0.65992000  0.40347000  1.0 0.1088584578
H  H34  1  0.13927000  0.54855000  0.37606000  1.0 0.0926764001
H  H35  1  0.15286000  0.58197000  0.28609000  1.0 0.0926764001
H  H36  1  0.15205000  0.48267000  0.31042000  1.0 0.0815005829
H  H37  1  0.18098000  0.46034000  0.23322000  1.0 0.1088584578
H  H38  1  0.11650000  0.45634000  0.20592000  1.0 0.1088584578
H  H39  1  0.92618000  0.69623000  0.38555000  1.0 0.2022555205
H  H40  1  0.09847000  0.75839000  0.46434000  1.0 0.238441734
H  H41  1  0.13847000  0.96280000  0.64673000  1.0 0.340013516
H  H42  1  0.14564000  0.77636000  0.51138000  1.0 0.238441734
H  H43  1  0.27082000  0.76147000  0.65343000  1.0 0.2201895151
H  H44  1  0.92239000  0.78603000  0.45958000  1.0 0.1088584578
H  H45  1  0.00904000  0.81564000  0.44832000  1.0 0.0999610233
H  H46  1  0.01701000  0.72391000  0.48134000  1.0 0.0926764001
H  H47  1  0.09382000  0.85500000  0.53788000  1.0 0.1088584578
H  H48  1  0.02493000  0.79880000  0.58445000  1.0 0.0926764001
H  H49  1  0.05747000  0.89701000  0.65942000  1.0 0.1088584578
H  H50  1  0.11636000  0.89178000  0.66478000  1.0 0.0999610233
H  H51  1  0.18706000  0.86974000  0.57468000  1.0 0.0815005829
H  H52  1  0.25645000  0.83478000  0.59653000  1.0 0.1088584578
H  H53  1  0.17249000  0.76321000  0.62394000  1.0 0.0926764001
H  H54  1  0.29588000  0.86677000  0.71391000  1.0 0.0926764001
H  H55  1  0.17225000  0.84163000  0.68958000  1.0 0.0815005829
H  H56  1  0.22712000  0.94776000  0.76678000  1.0 0.1088584578
H  H57  1  0.25042000  0.91058000  0.79408000  1.0 0.1088584578
H  H58  1  0.68932000  0.30377000  0.22995000  1.0 0.2022555205
H  H59  1  0.70595000  0.24161000  0.34008000  1.0 0.23479198
H  H60  1  0.68393000  0.03720000  0.17567000  1.0 0.340013516
H  H61  1  0.73502000  0.22364000  0.36928000  1.0 0.238441734
H  H62  1  0.89196000  0.23853000  0.50935000  1.0 0.2201895151
H  H63  1  0.67355000  0.21397000  0.13636000  1.0 0.1088584578
H  H64  1  0.63268000  0.18436000  0.19340000  1.0 0.0999610233
H  H65  1  0.75743000  0.27609000  0.29310000  1.0 0.0926764001
H  H66  1  0.68288000  0.14500000  0.23882000  1.0 0.1088584578
H  H67  1  0.78565000  0.20120000  0.22613000  1.0 0.0926764001
H  H68  1  0.76241000  0.10299000  0.16046000  1.0 0.1088584578
H  H69  1  0.77300000  0.10822000  0.22458000  1.0 0.0999610233
H  H70  1  0.70494000  0.13026000  0.31732000  1.0 0.0815005829
H  H71  1  0.76175000  0.16522000  0.42167000  1.0 0.1088584578
H  H72  1  0.86073000  0.23679000  0.40928000  1.0 0.0926764001
H  H73  1  0.84714000  0.13323000  0.42911000  1.0 0.0926764001
H  H74  1  0.84795000  0.15837000  0.33062000  1.0 0.0815005829
H  H75  1  0.81902000  0.05224000  0.27936000  1.0 0.1088584578
H  H76  1  0.88350000  0.08942000  0.33984000  1.0 0.1088584578
H  H77  1  0.61445000  0.31068000  0.54063000  1.0 0.2022555205
H  H78  1  0.53566000  0.29405000  0.63413000  1.0 0.23479198
H  H79  1  0.35327000  0.31607000  0.49174000  1.0 0.340013516
H  H80  1  0.48862000  0.26498000  0.63426000  1.0 0.238441734
H  H81  1  0.34657000  0.10804000  0.61739000  1.0 0.2201895151
H  H82  1  0.54042000  0.32645000  0.46281000  1.0 0.1088584578
H  H83  1  0.55168000  0.36732000  0.56072000  1.0 0.0999610233
H  H84  1  0.51866000  0.24257000  0.53567000  1.0 0.0926764001
H  H85  1  0.46212000  0.31712000  0.55594000  1.0 0.1088584578
H  H86  1  0.41555000  0.21435000  0.44048000  1.0 0.0926764001
H  H87  1  0.34058000  0.23759000  0.39805000  1.0 0.1088584578
H  H88  1  0.33522000  0.22700000  0.45158000  1.0 0.0999610233
H  H89  1  0.42532000  0.29506000  0.61238000  1.0 0.0815005829
H  H90  1  0.40347000  0.23825000  0.65992000  1.0 0.1088584578
H  H91  1  0.37606000  0.13927000  0.54855000  1.0 0.0926764001
H  H92  1  0.28609000  0.15286000  0.58197000  1.0 0.0926764001
H  H93  1  0.31042000  0.15205000  0.48267000  1.0 0.0815005829
H  H94  1  0.23322000  0.18098000  0.46034000  1.0 0.1088584578
H  H95  1  0.20592000  0.11650000  0.45634000  1.0 0.1088584578
H  H96  1  0.77005000  0.07382000  0.45937000  1.0 0.2022555205
H  H97  1  0.65992000  0.90153000  0.36587000  1.0 0.238441734
H  H98  1  0.82433000  0.86153000  0.50826000  1.0 0.340013516
H  H99  1  0.63072000  0.85436000  0.36574000  1.0 0.238441734
H  H100  1  0.49065000  0.72918000  0.38261000  1.0 0.2201895151
H  H101  1  0.86364000  0.07761000  0.53719000  1.0 0.1088584578
H  H102  1  0.80660000  0.99096000  0.43928000  1.0 0.0999610233
H  H103  1  0.70690000  0.98299000  0.46433000  1.0 0.0926764001
H  H104  1  0.76118000  0.90618000  0.44406000  1.0 0.1088584578
H  H105  1  0.77387000  0.97507000  0.55952000  1.0 0.0926764001
H  H106  1  0.83954000  0.94253000  0.60195000  1.0 0.1088584578
H  H107  1  0.77542000  0.88364000  0.54842000  1.0 0.0999610233
H  H108  1  0.68268000  0.81294000  0.38762000  1.0 0.0815005829
H  H109  1  0.57833000  0.74355000  0.34008000  1.0 0.1088584578
H  H110  1  0.59072000  0.82751000  0.45145000  1.0 0.0926764001
H  H111  1  0.57089000  0.70412000  0.41803000  1.0 0.0926764001
H  H112  1  0.66938000  0.82775000  0.51733000  1.0 0.0815005829
H  H113  1  0.72064000  0.77288000  0.53966000  1.0 0.1088584578
H  H114  1  0.66016000  0.74958000  0.54366000  1.0 0.1088584578
H  H115  1  0.22995000  0.68932000  0.30377000  1.0 0.2022555205
H  H116  1  0.34008000  0.70595000  0.24161000  1.0 0.238441734
H  H117  1  0.17567000  0.68393000  0.03720000  1.0 0.340013516
H  H118  1  0.36928000  0.73502000  0.22364000  1.0 0.238441734
H  H119  1  0.50935000  0.89196000  0.23853000  1.0 0.2201895151
H  H120  1  0.13636000  0.67355000  0.21397000  1.0 0.1088584578
H  H121  1  0.19340000  0.63268000  0.18436000  1.0 0.0999610233
H  H122  1  0.29310000  0.75743000  0.27609000  1.0 0.0926764001
H  H123  1  0.23882000  0.68288000  0.14500000  1.0 0.1088584578
H  H124  1  0.22613000  0.78565000  0.20120000  1.0 0.0926764001
H  H125  1  0.16046000  0.76241000  0.10299000  1.0 0.1088584578
H  H126  1  0.22458000  0.77300000  0.10822000  1.0 0.0999610233
H  H127  1  0.31732000  0.70494000  0.13026000  1.0 0.0815005829
H  H128  1  0.42167000  0.76175000  0.16522000  1.0 0.1088584578
H  H129  1  0.40928000  0.86073000  0.23679000  1.0 0.0926764001
H  H130  1  0.42911000  0.84714000  0.13323000  1.0 0.0926764001
H  H131  1  0.33062000  0.84795000  0.15837000  1.0 0.0815005829
H  H132  1  0.27936000  0.81902000  0.05224000  1.0 0.1088584578
H  H133  1  0.33984000  0.88350000  0.08942000  1.0 0.1088584578
H  H134  1  0.38555000  0.92618000  0.69623000  1.0 0.2022555205
H  H135  1  0.46434000  0.09847000  0.75839000  1.0 0.23479198
H  H136  1  0.64673000  0.13847000  0.96280000  1.0 0.340013516
H  H137  1  0.51138000  0.14564000  0.77636000  1.0 0.238441734
H  H138  1  0.65343000  0.27082000  0.76147000  1.0 0.2201895151
H  H139  1  0.45958000  0.92239000  0.78603000  1.0 0.1088584578
H  H140  1  0.44832000  0.00904000  0.81564000  1.0 0.0999610233
H  H141  1  0.48134000  0.01701000  0.72391000  1.0 0.0926764001
H  H142  1  0.53788000  0.09382000  0.85500000  1.0 0.1088584578
H  H143  1  0.58445000  0.02493000  0.79880000  1.0 0.0926764001
H  H144  1  0.65942000  0.05747000  0.89701000  1.0 0.1088584578
H  H145  1  0.66478000  0.11636000  0.89178000  1.0 0.0999610233
H  H146  1  0.57468000  0.18706000  0.86974000  1.0 0.0815005829
H  H147  1  0.59653000  0.25645000  0.83478000  1.0 0.1088584578
H  H148  1  0.62394000  0.17249000  0.76321000  1.0 0.0926764001
H  H149  1  0.71391000  0.29588000  0.86677000  1.0 0.0926764001
H  H150  1  0.68958000  0.17225000  0.84163000  1.0 0.0815005829
H  H151  1  0.76678000  0.22712000  0.94776000  1.0 0.1088584578
H  H152  1  0.79408000  0.25042000  0.91058000  1.0 0.1088584578
H  H153  1  0.30377000  0.22995000  0.68932000  1.0 0.2022555205
H  H154  1  0.24161000  0.34008000  0.70595000  1.0 0.23479198
H  H155  1  0.03720000  0.17567000  0.68393000  1.0 0.340013516
H  H156  1  0.22364000  0.36928000  0.73502000  1.0 0.238441734
H  H157  1  0.23853000  0.50935000  0.89196000  1.0 0.2201895151
H  H158  1  0.21397000  0.13636000  0.67355000  1.0 0.1088584578
H  H159  1  0.18436000  0.19340000  0.63268000  1.0 0.0999610233
H  H160  1  0.27609000  0.29310000  0.75743000  1.0 0.0926764001
H  H161  1  0.14500000  0.23882000  0.68288000  1.0 0.1088584578
H  H162  1  0.20120000  0.22613000  0.78565000  1.0 0.0926764001
H  H163  1  0.10299000  0.16046000  0.76241000  1.0 0.1088584578
H  H164  1  0.10822000  0.22458000  0.77300000  1.0 0.0999610233
H  H165  1  0.13026000  0.31732000  0.70494000  1.0 0.0815005829
H  H166  1  0.16522000  0.42167000  0.76175000  1.0 0.1088584578
H  H167  1  0.23679000  0.40928000  0.86073000  1.0 0.0926764001
H  H168  1  0.13323000  0.42911000  0.84714000  1.0 0.0926764001
H  H169  1  0.15837000  0.33062000  0.84795000  1.0 0.0815005829
H  H170  1  0.05224000  0.27936000  0.81902000  1.0 0.1088584578
H  H171  1  0.08942000  0.33984000  0.88350000  1.0 0.1088584578
H  H172  1  0.69623000  0.38555000  0.92618000  1.0 0.2022555205
H  H173  1  0.75839000  0.46434000  0.09847000  1.0 0.238441734
H  H174  1  0.96280000  0.64673000  0.13847000  1.0 0.340013516
H  H175  1  0.77636000  0.51138000  0.14564000  1.0 0.238441734
H  H176  1  0.76147000  0.65343000  0.27082000  1.0 0.2201895151
H  H177  1  0.78603000  0.45958000  0.92239000  1.0 0.1088584578
H  H178  1  0.81564000  0.44832000  0.00904000  1.0 0.0999610233
H  H179  1  0.72391000  0.48134000  0.01701000  1.0 0.0926764001
H  H180  1  0.85500000  0.53788000  0.09382000  1.0 0.1088584578
H  H181  1  0.79880000  0.58445000  0.02493000  1.0 0.0926764001
H  H182  1  0.89701000  0.65942000  0.05747000  1.0 0.1088584578
H  H183  1  0.89178000  0.66478000  0.11636000  1.0 0.0999610233
H  H184  1  0.86974000  0.57468000  0.18706000  1.0 0.0815005829
H  H185  1  0.83478000  0.59653000  0.25645000  1.0 0.1088584578
H  H186  1  0.76321000  0.62394000  0.17249000  1.0 0.0926764001
H  H187  1  0.86677000  0.71391000  0.29588000  1.0 0.0926764001
H  H188  1  0.84163000  0.68958000  0.17225000  1.0 0.0815005829
H  H189  1  0.94776000  0.76678000  0.22712000  1.0 0.1088584578
H  H190  1  0.91058000  0.79408000  0.25042000  1.0 0.1088584578
H  H191  1  0.54063000  0.61445000  0.31068000  1.0 0.2022555205
H  H192  1  0.63413000  0.53566000  0.29405000  1.0 0.238441734
H  H193  1  0.49174000  0.35327000  0.31607000  1.0 0.340013516
H  H194  1  0.63426000  0.48862000  0.26498000  1.0 0.238441734
H  H195  1  0.61739000  0.34657000  0.10804000  1.0 0.2201895151
H  H196  1  0.46281000  0.54042000  0.32645000  1.0 0.1088584578
H  H197  1  0.56072000  0.55168000  0.36732000  1.0 0.0999610233
H  H198  1  0.53567000  0.51866000  0.24257000  1.0 0.0926764001
H  H199  1  0.55594000  0.46212000  0.31712000  1.0 0.1088584578
H  H200  1  0.44048000  0.41555000  0.21435000  1.0 0.0926764001
H  H201  1  0.39805000  0.34058000  0.23759000  1.0 0.1088584578
H  H202  1  0.45158000  0.33522000  0.22700000  1.0 0.0999610233
H  H203  1  0.61238000  0.42532000  0.29506000  1.0 0.0815005829
H  H204  1  0.65992000  0.40347000  0.23825000  1.0 0.1088584578
H  H205  1  0.54855000  0.37606000  0.13927000  1.0 0.0926764001
H  H206  1  0.58197000  0.28609000  0.15286000  1.0 0.0926764001
H  H207  1  0.48267000  0.31042000  0.15205000  1.0 0.0815005829
H  H208  1  0.46034000  0.23322000  0.18098000  1.0 0.1088584578
H  H209  1  0.45634000  0.20592000  0.11650000  1.0 0.1088584578
H  H210  1  0.45937000  0.77005000  0.07382000  1.0 0.2022555205
H  H211  1  0.36587000  0.65992000  0.90153000  1.0 0.238441734
H  H212  1  0.50826000  0.82433000  0.86153000  1.0 0.340013516
H  H213  1  0.36574000  0.63072000  0.85436000  1.0 0.238441734
H  H214  1  0.38261000  0.49065000  0.72918000  1.0 0.2201895151
H  H215  1  0.53719000  0.86364000  0.07761000  1.0 0.1088584578
H  H216  1  0.43928000  0.80660000  0.99096000  1.0 0.0999610233
H  H217  1  0.46433000  0.70690000  0.98299000  1.0 0.0926764001
H  H218  1  0.44406000  0.76118000  0.90618000  1.0 0.1088584578
H  H219  1  0.55952000  0.77387000  0.97507000  1.0 0.0926764001
H  H220  1  0.60195000  0.83954000  0.94253000  1.0 0.1088584578
H  H221  1  0.54842000  0.77542000  0.88364000  1.0 0.0999610233
H  H222  1  0.38762000  0.68268000  0.81294000  1.0 0.0815005829
H  H223  1  0.34008000  0.57833000  0.74355000  1.0 0.1088584578
H  H224  1  0.45145000  0.59072000  0.82751000  1.0 0.0926764001
H  H225  1  0.41803000  0.57089000  0.70412000  1.0 0.0926764001
H  H226  1  0.51733000  0.66938000  0.82775000  1.0 0.0815005829
H  H227  1  0.53966000  0.72064000  0.77288000  1.0 0.1088584578
H  H228  1  0.54366000  0.66016000  0.74958000  1.0 0.1088584578
H  H229  1  0.22995000  0.54063000  0.92618000  1.0 0.2022555205
H  H230  1  0.34008000  0.63413000  0.09847000  1.0 0.238441734
H  H231  1  0.17567000  0.49174000  0.13847000  1.0 0.340013516
H  H232  1  0.36928000  0.63426000  0.14564000  1.0 0.238441734
H  H233  1  0.50935000  0.61739000  0.27082000  1.0 0.2201895151
H  H234  1  0.13636000  0.46281000  0.92239000  1.0 0.1088584578
H  H235  1  0.19340000  0.56072000  0.00904000  1.0 0.0999610233
H  H236  1  0.29310000  0.53567000  0.01701000  1.0 0.0926764001
H  H237  1  0.23882000  0.55594000  0.09382000  1.0 0.1088584578
H  H238  1  0.22613000  0.44048000  0.02493000  1.0 0.0926764001
H  H239  1  0.16046000  0.39805000  0.05747000  1.0 0.1088584578
H  H240  1  0.22458000  0.45158000  0.11636000  1.0 0.0999610233
H  H241  1  0.31732000  0.61238000  0.18706000  1.0 0.0815005829
H  H242  1  0.42167000  0.65992000  0.25645000  1.0 0.1088584578
H  H243  1  0.40928000  0.54855000  0.17249000  1.0 0.0926764001
H  H244  1  0.42911000  0.58197000  0.29588000  1.0 0.0926764001
H  H245  1  0.33062000  0.48267000  0.17225000  1.0 0.0815005829
H  H246  1  0.27936000  0.46034000  0.22712000  1.0 0.1088584578
H  H247  1  0.33984000  0.45634000  0.25042000  1.0 0.1088584578
H  H248  1  0.38555000  0.45937000  0.68932000  1.0 0.2022555205
H  H249  1  0.46434000  0.36587000  0.70595000  1.0 0.23479198
H  H250  1  0.64673000  0.50826000  0.68393000  1.0 0.340013516
H  H251  1  0.51138000  0.36574000  0.73502000  1.0 0.238441734
H  H252  1  0.65343000  0.38261000  0.89196000  1.0 0.2201895151
H  H253  1  0.45958000  0.53719000  0.67355000  1.0 0.1088584578
H  H254  1  0.44832000  0.43928000  0.63268000  1.0 0.0999610233
H  H255  1  0.48134000  0.46433000  0.75743000  1.0 0.0926764001
H  H256  1  0.53788000  0.44406000  0.68288000  1.0 0.1088584578
H  H257  1  0.58445000  0.55952000  0.78565000  1.0 0.0926764001
H  H258  1  0.65942000  0.60195000  0.76241000  1.0 0.1088584578
H  H259  1  0.66478000  0.54842000  0.77300000  1.0 0.0999610233
H  H260  1  0.57468000  0.38762000  0.70494000  1.0 0.0815005829
H  H261  1  0.59653000  0.34008000  0.76175000  1.0 0.1088584578
H  H262  1  0.62394000  0.45145000  0.86073000  1.0 0.0926764001
H  H263  1  0.71391000  0.41803000  0.84714000  1.0 0.0926764001
H  H264  1  0.68958000  0.51733000  0.84795000  1.0 0.0815005829
H  H265  1  0.76678000  0.53966000  0.81902000  1.0 0.1088584578
H  H266  1  0.79408000  0.54366000  0.88350000  1.0 0.1088584578
H  H267  1  0.61445000  0.30377000  0.07382000  1.0 0.2022555205
H  H268  1  0.53566000  0.24161000  0.90153000  1.0 0.23479198
H  H269  1  0.35327000  0.03720000  0.86153000  1.0 0.340013516
H  H270  1  0.48862000  0.22364000  0.85436000  1.0 0.238441734
H  H271  1  0.34657000  0.23853000  0.72918000  1.0 0.2201895151
H  H272  1  0.54042000  0.21397000  0.07761000  1.0 0.1088584578
H  H273  1  0.55168000  0.18436000  0.99096000  1.0 0.0999610233
H  H274  1  0.51866000  0.27609000  0.98299000  1.0 0.0926764001
H  H275  1  0.46212000  0.14500000  0.90618000  1.0 0.1088584578
H  H276  1  0.41555000  0.20120000  0.97507000  1.0 0.0926764001
H  H277  1  0.34058000  0.10299000  0.94253000  1.0 0.1088584578
H  H278  1  0.33522000  0.10822000  0.88364000  1.0 0.0999610233
H  H279  1  0.42532000  0.13026000  0.81294000  1.0 0.0815005829
H  H280  1  0.40347000  0.16522000  0.74355000  1.0 0.1088584578
H  H281  1  0.37606000  0.23679000  0.82751000  1.0 0.0926764001
H  H282  1  0.28609000  0.13323000  0.70412000  1.0 0.0926764001
H  H283  1  0.31042000  0.15837000  0.82775000  1.0 0.0815005829
H  H284  1  0.23322000  0.05224000  0.77288000  1.0 0.1088584578
H  H285  1  0.20592000  0.08942000  0.74958000  1.0 0.1088584578
H  H286  1  0.77005000  0.69623000  0.31068000  1.0 0.2022555205
H  H287  1  0.65992000  0.75839000  0.29405000  1.0 0.238441734
H  H288  1  0.82433000  0.96280000  0.31607000  1.0 0.340013516
H  H289  1  0.63072000  0.77636000  0.26498000  1.0 0.238441734
H  H290  1  0.49065000  0.76147000  0.10804000  1.0 0.2201895151
H  H291  1  0.86364000  0.78603000  0.32645000  1.0 0.1088584578
H  H292  1  0.80660000  0.81564000  0.36732000  1.0 0.0999610233
H  H293  1  0.70690000  0.72391000  0.24257000  1.0 0.0926764001
H  H294  1  0.76118000  0.85500000  0.31712000  1.0 0.1088584578
H  H295  1  0.77387000  0.79880000  0.21435000  1.0 0.0926764001
H  H296  1  0.83954000  0.89701000  0.23759000  1.0 0.1088584578
H  H297  1  0.77542000  0.89178000  0.22700000  1.0 0.0999610233
H  H298  1  0.68268000  0.86974000  0.29506000  1.0 0.0815005829
H  H299  1  0.57833000  0.83478000  0.23825000  1.0 0.1088584578
H  H300  1  0.59072000  0.76321000  0.13927000  1.0 0.0926764001
H  H301  1  0.57089000  0.86677000  0.15286000  1.0 0.0926764001
H  H302  1  0.66938000  0.84163000  0.15205000  1.0 0.0815005829
H  H303  1  0.72064000  0.94776000  0.18098000  1.0 0.1088584578
H  H304  1  0.66016000  0.91058000  0.11650000  1.0 0.1088584578
H  H305  1  0.45937000  0.68932000  0.38555000  1.0 0.2022555205
H  H306  1  0.36587000  0.70595000  0.46434000  1.0 0.238441734
H  H307  1  0.50826000  0.68393000  0.64673000  1.0 0.340013516
H  H308  1  0.36574000  0.73502000  0.51138000  1.0 0.238441734
H  H309  1  0.38261000  0.89196000  0.65343000  1.0 0.2201895151
H  H310  1  0.53719000  0.67355000  0.45958000  1.0 0.1088584578
H  H311  1  0.43928000  0.63268000  0.44832000  1.0 0.0999610233
H  H312  1  0.46433000  0.75743000  0.48134000  1.0 0.0926764001
H  H313  1  0.44406000  0.68288000  0.53788000  1.0 0.1088584578
H  H314  1  0.55952000  0.78565000  0.58445000  1.0 0.0926764001
H  H315  1  0.60195000  0.76241000  0.65942000  1.0 0.1088584578
H  H316  1  0.54842000  0.77300000  0.66478000  1.0 0.0999610233
H  H317  1  0.38762000  0.70494000  0.57468000  1.0 0.0815005829
H  H318  1  0.34008000  0.76175000  0.59653000  1.0 0.1088584578
H  H319  1  0.45145000  0.86073000  0.62394000  1.0 0.0926764001
H  H320  1  0.41803000  0.84714000  0.71391000  1.0 0.0926764001
H  H321  1  0.51733000  0.84795000  0.68958000  1.0 0.0815005829
H  H322  1  0.53966000  0.81902000  0.76678000  1.0 0.1088584578
H  H323  1  0.54366000  0.88350000  0.79408000  1.0 0.1088584578
H  H324  1  0.54063000  0.92618000  0.22995000  1.0 0.2022555205
H  H325  1  0.63413000  0.09847000  0.34008000  1.0 0.23479198
H  H326  1  0.49174000  0.13847000  0.17567000  1.0 0.340013516
H  H327  1  0.63426000  0.14564000  0.36928000  1.0 0.238441734
H  H328  1  0.61739000  0.27082000  0.50935000  1.0 0.2201895151
H  H329  1  0.46281000  0.92239000  0.13636000  1.0 0.1088584578
H  H330  1  0.56072000  0.00904000  0.19340000  1.0 0.0999610233
H  H331  1  0.53567000  0.01701000  0.29310000  1.0 0.0926764001
H  H332  1  0.55594000  0.09382000  0.23882000  1.0 0.1088584578
H  H333  1  0.44048000  0.02493000  0.22613000  1.0 0.0926764001
H  H334  1  0.39805000  0.05747000  0.16046000  1.0 0.1088584578
H  H335  1  0.45158000  0.11636000  0.22458000  1.0 0.0999610233
H  H336  1  0.61238000  0.18706000  0.31732000  1.0 0.0815005829
H  H337  1  0.65992000  0.25645000  0.42167000  1.0 0.1088584578
H  H338  1  0.54855000  0.17249000  0.40928000  1.0 0.0926764001
H  H339  1  0.58197000  0.29588000  0.42911000  1.0 0.0926764001
H  H340  1  0.48267000  0.17225000  0.33062000  1.0 0.0815005829
H  H341  1  0.46034000  0.22712000  0.27936000  1.0 0.1088584578
H  H342  1  0.45634000  0.25042000  0.33984000  1.0 0.1088584578
H  H343  1  0.69623000  0.31068000  0.77005000  1.0 0.2022555205
H  H344  1  0.75839000  0.29405000  0.65992000  1.0 0.238441734
H  H345  1  0.96280000  0.31607000  0.82433000  1.0 0.340013516
H  H346  1  0.77636000  0.26498000  0.63072000  1.0 0.238441734
H  H347  1  0.76147000  0.10804000  0.49065000  1.0 0.2201895151
H  H348  1  0.78603000  0.32645000  0.86364000  1.0 0.1088584578
H  H349  1  0.81564000  0.36732000  0.80660000  1.0 0.0999610233
H  H350  1  0.72391000  0.24257000  0.70690000  1.0 0.0926764001
H  H351  1  0.85500000  0.31712000  0.76118000  1.0 0.1088584578
H  H352  1  0.79880000  0.21435000  0.77387000  1.0 0.0926764001
H  H353  1  0.89701000  0.23759000  0.83954000  1.0 0.1088584578
H  H354  1  0.89178000  0.22700000  0.77542000  1.0 0.0999610233
H  H355  1  0.86974000  0.29506000  0.68268000  1.0 0.0815005829
H  H356  1  0.83478000  0.23825000  0.57833000  1.0 0.1088584578
H  H357  1  0.76321000  0.13927000  0.59072000  1.0 0.0926764001
H  H358  1  0.86677000  0.15286000  0.57089000  1.0 0.0926764001
H  H359  1  0.84163000  0.15205000  0.66938000  1.0 0.0815005829
H  H360  1  0.94776000  0.18098000  0.72064000  1.0 0.1088584578
H  H361  1  0.91058000  0.11650000  0.66016000  1.0 0.1088584578
H  H362  1  0.30377000  0.07382000  0.61445000  1.0 0.2022555205
H  H363  1  0.24161000  0.90153000  0.53566000  1.0 0.238441734
H  H364  1  0.03720000  0.86153000  0.35327000  1.0 0.340013516
H  H365  1  0.22364000  0.85436000  0.48862000  1.0 0.238441734
H  H366  1  0.23853000  0.72918000  0.34657000  1.0 0.2201895151
H  H367  1  0.21397000  0.07761000  0.54042000  1.0 0.1088584578
H  H368  1  0.18436000  0.99096000  0.55168000  1.0 0.0999610233
H  H369  1  0.27609000  0.98299000  0.51866000  1.0 0.0926764001
H  H370  1  0.14500000  0.90618000  0.46212000  1.0 0.1088584578
H  H371  1  0.20120000  0.97507000  0.41555000  1.0 0.0926764001
H  H372  1  0.10299000  0.94253000  0.34058000  1.0 0.1088584578
H  H373  1  0.10822000  0.88364000  0.33522000  1.0 0.0999610233
H  H374  1  0.13026000  0.81294000  0.42532000  1.0 0.0815005829
H  H375  1  0.16522000  0.74355000  0.40347000  1.0 0.1088584578
H  H376  1  0.23679000  0.82751000  0.37606000  1.0 0.0926764001
H  H377  1  0.13323000  0.70412000  0.28609000  1.0 0.0926764001
H  H378  1  0.15837000  0.82775000  0.31042000  1.0 0.0815005829
H  H379  1  0.05224000  0.77288000  0.23322000  1.0 0.1088584578
H  H380  1  0.08942000  0.74958000  0.20592000  1.0 0.1088584578
H  H381  1  0.31068000  0.77005000  0.69623000  1.0 0.2022555205
H  H382  1  0.29405000  0.65992000  0.75839000  1.0 0.23479198
H  H383  1  0.31607000  0.82433000  0.96280000  1.0 0.340013516
H  H384  1  0.26498000  0.63072000  0.77636000  1.0 0.238441734
H  H385  1  0.10804000  0.49065000  0.76147000  1.0 0.2201895151
H  H386  1  0.32645000  0.86364000  0.78603000  1.0 0.1088584578
H  H387  1  0.36732000  0.80660000  0.81564000  1.0 0.0999610233
H  H388  1  0.24257000  0.70690000  0.72391000  1.0 0.0926764001
H  H389  1  0.31712000  0.76118000  0.85500000  1.0 0.1088584578
H  H390  1  0.21435000  0.77387000  0.79880000  1.0 0.0926764001
H  H391  1  0.23759000  0.83954000  0.89701000  1.0 0.1088584578
H  H392  1  0.22700000  0.77542000  0.89178000  1.0 0.0999610233
H  H393  1  0.29506000  0.68268000  0.86974000  1.0 0.0815005829
H  H394  1  0.23825000  0.57833000  0.83478000  1.0 0.1088584578
H  H395  1  0.13927000  0.59072000  0.76321000  1.0 0.0926764001
H  H396  1  0.15286000  0.57089000  0.86677000  1.0 0.0926764001
H  H397  1  0.15205000  0.66938000  0.84163000  1.0 0.0815005829
H  H398  1  0.18098000  0.72064000  0.94776000  1.0 0.1088584578
H  H399  1  0.11650000  0.66016000  0.91058000  1.0 0.1088584578
H  H400  1  0.07382000  0.61445000  0.30377000  1.0 0.2022555205
H  H401  1  0.90153000  0.53566000  0.24161000  1.0 0.238441734
H  H402  1  0.86153000  0.35327000  0.03720000  1.0 0.340013516
H  H403  1  0.85436000  0.48862000  0.22364000  1.0 0.238441734
H  H404  1  0.72918000  0.34657000  0.23853000  1.0 0.2201895151
H  H405  1  0.07761000  0.54042000  0.21397000  1.0 0.1088584578
H  H406  1  0.99096000  0.55168000  0.18436000  1.0 0.0999610233
H  H407  1  0.98299000  0.51866000  0.27609000  1.0 0.0926764001
H  H408  1  0.90618000  0.46212000  0.14500000  1.0 0.1088584578
H  H409  1  0.97507000  0.41555000  0.20120000  1.0 0.0926764001
H  H410  1  0.94253000  0.34058000  0.10299000  1.0 0.1088584578
H  H411  1  0.88364000  0.33522000  0.10822000  1.0 0.0999610233
H  H412  1  0.81294000  0.42532000  0.13026000  1.0 0.0815005829
H  H413  1  0.74355000  0.40347000  0.16522000  1.0 0.1088584578
H  H414  1  0.82751000  0.37606000  0.23679000  1.0 0.0926764001
H  H415  1  0.70412000  0.28609000  0.13323000  1.0 0.0926764001
H  H416  1  0.82775000  0.31042000  0.15837000  1.0 0.0815005829
H  H417  1  0.77288000  0.23322000  0.05224000  1.0 0.1088584578
H  H418  1  0.74958000  0.20592000  0.08942000  1.0 0.1088584578
H  H419  1  0.68932000  0.38555000  0.45937000  1.0 0.2022555205
H  H420  1  0.70595000  0.46434000  0.36587000  1.0 0.238441734
H  H421  1  0.68393000  0.64673000  0.50826000  1.0 0.340013516
H  H422  1  0.73502000  0.51138000  0.36574000  1.0 0.238441734
H  H423  1  0.89196000  0.65343000  0.38261000  1.0 0.2201895151
H  H424  1  0.67355000  0.45958000  0.53719000  1.0 0.1088584578
H  H425  1  0.63268000  0.44832000  0.43928000  1.0 0.0999610233
H  H426  1  0.75743000  0.48134000  0.46433000  1.0 0.0926764001
H  H427  1  0.68288000  0.53788000  0.44406000  1.0 0.1088584578
H  H428  1  0.78565000  0.58445000  0.55952000  1.0 0.0926764001
H  H429  1  0.76241000  0.65942000  0.60195000  1.0 0.1088584578
H  H430  1  0.77300000  0.66478000  0.54842000  1.0 0.0999610233
H  H431  1  0.70494000  0.57468000  0.38762000  1.0 0.0815005829
H  H432  1  0.76175000  0.59653000  0.34008000  1.0 0.1088584578
H  H433  1  0.86073000  0.62394000  0.45145000  1.0 0.0926764001
H  H434  1  0.84714000  0.71391000  0.41803000  1.0 0.0926764001
H  H435  1  0.84795000  0.68958000  0.51733000  1.0 0.0815005829
H  H436  1  0.81902000  0.76678000  0.53966000  1.0 0.1088584578
H  H437  1  0.88350000  0.79408000  0.54366000  1.0 0.1088584578
H  H438  1  0.92618000  0.22995000  0.54063000  1.0 0.2022555205
H  H439  1  0.09847000  0.34008000  0.63413000  1.0 0.23479198
H  H440  1  0.13847000  0.17567000  0.49174000  1.0 0.340013516
H  H441  1  0.14564000  0.36928000  0.63426000  1.0 0.238441734
H  H442  1  0.27082000  0.50935000  0.61739000  1.0 0.2201895151
H  H443  1  0.92239000  0.13636000  0.46281000  1.0 0.1088584578
H  H444  1  0.00904000  0.19340000  0.56072000  1.0 0.0999610233
H  H445  1  0.01701000  0.29310000  0.53567000  1.0 0.0926764001
H  H446  1  0.09382000  0.23882000  0.55594000  1.0 0.1088584578
H  H447  1  0.02493000  0.22613000  0.44048000  1.0 0.0926764001
H  H448  1  0.05747000  0.16046000  0.39805000  1.0 0.1088584578
H  H449  1  0.11636000  0.22458000  0.45158000  1.0 0.0999610233
H  H450  1  0.18706000  0.31732000  0.61238000  1.0 0.0815005829
H  H451  1  0.25645000  0.42167000  0.65992000  1.0 0.1088584578
H  H452  1  0.17249000  0.40928000  0.54855000  1.0 0.0926764001
H  H453  1  0.29588000  0.42911000  0.58197000  1.0 0.0926764001
H  H454  1  0.17225000  0.33062000  0.48267000  1.0 0.0815005829
H  H455  1  0.22712000  0.27936000  0.46034000  1.0 0.1088584578
H  H456  1  0.25042000  0.33984000  0.45634000  1.0 0.1088584578
C  C1  1  0.04500000  0.52860000  0.82560000  1.0 0.2645887442
C  C2  1  0.01100000  0.45850000  0.78750000  1.0 0.0231656354
C  C3  1  0.96400000  0.44400000  0.72600000  1.0 0.0815005829
C  C4  1  0.92530000  0.46800000  0.74530000  1.0 0.0312137168
C  C5  1  0.95850000  0.53600000  0.79250000  1.0 0.0815005829
C  C6  1  0.91870000  0.55770000  0.81100000  1.0 -0.0508507387
C  C7  1  0.81580000  0.41450000  0.66470000  1.0 0.1724707492
C  C8  1  0.78590000  0.37380000  0.59570000  1.0 0.0504488506
C  C9  1  0.78510000  0.41930000  0.57440000  1.0 0.0999610233
C  C10  1  0.74690000  0.44840000  0.58650000  1.0 -0.006092275
C  C11  1  0.78590000  0.48640000  0.65570000  1.0 0.0999610233
C  C12  1  0.75130000  0.51530000  0.67600000  1.0 -0.0508507387
C  C13  1  0.29700000  0.47140000  0.51640000  1.0 0.2645887442
C  C14  1  0.32900000  0.54150000  0.55250000  1.0 0.0231656354
C  C15  1  0.28200000  0.55600000  0.52000000  1.0 0.0815005829
C  C16  1  0.27730000  0.53200000  0.45730000  1.0 0.0312137168
C  C17  1  0.25650000  0.46400000  0.42250000  1.0 0.0815005829
C  C18  1  0.25330000  0.44230000  0.36100000  1.0 -0.0508507387
C  C19  1  0.25020000  0.58550000  0.40130000  1.0 0.1724707492
C  C20  1  0.22190000  0.62620000  0.41210000  1.0 0.0504488506
C  C21  1  0.15510000  0.58070000  0.36580000  1.0 0.0999610233
C  C22  1  0.13810000  0.55160000  0.29850000  1.0 -0.006092275
C  C23  1  0.16930000  0.51360000  0.29950000  1.0 0.0999610233
C  C24  1  0.16070000  0.48470000  0.23600000  1.0 -0.0508507387
C  C25  1  0.95500000  0.78060000  0.48360000  1.0 0.2645887442
C  C26  1  0.98900000  0.77650000  0.44750000  1.0 0.0231656354
C  C27  1  0.03600000  0.76200000  0.48000000  1.0 0.0815005829
C  C28  1  0.07470000  0.82000000  0.54270000  1.0 0.0312137168
C  C29  1  0.04150000  0.83400000  0.57750000  1.0 0.0815005829
C  C30  1  0.08130000  0.89230000  0.63900000  1.0 -0.0508507387
C  C31  1  0.18420000  0.84890000  0.59870000  1.0 0.1724707492
C  C32  1  0.21410000  0.80980000  0.58790000  1.0 0.0504488506
C  C33  1  0.21490000  0.78930000  0.63420000  1.0 0.0999610233
C  C34  1  0.25310000  0.83960000  0.70150000  1.0 -0.006092275
C  C35  1  0.21410000  0.86980000  0.70050000  1.0 0.0999610233
C  C36  1  0.24870000  0.92470000  0.76400000  1.0 -0.0508507387
C  C37  1  0.70300000  0.21940000  0.17440000  1.0 0.2645887442
C  C38  1  0.67100000  0.22350000  0.21250000  1.0 0.0231656354
C  C39  1  0.71800000  0.23800000  0.27400000  1.0 0.0815005829
C  C40  1  0.72270000  0.18000000  0.25470000  1.0 0.0312137168
C  C41  1  0.74350000  0.16600000  0.20750000  1.0 0.0815005829
C  C42  1  0.74670000  0.10770000  0.18900000  1.0 -0.0508507387
C  C43  1  0.74980000  0.15110000  0.33530000  1.0 0.1724707492
C  C44  1  0.77810000  0.19020000  0.40430000  1.0 0.0504488506
C  C45  1  0.84490000  0.21070000  0.42560000  1.0 0.0999610233
C  C46  1  0.86190000  0.16040000  0.41350000  1.0 -0.006092275
C  C47  1  0.83070000  0.13020000  0.34430000  1.0 0.0999610233
C  C48  1  0.83930000  0.07530000  0.32400000  1.0 -0.0508507387
C  C49  1  0.51640000  0.29700000  0.47140000  1.0 0.2645887442
C  C50  1  0.55250000  0.32900000  0.54150000  1.0 0.0231656354
C  C51  1  0.52000000  0.28200000  0.55600000  1.0 0.0815005829
C  C52  1  0.45730000  0.27730000  0.53200000  1.0 0.0312137168
C  C53  1  0.42250000  0.25650000  0.46400000  1.0 0.0815005829
C  C54  1  0.36100000  0.25330000  0.44230000  1.0 -0.0508507387
C  C55  1  0.40130000  0.25020000  0.58550000  1.0 0.1724707492
C  C56  1  0.41210000  0.22190000  0.62620000  1.0 0.0504488506
C  C57  1  0.36580000  0.15510000  0.58070000  1.0 0.0999610233
C  C58  1  0.29850000  0.13810000  0.55160000  1.0 -0.006092275
C  C59  1  0.29950000  0.16930000  0.51360000  1.0 0.0999610233
C  C60  1  0.23600000  0.16070000  0.48470000  1.0 -0.0508507387
C  C61  1  0.82560000  0.04500000  0.52860000  1.0 0.2645887442
C  C62  1  0.78750000  0.01100000  0.45850000  1.0 0.0231656354
C  C63  1  0.72600000  0.96400000  0.44400000  1.0 0.0815005829
C  C64  1  0.74530000  0.92530000  0.46800000  1.0 0.0312137168
C  C65  1  0.79250000  0.95850000  0.53600000  1.0 0.0815005829
C  C66  1  0.81100000  0.91870000  0.55770000  1.0 -0.0508507387
C  C67  1  0.66470000  0.81580000  0.41450000  1.0 0.1724707492
C  C68  1  0.59570000  0.78590000  0.37380000  1.0 0.0504488506
C  C69  1  0.57440000  0.78510000  0.41930000  1.0 0.0999610233
C  C70  1  0.58650000  0.74690000  0.44840000  1.0 -0.006092275
C  C71  1  0.65570000  0.78590000  0.48640000  1.0 0.0999610233
C  C72  1  0.67600000  0.75130000  0.51530000  1.0 -0.0508507387
C  C73  1  0.17440000  0.70300000  0.21940000  1.0 0.2645887442
C  C74  1  0.21250000  0.67100000  0.22350000  1.0 0.0231656354
C  C75  1  0.27400000  0.71800000  0.23800000  1.0 0.0815005829
C  C76  1  0.25470000  0.72270000  0.18000000  1.0 0.0312137168
C  C77  1  0.20750000  0.74350000  0.16600000  1.0 0.0815005829
C  C78  1  0.18900000  0.74670000  0.10770000  1.0 -0.0508507387
C  C79  1  0.33530000  0.74980000  0.15110000  1.0 0.1724707492
C  C80  1  0.40430000  0.77810000  0.19020000  1.0 0.0504488506
C  C81  1  0.42560000  0.84490000  0.21070000  1.0 0.0999610233
C  C82  1  0.41350000  0.86190000  0.16040000  1.0 -0.006092275
C  C83  1  0.34430000  0.83070000  0.13020000  1.0 0.0999610233
C  C84  1  0.32400000  0.83930000  0.07530000  1.0 -0.0508507387
C  C85  1  0.48360000  0.95500000  0.78060000  1.0 0.2645887442
C  C86  1  0.44750000  0.98900000  0.77650000  1.0 0.0231656354
C  C87  1  0.48000000  0.03600000  0.76200000  1.0 0.0815005829
C  C88  1  0.54270000  0.07470000  0.82000000  1.0 0.0312137168
C  C89  1  0.57750000  0.04150000  0.83400000  1.0 0.0815005829
C  C90  1  0.63900000  0.08130000  0.89230000  1.0 -0.0508507387
C  C91  1  0.59870000  0.18420000  0.84890000  1.0 0.1724707492
C  C92  1  0.58790000  0.21410000  0.80980000  1.0 0.0504488506
C  C93  1  0.63420000  0.21490000  0.78930000  1.0 0.0999610233
C  C94  1  0.70150000  0.25310000  0.83960000  1.0 -0.006092275
C  C95  1  0.70050000  0.21410000  0.86980000  1.0 0.0999610233
C  C96  1  0.76400000  0.24870000  0.92470000  1.0 -0.0508507387
C  C97  1  0.21940000  0.17440000  0.70300000  1.0 0.2645887442
C  C98  1  0.22350000  0.21250000  0.67100000  1.0 0.0231656354
C  C99  1  0.23800000  0.27400000  0.71800000  1.0 0.0815005829
C  C100  1  0.18000000  0.25470000  0.72270000  1.0 0.0312137168
C  C101  1  0.16600000  0.20750000  0.74350000  1.0 0.0815005829
C  C102  1  0.10770000  0.18900000  0.74670000  1.0 -0.0508507387
C  C103  1  0.15110000  0.33530000  0.74980000  1.0 0.1724707492
C  C104  1  0.19020000  0.40430000  0.77810000  1.0 0.0504488506
C  C105  1  0.21070000  0.42560000  0.84490000  1.0 0.0999610233
C  C106  1  0.16040000  0.41350000  0.86190000  1.0 -0.006092275
C  C107  1  0.13020000  0.34430000  0.83070000  1.0 0.0999610233
C  C108  1  0.07530000  0.32400000  0.83930000  1.0 -0.0508507387
C  C109  1  0.78060000  0.48360000  0.95500000  1.0 0.2645887442
C  C110  1  0.77650000  0.44750000  0.98900000  1.0 0.0231656354
C  C111  1  0.76200000  0.48000000  0.03600000  1.0 0.0815005829
C  C112  1  0.82000000  0.54270000  0.07470000  1.0 0.0312137168
C  C113  1  0.83400000  0.57750000  0.04150000  1.0 0.0815005829
C  C114  1  0.89230000  0.63900000  0.08130000  1.0 -0.0508507387
C  C115  1  0.84890000  0.59870000  0.18420000  1.0 0.1724707492
C  C116  1  0.80980000  0.58790000  0.21410000  1.0 0.0504488506
C  C117  1  0.78930000  0.63420000  0.21490000  1.0 0.0999610233
C  C118  1  0.83960000  0.70150000  0.25310000  1.0 -0.006092275
C  C119  1  0.86980000  0.70050000  0.21410000  1.0 0.0999610233
C  C120  1  0.92470000  0.76400000  0.24870000  1.0 -0.0508507387
C  C121  1  0.47140000  0.51640000  0.29700000  1.0 0.2645887442
C  C122  1  0.54150000  0.55250000  0.32900000  1.0 0.0231656354
C  C123  1  0.55600000  0.52000000  0.28200000  1.0 0.0815005829
C  C124  1  0.53200000  0.45730000  0.27730000  1.0 0.0312137168
C  C125  1  0.46400000  0.42250000  0.25650000  1.0 0.0815005829
C  C126  1  0.44230000  0.36100000  0.25330000  1.0 -0.0508507387
C  C127  1  0.58550000  0.40130000  0.25020000  1.0 0.1724707492
C  C128  1  0.62620000  0.41210000  0.22190000  1.0 0.0504488506
C  C129  1  0.58070000  0.36580000  0.15510000  1.0 0.0999610233
C  C130  1  0.55160000  0.29850000  0.13810000  1.0 -0.006092275
C  C131  1  0.51360000  0.29950000  0.16930000  1.0 0.0999610233
C  C132  1  0.48470000  0.23600000  0.16070000  1.0 -0.0508507387
C  C133  1  0.52860000  0.82560000  0.04500000  1.0 0.2645887442
C  C134  1  0.45850000  0.78750000  0.01100000  1.0 0.0231656354
C  C135  1  0.44400000  0.72600000  0.96400000  1.0 0.0815005829
C  C136  1  0.46800000  0.74530000  0.92530000  1.0 0.0312137168
C  C137  1  0.53600000  0.79250000  0.95850000  1.0 0.0815005829
C  C138  1  0.55770000  0.81100000  0.91870000  1.0 -0.0508507387
C  C139  1  0.41450000  0.66470000  0.81580000  1.0 0.1724707492
C  C140  1  0.37380000  0.59570000  0.78590000  1.0 0.0504488506
C  C141  1  0.41930000  0.57440000  0.78510000  1.0 0.0999610233
C  C142  1  0.44840000  0.58650000  0.74690000  1.0 -0.006092275
C  C143  1  0.48640000  0.65570000  0.78590000  1.0 0.0999610233
C  C144  1  0.51530000  0.67600000  0.75130000  1.0 -0.0508507387
C  C145  1  0.17440000  0.47140000  0.95500000  1.0 0.2645887442
C  C146  1  0.21250000  0.54150000  0.98900000  1.0 0.0231656354
C  C147  1  0.27400000  0.55600000  0.03600000  1.0 0.0815005829
C  C148  1  0.25470000  0.53200000  0.07470000  1.0 0.0312137168
C  C149  1  0.20750000  0.46400000  0.04150000  1.0 0.0815005829
C  C150  1  0.18900000  0.44230000  0.08130000  1.0 -0.0508507387
C  C151  1  0.33530000  0.58550000  0.18420000  1.0 0.1724707492
C  C152  1  0.40430000  0.62620000  0.21410000  1.0 0.0504488506
C  C153  1  0.42560000  0.58070000  0.21490000  1.0 0.0999610233
C  C154  1  0.41350000  0.55160000  0.25310000  1.0 -0.006092275
C  C155  1  0.34430000  0.51360000  0.21410000  1.0 0.0999610233
C  C156  1  0.32400000  0.48470000  0.24870000  1.0 -0.0508507387
C  C157  1  0.48360000  0.52860000  0.70300000  1.0 0.2645887442
C  C158  1  0.44750000  0.45850000  0.67100000  1.0 0.0231656354
C  C159  1  0.48000000  0.44400000  0.71800000  1.0 0.0815005829
C  C160  1  0.54270000  0.46800000  0.72270000  1.0 0.0312137168
C  C161  1  0.57750000  0.53600000  0.74350000  1.0 0.0815005829
C  C162  1  0.63900000  0.55770000  0.74670000  1.0 -0.0508507387
C  C163  1  0.59870000  0.41450000  0.74980000  1.0 0.1724707492
C  C164  1  0.58790000  0.37380000  0.77810000  1.0 0.0504488506
C  C165  1  0.63420000  0.41930000  0.84490000  1.0 0.0999610233
C  C166  1  0.70150000  0.44840000  0.86190000  1.0 -0.006092275
C  C167  1  0.70050000  0.48640000  0.83070000  1.0 0.0999610233
C  C168  1  0.76400000  0.51530000  0.83930000  1.0 -0.0508507387
C  C169  1  0.51640000  0.21940000  0.04500000  1.0 0.2645887442
C  C170  1  0.55250000  0.22350000  0.01100000  1.0 0.0231656354
C  C171  1  0.52000000  0.23800000  0.96400000  1.0 0.0815005829
C  C172  1  0.45730000  0.18000000  0.92530000  1.0 0.0312137168
C  C173  1  0.42250000  0.16600000  0.95850000  1.0 0.0815005829
C  C174  1  0.36100000  0.10770000  0.91870000  1.0 -0.0508507387
C  C175  1  0.40130000  0.15110000  0.81580000  1.0 0.1724707492
C  C176  1  0.41210000  0.19020000  0.78590000  1.0 0.0504488506
C  C177  1  0.36580000  0.21070000  0.78510000  1.0 0.0999610233
C  C178  1  0.29850000  0.16040000  0.74690000  1.0 -0.006092275
C  C179  1  0.29950000  0.13020000  0.78590000  1.0 0.0999610233
C  C180  1  0.23600000  0.07530000  0.75130000  1.0 -0.0508507387
C  C181  1  0.82560000  0.78060000  0.29700000  1.0 0.2645887442
C  C182  1  0.78750000  0.77650000  0.32900000  1.0 0.0231656354
C  C183  1  0.72600000  0.76200000  0.28200000  1.0 0.0815005829
C  C184  1  0.74530000  0.82000000  0.27730000  1.0 0.0312137168
C  C185  1  0.79250000  0.83400000  0.25650000  1.0 0.0815005829
C  C186  1  0.81100000  0.89230000  0.25330000  1.0 -0.0508507387
C  C187  1  0.66470000  0.84890000  0.25020000  1.0 0.1724707492
C  C188  1  0.59570000  0.80980000  0.22190000  1.0 0.0504488506
C  C189  1  0.57440000  0.78930000  0.15510000  1.0 0.0999610233
C  C190  1  0.58650000  0.83960000  0.13810000  1.0 -0.006092275
C  C191  1  0.65570000  0.86980000  0.16930000  1.0 0.0999610233
C  C192  1  0.67600000  0.92470000  0.16070000  1.0 -0.0508507387
C  C193  1  0.52860000  0.70300000  0.48360000  1.0 0.2645887442
C  C194  1  0.45850000  0.67100000  0.44750000  1.0 0.0231656354
C  C195  1  0.44400000  0.71800000  0.48000000  1.0 0.0815005829
C  C196  1  0.46800000  0.72270000  0.54270000  1.0 0.0312137168
C  C197  1  0.53600000  0.74350000  0.57750000  1.0 0.0815005829
C  C198  1  0.55770000  0.74670000  0.63900000  1.0 -0.0508507387
C  C199  1  0.41450000  0.74980000  0.59870000  1.0 0.1724707492
C  C200  1  0.37380000  0.77810000  0.58790000  1.0 0.0504488506
C  C201  1  0.41930000  0.84490000  0.63420000  1.0 0.0999610233
C  C202  1  0.44840000  0.86190000  0.70150000  1.0 -0.006092275
C  C203  1  0.48640000  0.83070000  0.70050000  1.0 0.0999610233
C  C204  1  0.51530000  0.83930000  0.76400000  1.0 -0.0508507387
C  C205  1  0.47140000  0.95500000  0.17440000  1.0 0.2645887442
C  C206  1  0.54150000  0.98900000  0.21250000  1.0 0.0231656354
C  C207  1  0.55600000  0.03600000  0.27400000  1.0 0.0815005829
C  C208  1  0.53200000  0.07470000  0.25470000  1.0 0.0312137168
C  C209  1  0.46400000  0.04150000  0.20750000  1.0 0.0815005829
C  C210  1  0.44230000  0.08130000  0.18900000  1.0 -0.0508507387
C  C211  1  0.58550000  0.18420000  0.33530000  1.0 0.1724707492
C  C212  1  0.62620000  0.21410000  0.40430000  1.0 0.0504488506
C  C213  1  0.58070000  0.21490000  0.42560000  1.0 0.0999610233
C  C214  1  0.55160000  0.25310000  0.41350000  1.0 -0.006092275
C  C215  1  0.51360000  0.21410000  0.34430000  1.0 0.0999610233
C  C216  1  0.48470000  0.24870000  0.32400000  1.0 -0.0508507387
C  C217  1  0.78060000  0.29700000  0.82560000  1.0 0.2645887442
C  C218  1  0.77650000  0.32900000  0.78750000  1.0 0.0231656354
C  C219  1  0.76200000  0.28200000  0.72600000  1.0 0.0815005829
C  C220  1  0.82000000  0.27730000  0.74530000  1.0 0.0312137168
C  C221  1  0.83400000  0.25650000  0.79250000  1.0 0.0815005829
C  C222  1  0.89230000  0.25330000  0.81100000  1.0 -0.0508507387
C  C223  1  0.84890000  0.25020000  0.66470000  1.0 0.1724707492
C  C224  1  0.80980000  0.22190000  0.59570000  1.0 0.0504488506
C  C225  1  0.78930000  0.15510000  0.57440000  1.0 0.0999610233
C  C226  1  0.83960000  0.13810000  0.58650000  1.0 -0.006092275
C  C227  1  0.86980000  0.16930000  0.65570000  1.0 0.0999610233
C  C228  1  0.92470000  0.16070000  0.67600000  1.0 -0.0508507387
C  C229  1  0.21940000  0.04500000  0.51640000  1.0 0.2645887442
C  C230  1  0.22350000  0.01100000  0.55250000  1.0 0.0231656354
C  C231  1  0.23800000  0.96400000  0.52000000  1.0 0.0815005829
C  C232  1  0.18000000  0.92530000  0.45730000  1.0 0.0312137168
C  C233  1  0.16600000  0.95850000  0.42250000  1.0 0.0815005829
C  C234  1  0.10770000  0.91870000  0.36100000  1.0 -0.0508507387
C  C235  1  0.15110000  0.81580000  0.40130000  1.0 0.1724707492
C  C236  1  0.19020000  0.78590000  0.41210000  1.0 0.0504488506
C  C237  1  0.21070000  0.78510000  0.36580000  1.0 0.0999610233
C  C238  1  0.16040000  0.74690000  0.29850000  1.0 -0.006092275
C  C239  1  0.13020000  0.78590000  0.29950000  1.0 0.0999610233
C  C240  1  0.07530000  0.75130000  0.23600000  1.0 -0.0508507387
C  C241  1  0.29700000  0.82560000  0.78060000  1.0 0.2645887442
C  C242  1  0.32900000  0.78750000  0.77650000  1.0 0.0231656354
C  C243  1  0.28200000  0.72600000  0.76200000  1.0 0.0815005829
C  C244  1  0.27730000  0.74530000  0.82000000  1.0 0.0312137168
C  C245  1  0.25650000  0.79250000  0.83400000  1.0 0.0815005829
C  C246  1  0.25330000  0.81100000  0.89230000  1.0 -0.0508507387
C  C247  1  0.25020000  0.66470000  0.84890000  1.0 0.1724707492
C  C248  1  0.22190000  0.59570000  0.80980000  1.0 0.0504488506
C  C249  1  0.15510000  0.57440000  0.78930000  1.0 0.0999610233
C  C250  1  0.13810000  0.58650000  0.83960000  1.0 -0.006092275
C  C251  1  0.16930000  0.65570000  0.86980000  1.0 0.0999610233
C  C252  1  0.16070000  0.67600000  0.92470000  1.0 -0.0508507387
C  C253  1  0.04500000  0.51640000  0.21940000  1.0 0.2645887442
C  C254  1  0.01100000  0.55250000  0.22350000  1.0 0.0231656354
C  C255  1  0.96400000  0.52000000  0.23800000  1.0 0.0815005829
C  C256  1  0.92530000  0.45730000  0.18000000  1.0 0.0312137168
C  C257  1  0.95850000  0.42250000  0.16600000  1.0 0.0815005829
C  C258  1  0.91870000  0.36100000  0.10770000  1.0 -0.0508507387
C  C259  1  0.81580000  0.40130000  0.15110000  1.0 0.1724707492
C  C260  1  0.78590000  0.41210000  0.19020000  1.0 0.0504488506
C  C261  1  0.78510000  0.36580000  0.21070000  1.0 0.0999610233
C  C262  1  0.74690000  0.29850000  0.16040000  1.0 -0.006092275
C  C263  1  0.78590000  0.29950000  0.13020000  1.0 0.0999610233
C  C264  1  0.75130000  0.23600000  0.07530000  1.0 -0.0508507387
C  C265  1  0.70300000  0.48360000  0.52860000  1.0 0.2645887442
C  C266  1  0.67100000  0.44750000  0.45850000  1.0 0.0231656354
C  C267  1  0.71800000  0.48000000  0.44400000  1.0 0.0815005829
C  C268  1  0.72270000  0.54270000  0.46800000  1.0 0.0312137168
C  C269  1  0.74350000  0.57750000  0.53600000  1.0 0.0815005829
C  C270  1  0.74670000  0.63900000  0.55770000  1.0 -0.0508507387
C  C271  1  0.74980000  0.59870000  0.41450000  1.0 0.1724707492
C  C272  1  0.77810000  0.58790000  0.37380000  1.0 0.0504488506
C  C273  1  0.84490000  0.63420000  0.41930000  1.0 0.0999610233
C  C274  1  0.86190000  0.70150000  0.44840000  1.0 -0.006092275
C  C275  1  0.83070000  0.70050000  0.48640000  1.0 0.0999610233
C  C276  1  0.83930000  0.76400000  0.51530000  1.0 -0.0508507387
C  C277  1  0.95500000  0.17440000  0.47140000  1.0 0.2645887442
C  C278  1  0.98900000  0.21250000  0.54150000  1.0 0.0231656354
C  C279  1  0.03600000  0.27400000  0.55600000  1.0 0.0815005829
C  C280  1  0.07470000  0.25470000  0.53200000  1.0 0.0312137168
C  C281  1  0.04150000  0.20750000  0.46400000  1.0 0.0815005829
C  C282  1  0.08130000  0.18900000  0.44230000  1.0 -0.0508507387
C  C283  1  0.18420000  0.33530000  0.58550000  1.0 0.1724707492
C  C284  1  0.21410000  0.40430000  0.62620000  1.0 0.0504488506
C  C285  1  0.21490000  0.42560000  0.58070000  1.0 0.0999610233
C  C286  1  0.25310000  0.41350000  0.55160000  1.0 -0.006092275
C  C287  1  0.21410000  0.34430000  0.51360000  1.0 0.0999610233
C  C288  1  0.24870000  0.32400000  0.48470000  1.0 -0.0508507387
O  O1  1  0.00990000  0.55140000  0.84670000  1.0 -0.272870582
O  O2  1  0.05160000  0.43720000  0.77820000  1.0 -0.4898099134
O  O3  1  0.93340000  0.37860000  0.69140000  1.0 -0.5157929949
O  O4  1  0.87930000  0.45250000  0.68700000  1.0 -0.272870582
O  O5  1  0.89940000  0.52560000  0.84080000  1.0 -0.4000131548
O  O6  1  0.78650000  0.44790000  0.68240000  1.0 -0.3009222266
O  O7  1  0.82700000  0.35070000  0.59510000  1.0 -0.4000131548
O  O8  1  0.75730000  0.37830000  0.51020000  1.0 -0.4220146728
O  O9  1  0.75260000  0.48860000  0.56180000  1.0 -0.1855706714
O  O10  1  0.68940000  0.47150000  0.65490000  1.0 -0.583596322
O  O11  1  0.29530000  0.44860000  0.45850000  1.0 -0.272870582
O  O12  1  0.34100000  0.56280000  0.61440000  1.0 -0.4898099134
O  O13  1  0.31280000  0.62140000  0.55480000  1.0 -0.5157929949
O  O14  1  0.23450000  0.54750000  0.42680000  1.0 -0.272870582
O  O15  1  0.31520000  0.47440000  0.37380000  1.0 -0.4000131548
O  O16  1  0.23450000  0.55210000  0.33860000  1.0 -0.3009222266
O  O17  1  0.24440000  0.64930000  0.47630000  1.0 -0.4000131548
O  O18  1  0.13190000  0.62170000  0.37900000  1.0 -0.4220146728
O  O19  1  0.07320000  0.51140000  0.26400000  1.0 -0.1855706714
O  O20  1  0.18340000  0.52850000  0.21790000  1.0 -0.583596322
O  O21  1  0.99010000  0.83680000  0.54150000  1.0 -0.272870582
O  O22  1  0.94840000  0.72660000  0.38560000  1.0 -0.4898099134
O  O23  1  0.06660000  0.75800000  0.44520000  1.0 -0.5157929949
O  O24  1  0.12070000  0.80770000  0.57320000  1.0 -0.272870582
O  O25  1  0.10060000  0.94140000  0.62620000  1.0 -0.4000131548
O  O26  1  0.21350000  0.89590000  0.66140000  1.0 -0.3009222266
O  O27  1  0.17300000  0.76810000  0.52370000  1.0 -0.4000131548
O  O28  1  0.24270000  0.75290000  0.62100000  1.0 -0.4220146728
O  O29  1  0.24740000  0.80920000  0.73600000  1.0 -0.1855706714
O  O30  1  0.31060000  0.96550000  0.78210000  1.0 -0.5868372313
O  O31  1  0.70470000  0.16320000  0.15330000  1.0 -0.272870582
O  O32  1  0.65900000  0.27340000  0.22180000  1.0 -0.4898099134
O  O33  1  0.68720000  0.24200000  0.30860000  1.0 -0.5157929949
O  O34  1  0.76550000  0.19230000  0.31300000  1.0 -0.272870582
O  O35  1  0.68480000  0.05860000  0.15920000  1.0 -0.4000131548
O  O36  1  0.76550000  0.10410000  0.31760000  1.0 -0.3009222266
O  O37  1  0.75560000  0.23190000  0.40490000  1.0 -0.4000131548
O  O38  1  0.86810000  0.24710000  0.48980000  1.0 -0.4220146728
O  O39  1  0.92680000  0.19080000  0.43820000  1.0 -0.1855706714
O  O40  1  0.81660000  0.03450000  0.34510000  1.0 -0.583596322
O  O41  1  0.45850000  0.29530000  0.44860000  1.0 -0.272870582
O  O42  1  0.61440000  0.34100000  0.56280000  1.0 -0.4898099134
O  O43  1  0.55480000  0.31280000  0.62140000  1.0 -0.5157929949
O  O44  1  0.42680000  0.23450000  0.54750000  1.0 -0.272870582
O  O45  1  0.37380000  0.31520000  0.47440000  1.0 -0.4000131548
O  O46  1  0.33860000  0.23450000  0.55210000  1.0 -0.3009222266
O  O47  1  0.47630000  0.24440000  0.64930000  1.0 -0.4000131548
O  O48  1  0.37900000  0.13190000  0.62170000  1.0 -0.4220146728
O  O49  1  0.26400000  0.07320000  0.51140000  1.0 -0.1855706714
O  O50  1  0.21790000  0.18340000  0.52850000  1.0 -0.583596322
O  O51  1  0.84670000  0.00990000  0.55140000  1.0 -0.272870582
O  O52  1  0.77820000  0.05160000  0.43720000  1.0 -0.4898099134
O  O53  1  0.69140000  0.93340000  0.37860000  1.0 -0.5157929949
O  O54  1  0.68700000  0.87930000  0.45250000  1.0 -0.272870582
O  O55  1  0.84080000  0.89940000  0.52560000  1.0 -0.4000131548
O  O56  1  0.68240000  0.78650000  0.44790000  1.0 -0.3009222266
O  O57  1  0.59510000  0.82700000  0.35070000  1.0 -0.4000131548
O  O58  1  0.51020000  0.75730000  0.37830000  1.0 -0.4220146728
O  O59  1  0.56180000  0.75260000  0.48860000  1.0 -0.1855706714
O  O60  1  0.65490000  0.68940000  0.47150000  1.0 -0.583596322
O  O61  1  0.15330000  0.70470000  0.16320000  1.0 -0.272870582
O  O62  1  0.22180000  0.65900000  0.27340000  1.0 -0.4898099134
O  O63  1  0.30860000  0.68720000  0.24200000  1.0 -0.5157929949
O  O64  1  0.31300000  0.76550000  0.19230000  1.0 -0.272870582
O  O65  1  0.15920000  0.68480000  0.05860000  1.0 -0.4000131548
O  O66  1  0.31760000  0.76550000  0.10410000  1.0 -0.3009222266
O  O67  1  0.40490000  0.75560000  0.23190000  1.0 -0.4000131548
O  O68  1  0.48980000  0.86810000  0.24710000  1.0 -0.4220146728
O  O69  1  0.43820000  0.92680000  0.19080000  1.0 -0.1855706714
O  O70  1  0.34510000  0.81660000  0.03450000  1.0 -0.583596322
O  O71  1  0.54150000  0.99010000  0.83680000  1.0 -0.272870582
O  O72  1  0.38560000  0.94840000  0.72660000  1.0 -0.4898099134
O  O73  1  0.44520000  0.06660000  0.75800000  1.0 -0.5157929949
O  O74  1  0.57320000  0.12070000  0.80770000  1.0 -0.272870582
O  O75  1  0.62620000  0.10060000  0.94140000  1.0 -0.4000131548
O  O76  1  0.66140000  0.21350000  0.89590000  1.0 -0.3009222266
O  O77  1  0.52370000  0.17300000  0.76810000  1.0 -0.4000131548
O  O78  1  0.62100000  0.24270000  0.75290000  1.0 -0.4220146728
O  O79  1  0.73600000  0.24740000  0.80920000  1.0 -0.1855706714
O  O80  1  0.78210000  0.31060000  0.96550000  1.0 -0.583596322
O  O81  1  0.16320000  0.15330000  0.70470000  1.0 -0.272870582
O  O82  1  0.27340000  0.22180000  0.65900000  1.0 -0.4898099134
O  O83  1  0.24200000  0.30860000  0.68720000  1.0 -0.5157929949
O  O84  1  0.19230000  0.31300000  0.76550000  1.0 -0.272870582
O  O85  1  0.05860000  0.15920000  0.68480000  1.0 -0.4000131548
O  O86  1  0.10410000  0.31760000  0.76550000  1.0 -0.3009222266
O  O87  1  0.23190000  0.40490000  0.75560000  1.0 -0.4000131548
O  O88  1  0.24710000  0.48980000  0.86810000  1.0 -0.4220146728
O  O89  1  0.19080000  0.43820000  0.92680000  1.0 -0.1855706714
O  O90  1  0.03450000  0.34510000  0.81660000  1.0 -0.583596322
O  O91  1  0.83680000  0.54150000  0.99010000  1.0 -0.272870582
O  O92  1  0.72660000  0.38560000  0.94840000  1.0 -0.4898099134
O  O93  1  0.75800000  0.44520000  0.06660000  1.0 -0.5157929949
O  O94  1  0.80770000  0.57320000  0.12070000  1.0 -0.272870582
O  O95  1  0.94140000  0.62620000  0.10060000  1.0 -0.4000131548
O  O96  1  0.89590000  0.66140000  0.21350000  1.0 -0.3009222266
O  O97  1  0.76810000  0.52370000  0.17300000  1.0 -0.4000131548
O  O98  1  0.75290000  0.62100000  0.24270000  1.0 -0.4220146728
O  O99  1  0.80920000  0.73600000  0.24740000  1.0 -0.1855706714
O  O100  1  0.96550000  0.78210000  0.31060000  1.0 -0.583596322
O  O101  1  0.44860000  0.45850000  0.29530000  1.0 -0.272870582
O  O102  1  0.56280000  0.61440000  0.34100000  1.0 -0.4898099134
O  O103  1  0.62140000  0.55480000  0.31280000  1.0 -0.5157929949
O  O104  1  0.54750000  0.42680000  0.23450000  1.0 -0.272870582
O  O105  1  0.47440000  0.37380000  0.31520000  1.0 -0.4000131548
O  O106  1  0.55210000  0.33860000  0.23450000  1.0 -0.3009222266
O  O107  1  0.64930000  0.47630000  0.24440000  1.0 -0.4000131548
O  O108  1  0.62170000  0.37900000  0.13190000  1.0 -0.4220146728
O  O109  1  0.51140000  0.26400000  0.07320000  1.0 -0.1855706714
O  O110  1  0.52850000  0.21790000  0.18340000  1.0 -0.583596322
O  O111  1  0.55140000  0.84670000  0.00990000  1.0 -0.272870582
O  O112  1  0.43720000  0.77820000  0.05160000  1.0 -0.4898099134
O  O113  1  0.37860000  0.69140000  0.93340000  1.0 -0.5157929949
O  O114  1  0.45250000  0.68700000  0.87930000  1.0 -0.272870582
O  O115  1  0.52560000  0.84080000  0.89940000  1.0 -0.4000131548
O  O116  1  0.44790000  0.68240000  0.78650000  1.0 -0.3009222266
O  O117  1  0.35070000  0.59510000  0.82700000  1.0 -0.4000131548
O  O118  1  0.37830000  0.51020000  0.75730000  1.0 -0.4220146728
O  O119  1  0.48860000  0.56180000  0.75260000  1.0 -0.1855706714
O  O120  1  0.47150000  0.65490000  0.68940000  1.0 -0.583596322
O  O121  1  0.15330000  0.44860000  0.99010000  1.0 -0.272870582
O  O122  1  0.22180000  0.56280000  0.94840000  1.0 -0.4898099134
O  O123  1  0.30860000  0.62140000  0.06660000  1.0 -0.5157929949
O  O124  1  0.31300000  0.54750000  0.12070000  1.0 -0.272870582
O  O125  1  0.15920000  0.47440000  0.10060000  1.0 -0.4000131548
O  O126  1  0.31760000  0.55210000  0.21350000  1.0 -0.3009222266
O  O127  1  0.40490000  0.64930000  0.17300000  1.0 -0.4000131548
O  O128  1  0.48980000  0.62170000  0.24270000  1.0 -0.4220146728
O  O129  1  0.43820000  0.51140000  0.24740000  1.0 -0.1855706714
O  O130  1  0.34510000  0.52850000  0.31060000  1.0 -0.583596322
O  O131  1  0.54150000  0.55140000  0.70470000  1.0 -0.272870582
O  O132  1  0.38560000  0.43720000  0.65900000  1.0 -0.4898099134
O  O133  1  0.44520000  0.37860000  0.68720000  1.0 -0.5157929949
O  O134  1  0.57320000  0.45250000  0.76550000  1.0 -0.272870582
O  O135  1  0.62620000  0.52560000  0.68480000  1.0 -0.4000131548
O  O136  1  0.66140000  0.44790000  0.76550000  1.0 -0.3009222266
O  O137  1  0.52370000  0.35070000  0.75560000  1.0 -0.4000131548
O  O138  1  0.62100000  0.37830000  0.86810000  1.0 -0.4220146728
O  O139  1  0.73600000  0.48860000  0.92680000  1.0 -0.1855706714
O  O140  1  0.78210000  0.47150000  0.81660000  1.0 -0.583596322
O  O141  1  0.45850000  0.16320000  0.00990000  1.0 -0.272870582
O  O142  1  0.61440000  0.27340000  0.05160000  1.0 -0.4898099134
O  O143  1  0.55480000  0.24200000  0.93340000  1.0 -0.5157929949
O  O144  1  0.42680000  0.19230000  0.87930000  1.0 -0.272870582
O  O145  1  0.37380000  0.05860000  0.89940000  1.0 -0.4000131548
O  O146  1  0.33860000  0.10410000  0.78650000  1.0 -0.3009222266
O  O147  1  0.47630000  0.23190000  0.82700000  1.0 -0.4000131548
O  O148  1  0.37900000  0.24710000  0.75730000  1.0 -0.4220146728
O  O149  1  0.26400000  0.19080000  0.75260000  1.0 -0.1855706714
O  O150  1  0.21790000  0.03450000  0.68940000  1.0 -0.583596322
O  O151  1  0.84670000  0.83680000  0.29530000  1.0 -0.272870582
O  O152  1  0.77820000  0.72660000  0.34100000  1.0 -0.4898099134
O  O153  1  0.69140000  0.75800000  0.31280000  1.0 -0.5157929949
O  O154  1  0.68700000  0.80770000  0.23450000  1.0 -0.272870582
O  O155  1  0.84080000  0.94140000  0.31520000  1.0 -0.4000131548
O  O156  1  0.68240000  0.89590000  0.23450000  1.0 -0.3009222266
O  O157  1  0.59510000  0.76810000  0.24440000  1.0 -0.4000131548
O  O158  1  0.51020000  0.75290000  0.13190000  1.0 -0.4220146728
O  O159  1  0.56180000  0.80920000  0.07320000  1.0 -0.1855706714
O  O160  1  0.65490000  0.96550000  0.18340000  1.0 -0.583596322
O  O161  1  0.55140000  0.70470000  0.54150000  1.0 -0.272870582
O  O162  1  0.43720000  0.65900000  0.38560000  1.0 -0.4898099134
O  O163  1  0.37860000  0.68720000  0.44520000  1.0 -0.5157929949
O  O164  1  0.45250000  0.76550000  0.57320000  1.0 -0.272870582
O  O165  1  0.52560000  0.68480000  0.62620000  1.0 -0.4000131548
O  O166  1  0.44790000  0.76550000  0.66140000  1.0 -0.3009222266
O  O167  1  0.35070000  0.75560000  0.52370000  1.0 -0.4000131548
O  O168  1  0.37830000  0.86810000  0.62100000  1.0 -0.4220146728
O  O169  1  0.48860000  0.92680000  0.73600000  1.0 -0.1855706714
O  O170  1  0.47150000  0.81660000  0.78210000  1.0 -0.583596322
O  O171  1  0.44860000  0.99010000  0.15330000  1.0 -0.272870582
O  O172  1  0.56280000  0.94840000  0.22180000  1.0 -0.4898099134
O  O173  1  0.62140000  0.06660000  0.30860000  1.0 -0.5157929949
O  O174  1  0.54750000  0.12070000  0.31300000  1.0 -0.272870582
O  O175  1  0.47440000  0.10060000  0.15920000  1.0 -0.4000131548
O  O176  1  0.55210000  0.21350000  0.31760000  1.0 -0.3009222266
O  O177  1  0.64930000  0.17300000  0.40490000  1.0 -0.4000131548
O  O178  1  0.62170000  0.24270000  0.48980000  1.0 -0.4220146728
O  O179  1  0.51140000  0.24740000  0.43820000  1.0 -0.1855706714
O  O180  1  0.52850000  0.31060000  0.34510000  1.0 -0.583596322
O  O181  1  0.83680000  0.29530000  0.84670000  1.0 -0.272870582
O  O182  1  0.72660000  0.34100000  0.77820000  1.0 -0.4898099134
O  O183  1  0.75800000  0.31280000  0.69140000  1.0 -0.5157929949
O  O184  1  0.80770000  0.23450000  0.68700000  1.0 -0.272870582
O  O185  1  0.94140000  0.31520000  0.84080000  1.0 -0.4000131548
O  O186  1  0.89590000  0.23450000  0.68240000  1.0 -0.3009222266
O  O187  1  0.76810000  0.24440000  0.59510000  1.0 -0.4000131548
O  O188  1  0.75290000  0.13190000  0.51020000  1.0 -0.4220146728
O  O189  1  0.80920000  0.07320000  0.56180000  1.0 -0.1855706714
O  O190  1  0.96550000  0.18340000  0.65490000  1.0 -0.583596322
O  O191  1  0.16320000  0.00990000  0.45850000  1.0 -0.272870582
O  O192  1  0.27340000  0.05160000  0.61440000  1.0 -0.4898099134
O  O193  1  0.24200000  0.93340000  0.55480000  1.0 -0.5157929949
O  O194  1  0.19230000  0.87930000  0.42680000  1.0 -0.272870582
O  O195  1  0.05860000  0.89940000  0.37380000  1.0 -0.4000131548
O  O196  1  0.10410000  0.78650000  0.33860000  1.0 -0.3009222266
O  O197  1  0.23190000  0.82700000  0.47630000  1.0 -0.4000131548
O  O198  1  0.24710000  0.75730000  0.37900000  1.0 -0.4220146728
O  O199  1  0.19080000  0.75260000  0.26400000  1.0 -0.1855706714
O  O200  1  0.03450000  0.68940000  0.21790000  1.0 -0.583596322
O  O201  1  0.29530000  0.84670000  0.83680000  1.0 -0.272870582
O  O202  1  0.34100000  0.77820000  0.72660000  1.0 -0.4898099134
O  O203  1  0.31280000  0.69140000  0.75800000  1.0 -0.5157929949
O  O204  1  0.23450000  0.68700000  0.80770000  1.0 -0.272870582
O  O205  1  0.31520000  0.84080000  0.94140000  1.0 -0.4000131548
O  O206  1  0.23450000  0.68240000  0.89590000  1.0 -0.3009222266
O  O207  1  0.24440000  0.59510000  0.76810000  1.0 -0.4000131548
O  O208  1  0.13190000  0.51020000  0.75290000  1.0 -0.4220146728
O  O209  1  0.07320000  0.56180000  0.80920000  1.0 -0.1855706714
O  O210  1  0.18340000  0.65490000  0.96550000  1.0 -0.583596322
O  O211  1  0.00990000  0.45850000  0.16320000  1.0 -0.272870582
O  O212  1  0.05160000  0.61440000  0.27340000  1.0 -0.4898099134
O  O213  1  0.93340000  0.55480000  0.24200000  1.0 -0.5157929949
O  O214  1  0.87930000  0.42680000  0.19230000  1.0 -0.272870582
O  O215  1  0.89940000  0.37380000  0.05860000  1.0 -0.4000131548
O  O216  1  0.78650000  0.33860000  0.10410000  1.0 -0.3009222266
O  O217  1  0.82700000  0.47630000  0.23190000  1.0 -0.4000131548
O  O218  1  0.75730000  0.37900000  0.24710000  1.0 -0.4220146728
O  O219  1  0.75260000  0.26400000  0.19080000  1.0 -0.1855706714
O  O220  1  0.68940000  0.21790000  0.03450000  1.0 -0.583596322
O  O221  1  0.70470000  0.54150000  0.55140000  1.0 -0.272870582
O  O222  1  0.65900000  0.38560000  0.43720000  1.0 -0.4898099134
O  O223  1  0.68720000  0.44520000  0.37860000  1.0 -0.5157929949
O  O224  1  0.76550000  0.57320000  0.45250000  1.0 -0.272870582
O  O225  1  0.68480000  0.62620000  0.52560000  1.0 -0.4000131548
O  O226  1  0.76550000  0.66140000  0.44790000  1.0 -0.3009222266
O  O227  1  0.75560000  0.52370000  0.35070000  1.0 -0.4000131548
O  O228  1  0.86810000  0.62100000  0.37830000  1.0 -0.4220146728
O  O229  1  0.92680000  0.73600000  0.48860000  1.0 -0.1855706714
O  O230  1  0.81660000  0.78210000  0.47150000  1.0 -0.583596322
O  O231  1  0.99010000  0.15330000  0.44860000  1.0 -0.272870582
O  O232  1  0.94840000  0.22180000  0.56280000  1.0 -0.4898099134
O  O233  1  0.06660000  0.30860000  0.62140000  1.0 -0.5157929949
O  O234  1  0.12070000  0.31300000  0.54750000  1.0 -0.272870582
O  O235  1  0.10060000  0.15920000  0.47440000  1.0 -0.4000131548
O  O236  1  0.21350000  0.31760000  0.55210000  1.0 -0.3009222266
O  O237  1  0.17300000  0.40490000  0.64930000  1.0 -0.4000131548
O  O238  1  0.24270000  0.48980000  0.62170000  1.0 -0.4220146728
O  O239  1  0.24740000  0.43820000  0.51140000  1.0 -0.1855706714
O  O240  1  0.31060000  0.34510000  0.52850000  1.0 -0.583596322
