# DDEC6 charges by PACMAN v1.1 (https://github.com/mtap-research/PACMAN-charge/)
data_FUFTUX_FSR_pacman
_symmetry_space_group_name_H-M   'P 1'
_cell_length_a   14.37000000
_cell_length_b   28.43100000
_cell_length_c   20.76320000
_cell_angle_alpha   90.00000000
_cell_angle_beta   122.18000000
_cell_angle_gamma   90.00000000
_symmetry_Int_Tables_number   1
_chemical_formula_structural   NaCo2H53C78(N2O9)2
_chemical_formula_sum   'Na4 Co8 H212 C312 N16 O72'
_cell_volume   7179.73034544
_cell_formula_units_Z   4
loop_
 _symmetry_equiv_pos_site_id
 _symmetry_equiv_pos_as_xyz
  1  'x, y, z'
loop_
 _atom_site_type_symbol
 _atom_site_label
 _atom_site_symmetry_multiplicity
 _atom_site_fract_x
 _atom_site_fract_y
 _atom_site_fract_z
 _atom_site_occupancy
 _atom_site_charge
Na  Na1  1  0.94069000  0.16695000  0.60890000  1.0 0.8558973366
Na  Na2  1  0.05931000  0.66695000  0.89110000  1.0 0.8558973366
Na  Na3  1  0.05931000  0.83305000  0.39110000  1.0 0.8558973366
Na  Na4  1  0.94069000  0.33305000  0.10890000  1.0 0.8558973366
Co  Co1  1  0.69389000  0.13466000  0.55733000  1.0 0.8282715821
Co  Co2  1  0.30611000  0.63466000  0.94267000  1.0 0.8282715821
Co  Co3  1  0.30611000  0.86534000  0.44267000  1.0 0.8282715821
Co  Co4  1  0.69389000  0.36534000  0.05733000  1.0 0.8282715821
Co  Co5  1  0.97795000  0.14920000  0.46634000  1.0 0.8395368302
Co  Co6  1  0.02205000  0.64920000  0.03366000  1.0 0.8395368302
Co  Co7  1  0.02205000  0.85080000  0.53366000  1.0 0.8395368302
Co  Co8  1  0.97795000  0.35080000  0.96634000  1.0 0.8395368302
H  H1  1  0.29600000  0.06010000  0.14960000  1.0 0.09883576
H  H2  1  0.70400000  0.56010000  0.35040000  1.0 0.09883576
H  H3  1  0.70400000  0.93990000  0.85040000  1.0 0.09883576
H  H4  1  0.29600000  0.43990000  0.64960000  1.0 0.09883576
H  H5  1  0.32430000  0.10100000  0.11170000  1.0 0.09883576
H  H6  1  0.67570000  0.60100000  0.38830000  1.0 0.09883576
H  H7  1  0.67570000  0.89900000  0.88830000  1.0 0.09883576
H  H8  1  0.32430000  0.39900000  0.61170000  1.0 0.09883576
H  H9  1  0.31510000  0.98940000  0.17480000  1.0 0.09883576
H  H10  1  0.68490000  0.48940000  0.32520000  1.0 0.09883576
H  H11  1  0.68490000  0.01060000  0.82520000  1.0 0.09883576
H  H12  1  0.31510000  0.51060000  0.67480000  1.0 0.09883576
H  H13  1  0.27760000  0.94050000  0.13290000  1.0 0.09883576
H  H14  1  0.72240000  0.44050000  0.36710000  1.0 0.09883576
H  H15  1  0.72240000  0.05950000  0.86710000  1.0 0.09883576
H  H16  1  0.27760000  0.55950000  0.63290000  1.0 0.09883576
H  H17  1  0.18840000  0.90130000  0.95110000  1.0 0.09883576
H  H18  1  0.81160000  0.40130000  0.54890000  1.0 0.09883576
H  H19  1  0.81160000  0.09870000  0.04890000  1.0 0.09883576
H  H20  1  0.18840000  0.59870000  0.45110000  1.0 0.09883576
H  H21  1  0.15650000  0.91910000  0.00880000  1.0 0.09883576
H  H22  1  0.84350000  0.41910000  0.49120000  1.0 0.09883576
H  H23  1  0.84350000  0.08090000  0.99120000  1.0 0.09883576
H  H24  1  0.15650000  0.58090000  0.50880000  1.0 0.09883576
H  H25  1  0.31800000  0.95560000  0.86790000  1.0 0.09883576
H  H26  1  0.68200000  0.45560000  0.63210000  1.0 0.09883576
H  H27  1  0.68200000  0.04440000  0.13210000  1.0 0.09883576
H  H28  1  0.31800000  0.54440000  0.36790000  1.0 0.09883576
H  H29  1  0.20530000  0.94000000  0.85700000  1.0 0.09883576
H  H30  1  0.79470000  0.44000000  0.64300000  1.0 0.09883576
H  H31  1  0.79470000  0.06000000  0.14300000  1.0 0.09883576
H  H32  1  0.20530000  0.56000000  0.35700000  1.0 0.09883576
H  H33  1  0.42650000  0.00830000  0.90600000  1.0 0.0911162811
H  H34  1  0.57350000  0.50830000  0.59400000  1.0 0.0911162811
H  H35  1  0.57350000  0.99170000  0.09400000  1.0 0.0911162811
H  H36  1  0.42650000  0.49170000  0.40600000  1.0 0.0911162811
H  H37  1  0.43750000  0.06060000  0.93360000  1.0 0.09883576
H  H38  1  0.56250000  0.56060000  0.56640000  1.0 0.09883576
H  H39  1  0.56250000  0.93940000  0.06640000  1.0 0.09883576
H  H40  1  0.43750000  0.43940000  0.43360000  1.0 0.09883576
H  H41  1  0.47320000  0.09830000  0.02330000  1.0 0.09883576
H  H42  1  0.52680000  0.59830000  0.47670000  1.0 0.09883576
H  H43  1  0.52680000  0.90170000  0.97670000  1.0 0.09883576
H  H44  1  0.47320000  0.40170000  0.52330000  1.0 0.09883576
H  H45  1  0.43190000  0.11320000  0.07710000  1.0 0.09883576
H  H46  1  0.56810000  0.61320000  0.42290000  1.0 0.09883576
H  H47  1  0.56810000  0.88680000  0.92290000  1.0 0.09883576
H  H48  1  0.43190000  0.38680000  0.57710000  1.0 0.09883576
H  H49  1  0.32960000  0.12760000  0.21650000  1.0 0.1290815235
H  H50  1  0.67040000  0.62760000  0.28350000  1.0 0.1290815235
H  H51  1  0.67040000  0.87240000  0.78350000  1.0 0.1290815235
H  H52  1  0.32960000  0.37240000  0.71650000  1.0 0.1290815235
H  H53  1  0.38710000  0.18080000  0.31460000  1.0 0.1092248516
H  H54  1  0.61290000  0.68080000  0.18540000  1.0 0.1092248516
H  H55  1  0.61290000  0.81920000  0.68540000  1.0 0.1092248516
H  H56  1  0.38710000  0.31920000  0.81460000  1.0 0.1092248516
H  H57  1  0.57040000  0.18820000  0.40860000  1.0 0.1189205386
H  H58  1  0.42960000  0.68820000  0.09140000  1.0 0.1189205386
H  H59  1  0.42960000  0.81180000  0.59140000  1.0 0.1189205386
H  H60  1  0.57040000  0.31180000  0.90860000  1.0 0.1189205386
H  H61  1  0.64210000  0.08560000  0.30890000  1.0 0.1455449977
H  H62  1  0.35790000  0.58560000  0.19110000  1.0 0.1455449977
H  H63  1  0.35790000  0.91440000  0.69110000  1.0 0.1455449977
H  H64  1  0.64210000  0.41440000  0.80890000  1.0 0.1455449977
H  H65  1  0.95720000  0.98660000  0.04990000  1.0 0.1384784083
H  H66  1  0.04280000  0.48660000  0.45010000  1.0 0.1384784083
H  H67  1  0.04280000  0.01340000  0.95010000  1.0 0.1384784083
H  H68  1  0.95720000  0.51340000  0.54990000  1.0 0.1384784083
H  H69  1  0.86420000  0.95230000  0.10130000  1.0 0.1092248516
H  H70  1  0.13580000  0.45230000  0.39870000  1.0 0.1092248516
H  H71  1  0.13580000  0.04770000  0.89870000  1.0 0.1092248516
H  H72  1  0.86420000  0.54770000  0.60130000  1.0 0.1092248516
H  H73  1  0.95960000  0.91430000  0.21640000  1.0 0.1189205386
H  H74  1  0.04040000  0.41430000  0.28360000  1.0 0.1189205386
H  H75  1  0.04040000  0.08570000  0.78360000  1.0 0.1189205386
H  H76  1  0.95960000  0.58570000  0.71640000  1.0 0.1189205386
H  H77  1  0.24060000  0.94140000  0.22830000  1.0 0.1290815235
H  H78  1  0.75940000  0.44140000  0.27170000  1.0 0.1290815235
H  H79  1  0.75940000  0.05860000  0.77170000  1.0 0.1290815235
H  H80  1  0.24060000  0.55860000  0.72830000  1.0 0.1290815235
H  H81  1  0.40630000  0.83160000  0.16940000  1.0 0.1290815235
H  H82  1  0.59370000  0.33160000  0.33060000  1.0 0.1290815235
H  H83  1  0.59370000  0.16840000  0.83060000  1.0 0.1290815235
H  H84  1  0.40630000  0.66840000  0.66940000  1.0 0.1290815235
H  H85  1  0.36240000  0.75850000  0.19360000  1.0 0.1092248516
H  H86  1  0.63760000  0.25850000  0.30640000  1.0 0.1092248516
H  H87  1  0.63760000  0.24150000  0.80640000  1.0 0.1092248516
H  H88  1  0.36240000  0.74150000  0.69360000  1.0 0.1092248516
H  H89  1  0.19680000  0.72380000  0.10740000  1.0 0.1092248516
H  H90  1  0.80320000  0.22380000  0.39260000  1.0 0.1092248516
H  H91  1  0.80320000  0.27620000  0.89260000  1.0 0.1092248516
H  H92  1  0.19680000  0.77620000  0.60740000  1.0 0.1092248516
H  H93  1  0.11140000  0.83700000  0.97300000  1.0 0.1290815235
H  H94  1  0.88860000  0.33700000  0.52700000  1.0 0.1290815235
H  H95  1  0.88860000  0.16300000  0.02700000  1.0 0.1290815235
H  H96  1  0.11140000  0.66300000  0.47300000  1.0 0.1290815235
H  H97  1  0.27460000  0.81770000  0.94300000  1.0 0.1384784083
H  H98  1  0.72540000  0.31770000  0.55700000  1.0 0.1384784083
H  H99  1  0.72540000  0.18230000  0.05700000  1.0 0.1384784083
H  H100  1  0.27460000  0.68230000  0.44300000  1.0 0.1384784083
H  H101  1  0.26410000  0.75180000  0.76960000  1.0 0.1189205386
H  H102  1  0.73590000  0.25180000  0.73040000  1.0 0.1189205386
H  H103  1  0.73590000  0.24820000  0.23040000  1.0 0.1189205386
H  H104  1  0.26410000  0.74820000  0.26960000  1.0 0.1189205386
H  H105  1  0.29070000  0.82230000  0.72810000  1.0 0.1092248516
H  H106  1  0.70930000  0.32230000  0.77190000  1.0 0.1092248516
H  H107  1  0.70930000  0.17770000  0.27190000  1.0 0.1092248516
H  H108  1  0.29070000  0.67770000  0.22810000  1.0 0.1092248516
H  H109  1  0.31560000  0.89040000  0.79510000  1.0 0.1290815235
H  H110  1  0.68440000  0.39040000  0.70490000  1.0 0.1290815235
H  H111  1  0.68440000  0.10960000  0.20490000  1.0 0.1290815235
H  H112  1  0.31560000  0.60960000  0.29510000  1.0 0.1290815235
H  H113  1  0.19450000  0.15440000  0.83640000  1.0 0.1455449977
H  H114  1  0.80550000  0.65440000  0.66360000  1.0 0.1455449977
H  H115  1  0.80550000  0.84560000  0.16360000  1.0 0.1455449977
H  H116  1  0.19450000  0.34560000  0.33640000  1.0 0.1455449977
H  H117  1  0.50380000  0.17240000  0.01160000  1.0 0.1189205386
H  H118  1  0.49620000  0.67240000  0.48840000  1.0 0.1189205386
H  H119  1  0.49620000  0.82760000  0.98840000  1.0 0.1189205386
H  H120  1  0.50380000  0.32760000  0.51160000  1.0 0.1189205386
H  H121  1  0.53520000  0.22380000  0.94010000  1.0 0.1189205386
H  H122  1  0.46480000  0.72380000  0.55990000  1.0 0.1189205386
H  H123  1  0.46480000  0.77620000  0.05990000  1.0 0.1189205386
H  H124  1  0.53520000  0.27620000  0.44010000  1.0 0.1189205386
H  H125  1  0.40000000  0.23880000  0.81550000  1.0 0.1092248516
H  H126  1  0.60000000  0.73880000  0.68450000  1.0 0.1092248516
H  H127  1  0.60000000  0.76120000  0.18450000  1.0 0.1092248516
H  H128  1  0.40000000  0.26120000  0.31550000  1.0 0.1092248516
H  H129  1  0.15120000  0.07910000  0.71440000  1.0 0.1290815235
H  H130  1  0.84880000  0.57910000  0.78560000  1.0 0.1290815235
H  H131  1  0.84880000  0.92090000  0.28560000  1.0 0.1290815235
H  H132  1  0.15120000  0.42090000  0.21440000  1.0 0.1290815235
H  H133  1  0.47770000  0.05830000  0.84310000  1.0 0.1189205386
H  H134  1  0.52230000  0.55830000  0.65690000  1.0 0.1189205386
H  H135  1  0.52230000  0.94170000  0.15690000  1.0 0.1189205386
H  H136  1  0.47770000  0.44170000  0.34310000  1.0 0.1189205386
H  H137  1  0.49530000  0.09250000  0.74940000  1.0 0.1092248516
H  H138  1  0.50470000  0.59250000  0.75060000  1.0 0.1092248516
H  H139  1  0.50470000  0.90750000  0.25060000  1.0 0.1092248516
H  H140  1  0.49530000  0.40750000  0.24940000  1.0 0.1092248516
H  H141  1  0.34460000  0.11800000  0.63810000  1.0 0.1092248516
H  H142  1  0.65540000  0.61800000  0.86190000  1.0 0.1092248516
H  H143  1  0.65540000  0.88200000  0.36190000  1.0 0.1092248516
H  H144  1  0.34460000  0.38200000  0.13810000  1.0 0.1092248516
H  H145  1  0.00130000  0.24720000  0.39980000  1.0 0.1092248516
H  H146  1  0.99870000  0.74720000  0.10020000  1.0 0.1092248516
H  H147  1  0.99870000  0.75280000  0.60020000  1.0 0.1092248516
H  H148  1  0.00130000  0.25280000  0.89980000  1.0 0.1092248516
H  H149  1  0.02180000  0.27230000  0.30230000  1.0 0.1384784083
H  H150  1  0.97820000  0.77230000  0.19770000  1.0 0.1384784083
H  H151  1  0.97820000  0.72770000  0.69770000  1.0 0.1384784083
H  H152  1  0.02180000  0.22770000  0.80230000  1.0 0.1384784083
H  H153  1  0.03020000  0.21940000  0.22400000  1.0 0.1384784083
H  H154  1  0.96980000  0.71940000  0.27600000  1.0 0.1384784083
H  H155  1  0.96980000  0.78060000  0.77600000  1.0 0.1384784083
H  H156  1  0.03020000  0.28060000  0.72400000  1.0 0.1384784083
H  H157  1  0.01940000  0.05610000  0.21230000  1.0 0.1290815235
H  H158  1  0.98060000  0.55610000  0.28770000  1.0 0.1290815235
H  H159  1  0.98060000  0.94390000  0.78770000  1.0 0.1290815235
H  H160  1  0.01940000  0.44390000  0.71230000  1.0 0.1290815235
H  H161  1  0.03290000  0.13190000  0.19050000  1.0 0.1384784083
H  H162  1  0.96710000  0.63190000  0.30950000  1.0 0.1384784083
H  H163  1  0.96710000  0.86810000  0.80950000  1.0 0.1384784083
H  H164  1  0.03290000  0.36810000  0.69050000  1.0 0.1384784083
H  H165  1  0.99440000  0.99310000  0.29140000  1.0 0.1290815235
H  H166  1  0.00560000  0.49310000  0.20860000  1.0 0.1290815235
H  H167  1  0.00560000  0.00690000  0.70860000  1.0 0.1290815235
H  H168  1  0.99440000  0.50690000  0.79140000  1.0 0.1290815235
H  H169  1  0.96750000  0.97660000  0.38760000  1.0 0.1290815235
H  H170  1  0.03250000  0.47660000  0.11240000  1.0 0.1290815235
H  H171  1  0.03250000  0.02340000  0.61240000  1.0 0.1290815235
H  H172  1  0.96750000  0.52340000  0.88760000  1.0 0.1290815235
H  H173  1  0.95850000  0.03710000  0.45840000  1.0 0.09883576
H  H174  1  0.04150000  0.53710000  0.04160000  1.0 0.09883576
H  H175  1  0.04150000  0.96290000  0.54160000  1.0 0.09883576
H  H176  1  0.95850000  0.46290000  0.95840000  1.0 0.09883576
H  H177  1  0.81490000  0.04560000  0.53600000  1.0 0.1092248516
H  H178  1  0.18510000  0.54560000  0.96400000  1.0 0.1092248516
H  H179  1  0.18510000  0.95440000  0.46400000  1.0 0.1092248516
H  H180  1  0.81490000  0.45440000  0.03600000  1.0 0.1092248516
H  H181  1  0.76520000  0.97450000  0.47170000  1.0 0.1290815235
H  H182  1  0.23480000  0.47450000  0.02830000  1.0 0.1290815235
H  H183  1  0.23480000  0.02550000  0.52830000  1.0 0.1290815235
H  H184  1  0.76520000  0.52550000  0.97170000  1.0 0.1290815235
H  H185  1  0.58450000  0.95290000  0.40110000  1.0 0.1290815235
H  H186  1  0.41550000  0.45290000  0.09890000  1.0 0.1290815235
H  H187  1  0.41550000  0.04710000  0.59890000  1.0 0.1290815235
H  H188  1  0.58450000  0.54710000  0.90110000  1.0 0.1290815235
H  H189  1  0.26260000  0.02440000  0.34780000  1.0 0.1290815235
H  H190  1  0.73740000  0.52440000  0.15220000  1.0 0.1290815235
H  H191  1  0.73740000  0.97560000  0.65220000  1.0 0.1290815235
H  H192  1  0.26260000  0.47560000  0.84780000  1.0 0.1290815235
H  H193  1  0.38260000  0.97320000  0.35340000  1.0 0.1290815235
H  H194  1  0.61740000  0.47320000  0.14660000  1.0 0.1290815235
H  H195  1  0.61740000  0.02680000  0.64660000  1.0 0.1290815235
H  H196  1  0.38260000  0.52680000  0.85340000  1.0 0.1290815235
H  H197  1  0.47690000  0.18490000  0.52270000  1.0 0.1189205386
H  H198  1  0.52310000  0.68490000  0.97730000  1.0 0.1189205386
H  H199  1  0.52310000  0.81510000  0.47730000  1.0 0.1189205386
H  H200  1  0.47690000  0.31510000  0.02270000  1.0 0.1189205386
H  H201  1  0.29040000  0.17080000  0.45510000  1.0 0.1384784083
H  H202  1  0.70960000  0.67080000  0.04490000  1.0 0.1384784083
H  H203  1  0.70960000  0.82920000  0.54490000  1.0 0.1384784083
H  H204  1  0.29040000  0.32920000  0.95510000  1.0 0.1384784083
H  H205  1  0.22400000  0.10200000  0.38870000  1.0 0.1189205386
H  H206  1  0.77600000  0.60200000  0.11130000  1.0 0.1189205386
H  H207  1  0.77600000  0.89800000  0.61130000  1.0 0.1189205386
H  H208  1  0.22400000  0.39800000  0.88870000  1.0 0.1189205386
H  H209  1  0.15440000  0.24780000  0.65960000  1.0 0.3686468372
H  H210  1  0.84560000  0.74780000  0.84040000  1.0 0.3686468372
H  H211  1  0.84560000  0.75220000  0.34040000  1.0 0.3686468372
H  H212  1  0.15440000  0.25220000  0.15960000  1.0 0.3686468372
C  C1  1  0.33670000  0.03582000  0.07470000  1.0 0.0111286281
C  C2  1  0.66330000  0.53582000  0.42530000  1.0 0.0111286281
C  C3  1  0.66330000  0.96418000  0.92530000  1.0 0.0111286281
C  C4  1  0.33670000  0.46418000  0.57470000  1.0 0.0111286281
C  C5  1  0.29340000  0.99111000  0.06870000  1.0 0.0031257351
C  C6  1  0.70660000  0.49111000  0.43130000  1.0 0.0031257351
C  C7  1  0.70660000  0.00889000  0.93130000  1.0 0.0031257351
C  C8  1  0.29340000  0.50889000  0.56870000  1.0 0.0031257351
C  C9  1  0.27430000  0.96118000  0.00910000  1.0 0.0111286281
C  C10  1  0.72570000  0.46118000  0.49090000  1.0 0.0111286281
C  C11  1  0.72570000  0.03882000  0.99090000  1.0 0.0111286281
C  C12  1  0.27430000  0.53882000  0.50910000  1.0 0.0111286281
C  C13  1  0.30440000  0.97489000  0.95820000  1.0 -0.0014040828
C  C14  1  0.69560000  0.47489000  0.54180000  1.0 -0.0014040828
C  C15  1  0.69560000  0.02511000  0.04180000  1.0 -0.0014040828
C  C16  1  0.30440000  0.52511000  0.45820000  1.0 -0.0014040828
C  C17  1  0.35350000  0.01924000  0.96670000  1.0 -0.0014040828
C  C18  1  0.64650000  0.51924000  0.53330000  1.0 -0.0014040828
C  C19  1  0.64650000  0.98076000  0.03330000  1.0 -0.0014040828
C  C20  1  0.35350000  0.48076000  0.46670000  1.0 -0.0014040828
C  C21  1  0.36690000  0.05004000  0.02360000  1.0 0.0031257351
C  C22  1  0.63310000  0.55004000  0.47640000  1.0 0.0031257351
C  C23  1  0.63310000  0.94996000  0.97640000  1.0 0.0031257351
C  C24  1  0.36690000  0.44996000  0.52360000  1.0 0.0031257351
C  C25  1  0.34500000  0.06968000  0.13320000  1.0 -0.0799986079
C  C26  1  0.65500000  0.56968000  0.36680000  1.0 -0.0799986079
C  C27  1  0.65500000  0.93032000  0.86680000  1.0 -0.0799986079
C  C28  1  0.34500000  0.43032000  0.63320000  1.0 -0.0799986079
C  C29  1  0.26720000  0.97424000  0.12610000  1.0 -0.0799986079
C  C30  1  0.73280000  0.47424000  0.37390000  1.0 -0.0799986079
C  C31  1  0.73280000  0.02576000  0.87390000  1.0 -0.0799986079
C  C32  1  0.26720000  0.52576000  0.62610000  1.0 -0.0799986079
C  C33  1  0.21700000  0.91462000  0.00130000  1.0 -0.0707806108
C  C34  1  0.78300000  0.41462000  0.49870000  1.0 -0.0707806108
C  C35  1  0.78300000  0.08538000  0.99870000  1.0 -0.0707806108
C  C36  1  0.21700000  0.58538000  0.50130000  1.0 -0.0799986079
C  C37  1  0.28360000  0.94294000  0.89370000  1.0 -0.0707806108
C  C38  1  0.71640000  0.44294000  0.60630000  1.0 -0.0707806108
C  C39  1  0.71640000  0.05706000  0.10630000  1.0 -0.0707806108
C  C40  1  0.28360000  0.55706000  0.39370000  1.0 -0.0707806108
C  C41  1  0.38790000  0.03393000  0.91270000  1.0 -0.0799986079
C  C42  1  0.61210000  0.53393000  0.58730000  1.0 -0.0799986079
C  C43  1  0.61210000  0.96607000  0.08730000  1.0 -0.0799986079
C  C44  1  0.38790000  0.46607000  0.41270000  1.0 -0.0799986079
C  C45  1  0.41010000  0.09900000  0.02860000  1.0 -0.0707806108
C  C46  1  0.58990000  0.59900000  0.47140000  1.0 -0.0707806108
C  C47  1  0.58990000  0.90100000  0.97140000  1.0 -0.0707806108
C  C48  1  0.41010000  0.40100000  0.52860000  1.0 -0.0707806108
C  C49  1  0.48060000  0.10180000  0.25280000  1.0 0.245631522
C  C50  1  0.51940000  0.60180000  0.24720000  1.0 0.245631522
C  C51  1  0.51940000  0.89820000  0.74720000  1.0 0.245631522
C  C52  1  0.48060000  0.39820000  0.75280000  1.0 0.245631522
C  C53  1  0.40370000  0.12999000  0.25440000  1.0 -0.2284439996
C  C54  1  0.59630000  0.62999000  0.24560000  1.0 -0.2284439996
C  C55  1  0.59630000  0.87001000  0.74560000  1.0 -0.2284439996
C  C56  1  0.40370000  0.37001000  0.75440000  1.0 -0.2284439996
C  C57  1  0.43860000  0.16182000  0.31320000  1.0 -0.0707806108
C  C58  1  0.56140000  0.66182000  0.18680000  1.0 -0.0707806108
C  C59  1  0.56140000  0.83818000  0.68680000  1.0 -0.0707806108
C  C60  1  0.43860000  0.33818000  0.81320000  1.0 -0.0707806108
C  C61  1  0.54840000  0.16610000  0.37010000  1.0 -0.1593965224
C  C62  1  0.45160000  0.66610000  0.12990000  1.0 -0.1593965224
C  C63  1  0.45160000  0.83390000  0.62990000  1.0 -0.1593965224
C  C64  1  0.54840000  0.33390000  0.87010000  1.0 -0.1593965224
C  C65  1  0.62510000  0.13723000  0.36920000  1.0 -0.0197589403
C  C66  1  0.37490000  0.63723000  0.13080000  1.0 -0.0197589403
C  C67  1  0.37490000  0.86277000  0.63080000  1.0 -0.0197589403
C  C68  1  0.62510000  0.36277000  0.86920000  1.0 -0.0197589403
C  C69  1  0.59080000  0.10502000  0.31000000  1.0 -0.2390551238
C  C70  1  0.40920000  0.60502000  0.19000000  1.0 -0.2390551238
C  C71  1  0.40920000  0.89498000  0.69000000  1.0 -0.2390551238
C  C72  1  0.59080000  0.39498000  0.81000000  1.0 -0.2390551238
C  C73  1  0.74350000  0.14117000  0.43110000  1.0 0.5836958432
C  C74  1  0.25650000  0.64117000  0.06890000  1.0 0.5836958432
C  C75  1  0.25650000  0.85883000  0.56890000  1.0 0.5836958432
C  C76  1  0.74350000  0.35883000  0.93110000  1.0 0.5836958432
C  C77  1  0.10800000  0.96624000  0.13360000  1.0 0.245631522
C  C78  1  0.89200000  0.46624000  0.36640000  1.0 0.243996709
C  C79  1  0.89200000  0.03376000  0.86640000  1.0 0.243996709
C  C80  1  0.10800000  0.53376000  0.63360000  1.0 0.243996709
C  C81  1  0.99580000  0.97046000  0.09590000  1.0 -0.2119905889
C  C82  1  0.00420000  0.47046000  0.40410000  1.0 -0.2119905889
C  C83  1  0.00420000  0.02954000  0.90410000  1.0 -0.2119905889
C  C84  1  0.99580000  0.52954000  0.59590000  1.0 -0.2119905889
C  C85  1  0.94050000  0.95030000  0.12720000  1.0 -0.0896228195
C  C86  1  0.05950000  0.45030000  0.37280000  1.0 -0.0896228195
C  C87  1  0.05950000  0.04970000  0.87280000  1.0 -0.0896228195
C  C88  1  0.94050000  0.54970000  0.62720000  1.0 -0.0896228195
C  C89  1  0.99720000  0.92756000  0.19580000  1.0 -0.1399256165
C  C90  1  0.00280000  0.42756000  0.30420000  1.0 -0.1399256165
C  C91  1  0.00280000  0.07244000  0.80420000  1.0 -0.1399256165
C  C92  1  0.99720000  0.57244000  0.69580000  1.0 -0.1399256165
C  C93  1  0.10900000  0.92437000  0.23400000  1.0 0.0031257351
C  C94  1  0.89100000  0.42437000  0.26600000  1.0 0.0031257351
C  C95  1  0.89100000  0.07563000  0.76600000  1.0 0.0031257351
C  C96  1  0.10900000  0.57563000  0.73400000  1.0 0.0031257351
C  C97  1  0.16450000  0.94370000  0.20250000  1.0 -0.2513637418
C  C98  1  0.83550000  0.44370000  0.29750000  1.0 -0.2513637418
C  C99  1  0.83550000  0.05630000  0.79750000  1.0 -0.2513637418
C  C100  1  0.16450000  0.55630000  0.70250000  1.0 -0.2513637418
C  C101  1  0.17260000  0.90121000  0.31080000  1.0 0.5476785743
C  C102  1  0.82740000  0.40121000  0.18920000  1.0 0.5476785743
C  C103  1  0.82740000  0.09879000  0.68920000  1.0 0.5476785743
C  C104  1  0.17260000  0.59879000  0.81080000  1.0 0.5476785743
C  C105  1  0.26380000  0.84142000  0.06890000  1.0 0.245631522
C  C106  1  0.73620000  0.34142000  0.43110000  1.0 0.245631522
C  C107  1  0.73620000  0.15858000  0.93110000  1.0 0.245631522
C  C108  1  0.26380000  0.65858000  0.56890000  1.0 0.245631522
C  C109  1  0.33870000  0.81796000  0.13480000  1.0 -0.2119905889
C  C110  1  0.66130000  0.31796000  0.36520000  1.0 -0.2119905889
C  C111  1  0.66130000  0.18204000  0.86520000  1.0 -0.2119905889
C  C112  1  0.33870000  0.68204000  0.63480000  1.0 -0.2119905889
C  C113  1  0.31270000  0.77417000  0.14890000  1.0 -0.0799986079
C  C114  1  0.68730000  0.27417000  0.35110000  1.0 -0.0799986079
C  C115  1  0.68730000  0.22583000  0.85110000  1.0 -0.0799986079
C  C116  1  0.31270000  0.72583000  0.64890000  1.0 -0.0799986079
C  C117  1  0.21380000  0.75343000  0.09740000  1.0 -0.1313640314
C  C118  1  0.78620000  0.25343000  0.40260000  1.0 -0.1313640314
C  C119  1  0.78620000  0.24657000  0.90260000  1.0 -0.1313640314
C  C120  1  0.21380000  0.74657000  0.59740000  1.0 -0.1313640314
C  C121  1  0.14010000  0.77632000  0.03130000  1.0 -0.0014040828
C  C122  1  0.85990000  0.27632000  0.46870000  1.0 -0.0014040828
C  C123  1  0.85990000  0.22368000  0.96870000  1.0 -0.0014040828
C  C124  1  0.14010000  0.72368000  0.53130000  1.0 -0.0014040828
C  C125  1  0.16270000  0.82096000  0.01680000  1.0 -0.2390551238
C  C126  1  0.83730000  0.32096000  0.48320000  1.0 -0.2390551238
C  C127  1  0.83730000  0.17904000  0.98320000  1.0 -0.2390551238
C  C128  1  0.16270000  0.67904000  0.51680000  1.0 -0.2390551238
C  C129  1  0.30190000  0.86013000  0.87700000  1.0 0.2279944712
C  C130  1  0.69810000  0.36013000  0.62300000  1.0 0.2279944712
C  C131  1  0.69810000  0.13987000  0.12300000  1.0 0.2279944712
C  C132  1  0.30190000  0.63987000  0.37700000  1.0 0.2279944712
C  C133  1  0.28050000  0.81824000  0.90050000  1.0 -0.2284439996
C  C134  1  0.71950000  0.31824000  0.59950000  1.0 -0.2284439996
C  C135  1  0.71950000  0.18176000  0.09950000  1.0 -0.2284439996
C  C136  1  0.28050000  0.68176000  0.40050000  1.0 -0.2284439996
C  C137  1  0.26780000  0.77712000  0.86100000  1.0 0.0111286281
C  C138  1  0.73220000  0.27712000  0.63900000  1.0 0.0111286281
C  C139  1  0.73220000  0.22288000  0.13900000  1.0 0.0111286281
C  C140  1  0.26780000  0.72288000  0.36100000  1.0 0.0111286281
C  C141  1  0.27250000  0.77914000  0.79680000  1.0 -0.1399256165
C  C142  1  0.72750000  0.27914000  0.70320000  1.0 -0.1399256165
C  C143  1  0.72750000  0.22086000  0.20320000  1.0 -0.1399256165
C  C144  1  0.27250000  0.72086000  0.29680000  1.0 -0.1399256165
C  C145  1  0.28940000  0.82130000  0.77240000  1.0 -0.0707806108
C  C146  1  0.71060000  0.32130000  0.72760000  1.0 -0.0707806108
C  C147  1  0.71060000  0.17870000  0.22760000  1.0 -0.0707806108
C  C148  1  0.28940000  0.67870000  0.27240000  1.0 -0.0707806108
C  C149  1  0.30410000  0.86196000  0.81200000  1.0 -0.2119905889
C  C150  1  0.69590000  0.36196000  0.68800000  1.0 -0.2119905889
C  C151  1  0.69590000  0.13804000  0.18800000  1.0 -0.2119905889
C  C152  1  0.30410000  0.63804000  0.31200000  1.0 -0.2119905889
C  C153  1  0.24200000  0.73153000  0.88620000  1.0 0.5698965335
C  C154  1  0.75800000  0.23153000  0.61380000  1.0 0.5698965335
C  C155  1  0.75800000  0.26847000  0.11380000  1.0 0.5698965335
C  C156  1  0.24200000  0.76847000  0.38620000  1.0 0.5698965335
C  C157  1  0.28190000  0.19954000  0.81440000  1.0 -0.0251194803
C  C158  1  0.71810000  0.69954000  0.68560000  1.0 -0.0251194803
C  C159  1  0.71810000  0.80046000  0.18560000  1.0 -0.0251194803
C  C160  1  0.28190000  0.30046000  0.31440000  1.0 -0.0251194803
C  C161  1  0.26330000  0.16828000  0.85710000  1.0 -0.2119905889
C  C162  1  0.73670000  0.66828000  0.64290000  1.0 -0.2119905889
C  C163  1  0.73670000  0.83172000  0.14290000  1.0 -0.2119905889
C  C164  1  0.26330000  0.33172000  0.35710000  1.0 -0.2119905889
C  C165  1  0.34660000  0.15742000  0.93070000  1.0 0.2558255078
C  C166  1  0.65340000  0.65742000  0.56930000  1.0 0.2558255078
C  C167  1  0.65340000  0.84258000  0.06930000  1.0 0.2558255078
C  C168  1  0.34660000  0.34258000  0.43070000  1.0 0.2558255078
C  C169  1  0.44810000  0.17881000  0.96160000  1.0 -0.2189176476
C  C170  1  0.55190000  0.67881000  0.53840000  1.0 -0.2189176476
C  C171  1  0.55190000  0.82119000  0.03840000  1.0 -0.2189176476
C  C172  1  0.44810000  0.32119000  0.46160000  1.0 -0.2189176476
C  C173  1  0.46680000  0.20943000  0.91890000  1.0 -0.0799986079
C  C174  1  0.53320000  0.70943000  0.58110000  1.0 -0.0799986079
C  C175  1  0.53320000  0.79057000  0.08110000  1.0 -0.0799986079
C  C176  1  0.46680000  0.29057000  0.41890000  1.0 -0.0799986079
C  C177  1  0.38550000  0.21911000  0.84500000  1.0 -0.1462330526
C  C178  1  0.61450000  0.71911000  0.65500000  1.0 -0.1462330526
C  C179  1  0.61450000  0.78089000  0.15500000  1.0 -0.1462330526
C  C180  1  0.38550000  0.28089000  0.34500000  1.0 -0.1462330526
C  C181  1  0.18900000  0.21064000  0.73680000  1.0 0.556390419
C  C182  1  0.81100000  0.71064000  0.76320000  1.0 0.556390419
C  C183  1  0.81100000  0.78936000  0.26320000  1.0 0.556390419
C  C184  1  0.18900000  0.28936000  0.23680000  1.0 0.556390419
C  C185  1  0.23180000  0.10070000  0.66440000  1.0 -0.0094193674
C  C186  1  0.76820000  0.60070000  0.83560000  1.0 -0.0094193674
C  C187  1  0.76820000  0.89930000  0.33560000  1.0 -0.0094193674
C  C188  1  0.23180000  0.39930000  0.16440000  1.0 -0.0094193674
C  C189  1  0.22050000  0.08129000  0.72120000  1.0 -0.2284439996
C  C190  1  0.77950000  0.58129000  0.77880000  1.0 -0.2284439996
C  C191  1  0.77950000  0.91871000  0.27880000  1.0 -0.2284439996
C  C192  1  0.22050000  0.41871000  0.22120000  1.0 -0.2284439996
C  C193  1  0.31190000  0.06518000  0.78790000  1.0 0.2558255078
C  C194  1  0.68810000  0.56518000  0.71210000  1.0 0.2558255078
C  C195  1  0.68810000  0.93482000  0.21210000  1.0 0.2558255078
C  C196  1  0.31190000  0.43482000  0.28790000  1.0 0.2558255078
C  C197  1  0.41600000  0.06912000  0.79860000  1.0 -0.2284439996
C  C198  1  0.58400000  0.56912000  0.70140000  1.0 -0.2284439996
C  C199  1  0.58400000  0.93088000  0.20140000  1.0 -0.2284439996
C  C200  1  0.41600000  0.43088000  0.29860000  1.0 -0.2284439996
C  C201  1  0.42580000  0.08936000  0.74200000  1.0 -0.0896228195
C  C202  1  0.57420000  0.58936000  0.75800000  1.0 -0.0896228195
C  C203  1  0.57420000  0.91064000  0.25800000  1.0 -0.0896228195
C  C204  1  0.42580000  0.41064000  0.24200000  1.0 -0.0896228195
C  C205  1  0.33620000  0.10481000  0.67570000  1.0 -0.1399256165
C  C206  1  0.66380000  0.60481000  0.82430000  1.0 -0.1399256165
C  C207  1  0.66380000  0.89519000  0.32430000  1.0 -0.1399256165
C  C208  1  0.33620000  0.39519000  0.17570000  1.0 -0.1399256165
C  C209  1  0.13410000  0.11724000  0.59190000  1.0 0.5476785743
C  C210  1  0.86590000  0.61724000  0.90810000  1.0 0.5476785743
C  C211  1  0.86590000  0.88276000  0.40810000  1.0 0.5476785743
C  C212  1  0.13410000  0.38276000  0.09190000  1.0 0.5476785743
C  C213  1  0.03390000  0.75257000  0.97300000  1.0 0.5948317194
C  C214  1  0.96610000  0.25257000  0.52700000  1.0 0.5948317194
C  C215  1  0.96610000  0.24743000  0.02700000  1.0 0.5948317194
C  C216  1  0.03390000  0.74743000  0.47300000  1.0 0.5948317194
C  C217  1  0.00380000  0.22493000  0.36790000  1.0 0.0911162811
C  C218  1  0.99620000  0.72493000  0.13210000  1.0 0.0911162811
C  C219  1  0.99620000  0.77507000  0.63210000  1.0 0.0911162811
C  C220  1  0.00380000  0.27507000  0.86790000  1.0 0.0911162811
C  C221  1  0.01670000  0.24033000  0.30920000  1.0 -0.120252174
C  C222  1  0.98330000  0.74033000  0.19080000  1.0 -0.120252174
C  C223  1  0.98330000  0.75967000  0.69080000  1.0 -0.120252174
C  C224  1  0.01670000  0.25967000  0.80920000  1.0 -0.120252174
C  C225  1  0.02160000  0.20910000  0.26300000  1.0 -0.0799986079
C  C226  1  0.97840000  0.70910000  0.23700000  1.0 -0.0799986079
C  C227  1  0.97840000  0.79090000  0.73700000  1.0 -0.0799986079
C  C228  1  0.02160000  0.29090000  0.76300000  1.0 -0.0799986079
C  C229  1  0.01380000  0.16043000  0.27340000  1.0 0.051008919
C  C230  1  0.98620000  0.66043000  0.22660000  1.0 0.051008919
C  C231  1  0.98620000  0.83957000  0.72660000  1.0 0.051008919
C  C232  1  0.01380000  0.33957000  0.77340000  1.0 0.051008919
C  C233  1  0.00093000  0.14789000  0.33333333  1.0 0.1092248516
C  C234  1  0.99907000  0.64789000  0.16667000  1.0 0.1092248516
C  C235  1  0.99907000  0.85211000  0.66666667  1.0 0.1092248516
C  C236  1  0.00093000  0.35211000  0.83333000  1.0 0.1092248516
C  C237  1  0.99230000  0.09920000  0.34750000  1.0 0.1092248516
C  C238  1  0.00770000  0.59920000  0.15250000  1.0 0.1092248516
C  C239  1  0.00770000  0.90080000  0.65250000  1.0 0.1092248516
C  C240  1  0.99230000  0.40080000  0.84750000  1.0 0.1092248516
C  C241  1  0.99890000  0.06445000  0.30190000  1.0 0.051008919
C  C242  1  0.00110000  0.56445000  0.19810000  1.0 0.051008919
C  C243  1  0.00110000  0.93555000  0.69810000  1.0 0.051008919
C  C244  1  0.99890000  0.43555000  0.80190000  1.0 0.051008919
C  C245  1  0.01440000  0.07880000  0.24250000  1.0 -0.1667259192
C  C246  1  0.98560000  0.57880000  0.25750000  1.0 -0.1667259192
C  C247  1  0.98560000  0.92120000  0.75750000  1.0 -0.1667259192
C  C248  1  0.01440000  0.42120000  0.74250000  1.0 -0.1667259192
C  C249  1  0.02200000  0.12380000  0.22940000  1.0 -0.1399256165
C  C250  1  0.97800000  0.62380000  0.27060000  1.0 -0.1399256165
C  C251  1  0.97800000  0.87620000  0.77060000  1.0 -0.1399256165
C  C252  1  0.02200000  0.37620000  0.72940000  1.0 -0.1399256165
C  C253  1  0.98980000  0.01746000  0.31950000  1.0 -0.1011797612
C  C254  1  0.01020000  0.51746000  0.18050000  1.0 -0.1011797612
C  C255  1  0.01020000  0.98254000  0.68050000  1.0 -0.1011797612
C  C256  1  0.98980000  0.48254000  0.81950000  1.0 -0.1011797612
C  C257  1  0.97440000  0.00758000  0.37650000  1.0 -0.1399256165
C  C258  1  0.02560000  0.50758000  0.12350000  1.0 -0.1399256165
C  C259  1  0.02560000  0.99242000  0.62350000  1.0 -0.1399256165
C  C260  1  0.97440000  0.49242000  0.87650000  1.0 -0.1399256165
C  C261  1  0.96880000  0.04432000  0.41890000  1.0 0.0911162811
C  C262  1  0.03120000  0.54432000  0.08110000  1.0 0.0911162811
C  C263  1  0.03120000  0.95568000  0.58110000  1.0 0.0911162811
C  C264  1  0.96880000  0.45568000  0.91890000  1.0 0.0911162811
C  C265  1  0.74090000  0.03741000  0.50730000  1.0 0.09883576
C  C266  1  0.25910000  0.53741000  0.99270000  1.0 0.09883576
C  C267  1  0.25910000  0.96259000  0.49270000  1.0 0.09883576
C  C268  1  0.74090000  0.46259000  0.00730000  1.0 0.09883576
C  C269  1  0.71140000  0.99420000  0.46860000  1.0 -0.1462330526
C  C270  1  0.28860000  0.49420000  0.03140000  1.0 -0.1462330526
C  C271  1  0.28860000  0.00580000  0.53140000  1.0 -0.1462330526
C  C272  1  0.71140000  0.50580000  0.96860000  1.0 -0.1462330526
C  C273  1  0.60450000  0.98150000  0.42670000  1.0 -0.1011797612
C  C274  1  0.39550000  0.48150000  0.07330000  1.0 -0.1011797612
C  C275  1  0.39550000  0.01850000  0.57330000  1.0 -0.1011797612
C  C276  1  0.60450000  0.51850000  0.92670000  1.0 -0.1011797612
C  C277  1  0.52530000  0.01107000  0.42200000  1.0 0.0562855446
C  C278  1  0.47470000  0.51107000  0.07800000  1.0 0.0562855446
C  C279  1  0.47470000  0.98893000  0.57800000  1.0 0.0562855446
C  C280  1  0.52530000  0.48893000  0.92200000  1.0 0.0562855446
C  C281  1  0.56080000  0.05386000  0.46220000  1.0 0.1092248516
C  C282  1  0.43920000  0.55386000  0.03780000  1.0 0.1092248516
C  C283  1  0.43920000  0.94614000  0.53780000  1.0 0.1092248516
C  C284  1  0.56080000  0.44614000  0.96220000  1.0 0.1092248516
C  C285  1  0.48310000  0.08663000  0.45900000  1.0 0.1189205386
C  C286  1  0.51690000  0.58663000  0.04100000  1.0 0.1189205386
C  C287  1  0.51690000  0.91337000  0.54100000  1.0 0.1189205386
C  C288  1  0.48310000  0.41337000  0.95900000  1.0 0.1189205386
C  C289  1  0.37040000  0.07520000  0.41590000  1.0 0.051008919
C  C290  1  0.62960000  0.57520000  0.08410000  1.0 0.051008919
C  C291  1  0.62960000  0.92480000  0.58410000  1.0 0.051008919
C  C292  1  0.37040000  0.42480000  0.91590000  1.0 0.051008919
C  C293  1  0.33720000  0.03170000  0.37660000  1.0 -0.1462330526
C  C294  1  0.66280000  0.53170000  0.12340000  1.0 -0.1462330526
C  C295  1  0.66280000  0.96830000  0.62340000  1.0 -0.1462330526
C  C296  1  0.33720000  0.46830000  0.87660000  1.0 -0.1462330526
C  C297  1  0.40800000  0.00150000  0.37940000  1.0 -0.1399256165
C  C298  1  0.59200000  0.50150000  0.12060000  1.0 -0.1399256165
C  C299  1  0.59200000  0.99850000  0.62060000  1.0 -0.1399256165
C  C300  1  0.40800000  0.49850000  0.87940000  1.0 -0.1399256165
C  C301  1  0.45080000  0.15690000  0.49590000  1.0 0.0911162811
C  C302  1  0.54920000  0.65690000  0.00410000  1.0 0.0911162811
C  C303  1  0.54920000  0.84310000  0.50410000  1.0 0.0911162811
C  C304  1  0.45080000  0.34310000  0.99590000  1.0 0.0911162811
C  C305  1  0.33820000  0.14860000  0.45520000  1.0 -0.1313640314
C  C306  1  0.66180000  0.64860000  0.04480000  1.0 -0.1313640314
C  C307  1  0.66180000  0.85140000  0.54480000  1.0 -0.1313640314
C  C308  1  0.33820000  0.35140000  0.95520000  1.0 -0.1313640314
C  C309  1  0.29920000  0.10800000  0.41590000  1.0 -0.1011797612
C  C310  1  0.70080000  0.60800000  0.08410000  1.0 -0.1011797612
C  C311  1  0.70080000  0.89200000  0.58410000  1.0 -0.1011797612
C  C312  1  0.29920000  0.39200000  0.91590000  1.0 -0.1011797612
N  N1  1  0.97767000  0.08910000  0.40527000  1.0 -0.2513637418
N  N2  1  0.02233000  0.58910000  0.09473000  1.0 -0.2513637418
N  N3  1  0.02233000  0.91090000  0.59473000  1.0 -0.2513637418
N  N4  1  0.97767000  0.41090000  0.90527000  1.0 -0.2513637418
N  N5  1  0.99500000  0.17966000  0.37980000  1.0 -0.2754239297
N  N6  1  0.00500000  0.67966000  0.12020000  1.0 -0.2754239297
N  N7  1  0.00500000  0.82034000  0.62020000  1.0 -0.2754239297
N  N8  1  0.99500000  0.32034000  0.87980000  1.0 -0.2754239297
N  N9  1  0.66850000  0.06651000  0.50470000  1.0 -0.2702848619
N  N10  1  0.33150000  0.56651000  0.99530000  1.0 -0.2702848619
N  N11  1  0.33150000  0.93349000  0.49530000  1.0 -0.2702848619
N  N12  1  0.66850000  0.43349000  0.00470000  1.0 -0.2702848619
N  N13  1  0.52230000  0.12686000  0.49840000  1.0 -0.2604782513
N  N14  1  0.47770000  0.62686000  0.00160000  1.0 -0.2604782513
N  N15  1  0.47770000  0.87314000  0.50160000  1.0 -0.2604782513
N  N16  1  0.52230000  0.37314000  0.99840000  1.0 -0.2604782513
O  O1  1  0.15521000  0.98609000  0.09742000  1.0 -0.1865863011
O  O2  1  0.84479000  0.48609000  0.40258000  1.0 -0.1865863011
O  O3  1  0.84479000  0.01391000  0.90258000  1.0 -0.1865863011
O  O4  1  0.15521000  0.51391000  0.59742000  1.0 -0.1865863011
O  O5  1  0.29859000  0.88412000  0.05889000  1.0 -0.1865863011
O  O6  1  0.70141000  0.38412000  0.44111000  1.0 -0.1865863011
O  O7  1  0.70141000  0.11588000  0.94111000  1.0 -0.1865863011
O  O8  1  0.29859000  0.61588000  0.55889000  1.0 -0.1865863011
O  O9  1  0.32975000  0.89808000  0.92615000  1.0 -0.2284439996
O  O10  1  0.67025000  0.39808000  0.57385000  1.0 -0.2284439996
O  O11  1  0.67025000  0.10192000  0.07385000  1.0 -0.2189176476
O  O12  1  0.32975000  0.60192000  0.42615000  1.0 -0.2284439996
O  O13  1  0.29289000  0.04642000  0.84072000  1.0 -0.1865863011
O  O14  1  0.70711000  0.54642000  0.65928000  1.0 -0.1865863011
O  O15  1  0.70711000  0.95358000  0.15928000  1.0 -0.1865863011
O  O16  1  0.29289000  0.45358000  0.34072000  1.0 -0.1865863011
O  O17  1  0.32204000  0.12476000  0.96764000  1.0 -0.1667259192
O  O18  1  0.67796000  0.62476000  0.53236000  1.0 -0.1667259192
O  O19  1  0.67796000  0.87524000  0.03236000  1.0 -0.1667259192
O  O20  1  0.32204000  0.37524000  0.46764000  1.0 -0.1667259192
O  O21  1  0.45670000  0.06956000  0.19660000  1.0 -0.1966717845
O  O22  1  0.54330000  0.56956000  0.30340000  1.0 -0.1966717845
O  O23  1  0.54330000  0.93044000  0.80340000  1.0 -0.1966717845
O  O24  1  0.45670000  0.43044000  0.69660000  1.0 -0.1966717845
O  O25  1  0.27583000  0.89897000  0.34333000  1.0 -0.5329770005
O  O26  1  0.72417000  0.39897000  0.15667000  1.0 -0.5329770005
O  O27  1  0.72417000  0.10103000  0.65667000  1.0 -0.5329770005
O  O28  1  0.27583000  0.60103000  0.84333000  1.0 -0.5329770005
O  O29  1  0.12565000  0.88663000  0.34195000  1.0 -0.5740247673
O  O30  1  0.87435000  0.38663000  0.15805000  1.0 -0.5740247673
O  O31  1  0.87435000  0.11337000  0.65805000  1.0 -0.5740247673
O  O32  1  0.12565000  0.61337000  0.84195000  1.0 -0.5740247673
O  O33  1  0.03734000  0.11073000  0.57679000  1.0 -0.6112418926
O  O34  1  0.96266000  0.61073000  0.92321000  1.0 -0.6112418926
O  O35  1  0.96266000  0.88927000  0.42321000  1.0 -0.6112418926
O  O36  1  0.03734000  0.38927000  0.07679000  1.0 -0.6112418926
O  O37  1  0.14928000  0.13798000  0.54419000  1.0 -0.5399758673
O  O38  1  0.85072000  0.63798000  0.95581000  1.0 -0.5399758673
O  O39  1  0.85072000  0.86202000  0.45581000  1.0 -0.5399758673
O  O40  1  0.14928000  0.36202000  0.04419000  1.0 -0.5399758673
O  O41  1  0.10098000  0.19142000  0.70988000  1.0 -0.5508602268
O  O42  1  0.89902000  0.69142000  0.79012000  1.0 -0.5508602268
O  O43  1  0.89902000  0.80858000  0.29012000  1.0 -0.5508602268
O  O44  1  0.10098000  0.30858000  0.20988000  1.0 -0.5508602268
O  O45  1  0.20920000  0.24347000  0.70200000  1.0 -0.4528119272
O  O46  1  0.79080000  0.74347000  0.79800000  1.0 -0.4528119272
O  O47  1  0.79080000  0.75653000  0.29800000  1.0 -0.4528119272
O  O48  1  0.20920000  0.25653000  0.20200000  1.0 -0.4528119272
O  O49  1  0.96266000  0.77709000  0.91816000  1.0 -0.5508602268
O  O50  1  0.03734000  0.27709000  0.58184000  1.0 -0.5508602268
O  O51  1  0.03734000  0.22291000  0.08184000  1.0 -0.5508602268
O  O52  1  0.96266000  0.72291000  0.41816000  1.0 -0.5508602268
O  O53  1  0.02115000  0.70989000  0.98005000  1.0 -0.6009000695
O  O54  1  0.97885000  0.20989000  0.51995000  1.0 -0.6009000695
O  O55  1  0.97885000  0.29011000  0.01995000  1.0 -0.6009000695
O  O56  1  0.02115000  0.79011000  0.48005000  1.0 -0.6009000695
O  O57  1  0.81320000  0.13492000  0.41237000  1.0 -0.5508602268
O  O58  1  0.18680000  0.63492000  0.08763000  1.0 -0.5508602268
O  O59  1  0.18680000  0.86508000  0.58763000  1.0 -0.5508602268
O  O60  1  0.81320000  0.36508000  0.91237000  1.0 -0.5508602268
O  O61  1  0.76862000  0.15067000  0.49732000  1.0 -0.6009000695
O  O62  1  0.23138000  0.65067000  0.00268000  1.0 -0.6009000695
O  O63  1  0.23138000  0.84933000  0.50268000  1.0 -0.6009000695
O  O64  1  0.76862000  0.34933000  0.99732000  1.0 -0.6009000695
O  O65  1  0.15610000  0.72898000  0.88490000  1.0 -0.5561549968
O  O66  1  0.84390000  0.22898000  0.61510000  1.0 -0.5561549968
O  O67  1  0.84390000  0.27102000  0.11510000  1.0 -0.5561549968
O  O68  1  0.15610000  0.77102000  0.38490000  1.0 -0.5561549968
O  O69  1  0.31358000  0.69976000  0.90858000  1.0 -0.5561549968
O  O70  1  0.68642000  0.19976000  0.59142000  1.0 -0.5561549968
O  O71  1  0.68642000  0.30024000  0.09142000  1.0 -0.5561549968
O  O72  1  0.31358000  0.80024000  0.40858000  1.0 -0.5561549968
