# DDEC6 charges by PACMAN v1.1 (https://github.com/mtap-research/PACMAN-charge/)
data_FUQJUX_FSR_pacman
_symmetry_space_group_name_H-M   'P 1'
_cell_length_a   25.64770000
_cell_length_b   25.64770000
_cell_length_c   25.64770000
_cell_angle_alpha   60.00000000
_cell_angle_beta   60.00000000
_cell_angle_gamma   60.00000000
_symmetry_Int_Tables_number   1
_chemical_formula_structural   Cu3H12C18N15O7
_chemical_formula_sum   'Cu24 H96 C144 N120 O56'
_cell_volume   11929.72074069
_cell_formula_units_Z   8
loop_
 _symmetry_equiv_pos_site_id
 _symmetry_equiv_pos_as_xyz
  1  'x, y, z'
loop_
 _atom_site_type_symbol
 _atom_site_label
 _atom_site_symmetry_multiplicity
 _atom_site_fract_x
 _atom_site_fract_y
 _atom_site_fract_z
 _atom_site_occupancy
 _atom_site_charge
Cu  Cu1  1  0.20178000  0.62500000  0.12500000  1.0 0.7637778731
Cu  Cu2  1  0.12500000  0.20178000  0.62500000  1.0 0.7637778731
Cu  Cu3  1  0.62500000  0.12500000  0.20178000  1.0 0.7637778731
Cu  Cu4  1  0.04822000  0.62500000  0.20178000  1.0 0.7637778731
Cu  Cu5  1  0.20178000  0.12500000  0.04822000  1.0 0.7637778731
Cu  Cu6  1  0.12500000  0.04822000  0.20178000  1.0 0.7637778731
Cu  Cu7  1  0.62500000  0.20178000  0.04822000  1.0 0.7637778731
Cu  Cu8  1  0.04822000  0.20178000  0.12500000  1.0 0.7678188296
Cu  Cu9  1  0.20178000  0.04822000  0.62500000  1.0 0.7637778731
Cu  Cu10  1  0.12500000  0.62500000  0.04822000  1.0 0.7637778731
Cu  Cu11  1  0.04822000  0.12500000  0.62500000  1.0 0.7637778731
Cu  Cu12  1  0.62500000  0.04822000  0.12500000  1.0 0.7637778731
Cu  Cu13  1  0.54822000  0.12500000  0.62500000  1.0 0.7637778731
Cu  Cu14  1  0.62500000  0.54822000  0.12500000  1.0 0.7637778731
Cu  Cu15  1  0.12500000  0.62500000  0.54822000  1.0 0.7637778731
Cu  Cu16  1  0.70178000  0.12500000  0.54822000  1.0 0.7637778731
Cu  Cu17  1  0.54822000  0.62500000  0.70178000  1.0 0.7637778731
Cu  Cu18  1  0.62500000  0.70178000  0.54822000  1.0 0.7637778731
Cu  Cu19  1  0.12500000  0.54822000  0.70178000  1.0 0.7678188296
Cu  Cu20  1  0.70178000  0.54822000  0.62500000  1.0 0.7678188296
Cu  Cu21  1  0.54822000  0.70178000  0.12500000  1.0 0.7637778731
Cu  Cu22  1  0.62500000  0.12500000  0.70178000  1.0 0.7637778731
Cu  Cu23  1  0.70178000  0.62500000  0.12500000  1.0 0.7637778731
Cu  Cu24  1  0.12500000  0.70178000  0.62500000  1.0 0.7637778731
H  H1  1  0.04130000  0.60770000  0.42310000  1.0 0.1355461406
H  H2  1  0.42310000  0.04130000  0.60770000  1.0 0.1355461406
H  H3  1  0.60770000  0.42310000  0.04130000  1.0 0.1355461406
H  H4  1  0.20870000  0.64230000  0.32210000  1.0 0.1355461406
H  H5  1  0.82690000  0.32210000  0.64230000  1.0 0.1355461406
H  H6  1  0.32210000  0.82690000  0.20870000  1.0 0.1355461406
H  H7  1  0.82690000  0.20870000  0.32210000  1.0 0.1355461406
H  H8  1  0.32210000  0.64230000  0.82690000  1.0 0.1355461406
H  H9  1  0.64230000  0.32210000  0.20870000  1.0 0.1355461406
H  H10  1  0.64230000  0.82690000  0.32210000  1.0 0.1355461406
H  H11  1  0.20870000  0.32210000  0.82690000  1.0 0.1355461406
H  H12  1  0.32210000  0.20870000  0.64230000  1.0 0.1355461406
H  H13  1  0.60770000  0.04130000  0.92790000  1.0 0.1355461406
H  H14  1  0.04130000  0.42310000  0.92790000  1.0 0.1355461406
H  H15  1  0.42310000  0.60770000  0.92790000  1.0 0.1355461406
H  H16  1  0.92790000  0.42310000  0.60770000  1.0 0.1355461406
H  H17  1  0.92790000  0.60770000  0.04130000  1.0 0.1355461406
H  H18  1  0.92790000  0.04130000  0.42310000  1.0 0.1355461406
H  H19  1  0.42310000  0.92790000  0.04130000  1.0 0.1355461406
H  H20  1  0.60770000  0.92790000  0.42310000  1.0 0.1355461406
H  H21  1  0.04130000  0.92790000  0.60770000  1.0 0.1355461406
H  H22  1  0.64230000  0.20870000  0.82690000  1.0 0.1355461406
H  H23  1  0.20870000  0.82690000  0.64230000  1.0 0.1355461406
H  H24  1  0.82690000  0.64230000  0.20870000  1.0 0.1355461406
H  H25  1  0.70870000  0.14230000  0.32690000  1.0 0.1355461406
H  H26  1  0.32690000  0.70870000  0.14230000  1.0 0.1355461406
H  H27  1  0.14230000  0.32690000  0.70870000  1.0 0.1355461406
H  H28  1  0.54130000  0.10770000  0.42790000  1.0 0.1355461406
H  H29  1  0.92310000  0.42790000  0.10770000  1.0 0.1355461406
H  H30  1  0.42790000  0.92310000  0.54130000  1.0 0.1355461406
H  H31  1  0.92310000  0.54130000  0.42790000  1.0 0.1355461406
H  H32  1  0.42790000  0.10770000  0.92310000  1.0 0.1355461406
H  H33  1  0.10770000  0.42790000  0.54130000  1.0 0.1355461406
H  H34  1  0.10770000  0.92310000  0.42790000  1.0 0.1355461406
H  H35  1  0.54130000  0.42790000  0.92310000  1.0 0.1355461406
H  H36  1  0.42790000  0.54130000  0.10770000  1.0 0.1355461406
H  H37  1  0.14230000  0.70870000  0.82210000  1.0 0.1355461406
H  H38  1  0.70870000  0.32690000  0.82210000  1.0 0.1355461406
H  H39  1  0.32690000  0.14230000  0.82210000  1.0 0.1355461406
H  H40  1  0.82210000  0.32690000  0.14230000  1.0 0.1355461406
H  H41  1  0.82210000  0.14230000  0.70870000  1.0 0.1355461406
H  H42  1  0.82210000  0.70870000  0.32690000  1.0 0.1355461406
H  H43  1  0.32690000  0.82210000  0.70870000  1.0 0.1355461406
H  H44  1  0.14230000  0.82210000  0.32690000  1.0 0.1355461406
H  H45  1  0.70870000  0.82210000  0.14230000  1.0 0.1355461406
H  H46  1  0.10770000  0.54130000  0.92310000  1.0 0.1355461406
H  H47  1  0.54130000  0.92310000  0.10770000  1.0 0.1355461406
H  H48  1  0.92310000  0.10770000  0.54130000  1.0 0.1355461406
H  H49  1  0.04310000  0.60950000  0.51190000  1.0 0.1023197419
H  H50  1  0.51190000  0.04310000  0.60950000  1.0 0.1023197419
H  H51  1  0.60950000  0.51190000  0.04310000  1.0 0.1023197419
H  H52  1  0.20690000  0.64050000  0.41450000  1.0 0.1023197419
H  H53  1  0.73810000  0.41450000  0.64050000  1.0 0.1023197419
H  H54  1  0.41450000  0.73810000  0.20690000  1.0 0.1023197419
H  H55  1  0.73810000  0.20690000  0.41450000  1.0 0.1023197419
H  H56  1  0.41450000  0.64050000  0.73810000  1.0 0.1023197419
H  H57  1  0.64050000  0.41450000  0.20690000  1.0 0.1023197419
H  H58  1  0.64050000  0.73810000  0.41450000  1.0 0.1023197419
H  H59  1  0.20690000  0.41450000  0.73810000  1.0 0.1023197419
H  H60  1  0.41450000  0.20690000  0.64050000  1.0 0.1023197419
H  H61  1  0.60950000  0.04310000  0.83550000  1.0 0.1023197419
H  H62  1  0.04310000  0.51190000  0.83550000  1.0 0.1023197419
H  H63  1  0.51190000  0.60950000  0.83550000  1.0 0.1023197419
H  H64  1  0.83550000  0.51190000  0.60950000  1.0 0.1023197419
H  H65  1  0.83550000  0.60950000  0.04310000  1.0 0.1023197419
H  H66  1  0.83550000  0.04310000  0.51190000  1.0 0.1023197419
H  H67  1  0.51190000  0.83550000  0.04310000  1.0 0.1023197419
H  H68  1  0.60950000  0.83550000  0.51190000  1.0 0.1023197419
H  H69  1  0.04310000  0.83550000  0.60950000  1.0 0.1023197419
H  H70  1  0.64050000  0.20690000  0.73810000  1.0 0.1023197419
H  H71  1  0.20690000  0.73810000  0.64050000  1.0 0.1023197419
H  H72  1  0.73810000  0.64050000  0.20690000  1.0 0.1023197419
H  H73  1  0.70690000  0.14050000  0.23810000  1.0 0.1023197419
H  H74  1  0.23810000  0.70690000  0.14050000  1.0 0.1023197419
H  H75  1  0.14050000  0.23810000  0.70690000  1.0 0.1023197419
H  H76  1  0.54310000  0.10950000  0.33550000  1.0 0.1023197419
H  H77  1  0.01190000  0.33550000  0.10950000  1.0 0.1023197419
H  H78  1  0.33550000  0.01190000  0.54310000  1.0 0.1023197419
H  H79  1  0.01190000  0.54310000  0.33550000  1.0 0.1023197419
H  H80  1  0.33550000  0.10950000  0.01190000  1.0 0.1023197419
H  H81  1  0.10950000  0.33550000  0.54310000  1.0 0.1023197419
H  H82  1  0.10950000  0.01190000  0.33550000  1.0 0.1023197419
H  H83  1  0.54310000  0.33550000  0.01190000  1.0 0.1023197419
H  H84  1  0.33550000  0.54310000  0.10950000  1.0 0.1023197419
H  H85  1  0.14050000  0.70690000  0.91450000  1.0 0.1023197419
H  H86  1  0.70690000  0.23810000  0.91450000  1.0 0.1023197419
H  H87  1  0.23810000  0.14050000  0.91450000  1.0 0.1023197419
H  H88  1  0.91450000  0.23810000  0.14050000  1.0 0.1023197419
H  H89  1  0.91450000  0.14050000  0.70690000  1.0 0.1023197419
H  H90  1  0.91450000  0.70690000  0.23810000  1.0 0.1023197419
H  H91  1  0.23810000  0.91450000  0.70690000  1.0 0.1023197419
H  H92  1  0.14050000  0.91450000  0.23810000  1.0 0.1023197419
H  H93  1  0.70690000  0.91450000  0.14050000  1.0 0.1023197419
H  H94  1  0.10950000  0.54310000  0.01190000  1.0 0.1023197419
H  H95  1  0.54310000  0.01190000  0.10950000  1.0 0.1023197419
H  H96  1  0.01190000  0.10950000  0.54310000  1.0 0.1023197419
C  C1  1  0.12500000  0.62500000  0.30588000  1.0 0.2163314248
C  C2  1  0.30588000  0.12500000  0.62500000  1.0 0.2163314248
C  C3  1  0.62500000  0.30588000  0.12500000  1.0 0.2163314248
C  C4  1  0.94412000  0.30588000  0.62500000  1.0 0.2163314248
C  C5  1  0.30588000  0.94412000  0.12500000  1.0 0.2163314248
C  C6  1  0.94412000  0.12500000  0.30588000  1.0 0.2163314248
C  C7  1  0.30588000  0.62500000  0.94412000  1.0 0.2163314248
C  C8  1  0.62500000  0.94412000  0.30588000  1.0 0.2163314248
C  C9  1  0.12500000  0.30588000  0.94412000  1.0 0.2163314248
C  C10  1  0.62500000  0.12500000  0.94412000  1.0 0.2163314248
C  C11  1  0.94412000  0.62500000  0.12500000  1.0 0.2163314248
C  C12  1  0.12500000  0.94412000  0.62500000  1.0 0.2163314248
C  C13  1  0.62500000  0.12500000  0.44412000  1.0 0.2163314248
C  C14  1  0.44412000  0.62500000  0.12500000  1.0 0.2163314248
C  C15  1  0.12500000  0.44412000  0.62500000  1.0 0.2163314248
C  C16  1  0.80588000  0.44412000  0.12500000  1.0 0.2163314248
C  C17  1  0.44412000  0.80588000  0.62500000  1.0 0.2163314248
C  C18  1  0.80588000  0.62500000  0.44412000  1.0 0.2163314248
C  C19  1  0.44412000  0.12500000  0.80588000  1.0 0.2163314248
C  C20  1  0.12500000  0.80588000  0.44412000  1.0 0.2163314248
C  C21  1  0.62500000  0.44412000  0.80588000  1.0 0.2163314248
C  C22  1  0.12500000  0.62500000  0.80588000  1.0 0.2163314248
C  C23  1  0.80588000  0.12500000  0.62500000  1.0 0.2163314248
C  C24  1  0.62500000  0.80588000  0.12500000  1.0 0.2163314248
C  C25  1  0.12500000  0.62500000  0.36284000  1.0 0.0755924473
C  C26  1  0.36284000  0.12500000  0.62500000  1.0 0.0755924473
C  C27  1  0.62500000  0.36284000  0.12500000  1.0 0.0755924473
C  C28  1  0.88716000  0.36284000  0.62500000  1.0 0.0755924473
C  C29  1  0.36284000  0.88716000  0.12500000  1.0 0.0755924473
C  C30  1  0.88716000  0.12500000  0.36284000  1.0 0.0755924473
C  C31  1  0.36284000  0.62500000  0.88716000  1.0 0.0755924473
C  C32  1  0.62500000  0.88716000  0.36284000  1.0 0.0755924473
C  C33  1  0.12500000  0.36284000  0.88716000  1.0 0.0755924473
C  C34  1  0.62500000  0.12500000  0.88716000  1.0 0.0755924473
C  C35  1  0.88716000  0.62500000  0.12500000  1.0 0.0755924473
C  C36  1  0.12500000  0.88716000  0.62500000  1.0 0.0755924473
C  C37  1  0.62500000  0.12500000  0.38716000  1.0 0.0755924473
C  C38  1  0.38716000  0.62500000  0.12500000  1.0 0.0755924473
C  C39  1  0.12500000  0.38716000  0.62500000  1.0 0.0755924473
C  C40  1  0.86284000  0.38716000  0.12500000  1.0 0.0755924473
C  C41  1  0.38716000  0.86284000  0.62500000  1.0 0.0755924473
C  C42  1  0.86284000  0.62500000  0.38716000  1.0 0.0755924473
C  C43  1  0.38716000  0.12500000  0.86284000  1.0 0.0755924473
C  C44  1  0.12500000  0.86284000  0.38716000  1.0 0.0755924473
C  C45  1  0.62500000  0.38716000  0.86284000  1.0 0.0755924473
C  C46  1  0.12500000  0.62500000  0.86284000  1.0 0.0755924473
C  C47  1  0.86284000  0.12500000  0.62500000  1.0 0.0755924473
C  C48  1  0.62500000  0.86284000  0.12500000  1.0 0.0755924473
C  C49  1  0.07570000  0.61502000  0.42006000  1.0 -0.1690045025
C  C50  1  0.42006000  0.07570000  0.61502000  1.0 -0.1690045025
C  C51  1  0.61502000  0.42006000  0.07570000  1.0 -0.1690045025
C  C52  1  0.17430000  0.63498000  0.36078000  1.0 -0.1690045025
C  C53  1  0.82994000  0.36078000  0.63498000  1.0 -0.1690045025
C  C54  1  0.36078000  0.82994000  0.17430000  1.0 -0.1690045025
C  C55  1  0.82994000  0.17430000  0.36078000  1.0 -0.1690045025
C  C56  1  0.36078000  0.63498000  0.82994000  1.0 -0.1690045025
C  C57  1  0.63498000  0.36078000  0.17430000  1.0 -0.1690045025
C  C58  1  0.63498000  0.82994000  0.36078000  1.0 -0.1690045025
C  C59  1  0.17430000  0.36078000  0.82994000  1.0 -0.1690045025
C  C60  1  0.36078000  0.17430000  0.63498000  1.0 -0.1690045025
C  C61  1  0.61502000  0.07570000  0.88922000  1.0 -0.1690045025
C  C62  1  0.07570000  0.42006000  0.88922000  1.0 -0.1690045025
C  C63  1  0.42006000  0.61502000  0.88922000  1.0 -0.1690045025
C  C64  1  0.88922000  0.42006000  0.61502000  1.0 -0.1690045025
C  C65  1  0.88922000  0.61502000  0.07570000  1.0 -0.1690045025
C  C66  1  0.88922000  0.07570000  0.42006000  1.0 -0.1690045025
C  C67  1  0.42006000  0.88922000  0.07570000  1.0 -0.1690045025
C  C68  1  0.61502000  0.88922000  0.42006000  1.0 -0.1690045025
C  C69  1  0.07570000  0.88922000  0.61502000  1.0 -0.1690045025
C  C70  1  0.63498000  0.17430000  0.82994000  1.0 -0.1690045025
C  C71  1  0.17430000  0.82994000  0.63498000  1.0 -0.1690045025
C  C72  1  0.82994000  0.63498000  0.17430000  1.0 -0.1690045025
C  C73  1  0.67430000  0.13498000  0.32994000  1.0 -0.1690045025
C  C74  1  0.32994000  0.67430000  0.13498000  1.0 -0.1690045025
C  C75  1  0.13498000  0.32994000  0.67430000  1.0 -0.1690045025
C  C76  1  0.57570000  0.11502000  0.38922000  1.0 -0.1690045025
C  C77  1  0.92006000  0.38922000  0.11502000  1.0 -0.1690045025
C  C78  1  0.38922000  0.92006000  0.57570000  1.0 -0.1690045025
C  C79  1  0.92006000  0.57570000  0.38922000  1.0 -0.1690045025
C  C80  1  0.38922000  0.11502000  0.92006000  1.0 -0.1690045025
C  C81  1  0.11502000  0.38922000  0.57570000  1.0 -0.1690045025
C  C82  1  0.11502000  0.92006000  0.38922000  1.0 -0.1690045025
C  C83  1  0.57570000  0.38922000  0.92006000  1.0 -0.1690045025
C  C84  1  0.38922000  0.57570000  0.11502000  1.0 -0.1690045025
C  C85  1  0.13498000  0.67430000  0.86078000  1.0 -0.1690045025
C  C86  1  0.67430000  0.32994000  0.86078000  1.0 -0.1690045025
C  C87  1  0.32994000  0.13498000  0.86078000  1.0 -0.1690045025
C  C88  1  0.86078000  0.32994000  0.13498000  1.0 -0.1690045025
C  C89  1  0.86078000  0.13498000  0.67430000  1.0 -0.1690045025
C  C90  1  0.86078000  0.67430000  0.32994000  1.0 -0.1690045025
C  C91  1  0.32994000  0.86078000  0.67430000  1.0 -0.1690045025
C  C92  1  0.13498000  0.86078000  0.32994000  1.0 -0.1690045025
C  C93  1  0.67430000  0.86078000  0.13498000  1.0 -0.1690045025
C  C94  1  0.11502000  0.57570000  0.92006000  1.0 -0.1690045025
C  C95  1  0.57570000  0.92006000  0.11502000  1.0 -0.1690045025
C  C96  1  0.92006000  0.11502000  0.57570000  1.0 -0.1690045025
C  C97  1  0.07725000  0.61577000  0.47275000  1.0 0.0899651612
C  C98  1  0.47275000  0.07725000  0.61577000  1.0 0.0899651612
C  C99  1  0.61577000  0.47275000  0.07725000  1.0 0.0899651612
C  C100  1  0.17275000  0.63423000  0.41577000  1.0 0.0899651612
C  C101  1  0.77725000  0.41577000  0.63423000  1.0 0.0899651612
C  C102  1  0.41577000  0.77725000  0.17275000  1.0 0.0899651612
C  C103  1  0.77725000  0.17275000  0.41577000  1.0 0.0899651612
C  C104  1  0.41577000  0.63423000  0.77725000  1.0 0.0899651612
C  C105  1  0.63423000  0.41577000  0.17275000  1.0 0.0899651612
C  C106  1  0.63423000  0.77725000  0.41577000  1.0 0.0899651612
C  C107  1  0.17275000  0.41577000  0.77725000  1.0 0.0899651612
C  C108  1  0.41577000  0.17275000  0.63423000  1.0 0.0899651612
C  C109  1  0.61577000  0.07725000  0.83423000  1.0 0.0899651612
C  C110  1  0.07725000  0.47275000  0.83423000  1.0 0.0899651612
C  C111  1  0.47275000  0.61577000  0.83423000  1.0 0.0899651612
C  C112  1  0.83423000  0.47275000  0.61577000  1.0 0.0899651612
C  C113  1  0.83423000  0.61577000  0.07725000  1.0 0.0899651612
C  C114  1  0.83423000  0.07725000  0.47275000  1.0 0.0899651612
C  C115  1  0.47275000  0.83423000  0.07725000  1.0 0.0899651612
C  C116  1  0.61577000  0.83423000  0.47275000  1.0 0.0899651612
C  C117  1  0.07725000  0.83423000  0.61577000  1.0 0.0899651612
C  C118  1  0.63423000  0.17275000  0.77725000  1.0 0.0899651612
C  C119  1  0.17275000  0.77725000  0.63423000  1.0 0.0899651612
C  C120  1  0.77725000  0.63423000  0.17275000  1.0 0.0899651612
C  C121  1  0.67275000  0.13423000  0.27725000  1.0 0.0899651612
C  C122  1  0.27725000  0.67275000  0.13423000  1.0 0.0899651612
C  C123  1  0.13423000  0.27725000  0.67275000  1.0 0.0899651612
C  C124  1  0.57725000  0.11577000  0.33423000  1.0 0.0899651612
C  C125  1  0.97275000  0.33423000  0.11577000  1.0 0.0899651612
C  C126  1  0.33423000  0.97275000  0.57725000  1.0 0.0899651612
C  C127  1  0.97275000  0.57725000  0.33423000  1.0 0.0899651612
C  C128  1  0.33423000  0.11577000  0.97275000  1.0 0.0899651612
C  C129  1  0.11577000  0.33423000  0.57725000  1.0 0.0899651612
C  C130  1  0.11577000  0.97275000  0.33423000  1.0 0.0899651612
C  C131  1  0.57725000  0.33423000  0.97275000  1.0 0.0899651612
C  C132  1  0.33423000  0.57725000  0.11577000  1.0 0.0899651612
C  C133  1  0.13423000  0.67275000  0.91577000  1.0 0.0899651612
C  C134  1  0.67275000  0.27725000  0.91577000  1.0 0.0899651612
C  C135  1  0.27725000  0.13423000  0.91577000  1.0 0.0899651612
C  C136  1  0.91577000  0.27725000  0.13423000  1.0 0.0899651612
C  C137  1  0.91577000  0.13423000  0.67275000  1.0 0.0899651612
C  C138  1  0.91577000  0.67275000  0.27725000  1.0 0.0899651612
C  C139  1  0.27725000  0.91577000  0.67275000  1.0 0.0899651612
C  C140  1  0.13423000  0.91577000  0.27725000  1.0 0.0899651612
C  C141  1  0.67275000  0.91577000  0.13423000  1.0 0.0899651612
C  C142  1  0.11577000  0.57725000  0.97275000  1.0 0.0899651612
C  C143  1  0.57725000  0.97275000  0.11577000  1.0 0.0899651612
C  C144  1  0.97275000  0.11577000  0.57725000  1.0 0.0899651612
N  N1  1  0.15494000  0.62386000  0.21438000  1.0 -0.0112888387
N  N2  1  0.21438000  0.15494000  0.62386000  1.0 -0.0112888387
N  N3  1  0.62386000  0.21438000  0.15494000  1.0 -0.0112888387
N  N4  1  0.09506000  0.62614000  0.24318000  1.0 -0.0112888387
N  N5  1  0.03562000  0.24318000  0.62614000  1.0 -0.0112888387
N  N6  1  0.24318000  0.03562000  0.09506000  1.0 -0.0112888387
N  N7  1  0.03562000  0.09506000  0.24318000  1.0 -0.0112888387
N  N8  1  0.24318000  0.62614000  0.03562000  1.0 -0.0112888387
N  N9  1  0.62614000  0.24318000  0.09506000  1.0 -0.0112888387
N  N10  1  0.62614000  0.03562000  0.24318000  1.0 -0.0112888387
N  N11  1  0.09506000  0.24318000  0.03562000  1.0 -0.0112888387
N  N12  1  0.24318000  0.09506000  0.62614000  1.0 -0.0112888387
N  N13  1  0.62386000  0.15494000  0.00682000  1.0 -0.0112888387
N  N14  1  0.15494000  0.21438000  0.00682000  1.0 -0.0112888387
N  N15  1  0.21438000  0.62386000  0.00682000  1.0 -0.0112888387
N  N16  1  0.00682000  0.21438000  0.62386000  1.0 -0.0112888387
N  N17  1  0.00682000  0.62386000  0.15494000  1.0 -0.0112888387
N  N18  1  0.00682000  0.15494000  0.21438000  1.0 -0.0112888387
N  N19  1  0.21438000  0.00682000  0.15494000  1.0 -0.0112888387
N  N20  1  0.62386000  0.00682000  0.21438000  1.0 -0.0112888387
N  N21  1  0.15494000  0.00682000  0.62386000  1.0 -0.0112888387
N  N22  1  0.62614000  0.09506000  0.03562000  1.0 -0.0112888387
N  N23  1  0.09506000  0.03562000  0.62614000  1.0 -0.0112888387
N  N24  1  0.03562000  0.62614000  0.09506000  1.0 -0.0112888387
N  N25  1  0.59506000  0.12614000  0.53562000  1.0 -0.0112888387
N  N26  1  0.53562000  0.59506000  0.12614000  1.0 -0.0112888387
N  N27  1  0.12614000  0.53562000  0.59506000  1.0 -0.0112888387
N  N28  1  0.65494000  0.12386000  0.50682000  1.0 -0.0112888387
N  N29  1  0.71438000  0.50682000  0.12386000  1.0 -0.0112888387
N  N30  1  0.50682000  0.71438000  0.65494000  1.0 -0.0112888387
N  N31  1  0.71438000  0.65494000  0.50682000  1.0 -0.0112888387
N  N32  1  0.50682000  0.12386000  0.71438000  1.0 -0.0112888387
N  N33  1  0.12386000  0.50682000  0.65494000  1.0 -0.0112888387
N  N34  1  0.12386000  0.71438000  0.50682000  1.0 -0.0112888387
N  N35  1  0.65494000  0.50682000  0.71438000  1.0 -0.0112888387
N  N36  1  0.50682000  0.65494000  0.12386000  1.0 -0.0112888387
N  N37  1  0.12614000  0.59506000  0.74318000  1.0 -0.0112888387
N  N38  1  0.59506000  0.53562000  0.74318000  1.0 -0.0112888387
N  N39  1  0.53562000  0.12614000  0.74318000  1.0 -0.0112888387
N  N40  1  0.74318000  0.53562000  0.12614000  1.0 -0.0112888387
N  N41  1  0.74318000  0.12614000  0.59506000  1.0 -0.0112888387
N  N42  1  0.74318000  0.59506000  0.53562000  1.0 -0.0112888387
N  N43  1  0.53562000  0.74318000  0.59506000  1.0 -0.0112888387
N  N44  1  0.12614000  0.74318000  0.53562000  1.0 -0.0112888387
N  N45  1  0.59506000  0.74318000  0.12614000  1.0 -0.0112888387
N  N46  1  0.12386000  0.65494000  0.71438000  1.0 -0.0112888387
N  N47  1  0.65494000  0.71438000  0.12386000  1.0 -0.0112888387
N  N48  1  0.71438000  0.12386000  0.65494000  1.0 -0.0112888387
N  N49  1  0.17533000  0.62321000  0.25299000  1.0 -0.258062979
N  N50  1  0.25299000  0.17533000  0.62321000  1.0 -0.258062979
N  N51  1  0.62321000  0.25299000  0.17533000  1.0 -0.258062979
N  N52  1  0.07467000  0.62679000  0.30153000  1.0 -0.258062979
N  N53  1  0.99701000  0.30153000  0.62679000  1.0 -0.258062979
N  N54  1  0.30153000  0.99701000  0.07467000  1.0 -0.258062979
N  N55  1  0.99701000  0.07467000  0.30153000  1.0 -0.258062979
N  N56  1  0.30153000  0.62679000  0.99701000  1.0 -0.258062979
N  N57  1  0.62679000  0.30153000  0.07467000  1.0 -0.258062979
N  N58  1  0.62679000  0.99701000  0.30153000  1.0 -0.258062979
N  N59  1  0.07467000  0.30153000  0.99701000  1.0 -0.258062979
N  N60  1  0.30153000  0.07467000  0.62679000  1.0 -0.258062979
N  N61  1  0.62321000  0.17533000  0.94847000  1.0 -0.258062979
N  N62  1  0.17533000  0.25299000  0.94847000  1.0 -0.258062979
N  N63  1  0.25299000  0.62321000  0.94847000  1.0 -0.258062979
N  N64  1  0.94847000  0.25299000  0.62321000  1.0 -0.258062979
N  N65  1  0.94847000  0.62321000  0.17533000  1.0 -0.258062979
N  N66  1  0.94847000  0.17533000  0.25299000  1.0 -0.258062979
N  N67  1  0.25299000  0.94847000  0.17533000  1.0 -0.258062979
N  N68  1  0.62321000  0.94847000  0.25299000  1.0 -0.258062979
N  N69  1  0.17533000  0.94847000  0.62321000  1.0 -0.258062979
N  N70  1  0.62679000  0.07467000  0.99701000  1.0 -0.258062979
N  N71  1  0.07467000  0.99701000  0.62679000  1.0 -0.258062979
N  N72  1  0.99701000  0.62679000  0.07467000  1.0 -0.258062979
N  N73  1  0.57467000  0.12679000  0.49701000  1.0 -0.258062979
N  N74  1  0.49701000  0.57467000  0.12679000  1.0 -0.258062979
N  N75  1  0.12679000  0.49701000  0.57467000  1.0 -0.258062979
N  N76  1  0.67533000  0.12321000  0.44847000  1.0 -0.258062979
N  N77  1  0.75299000  0.44847000  0.12321000  1.0 -0.258062979
N  N78  1  0.44847000  0.75299000  0.67533000  1.0 -0.258062979
N  N79  1  0.75299000  0.67533000  0.44847000  1.0 -0.258062979
N  N80  1  0.44847000  0.12321000  0.75299000  1.0 -0.258062979
N  N81  1  0.12321000  0.44847000  0.67533000  1.0 -0.258062979
N  N82  1  0.12321000  0.75299000  0.44847000  1.0 -0.258062979
N  N83  1  0.67533000  0.44847000  0.75299000  1.0 -0.258062979
N  N84  1  0.44847000  0.67533000  0.12321000  1.0 -0.258062979
N  N85  1  0.12679000  0.57467000  0.80153000  1.0 -0.258062979
N  N86  1  0.57467000  0.49701000  0.80153000  1.0 -0.258062979
N  N87  1  0.49701000  0.12679000  0.80153000  1.0 -0.258062979
N  N88  1  0.80153000  0.49701000  0.12679000  1.0 -0.258062979
N  N89  1  0.80153000  0.12679000  0.57467000  1.0 -0.258062979
N  N90  1  0.80153000  0.57467000  0.49701000  1.0 -0.258062979
N  N91  1  0.49701000  0.80153000  0.57467000  1.0 -0.258062979
N  N92  1  0.12679000  0.80153000  0.49701000  1.0 -0.258062979
N  N93  1  0.57467000  0.80153000  0.12679000  1.0 -0.258062979
N  N94  1  0.12321000  0.67533000  0.75299000  1.0 -0.258062979
N  N95  1  0.67533000  0.75299000  0.12321000  1.0 -0.258062979
N  N96  1  0.75299000  0.12321000  0.67533000  1.0 -0.258062979
N  N97  1  0.12500000  0.62500000  0.47028000  1.0 -0.2525923259
N  N98  1  0.47028000  0.12500000  0.62500000  1.0 -0.2525923259
N  N99  1  0.62500000  0.47028000  0.12500000  1.0 -0.2525923259
N  N100  1  0.77972000  0.47028000  0.62500000  1.0 -0.2525923259
N  N101  1  0.47028000  0.77972000  0.12500000  1.0 -0.2525923259
N  N102  1  0.77972000  0.12500000  0.47028000  1.0 -0.2525923259
N  N103  1  0.47028000  0.62500000  0.77972000  1.0 -0.2525923259
N  N104  1  0.62500000  0.77972000  0.47028000  1.0 -0.2525923259
N  N105  1  0.12500000  0.47028000  0.77972000  1.0 -0.2525923259
N  N106  1  0.62500000  0.12500000  0.77972000  1.0 -0.2525923259
N  N107  1  0.77972000  0.62500000  0.12500000  1.0 -0.2525923259
N  N108  1  0.12500000  0.77972000  0.62500000  1.0 -0.2525923259
N  N109  1  0.62500000  0.12500000  0.27972000  1.0 -0.2525923259
N  N110  1  0.27972000  0.62500000  0.12500000  1.0 -0.2525923259
N  N111  1  0.12500000  0.27972000  0.62500000  1.0 -0.2525923259
N  N112  1  0.97028000  0.27972000  0.12500000  1.0 -0.2525923259
N  N113  1  0.27972000  0.97028000  0.62500000  1.0 -0.2525923259
N  N114  1  0.97028000  0.62500000  0.27972000  1.0 -0.2525923259
N  N115  1  0.27972000  0.12500000  0.97028000  1.0 -0.2525923259
N  N116  1  0.12500000  0.97028000  0.27972000  1.0 -0.2525923259
N  N117  1  0.62500000  0.27972000  0.97028000  1.0 -0.2525923259
N  N118  1  0.12500000  0.62500000  0.97028000  1.0 -0.2525923259
N  N119  1  0.97028000  0.12500000  0.62500000  1.0 -0.2525923259
N  N120  1  0.62500000  0.97028000  0.12500000  1.0 -0.2525923259
O  O1  1  0.12500000  0.62500000  0.12500000  1.0 -0.810477263
O  O2  1  0.12500000  0.12500000  0.62500000  1.0 -0.810477263
O  O3  1  0.62500000  0.12500000  0.12500000  1.0 -0.810477263
O  O4  1  0.12500000  0.12500000  0.12500000  1.0 -0.810477263
O  O5  1  0.62500000  0.12500000  0.62500000  1.0 -0.810477263
O  O6  1  0.62500000  0.62500000  0.12500000  1.0 -0.810477263
O  O7  1  0.12500000  0.62500000  0.62500000  1.0 -0.810477263
O  O8  1  0.62500000  0.62500000  0.62500000  1.0 -0.810477263
O  O9  1  0.15730000  0.74192000  0.08742000  1.0 -0.1526168006
O  O10  1  0.08742000  0.15730000  0.74192000  1.0 -0.1595927763
O  O11  1  0.74192000  0.08742000  0.15730000  1.0 -0.1526168006
O  O12  1  0.09270000  0.50808000  0.23664000  1.0 -0.1595927763
O  O13  1  0.16258000  0.23664000  0.50808000  1.0 -0.1595927763
O  O14  1  0.23664000  0.16258000  0.09270000  1.0 -0.1595927763
O  O15  1  0.16258000  0.09270000  0.23664000  1.0 -0.1595927763
O  O16  1  0.23664000  0.50808000  0.16258000  1.0 -0.1595927763
O  O17  1  0.50808000  0.23664000  0.09270000  1.0 -0.1409975874
O  O18  1  0.50808000  0.16258000  0.23664000  1.0 -0.1526168006
O  O19  1  0.09270000  0.23664000  0.16258000  1.0 -0.1595927763
O  O20  1  0.23664000  0.09270000  0.50808000  1.0 -0.1595927763
O  O21  1  0.74192000  0.15730000  0.01336000  1.0 -0.1409975874
O  O22  1  0.15730000  0.08742000  0.01336000  1.0 -0.1595927763
O  O23  1  0.08742000  0.74192000  0.01336000  1.0 -0.1595927763
O  O24  1  0.01336000  0.08742000  0.74192000  1.0 -0.1595927763
O  O25  1  0.01336000  0.74192000  0.15730000  1.0 -0.1595927763
O  O26  1  0.01336000  0.15730000  0.08742000  1.0 -0.1595927763
O  O27  1  0.08742000  0.01336000  0.15730000  1.0 -0.1595927763
O  O28  1  0.74192000  0.01336000  0.08742000  1.0 -0.1526168006
O  O29  1  0.15730000  0.01336000  0.74192000  1.0 -0.1595927763
O  O30  1  0.50808000  0.09270000  0.16258000  1.0 -0.1526168006
O  O31  1  0.09270000  0.16258000  0.50808000  1.0 -0.1595927763
O  O32  1  0.16258000  0.50808000  0.09270000  1.0 -0.1409975874
O  O33  1  0.59270000  0.00808000  0.66258000  1.0 -0.1595927763
O  O34  1  0.66258000  0.59270000  0.00808000  1.0 -0.1526168006
O  O35  1  0.00808000  0.66258000  0.59270000  1.0 -0.1595927763
O  O36  1  0.65730000  0.24192000  0.51336000  1.0 -0.1595927763
O  O37  1  0.58742000  0.51336000  0.24192000  1.0 -0.1409975874
O  O38  1  0.51336000  0.58742000  0.65730000  1.0 -0.1595927763
O  O39  1  0.58742000  0.65730000  0.51336000  1.0 -0.1595927763
O  O40  1  0.51336000  0.24192000  0.58742000  1.0 -0.1595927763
O  O41  1  0.24192000  0.51336000  0.65730000  1.0 -0.1595927763
O  O42  1  0.24192000  0.58742000  0.51336000  1.0 -0.1595927763
O  O43  1  0.65730000  0.51336000  0.58742000  1.0 -0.1595927763
O  O44  1  0.51336000  0.65730000  0.24192000  1.0 -0.1595927763
O  O45  1  0.00808000  0.59270000  0.73664000  1.0 -0.1526168006
O  O46  1  0.59270000  0.66258000  0.73664000  1.0 -0.1595927763
O  O47  1  0.66258000  0.00808000  0.73664000  1.0 -0.1595927763
O  O48  1  0.73664000  0.66258000  0.00808000  1.0 -0.1526168006
O  O49  1  0.73664000  0.00808000  0.59270000  1.0 -0.1595927763
O  O50  1  0.73664000  0.59270000  0.66258000  1.0 -0.1409975874
O  O51  1  0.66258000  0.73664000  0.59270000  1.0 -0.1595927763
O  O52  1  0.00808000  0.73664000  0.66258000  1.0 -0.1595927763
O  O53  1  0.59270000  0.73664000  0.00808000  1.0 -0.1526168006
O  O54  1  0.24192000  0.65730000  0.58742000  1.0 -0.1595927763
O  O55  1  0.65730000  0.58742000  0.24192000  1.0 -0.1526168006
O  O56  1  0.58742000  0.24192000  0.65730000  1.0 -0.1595927763
