# DDEC6 charges by PACMAN v1.1 (https://github.com/mtap-research/PACMAN-charge/)
data_FUSGOR_ASR_pacman
_symmetry_space_group_name_H-M   'P 1'
_cell_length_a   10.17920000
_cell_length_b   6.72790000
_cell_length_c   12.81580000
_cell_angle_alpha   90.00000000
_cell_angle_beta   111.69800000
_cell_angle_gamma   90.00000000
_symmetry_Int_Tables_number   1
_chemical_formula_structural   Co2H4C9N4O5
_chemical_formula_sum   'Co4 H8 C18 N8 O10'
_cell_volume   815.49746214
_cell_formula_units_Z   2
loop_
 _symmetry_equiv_pos_site_id
 _symmetry_equiv_pos_as_xyz
  1  'x, y, z'
loop_
 _atom_site_type_symbol
 _atom_site_label
 _atom_site_symmetry_multiplicity
 _atom_site_fract_x
 _atom_site_fract_y
 _atom_site_fract_z
 _atom_site_occupancy
 _atom_site_charge
Co  Co1  1  0.86880000  0.75000000  0.73400000  1.0 0.8699358379
Co  Co2  1  0.13120000  0.25000000  0.26600000  1.0 0.8699358379
Co  Co3  1  0.00000000  0.50000000  0.00000000  1.0 0.7285479283
Co  Co4  1  0.00000000  0.00000000  0.00000000  1.0 0.7285479283
H  H1  1  0.41580000  0.75000000  0.75480000  1.0 0.1292760944
H  H2  1  0.58420000  0.25000000  0.24520000  1.0 0.1292760944
H  H3  1  0.05610000  0.75000000  0.48190000  1.0 0.1385130895
H  H4  1  0.94390000  0.25000000  0.51810000  1.0 0.1385130895
H  H5  1  0.43170000  0.75000000  0.44600000  1.0 0.1385130895
H  H6  1  0.56830000  0.25000000  0.55400000  1.0 0.1385130895
H  H7  1  0.06100000  0.75000000  0.89200000  1.0 0.3669069982
H  H8  1  0.93900000  0.25000000  0.10800000  1.0 0.3669069982
C  C1  1  0.60630000  0.75000000  0.65840000  1.0 0.5346863544
C  C2  1  0.39370000  0.25000000  0.34160000  1.0 0.5346863544
C  C3  1  0.44790000  0.75000000  0.60850000  1.0 -0.0002865761
C  C4  1  0.55210000  0.25000000  0.39150000  1.0 -0.0002865761
C  C5  1  0.36980000  0.75000000  0.67720000  1.0 -0.1129721514
C  C6  1  0.63020000  0.25000000  0.32280000  1.0 -0.1129721514
C  C7  1  0.22270000  0.75000000  0.63000000  1.0 0.0007839435
C  C8  1  0.77730000  0.25000000  0.37000000  1.0 -0.0002865761
C  C9  1  0.15430000  0.75000000  0.51360000  1.0 -0.1129721514
C  C10  1  0.84570000  0.25000000  0.48640000  1.0 -0.1129721514
C  C11  1  0.23240000  0.75000000  0.44460000  1.0 0.050755409
C  C12  1  0.76760000  0.25000000  0.55540000  1.0 0.050755409
C  C13  1  0.37930000  0.75000000  0.49200000  1.0 -0.1129721514
C  C14  1  0.62070000  0.25000000  0.50800000  1.0 -0.1129721514
C  C15  1  0.13700000  0.75000000  0.70470000  1.0 0.5592534518
C  C16  1  0.86300000  0.25000000  0.29530000  1.0 0.5592534518
C  C17  1  0.16040000  0.75000000  0.32070000  1.0 0.2946605509
C  C18  1  0.83960000  0.25000000  0.67930000  1.0 0.2946605509
N  N1  1  0.12490000  0.58580000  0.25738000  1.0 -0.2274902599
N  N2  1  0.87510000  0.08580000  0.74262000  1.0 -0.2274902599
N  N3  1  0.87510000  0.41420000  0.74262000  1.0 -0.2274902599
N  N4  1  0.12490000  0.91420000  0.25738000  1.0 -0.2274902599
N  N5  1  0.06510000  0.65410000  0.15223000  1.0 -0.0401128536
N  N6  1  0.93490000  0.15410000  0.84777000  1.0 -0.0401128536
N  N7  1  0.93490000  0.34590000  0.84777000  1.0 -0.0401128536
N  N8  1  0.06510000  0.84590000  0.15223000  1.0 -0.0401128536
O  O1  1  0.66940000  0.75000000  0.76370000  1.0 -0.5378533626
O  O2  1  0.33060000  0.25000000  0.23630000  1.0 -0.5378533626
O  O3  1  0.67540000  0.75000000  0.59540000  1.0 -0.5207608962
O  O4  1  0.32460000  0.25000000  0.40460000  1.0 -0.5207608962
O  O5  1  0.19920000  0.75000000  0.80760000  1.0 -0.5327495361
O  O6  1  0.80080000  0.25000000  0.19240000  1.0 -0.5327495361
O  O7  1  0.00600000  0.75000000  0.65600000  1.0 -0.5378533626
O  O8  1  0.99400000  0.25000000  0.34400000  1.0 -0.5378533626
O  O9  1  0.99480000  0.75000000  0.90463000  1.0 -0.8076710725
O  O10  1  0.00520000  0.25000000  0.09537000  1.0 -0.8076710725
