# DDEC6 charges by PACMAN v1.1 (https://github.com/mtap-research/PACMAN-charge/)
data_FUSTUK_ASR_pacman
_symmetry_space_group_name_H-M   'P 1'
_cell_length_a   27.02880000
_cell_length_b   27.02880000
_cell_length_c   27.02880000
_cell_angle_alpha   116.46000000
_cell_angle_beta   116.46000000
_cell_angle_gamma   96.24960000
_symmetry_Int_Tables_number   1
_chemical_formula_structural   Zn5H30C51S2(N2O)9
_chemical_formula_sum   'Zn40 H240 C408 S16 N144 O72'
_cell_volume   14615.46742755
_cell_formula_units_Z   8
loop_
 _symmetry_equiv_pos_site_id
 _symmetry_equiv_pos_as_xyz
  1  'x, y, z'
loop_
 _atom_site_type_symbol
 _atom_site_label
 _atom_site_symmetry_multiplicity
 _atom_site_fract_x
 _atom_site_fract_y
 _atom_site_fract_z
 _atom_site_occupancy
 _atom_site_charge
Zn  Zn1  1  0.59117000  0.06677000  0.72116000  1.0 0.6676920766
Zn  Zn2  1  0.40439000  0.37999000  0.22116000  1.0 0.6676920766
Zn  Zn3  1  0.62270000  0.30570000  0.77952000  1.0 0.6416465753
Zn  Zn4  1  0.22382000  0.40682000  0.27952000  1.0 0.6416465753
Zn  Zn5  1  0.63805000  0.21873000  0.84876000  1.0 0.4518916198
Zn  Zn6  1  0.38003000  0.46071000  0.34876000  1.0 0.4518916198
Zn  Zn7  1  0.54723000  0.22907000  0.91606000  1.0 0.6803154238
Zn  Zn8  1  0.43699000  0.61883000  0.41606000  1.0 0.6803154238
Zn  Zn9  1  0.79070000  0.26906000  0.97320000  1.0 0.6874078625
Zn  Zn10  1  0.45414000  0.43250000  0.47320000  1.0 0.6874078625
Zn  Zn11  1  0.34561000  0.87001000  0.27884000  1.0 0.6676920766
Zn  Zn12  1  0.15883000  0.18323000  0.77884000  1.0 0.6676920766
Zn  Zn13  1  0.52618000  0.84318000  0.22048000  1.0 0.6416465753
Zn  Zn14  1  0.12730000  0.94430000  0.72048000  1.0 0.6416465753
Zn  Zn15  1  0.36997000  0.78929000  0.15124000  1.0 0.4518916198
Zn  Zn16  1  0.11195000  0.03127000  0.65124000  1.0 0.4518916198
Zn  Zn17  1  0.31301000  0.63117000  0.08394000  1.0 0.6803154238
Zn  Zn18  1  0.20277000  0.02093000  0.58394000  1.0 0.6803154238
Zn  Zn19  1  0.29586000  0.81750000  0.02680000  1.0 0.6874078625
Zn  Zn20  1  0.95930000  0.98094000  0.52680000  1.0 0.6874078625
Zn  Zn21  1  0.62001000  0.84117000  0.02440000  1.0 0.6676920766
Zn  Zn22  1  0.93323000  0.65439000  0.52440000  1.0 0.6676920766
Zn  Zn23  1  0.59318000  0.87270000  0.81700000  1.0 0.6416465753
Zn  Zn24  1  0.69430000  0.47382000  0.31700000  1.0 0.6416465753
Zn  Zn25  1  0.53929000  0.88805000  0.91932000  1.0 0.4518916198
Zn  Zn26  1  0.78127000  0.63003000  0.41932000  1.0 0.4518916198
Zn  Zn27  1  0.38117000  0.79723000  0.81816000  1.0 0.6803154238
Zn  Zn28  1  0.77093000  0.68699000  0.31816000  1.0 0.6803154238
Zn  Zn29  1  0.56750000  0.04070000  0.02164000  1.0 0.6874078625
Zn  Zn30  1  0.73094000  0.70414000  0.52164000  1.0 0.6874078625
Zn  Zn31  1  0.81677000  0.59561000  0.97560000  1.0 0.6676920766
Zn  Zn32  1  0.12999000  0.40883000  0.47560000  1.0 0.6676920766
Zn  Zn33  1  0.05570000  0.77618000  0.18300000  1.0 0.6416465753
Zn  Zn34  1  0.15682000  0.37730000  0.68300000  1.0 0.6416465753
Zn  Zn35  1  0.96873000  0.61997000  0.08068000  1.0 0.4518916198
Zn  Zn36  1  0.21071000  0.36195000  0.58068000  1.0 0.4518916198
Zn  Zn37  1  0.97907000  0.56301000  0.18184000  1.0 0.6803154238
Zn  Zn38  1  0.36883000  0.45277000  0.68184000  1.0 0.6803154238
Zn  Zn39  1  0.01906000  0.54586000  0.97836000  1.0 0.6874078625
Zn  Zn40  1  0.18250000  0.20930000  0.47836000  1.0 0.6874078625
H  H1  1  0.51660000  0.96460000  0.73220000  1.0 0.1382085032
H  H2  1  0.51760000  0.46560000  0.23220000  1.0 0.1382085032
H  H3  1  0.48200000  0.09480000  0.88960000  1.0 0.1382085032
H  H4  1  0.54480000  0.65760000  0.38960000  1.0 0.1382085032
H  H5  1  0.46050000  0.92860000  0.76230000  1.0 0.109491297
H  H6  1  0.58370000  0.55180000  0.26230000  1.0 0.109491297
H  H7  1  0.44170000  0.99190000  0.83800000  1.0 0.109491297
H  H8  1  0.59610000  0.64630000  0.33800000  1.0 0.109491297
H  H9  1  0.39850000  0.19050000  0.05300000  1.0 0.1289450995
H  H10  1  0.61250000  0.90450000  0.55300000  1.0 0.1289450995
H  H11  1  0.53610000  0.22520000  0.60790000  1.0 0.1219010648
H  H12  1  0.13270000  0.32180000  0.10790000  1.0 0.1219010648
H  H13  1  0.44280000  0.39140000  0.88380000  1.0 0.1219010648
H  H14  1  0.24240000  0.69100000  0.38380000  1.0 0.1219010648
H  H15  1  0.89040000  0.37570000  0.99310000  1.0 0.1382085032
H  H16  1  0.36740000  0.35270000  0.49310000  1.0 0.1382085032
H  H17  1  0.82790000  0.33680000  0.13070000  1.0 0.1382085032
H  H18  1  0.54390000  0.55280000  0.63070000  1.0 0.1382085032
H  H19  1  0.81700000  0.38010000  0.21710000  1.0 0.109491297
H  H20  1  0.58700000  0.65010000  0.71710000  1.0 0.109491297
H  H21  1  0.44610000  0.16450000  0.99240000  1.0 0.1289450995
H  H22  1  0.57790000  0.79630000  0.49240000  1.0 0.1289450995
H  H23  1  0.75540000  0.40090000  0.82630000  1.0 0.1289450995
H  H24  1  0.17540000  0.32090000  0.32630000  1.0 0.1289450995
H  H25  1  0.46140000  0.04810000  0.47710000  1.0 0.1219010648
H  H26  1  0.17900000  0.26570000  0.97710000  1.0 0.1219010648
H  H27  1  0.48030000  0.14260000  0.50050000  1.0 0.1219010648
H  H28  1  0.10790000  0.27020000  0.00050000  1.0 0.1219010648
H  H29  1  0.47620000  0.42500000  0.83560000  1.0 0.1219010648
H  H30  1  0.16060000  0.60940000  0.33560000  1.0 0.1219010648
H  H31  1  0.47010000  0.31890000  0.90220000  1.0 0.1382085032
H  H32  1  0.33333333  0.68210000  0.40220000  1.0 0.1382085032
H  H33  1  0.49960000  0.02930000  0.55990000  1.0 0.1382085032
H  H34  1  0.28060000  0.31030000  0.05990000  1.0 0.1382085032
H  H35  1  0.63900000  0.32150000  0.09430000  1.0 0.1382085032
H  H36  1  0.52280000  0.70530000  0.59430000  1.0 0.1382085032
H  H37  1  0.54040000  0.39060000  0.80500000  1.0 0.1219010648
H  H38  1  0.16440000  0.51460000  0.30500000  1.0 0.1219010648
H  H39  1  0.70760000  0.01790000  0.72150000  1.0 0.1289450995
H  H40  1  0.45360000  0.26390000  0.22150000  1.0 0.1289450995
H  H41  1  0.72070000  0.36780000  0.19770000  1.0 0.109491297
H  H42  1  0.57990000  0.72700000  0.69770000  1.0 0.109491297
H  H43  1  0.88160000  0.10240000  0.87580000  1.0 0.109491297
H  H44  1  0.52340000  0.24420000  0.37580000  1.0 0.109491297
H  H45  1  0.85870000  0.44140000  0.87910000  1.0 0.109491297
H  H46  1  0.18770000  0.27040000  0.37910000  1.0 0.109491297
H  H47  1  0.92390000  0.43780000  0.96810000  1.0 0.109491297
H  H48  1  0.28030000  0.29420000  0.46810000  1.0 0.109491297
H  H49  1  0.86700000  0.18300000  0.93600000  1.0 0.1382085032
H  H50  1  0.50300000  0.31900000  0.43600000  1.0 0.1382085032
H  H51  1  0.80740000  0.02860000  0.76420000  1.0 0.109491297
H  H52  1  0.48560000  0.20680000  0.26420000  1.0 0.109491297
H  H53  1  0.93440000  0.26350000  0.17210000  1.0 0.1219010648
H  H54  1  0.65860000  0.48770000  0.67210000  1.0 0.1219010648
H  H55  1  0.03640000  0.32110000  0.26230000  1.0 0.1044019574
H  H56  1  0.69120000  0.47590000  0.76230000  1.0 0.1044019574
H  H57  1  0.93460000  0.21030000  0.11550000  1.0 0.1289450995
H  H58  1  0.65520000  0.43090000  0.61550000  1.0 0.1289450995
H  H59  1  0.03790000  0.23920000  0.17130000  1.0 0.1289450995
H  H60  1  0.68210000  0.38340000  0.67130000  1.0 0.1289450995
H  H61  1  0.23240000  0.78440000  0.26780000  1.0 0.1382085032
H  H62  1  0.23340000  0.28540000  0.76780000  1.0 0.1382085032
H  H63  1  0.20520000  0.59240000  0.11040000  1.0 0.1382085032
H  H64  1  0.26800000  0.15520000  0.61040000  1.0 0.1382085032
H  H65  1  0.16630000  0.69820000  0.23770000  1.0 0.109491297
H  H66  1  0.28950000  0.32140000  0.73770000  1.0 0.109491297
H  H67  1  0.15390000  0.60370000  0.16200000  1.0 0.109491297
H  H68  1  0.30830000  0.25810000  0.66200000  1.0 0.109491297
H  H69  1  0.13750000  0.34550000  0.94700000  1.0 0.1289450995
H  H70  1  0.35150000  0.05950000  0.44700000  1.0 0.1289450995
H  H71  1  0.61730000  0.92820000  0.39210000  1.0 0.1219010648
H  H72  1  0.21390000  0.02480000  0.89210000  1.0 0.1219010648
H  H73  1  0.50760000  0.55900000  0.11620000  1.0 0.1219010648
H  H74  1  0.30720000  0.85860000  0.61620000  1.0 0.1219010648
H  H75  1  0.38260000  0.89730000  0.00690000  1.0 0.1382085032
H  H76  1  0.85960000  0.87430000  0.50690000  1.0 0.1382085032
H  H77  1  0.20610000  0.69720000  0.86930000  1.0 0.1382085032
H  H78  1  0.92210000  0.91320000  0.36930000  1.0 0.1382085032
H  H79  1  0.16300000  0.59990000  0.78290000  1.0 0.109491297
H  H80  1  0.93300000  0.86990000  0.28290000  1.0 0.109491297
H  H81  1  0.17210000  0.45370000  0.00760000  1.0 0.1289450995
H  H82  1  0.30390000  0.08550000  0.50760000  1.0 0.1289450995
H  H83  1  0.57460000  0.92910000  0.17370000  1.0 0.1289450995
H  H84  1  0.99460000  0.84910000  0.67370000  1.0 0.1289450995
H  H85  1  0.57100000  0.98430000  0.52290000  1.0 0.1219010648
H  H86  1  0.28860000  0.20190000  0.02290000  1.0 0.1219010648
H  H87  1  0.64210000  0.97980000  0.49950000  1.0 0.1219010648
H  H88  1  0.26970000  0.10740000  0.99950000  1.0 0.1219010648
H  H89  1  0.58940000  0.64060000  0.16440000  1.0 0.1219010648
H  H90  1  0.27380000  0.82500000  0.66440000  1.0 0.1219010648
H  H91  1  0.41670000  0.56790000  0.09780000  1.0 0.1382085032
H  H92  1  0.27990000  0.93110000  0.59780000  1.0 0.1382085032
H  H93  1  0.46940000  0.93970000  0.44010000  1.0 0.1382085032
H  H94  1  0.25040000  0.22070000  0.94010000  1.0 0.1382085032
H  H95  1  0.22720000  0.54470000  0.90570000  1.0 0.1382085032
H  H96  1  0.11100000  0.92850000  0.40570000  1.0 0.1382085032
H  H97  1  0.58560000  0.73540000  0.19500000  1.0 0.1219010648
H  H98  1  0.20960000  0.85940000  0.69500000  1.0 0.1219010648
H  H99  1  0.29640000  0.98610000  0.27850000  1.0 0.1289450995
H  H100  1  0.04240000  0.23210000  0.77850000  1.0 0.1289450995
H  H101  1  0.17010000  0.52300000  0.80230000  1.0 0.109491297
H  H102  1  0.02930000  0.88220000  0.30230000  1.0 0.109491297
H  H103  1  0.22660000  0.00580000  0.12420000  1.0 0.109491297
H  H104  1  0.86840000  0.14760000  0.62420000  1.0 0.109491297
H  H105  1  0.56230000  0.97960000  0.12090000  1.0 0.109491297
H  H106  1  0.89130000  0.80860000  0.62090000  1.0 0.109491297
H  H107  1  0.46970000  0.95580000  0.03190000  1.0 0.109491297
H  H108  1  0.82610000  0.81220000  0.53190000  1.0 0.109491297
H  H109  1  0.24700000  0.93100000  0.06400000  1.0 0.1382085032
H  H110  1  0.88300000  0.06700000  0.56400000  1.0 0.1382085032
H  H111  1  0.26440000  0.04320000  0.23580000  1.0 0.109491297
H  H112  1  0.94260000  0.22140000  0.73580000  1.0 0.109491297
H  H113  1  0.09140000  0.76230000  0.82790000  1.0 0.1219010648
H  H114  1  0.81560000  0.98650000  0.32790000  1.0 0.1219010648
H  H115  1  0.05880000  0.77410000  0.73770000  1.0 0.1044019574
H  H116  1  0.71360000  0.92890000  0.23770000  1.0 0.1044019574
H  H117  1  0.09480000  0.81910000  0.88450000  1.0 0.1289450995
H  H118  1  0.81540000  0.03970000  0.38450000  1.0 0.1289450995
H  H119  1  0.06790000  0.86660000  0.82870000  1.0 0.1289450995
H  H120  1  0.71210000  0.01080000  0.32870000  1.0 0.1289450995
H  H121  1  0.53440000  0.76660000  0.05200000  1.0 0.1382085032
H  H122  1  0.03540000  0.76760000  0.55200000  1.0 0.1382085032
H  H123  1  0.34240000  0.73200000  0.88720000  1.0 0.1382085032
H  H124  1  0.90520000  0.79480000  0.38720000  1.0 0.1382085032
H  H125  1  0.44820000  0.71050000  0.03190000  1.0 0.109491297
H  H126  1  0.07140000  0.83370000  0.53190000  1.0 0.109491297
H  H127  1  0.35370000  0.69170000  0.94980000  1.0 0.109491297
H  H128  1  0.00810000  0.84610000  0.44980000  1.0 0.109491297
H  H129  1  0.09550000  0.64850000  0.70800000  1.0 0.1289450995
H  H130  1  0.80950000  0.86250000  0.20800000  1.0 0.1289450995
H  H131  1  0.67820000  0.78610000  0.81090000  1.0 0.1219010648
H  H132  1  0.77480000  0.38270000  0.31090000  1.0 0.1219010648
H  H133  1  0.30900000  0.69280000  0.55140000  1.0 0.1219010648
H  H134  1  0.60860000  0.49240000  0.05140000  1.0 0.1219010648
H  H135  1  0.64730000  0.14040000  0.01470000  1.0 0.1382085032
H  H136  1  0.62430000  0.61740000  0.51470000  1.0 0.1382085032
H  H137  1  0.44720000  0.07790000  0.99110000  1.0 0.1382085032
H  H138  1  0.66320000  0.79390000  0.49110000  1.0 0.1382085032
H  H139  1  0.34990000  0.06700000  0.93690000  1.0 0.109491297
H  H140  1  0.61990000  0.83700000  0.43690000  1.0 0.109491297
H  H141  1  0.20370000  0.69610000  0.78160000  1.0 0.1289450995
H  H142  1  0.83550000  0.82790000  0.28160000  1.0 0.1289450995
H  H143  1  0.67910000  0.00540000  0.85450000  1.0 0.1289450995
H  H144  1  0.59910000  0.42540000  0.35450000  1.0 0.1289450995
H  H145  1  0.73430000  0.71140000  0.91330000  1.0 0.1219010648
H  H146  1  0.95190000  0.42900000  0.41330000  1.0 0.1219010648
H  H147  1  0.72980000  0.73030000  0.83770000  1.0 0.1219010648
H  H148  1  0.85740000  0.35790000  0.33770000  1.0 0.1219010648
H  H149  1  0.39060000  0.72620000  0.55120000  1.0 0.1219010648
H  H150  1  0.57500000  0.41060000  0.05120000  1.0 0.1219010648
H  H151  1  0.31790000  0.72010000  0.65120000  1.0 0.1382085032
H  H152  1  0.68110000  0.58330000  0.15120000  1.0 0.1382085032
H  H153  1  0.68970000  0.74960000  0.97030000  1.0 0.1382085032
H  H154  1  0.97070000  0.53060000  0.47030000  1.0 0.1382085032
H  H155  1  0.29470000  0.88900000  0.81750000  1.0 0.1382085032
H  H156  1  0.67850000  0.77280000  0.31750000  1.0 0.1382085032
H  H157  1  0.48540000  0.79040000  0.64980000  1.0 0.1219010648
H  H158  1  0.60940000  0.41440000  0.14980000  1.0 0.1219010648
H  H159  1  0.73610000  0.95760000  0.18970000  1.0 0.1289450995
H  H160  1  0.98210000  0.70360000  0.68970000  1.0 0.1289450995
H  H161  1  0.27300000  0.97070000  0.85290000  1.0 0.109491297
H  H162  1  0.63220000  0.82990000  0.35290000  1.0 0.109491297
H  H163  1  0.75580000  0.13160000  0.27920000  1.0 0.109491297
H  H164  1  0.89760000  0.77340000  0.77920000  1.0 0.109491297
H  H165  1  0.72960000  0.10870000  0.91730000  1.0 0.109491297
H  H166  1  0.55860000  0.43770000  0.41730000  1.0 0.109491297
H  H167  1  0.70580000  0.17390000  0.98610000  1.0 0.109491297
H  H168  1  0.56220000  0.53030000  0.48610000  1.0 0.109491297
H  H169  1  0.68100000  0.11700000  0.18400000  1.0 0.1382085032
H  H170  1  0.81700000  0.75300000  0.68400000  1.0 0.1382085032
H  H171  1  0.79320000  0.05740000  0.27880000  1.0 0.109491297
H  H172  1  0.97140000  0.73560000  0.77880000  1.0 0.109491297
H  H173  1  0.51230000  0.18440000  0.17090000  1.0 0.1219010648
H  H174  1  0.73650000  0.90860000  0.67090000  1.0 0.1219010648
H  H175  1  0.52410000  0.28640000  0.21530000  1.0 0.1044019574
H  H176  1  0.67890000  0.94120000  0.71530000  1.0 0.1044019574
H  H177  1  0.56910000  0.18460000  0.22430000  1.0 0.1289450995
H  H178  1  0.78970000  0.90520000  0.72430000  1.0 0.1289450995
H  H179  1  0.61660000  0.28790000  0.29870000  1.0 0.1289450995
H  H180  1  0.76080000  0.93210000  0.79870000  1.0 0.1289450995
H  H181  1  0.71460000  0.48240000  0.94800000  1.0 0.1382085032
H  H182  1  0.21560000  0.48340000  0.44800000  1.0 0.1382085032
H  H183  1  0.84480000  0.45520000  0.11280000  1.0 0.1382085032
H  H184  1  0.40760000  0.51800000  0.61280000  1.0 0.1382085032
H  H185  1  0.67860000  0.41630000  0.96810000  1.0 0.109491297
H  H186  1  0.30180000  0.53950000  0.46810000  1.0 0.109491297
H  H187  1  0.74190000  0.40390000  0.05020000  1.0 0.109491297
H  H188  1  0.39630000  0.55830000  0.55020000  1.0 0.109491297
H  H189  1  0.94050000  0.38750000  0.29200000  1.0 0.1289450995
H  H190  1  0.65450000  0.60150000  0.79200000  1.0 0.1289450995
H  H191  1  0.97520000  0.86730000  0.18910000  1.0 0.1219010648
H  H192  1  0.07180000  0.46390000  0.68910000  1.0 0.1219010648
H  H193  1  0.14140000  0.75760000  0.44860000  1.0 0.1219010648
H  H194  1  0.44100000  0.55720000  0.94860000  1.0 0.1219010648
H  H195  1  0.12570000  0.63260000  0.98530000  1.0 0.1382085032
H  H196  1  0.10270000  0.10960000  0.48530000  1.0 0.1382085032
H  H197  1  0.08680000  0.45610000  0.00890000  1.0 0.1382085032
H  H198  1  0.30280000  0.17210000  0.50890000  1.0 0.1382085032
H  H199  1  0.13010000  0.41300000  0.06310000  1.0 0.109491297
H  H200  1  0.40010000  0.18300000  0.56310000  1.0 0.109491297
H  H201  1  0.91450000  0.42210000  0.21840000  1.0 0.1289450995
H  H202  1  0.54630000  0.55390000  0.71840000  1.0 0.1289450995
H  H203  1  0.15090000  0.82460000  0.14550000  1.0 0.1289450995
H  H204  1  0.07090000  0.24460000  0.64550000  1.0 0.1289450995
H  H205  1  0.79810000  0.82100000  0.08670000  1.0 0.1219010648
H  H206  1  0.01570000  0.53860000  0.58670000  1.0 0.1219010648
H  H207  1  0.89260000  0.89210000  0.16230000  1.0 0.1219010648
H  H208  1  0.02020000  0.51970000  0.66230000  1.0 0.1219010648
H  H209  1  0.17500000  0.83940000  0.44880000  1.0 0.1219010648
H  H210  1  0.35940000  0.52380000  0.94880000  1.0 0.1219010648
H  H211  1  0.06890000  0.66666667  0.34880000  1.0 0.1382085032
H  H212  1  0.43210000  0.52990000  0.84880000  1.0 0.1382085032
H  H213  1  0.77930000  0.71940000  0.02970000  1.0 0.1382085032
H  H214  1  0.06030000  0.50040000  0.52970000  1.0 0.1382085032
H  H215  1  0.07150000  0.47720000  0.18250000  1.0 0.1382085032
H  H216  1  0.45530000  0.36100000  0.68250000  1.0 0.1382085032
H  H217  1  0.14060000  0.83560000  0.35020000  1.0 0.1219010648
H  H218  1  0.26460000  0.45960000  0.85020000  1.0 0.1219010648
H  H219  1  0.76790000  0.54640000  0.81030000  1.0 0.1289450995
H  H220  1  0.01390000  0.29240000  0.31030000  1.0 0.1289450995
H  H221  1  0.11780000  0.42010000  0.14710000  1.0 0.109491297
H  H222  1  0.47700000  0.27930000  0.64710000  1.0 0.109491297
H  H223  1  0.85240000  0.47660000  0.72080000  1.0 0.109491297
H  H224  1  0.99420000  0.11840000  0.22080000  1.0 0.109491297
H  H225  1  0.19140000  0.81230000  0.08270000  1.0 0.109491297
H  H226  1  0.02040000  0.14130000  0.58270000  1.0 0.109491297
H  H227  1  0.18780000  0.71970000  0.01390000  1.0 0.109491297
H  H228  1  0.04420000  0.07610000  0.51390000  1.0 0.109491297
H  H229  1  0.93300000  0.49700000  0.81600000  1.0 0.1382085032
H  H230  1  0.06900000  0.13300000  0.31600000  1.0 0.1382085032
H  H231  1  0.77860000  0.51440000  0.72120000  1.0 0.109491297
H  H232  1  0.95680000  0.19260000  0.22120000  1.0 0.109491297
H  H233  1  0.01350000  0.34140000  0.82910000  1.0 0.1219010648
H  H234  1  0.23770000  0.06560000  0.32910000  1.0 0.1219010648
H  H235  1  0.07110000  0.30880000  0.78470000  1.0 0.1044019574
H  H236  1  0.22590000  0.96360000  0.28470000  1.0 0.1044019574
H  H237  1  0.96030000  0.34480000  0.77570000  1.0 0.1289450995
H  H238  1  0.18090000  0.06540000  0.27570000  1.0 0.1289450995
H  H239  1  0.98920000  0.31790000  0.70130000  1.0 0.1289450995
H  H240  1  0.13340000  0.96210000  0.20130000  1.0 0.1289450995
C  C1  1  0.41451000  0.30964000  0.13167000  1.0 0.5512191393
C  C2  1  0.57203000  0.96716000  0.63167000  1.0 0.5512191393
C  C3  1  0.50887000  0.99020000  0.76227000  1.0 -0.1579332694
C  C4  1  0.52207000  0.50340000  0.26227000  1.0 -0.1579332694
C  C5  1  0.48756000  0.06898000  0.85732000  1.0 -0.1579332694
C  C6  1  0.53834000  0.61976000  0.35732000  1.0 -0.1579332694
C  C7  1  0.52453000  0.31491000  0.86798000  1.0 0.1289450995
C  C8  1  0.30307000  0.59345000  0.36798000  1.0 0.1289450995
C  C9  1  0.47590000  0.96951000  0.78107000  1.0 -0.1012810421
C  C10  1  0.56156000  0.55517000  0.28107000  1.0 -0.1012810421
C  C11  1  0.80011000  0.35145000  0.92388000  1.0 0.1289450995
C  C12  1  0.32243000  0.37377000  0.42388000  1.0 0.1289450995
C  C13  1  0.51120000  0.25164000  0.99114000  1.0 0.5563551599
C  C14  1  0.48950000  0.72994000  0.49114000  1.0 0.5563551599
C  C15  1  0.48049000  0.25167000  0.02442000  1.0 -0.1282141277
C  C16  1  0.52275000  0.79393000  0.52442000  1.0 -0.1282141277
C  C17  1  0.53009000  0.05255000  0.79138000  1.0 0.1289450995
C  C18  1  0.48883000  0.51129000  0.29138000  1.0 0.1289450995
C  C19  1  0.46472000  0.00790000  0.82740000  1.0 -0.1093652892
C  C20  1  0.56950000  0.61268000  0.32740000  1.0 -0.1093652892
C  C21  1  0.73833000  0.30287000  0.05886000  1.0 0.1219010648
C  C22  1  0.50599000  0.57053000  0.55886000  1.0 0.1219010648
C  C23  1  0.42217000  0.21825000  0.05314000  1.0 -0.1380129418
C  C24  1  0.58489000  0.88097000  0.55314000  1.0 -0.1380129418
C  C25  1  0.51904000  0.09033000  0.83757000  1.0 0.1219010648
C  C26  1  0.49724000  0.56853000  0.33757000  1.0 0.1219010648
C  C27  1  0.55391000  0.17788000  0.65113000  1.0 0.1486639891
C  C28  1  0.22325000  0.34722000  0.15113000  1.0 0.1486639891
C  C29  1  0.52960000  0.18689000  0.59919000  1.0 -0.1695929802
C  C30  1  0.16230000  0.31959000  0.09919000  1.0 -0.1695929802
C  C31  1  0.76263000  0.35724000  0.87459000  1.0 0.109491297
C  C32  1  0.26735000  0.36196000  0.37459000  1.0 0.109491297
C  C33  1  0.46808000  0.37644000  0.87230000  1.0 -0.1093652892
C  C34  1  0.24586000  0.65422000  0.37230000  1.0 -0.1093652892
C  C35  1  0.86407000  0.38058000  0.96057000  1.0 -0.1528519912
C  C36  1  0.32999000  0.34650000  0.46057000  1.0 -0.1528519912
C  C37  1  0.68138000  0.29780000  0.04778000  1.0 0.1219010648
C  C38  1  0.49998000  0.61640000  0.54778000  1.0 0.1219010648
C  C39  1  0.54181000  0.11743000  0.63488000  1.0 0.1289450995
C  C40  1  0.26745000  0.34307000  0.13488000  1.0 0.1289450995
C  C41  1  0.54534000  0.33678000  0.83994000  1.0 0.1219010648
C  C42  1  0.25316000  0.54460000  0.33994000  1.0 0.1219010648
C  C43  1  0.79045000  0.33377000  0.12348000  1.0 -0.1528519912
C  C44  1  0.53971000  0.58303000  0.62348000  1.0 -0.1528519912
C  C45  1  0.78355000  0.35841000  0.17374000  1.0 -0.089336264
C  C46  1  0.56533000  0.64019000  0.67374000  1.0 -0.089336264
C  C47  1  0.44912000  0.20322000  0.01774000  1.0 -0.1282141277
C  C48  1  0.56452000  0.81862000  0.51774000  1.0 -0.1282141277
C  C49  1  0.77768000  0.14855000  0.86503000  1.0 0.109491297
C  C50  1  0.46648000  0.33735000  0.36503000  1.0 0.109491297
C  C51  1  0.78165000  0.39449000  0.85740000  1.0 -0.1579332694
C  C52  1  0.21291000  0.32575000  0.35740000  1.0 -0.1579332694
C  C53  1  0.48501000  0.08014000  0.52141000  1.0 -0.089336264
C  C54  1  0.19127000  0.28640000  0.02141000  1.0 -0.089336264
C  C55  1  0.49614000  0.13752000  0.53550000  1.0 -0.1093652892
C  C56  1  0.14798000  0.28936000  0.03550000  1.0 -0.1093652892
C  C57  1  0.43415000  0.27705000  0.08722000  1.0 -0.1093652892
C  C58  1  0.56017000  0.90307000  0.58722000  1.0 -0.1093652892
C  C59  1  0.48872000  0.39702000  0.84328000  1.0 -0.089336264
C  C60  1  0.19626000  0.60456000  0.34328000  1.0 -0.089336264
C  C61  1  0.48470000  0.33383000  0.88431000  1.0 -0.1579332694
C  C62  1  0.30048000  0.64961000  0.38431000  1.0 -0.1579332694
C  C63  1  0.50732000  0.06814000  0.57016000  1.0 -0.1695929802
C  C64  1  0.25202000  0.31284000  0.07016000  1.0 -0.1695929802
C  C65  1  0.72967000  0.10138000  0.80223000  1.0 0.1382085032
C  C66  1  0.45085000  0.32256000  0.30223000  1.0 0.1382085032
C  C67  1  0.67621000  0.32373000  0.10100000  1.0 -0.1380129418
C  C68  1  0.52727000  0.67479000  0.60100000  1.0 -0.1380129418
C  C69  1  0.52758000  0.37740000  0.82522000  1.0 -0.1695929802
C  C70  1  0.19782000  0.54764000  0.32522000  1.0 -0.1695929802
C  C71  1  0.73880000  0.05124000  0.76244000  1.0 -0.1695929802
C  C72  1  0.46120000  0.27364000  0.26244000  1.0 -0.1695929802
C  C73  1  0.72452000  0.35183000  0.16171000  1.0 -0.1012810421
C  C74  1  0.55988000  0.68719000  0.66171000  1.0 -0.1012810421
C  C75  1  0.84400000  0.10430000  0.85710000  1.0 -0.1168966664
C  C76  1  0.50280000  0.26310000  0.35710000  1.0 -0.1168966664
C  C77  1  0.84286000  0.42016000  0.89130000  1.0 -0.1012810421
C  C78  1  0.22114000  0.29844000  0.39130000  1.0 -0.1012810421
C  C79  1  0.88308000  0.41578000  0.94410000  1.0 -0.089336264
C  C80  1  0.27832000  0.31102000  0.44410000  1.0 -0.089336264
C  C81  1  0.83590000  0.15093000  0.89387000  1.0 -0.1528519912
C  C82  1  0.49294000  0.30797000  0.39387000  1.0 -0.1528519912
C  C83  1  0.79760000  0.05670000  0.78990000  1.0 -0.1012810421
C  C84  1  0.48320000  0.24230000  0.28990000  1.0 -0.1012810421
C  C85  1  0.88376000  0.27598000  0.06448000  1.0 0.5271239096
C  C86  1  0.53850000  0.43072000  0.56448000  1.0 0.5271239096
C  C87  1  0.94251000  0.28962000  0.11509000  1.0 -0.1012810421
C  C88  1  0.57547000  0.42258000  0.61509000  1.0 -0.1012810421
C  C89  1  0.11790000  0.36690000  0.23520000  1.0 0.4121262544
C  C90  1  0.61830000  0.36730000  0.73520000  1.0 0.4121262544
C  C91  1  0.96110000  0.28640000  0.17030000  1.0 -0.0617018967
C  C92  1  0.63390000  0.45920000  0.67030000  1.0 -0.0617018967
C  C93  1  0.02030000  0.31830000  0.22220000  1.0 -0.0617018967
C  C94  1  0.65390000  0.45190000  0.72220000  1.0 -0.0617018967
C  C95  1  0.05490000  0.34700000  0.20630000  1.0 -0.0283816493
C  C96  1  0.60930000  0.40140000  0.70630000  1.0 -0.0283816493
C  C97  1  0.96050000  0.24560000  0.12810000  1.0 -0.089336264
C  C98  1  0.63250000  0.41760000  0.62810000  1.0 -0.089336264
C  C99  1  0.02030000  0.26390000  0.16100000  1.0 -0.0665166936
C  C100  1  0.64710000  0.39070000  0.66100000  1.0 -0.0665166936
C  C101  1  0.05300000  0.31210000  0.17830000  1.0 0.0392396726
C  C102  1  0.61620000  0.37530000  0.67830000  1.0 0.0392396726
C  C103  1  0.17797000  0.28284000  0.86833000  1.0 0.5512191393
C  C104  1  0.33549000  0.94036000  0.36833000  1.0 0.5512191393
C  C105  1  0.22793000  0.74660000  0.23773000  1.0 -0.1579332694
C  C106  1  0.24113000  0.25980000  0.73773000  1.0 -0.1579332694
C  C107  1  0.21166000  0.63024000  0.14268000  1.0 -0.1579332694
C  C108  1  0.26244000  0.18102000  0.64268000  1.0 -0.1579332694
C  C109  1  0.44693000  0.65655000  0.13202000  1.0 0.1289450995
C  C110  1  0.22547000  0.93509000  0.63202000  1.0 0.1289450995
C  C111  1  0.18844000  0.69483000  0.21893000  1.0 -0.1012810421
C  C112  1  0.27410000  0.28049000  0.71893000  1.0 -0.1012810421
C  C113  1  0.42757000  0.87623000  0.07612000  1.0 0.1289450995
C  C114  1  0.94989000  0.89855000  0.57612000  1.0 0.1289450995
C  C115  1  0.26050000  0.52006000  0.00886000  1.0 0.5563551599
C  C116  1  0.23880000  0.99836000  0.50886000  1.0 0.5563551599
C  C117  1  0.22725000  0.45607000  0.97558000  1.0 -0.1282141277
C  C118  1  0.26951000  0.99833000  0.47558000  1.0 -0.1282141277
C  C119  1  0.26117000  0.73871000  0.20862000  1.0 0.1289450995
C  C120  1  0.21991000  0.19745000  0.70862000  1.0 0.1289450995
C  C121  1  0.18050000  0.63732000  0.17260000  1.0 -0.1093652892
C  C122  1  0.28528000  0.24210000  0.67260000  1.0 -0.1093652892
C  C123  1  0.24401000  0.67947000  0.94114000  1.0 0.1219010648
C  C124  1  0.01167000  0.94713000  0.44114000  1.0 0.1219010648
C  C125  1  0.16511000  0.36903000  0.94686000  1.0 -0.1380129418
C  C126  1  0.32783000  0.03175000  0.44686000  1.0 -0.1380129418
C  C127  1  0.25276000  0.68147000  0.16243000  1.0 0.1219010648
C  C128  1  0.23096000  0.15967000  0.66243000  1.0 0.1219010648
C  C129  1  0.52675000  0.90278000  0.34887000  1.0 0.1486639891
C  C130  1  0.19609000  0.07212000  0.84887000  1.0 0.1486639891
C  C131  1  0.58770000  0.93041000  0.40081000  1.0 -0.1695929802
C  C132  1  0.22040000  0.06311000  0.90081000  1.0 -0.1695929802
C  C133  1  0.48265000  0.88804000  0.12541000  1.0 0.109491297
C  C134  1  0.98737000  0.89276000  0.62541000  1.0 0.109491297
C  C135  1  0.50414000  0.59578000  0.12770000  1.0 -0.1093652892
C  C136  1  0.28192000  0.87356000  0.62770000  1.0 -0.1093652892
C  C137  1  0.42001000  0.90350000  0.03943000  1.0 -0.1528519912
C  C138  1  0.88593000  0.86942000  0.53943000  1.0 -0.1528519912
C  C139  1  0.25002000  0.63360000  0.95222000  1.0 0.1219010648
C  C140  1  0.06862000  0.95220000  0.45222000  1.0 0.1219010648
C  C141  1  0.48255000  0.90693000  0.36512000  1.0 0.1289450995
C  C142  1  0.20819000  0.13257000  0.86512000  1.0 0.1289450995
C  C143  1  0.49684000  0.70540000  0.16006000  1.0 0.1219010648
C  C144  1  0.20466000  0.91322000  0.66006000  1.0 0.1219010648
C  C145  1  0.21029000  0.66697000  0.87652000  1.0 -0.1528519912
C  C146  1  0.95955000  0.91623000  0.37652000  1.0 -0.1528519912
C  C147  1  0.18467000  0.60981000  0.82626000  1.0 -0.089336264
C  C148  1  0.96645000  0.89159000  0.32626000  1.0 -0.089336264
C  C149  1  0.18548000  0.43138000  0.98226000  1.0 -0.1282141277
C  C150  1  0.30088000  0.04678000  0.48226000  1.0 -0.1282141277
C  C151  1  0.28352000  0.91265000  0.13497000  1.0 0.109491297
C  C152  1  0.97232000  0.10145000  0.63497000  1.0 0.109491297
C  C153  1  0.53709000  0.92425000  0.14260000  1.0 -0.1579332694
C  C154  1  0.96835000  0.85551000  0.64260000  1.0 -0.1579332694
C  C155  1  0.55873000  0.96360000  0.47859000  1.0 -0.089336264
C  C156  1  0.26499000  0.16986000  0.97859000  1.0 -0.089336264
C  C157  1  0.60202000  0.96064000  0.46450000  1.0 -0.1093652892
C  C158  1  0.25386000  0.11248000  0.96450000  1.0 -0.1093652892
C  C159  1  0.18983000  0.34693000  0.91278000  1.0 -0.1093652892
C  C160  1  0.31585000  0.97295000  0.41278000  1.0 -0.1093652892
C  C161  1  0.55374000  0.64544000  0.15672000  1.0 -0.089336264
C  C162  1  0.26128000  0.85298000  0.65672000  1.0 -0.089336264
C  C163  1  0.44952000  0.60039000  0.11569000  1.0 -0.1579332694
C  C164  1  0.26530000  0.91617000  0.61569000  1.0 -0.1579332694
C  C165  1  0.49798000  0.93716000  0.42984000  1.0 -0.1695929802
C  C166  1  0.24268000  0.18186000  0.92984000  1.0 -0.1695929802
C  C167  1  0.29915000  0.92744000  0.19777000  1.0 0.1382085032
C  C168  1  0.02033000  0.14862000  0.69777000  1.0 0.1382085032
C  C169  1  0.22273000  0.57521000  0.89900000  1.0 -0.1380129418
C  C170  1  0.07379000  0.92627000  0.39900000  1.0 -0.1380129418
C  C171  1  0.55218000  0.70236000  0.17478000  1.0 -0.1695929802
C  C172  1  0.22242000  0.87260000  0.67478000  1.0 -0.1579332694
C  C173  1  0.28880000  0.97636000  0.23756000  1.0 -0.1695929802
C  C174  1  0.01120000  0.19876000  0.73756000  1.0 -0.1695929802
C  C175  1  0.19012000  0.56281000  0.83829000  1.0 -0.1012810421
C  C176  1  0.02548000  0.89817000  0.33829000  1.0 -0.1012810421
C  C177  1  0.24720000  0.98690000  0.14290000  1.0 -0.1168966664
C  C178  1  0.90600000  0.14570000  0.64290000  1.0 -0.1168966664
C  C179  1  0.52886000  0.95156000  0.10870000  1.0 -0.1012810421
C  C180  1  0.90714000  0.82984000  0.60870000  1.0 -0.1012810421
C  C181  1  0.47168000  0.93898000  0.05590000  1.0 -0.089336264
C  C182  1  0.86692000  0.83422000  0.55590000  1.0 -0.089336264
C  C183  1  0.25706000  0.94203000  0.10613000  1.0 -0.1528519912
C  C184  1  0.91410000  0.09907000  0.60613000  1.0 -0.1528519912
C  C185  1  0.26680000  0.00770000  0.21010000  1.0 -0.1012810421
C  C186  1  0.95240000  0.19330000  0.71010000  1.0 -0.1012810421
C  C187  1  0.21150000  0.81928000  0.93552000  1.0 0.5271239096
C  C188  1  0.86624000  0.97402000  0.43552000  1.0 0.5271239096
C  C189  1  0.17453000  0.82742000  0.88491000  1.0 -0.1012810421
C  C190  1  0.80749000  0.96038000  0.38491000  1.0 -0.1012810421
C  C191  1  0.13170000  0.88270000  0.76480000  1.0 0.4121262544
C  C192  1  0.63210000  0.88310000  0.26480000  1.0 0.4121262544
C  C193  1  0.11610000  0.79080000  0.82970000  1.0 -0.0617018967
C  C194  1  0.78890000  0.96360000  0.32970000  1.0 -0.0617018967
C  C195  1  0.09610000  0.79810000  0.77780000  1.0 -0.0617018967
C  C196  1  0.72970000  0.93170000  0.27780000  1.0 -0.0617018967
C  C197  1  0.14070000  0.84860000  0.79370000  1.0 -0.0283816493
C  C198  1  0.69510000  0.90300000  0.29370000  1.0 -0.0283816493
C  C199  1  0.11750000  0.83240000  0.87190000  1.0 -0.089336264
C  C200  1  0.78950000  0.00440000  0.37190000  1.0 -0.089336264
C  C201  1  0.10290000  0.85930000  0.83900000  1.0 -0.0665166936
C  C202  1  0.72970000  0.98610000  0.33900000  1.0 -0.0665166936
C  C203  1  0.13380000  0.87470000  0.82170000  1.0 0.0392396726
C  C204  1  0.69700000  0.93790000  0.32170000  1.0 0.0392396726
C  C205  1  0.03284000  0.66451000  0.60487000  1.0 0.5512191393
C  C206  1  0.69036000  0.82203000  0.10487000  1.0 0.5512191393
C  C207  1  0.49660000  0.75887000  0.01867000  1.0 -0.1579332694
C  C208  1  0.00980000  0.77207000  0.51867000  1.0 -0.1579332694
C  C209  1  0.38024000  0.73756000  0.91858000  1.0 -0.1579332694
C  C210  1  0.93102000  0.78834000  0.41858000  1.0 -0.1579332694
C  C211  1  0.40655000  0.77453000  0.70962000  1.0 0.1289450995
C  C212  1  0.68509000  0.55307000  0.20962000  1.0 0.1289450995
C  C213  1  0.44483000  0.72590000  0.00639000  1.0 -0.1012810421
C  C214  1  0.03049000  0.81156000  0.50639000  1.0 -0.1012810421
C  C215  1  0.62623000  0.05011000  0.94866000  1.0 0.1289450995
C  C216  1  0.64855000  0.57243000  0.44866000  1.0 0.1289450995
C  C217  1  0.27006000  0.76120000  0.75956000  1.0 0.5563551599
C  C218  1  0.74836000  0.73950000  0.25956000  1.0 0.5563551599
C  C219  1  0.20607000  0.73049000  0.72882000  1.0 -0.1282141277
C  C220  1  0.74833000  0.77275000  0.22882000  1.0 -0.1282141277
C  C221  1  0.48871000  0.78009000  0.97754000  1.0 0.1289450995
C  C222  1  0.94745000  0.73883000  0.47754000  1.0 0.1289450995
C  C223  1  0.38732000  0.71472000  0.95682000  1.0 -0.1093652892
C  C224  1  0.99210000  0.81950000  0.45682000  1.0 -0.1093652892
C  C225  1  0.42947000  0.98833000  0.93546000  1.0 0.1219010648
C  C226  1  0.69713000  0.75599000  0.43546000  1.0 0.1219010648
C  C227  1  0.11903000  0.67217000  0.70392000  1.0 -0.1380129418
C  C228  1  0.78175000  0.83489000  0.20392000  1.0 -0.1380129418
C  C229  1  0.43147000  0.76904000  0.92871000  1.0 0.1219010648
C  C230  1  0.90967000  0.74724000  0.42871000  1.0 0.1219010648
C  C231  1  0.65278000  0.80391000  0.87603000  1.0 0.1486639891
C  C232  1  0.82212000  0.47325000  0.37603000  1.0 0.1486639891
C  C233  1  0.68041000  0.77960000  0.84271000  1.0 -0.1695929802
C  C234  1  0.81311000  0.41230000  0.34271000  1.0 -0.1695929802
C  C235  1  0.63804000  0.01263000  0.90539000  1.0 0.109491297
C  C236  1  0.64276000  0.51735000  0.40539000  1.0 0.109491297
C  C237  1  0.34578000  0.71808000  0.59164000  1.0 -0.1093652892
C  C238  1  0.62356000  0.49586000  0.09164000  1.0 -0.1093652892
C  C239  1  0.65350000  0.11407000  0.98349000  1.0 -0.1528519912
C  C240  1  0.61942000  0.57999000  0.48349000  1.0 -0.1528519912
C  C241  1  0.38360000  0.93138000  0.88358000  1.0 0.1219010648
C  C242  1  0.70220000  0.74998000  0.38358000  1.0 0.1219010648
C  C243  1  0.65693000  0.79181000  0.92438000  1.0 0.1289450995
C  C244  1  0.88257000  0.51745000  0.42438000  1.0 0.1289450995
C  C245  1  0.45540000  0.79534000  0.70856000  1.0 0.1219010648
C  C246  1  0.66322000  0.50316000  0.20856000  1.0 0.1219010648
C  C247  1  0.41697000  0.04045000  0.95668000  1.0 -0.1528519912
C  C248  1  0.66623000  0.78971000  0.45668000  1.0 -0.1528519912
C  C249  1  0.35981000  0.03355000  0.92514000  1.0 -0.089336264
C  C250  1  0.64159000  0.81533000  0.42514000  1.0 -0.089336264
C  C251  1  0.18138000  0.69912000  0.74590000  1.0 -0.1282141277
C  C252  1  0.79678000  0.81452000  0.24590000  1.0 -0.1282141277
C  C253  1  0.66265000  0.02768000  0.12913000  1.0 0.109491297
C  C254  1  0.85145000  0.71648000  0.62913000  1.0 0.109491297
C  C255  1  0.67425000  0.03165000  0.88716000  1.0 -0.1579332694
C  C256  1  0.60551000  0.46291000  0.38716000  1.0 -0.1579332694
C  C257  1  0.71360000  0.73501000  0.90487000  1.0 -0.089336264
C  C258  1  0.91986000  0.44127000  0.40487000  1.0 -0.089336264
C  C259  1  0.71064000  0.74614000  0.85862000  1.0 -0.1093652892
C  C260  1  0.86248000  0.39798000  0.35862000  1.0 -0.1093652892
C  C261  1  0.09693000  0.68415000  0.65710000  1.0 -0.1093652892
C  C262  1  0.72295000  0.81017000  0.15710000  1.0 -0.1093652892
C  C263  1  0.39544000  0.73872000  0.59170000  1.0 -0.089336264
C  C264  1  0.60298000  0.44626000  0.09170000  1.0 -0.089336264
C  C265  1  0.35039000  0.73470000  0.65087000  1.0 -0.1579332694
C  C266  1  0.66617000  0.55048000  0.15087000  1.0 -0.1579332694
C  C267  1  0.68716000  0.75732000  0.93918000  1.0 -0.1695929802
C  C268  1  0.93186000  0.50202000  0.43918000  1.0 -0.1695929802
C  C269  1  0.67744000  0.97967000  0.12829000  1.0 0.1382085032
C  C270  1  0.89862000  0.70085000  0.62829000  1.0 0.1382085032
C  C271  1  0.32521000  0.92621000  0.85248000  1.0 -0.1380129418
C  C272  1  0.67627000  0.77727000  0.35248000  1.0 -0.1380129418
C  C273  1  0.45236000  0.77758000  0.65018000  1.0 -0.1579332694
C  C274  1  0.62260000  0.44782000  0.15018000  1.0 -0.1579332694
C  C275  1  0.72636000  0.98880000  0.18756000  1.0 -0.1695929802
C  C276  1  0.94876000  0.71120000  0.68756000  1.0 -0.1695929802
C  C277  1  0.31281000  0.97452000  0.87269000  1.0 -0.1012810421
C  C278  1  0.64817000  0.80988000  0.37269000  1.0 -0.1012810421
C  C279  1  0.73690000  0.09400000  0.23970000  1.0 -0.1168966664
C  C280  1  0.89570000  0.75280000  0.73970000  1.0 -0.1168966664
C  C281  1  0.70156000  0.09286000  0.92270000  1.0 -0.1012810421
C  C282  1  0.57984000  0.47114000  0.42270000  1.0 -0.1012810421
C  C283  1  0.68898000  0.13308000  0.96730000  1.0 -0.089336264
C  C284  1  0.58422000  0.52832000  0.46730000  1.0 -0.089336264
C  C285  1  0.69203000  0.08590000  0.18497000  1.0 -0.1528519912
C  C286  1  0.84907000  0.74294000  0.68497000  1.0 -0.1528519912
C  C287  1  0.75770000  0.04760000  0.24090000  1.0 -0.1012810421
C  C288  1  0.94330000  0.73320000  0.74090000  1.0 -0.1012810421
C  C289  1  0.56928000  0.13376000  0.10778000  1.0 0.5271239096
C  C290  1  0.72402000  0.78850000  0.60778000  1.0 0.5271239096
C  C291  1  0.57742000  0.19251000  0.15289000  1.0 -0.1012810421
C  C292  1  0.71038000  0.82547000  0.65289000  1.0 -0.1012810421
C  C293  1  0.63270000  0.36790000  0.25100000  1.0 0.4121262544
C  C294  1  0.63310000  0.86830000  0.75100000  1.0 0.4121262544
C  C295  1  0.54080000  0.21110000  0.17470000  1.0 -0.0617018967
C  C296  1  0.71360000  0.88390000  0.67470000  1.0 -0.0617018967
C  C297  1  0.54810000  0.27030000  0.20200000  1.0 -0.0617018967
C  C298  1  0.68170000  0.90390000  0.70200000  1.0 -0.0617018967
C  C299  1  0.59860000  0.30490000  0.20790000  1.0 -0.0283816493
C  C300  1  0.65300000  0.85930000  0.70790000  1.0 -0.0283816493
C  C301  1  0.58240000  0.21050000  0.21490000  1.0 -0.089336264
C  C302  1  0.75440000  0.88250000  0.71490000  1.0 -0.089336264
C  C303  1  0.60930000  0.27030000  0.25640000  1.0 -0.0665166936
C  C304  1  0.73610000  0.89710000  0.75640000  1.0 -0.0665166936
C  C305  1  0.62470000  0.30300000  0.24090000  1.0 0.0392396726
C  C306  1  0.68790000  0.86620000  0.74090000  1.0 0.0392396726
C  C307  1  0.05964000  0.42797000  0.39513000  1.0 0.5512191393
C  C308  1  0.71716000  0.58549000  0.89513000  1.0 0.5512191393
C  C309  1  0.74020000  0.47793000  0.98133000  1.0 -0.1579332694
C  C310  1  0.25340000  0.49113000  0.48133000  1.0 -0.1579332694
C  C311  1  0.81898000  0.46166000  0.08142000  1.0 -0.1579332694
C  C312  1  0.36976000  0.51244000  0.58142000  1.0 -0.1579332694
C  C313  1  0.06491000  0.69693000  0.29038000  1.0 0.1289450995
C  C314  1  0.34345000  0.47547000  0.79038000  1.0 0.1289450995
C  C315  1  0.71951000  0.43844000  0.99361000  1.0 -0.1012810421
C  C316  1  0.30517000  0.52410000  0.49361000  1.0 -0.1012810421
C  C317  1  0.10145000  0.67757000  0.05134000  1.0 0.1289450995
C  C318  1  0.12377000  0.19989000  0.55134000  1.0 0.1289450995
C  C319  1  0.00164000  0.51050000  0.24044000  1.0 0.5563551599
C  C320  1  0.47994000  0.48880000  0.74044000  1.0 0.5563551599
C  C321  1  0.00167000  0.47725000  0.27118000  1.0 -0.1282141277
C  C322  1  0.54393000  0.51951000  0.77118000  1.0 -0.1282141277
C  C323  1  0.80255000  0.51117000  0.02246000  1.0 0.1289450995
C  C324  1  0.26129000  0.46991000  0.52246000  1.0 0.1289450995
C  C325  1  0.75790000  0.43050000  0.04318000  1.0 -0.1093652892
C  C326  1  0.36268000  0.53528000  0.54318000  1.0 -0.1093652892
C  C327  1  0.05287000  0.49401000  0.06454000  1.0 0.1219010648
C  C328  1  0.32053000  0.26167000  0.56454000  1.0 0.1219010648
C  C329  1  0.96825000  0.41511000  0.29608000  1.0 -0.1380129418
C  C330  1  0.63097000  0.57783000  0.79608000  1.0 -0.1380129418
C  C331  1  0.84033000  0.50276000  0.07129000  1.0 0.1219010648
C  C332  1  0.31853000  0.48096000  0.57129000  1.0 0.1219010648
C  C333  1  0.92788000  0.77675000  0.12397000  1.0 0.1486639891
C  C334  1  0.09722000  0.44609000  0.62397000  1.0 0.1486639891
C  C335  1  0.93689000  0.83770000  0.15729000  1.0 -0.1695929802
C  C336  1  0.06959000  0.47040000  0.65729000  1.0 -0.1695929802
C  C337  1  0.10724000  0.73265000  0.09461000  1.0 0.109491297
C  C338  1  0.11196000  0.23737000  0.59461000  1.0 0.109491297
C  C339  1  0.12644000  0.75414000  0.40836000  1.0 -0.1093652892
C  C340  1  0.40422000  0.53192000  0.90836000  1.0 -0.1093652892
C  C341  1  0.13058000  0.67001000  0.01651000  1.0 -0.1528519912
C  C342  1  0.09650000  0.13593000  0.51651000  1.0 -0.1528519912
C  C343  1  0.04780000  0.50002000  0.11642000  1.0 0.1219010648
C  C344  1  0.36640000  0.31862000  0.61642000  1.0 0.1219010648
C  C345  1  0.86743000  0.73255000  0.07562000  1.0 0.1289450995
C  C346  1  0.09307000  0.45819000  0.57562000  1.0 0.1289450995
C  C347  1  0.08678000  0.74684000  0.29144000  1.0 0.1219010648
C  C348  1  0.29460000  0.45466000  0.79144000  1.0 0.1219010648
C  C349  1  0.08377000  0.46029000  0.04332000  1.0 -0.1528519912
C  C350  1  0.33303000  0.20955000  0.54332000  1.0 -0.1528519912
C  C351  1  0.10841000  0.43467000  0.07486000  1.0 -0.089336264
C  C352  1  0.39019000  0.21645000  0.57486000  1.0 -0.089336264
C  C353  1  0.95322000  0.43548000  0.25410000  1.0 -0.1282141277
C  C354  1  0.56862000  0.55088000  0.75410000  1.0 -0.1282141277
C  C355  1  0.89855000  0.53352000  0.87087000  1.0 0.109491297
C  C356  1  0.08735000  0.22232000  0.37087000  1.0 0.109491297
C  C357  1  0.14449000  0.78709000  0.11284000  1.0 -0.1579332694
C  C358  1  0.07575000  0.21835000  0.61284000  1.0 -0.1579332694
C  C359  1  0.83014000  0.80873000  0.09513000  1.0 -0.089336264
C  C360  1  0.03640000  0.51499000  0.59513000  1.0 -0.089336264
C  C361  1  0.88752000  0.85202000  0.14138000  1.0 -0.1093652892
C  C362  1  0.03936000  0.50386000  0.64138000  1.0 -0.1093652892
C  C363  1  0.02705000  0.43983000  0.34290000  1.0 -0.1093652892
C  C364  1  0.65307000  0.56585000  0.84290000  1.0 -0.1093652892
C  C365  1  0.14702000  0.80374000  0.40830000  1.0 -0.089336264
C  C366  1  0.35456000  0.51128000  0.90830000  1.0 -0.089336264
C  C367  1  0.08383000  0.69952000  0.34913000  1.0 -0.1579332694
C  C368  1  0.39961000  0.51530000  0.84913000  1.0 -0.1579332694
C  C369  1  0.81814000  0.74798000  0.06082000  1.0 -0.1695929802
C  C370  1  0.06284000  0.49268000  0.56082000  1.0 -0.1695929802
C  C371  1  0.85138000  0.54915000  0.87171000  1.0 0.1382085032
C  C372  1  0.07256000  0.27033000  0.37171000  1.0 0.1382085032
C  C373  1  0.07373000  0.47273000  0.14752000  1.0 -0.1380129418
C  C374  1  0.42479000  0.32379000  0.64752000  1.0 -0.1380129418
C  C375  1  0.12740000  0.80218000  0.34982000  1.0 -0.1695929802
C  C376  1  0.29764000  0.47242000  0.84982000  1.0 -0.1695929802
C  C377  1  0.80124000  0.53880000  0.81244000  1.0 -0.1695929802
C  C378  1  0.02364000  0.26120000  0.31244000  1.0 -0.1695929802
C  C379  1  0.10183000  0.44012000  0.12731000  1.0 -0.1012810421
C  C380  1  0.43719000  0.27548000  0.62731000  1.0 -0.1012810421
C  C381  1  0.85430000  0.49720000  0.76030000  1.0 -0.1168966664
C  C382  1  0.01310000  0.15600000  0.26030000  1.0 -0.1168966664
C  C383  1  0.17016000  0.77886000  0.07730000  1.0 -0.1012810421
C  C384  1  0.04844000  0.15714000  0.57730000  1.0 -0.1012810421
C  C385  1  0.16578000  0.72168000  0.03270000  1.0 -0.089336264
C  C386  1  0.06102000  0.11692000  0.53270000  1.0 -0.089336264
C  C387  1  0.90093000  0.50706000  0.81503000  1.0 -0.1528519912
C  C388  1  0.05797000  0.16410000  0.31503000  1.0 -0.1528519912
C  C389  1  0.80670000  0.51680000  0.75910000  1.0 -0.1012810421
C  C390  1  0.99230000  0.20240000  0.25910000  1.0 -0.1012810421
C  C391  1  0.02598000  0.46150000  0.89222000  1.0 0.5271239096
C  C392  1  0.18072000  0.11624000  0.39222000  1.0 0.5271239096
C  C393  1  0.03962000  0.42453000  0.84711000  1.0 -0.1012810421
C  C394  1  0.17258000  0.05749000  0.34711000  1.0 -0.1012810421
C  C395  1  0.11690000  0.38170000  0.74900000  1.0 0.4121262544
C  C396  1  0.11730000  0.88210000  0.24900000  1.0 0.4121262544
C  C397  1  0.03640000  0.36610000  0.82530000  1.0 -0.0617018967
C  C398  1  0.20920000  0.03890000  0.32530000  1.0 -0.0617018967
C  C399  1  0.06830000  0.34610000  0.79800000  1.0 -0.0617018967
C  C400  1  0.20190000  0.97970000  0.29800000  1.0 -0.0617018967
C  C401  1  0.09700000  0.39070000  0.79210000  1.0 -0.0283816493
C  C402  1  0.15140000  0.94510000  0.29210000  1.0 -0.0283816493
C  C403  1  0.99560000  0.36750000  0.78510000  1.0 -0.089336264
C  C404  1  0.16760000  0.03950000  0.28510000  1.0 -0.089336264
C  C405  1  0.01390000  0.35290000  0.74360000  1.0 -0.0665166936
C  C406  1  0.14070000  0.97970000  0.24360000  1.0 -0.0665166936
C  C407  1  0.06210000  0.38380000  0.75910000  1.0 0.0392396726
C  C408  1  0.12530000  0.94700000  0.25910000  1.0 0.0392396726
S  S1  1  0.47790000  0.31593000  0.07531000  1.0 0.1553596073
S  S2  1  0.50938000  0.84741000  0.57531000  1.0 0.1553596073
S  S3  1  0.00423000  0.34247000  0.13806000  1.0 0.0635579032
S  S4  1  0.54559000  0.38383000  0.63806000  1.0 0.0635579032
S  S5  1  0.24062000  0.40259000  0.92469000  1.0 0.1486639891
S  S6  1  0.27210000  0.93407000  0.42469000  1.0 0.1486639891
S  S7  1  0.20441000  0.86617000  0.86194000  1.0 0.0635579032
S  S8  1  0.74577000  0.90753000  0.36194000  1.0 0.0635579032
S  S9  1  0.15259000  0.72790000  0.66197000  1.0 0.1486639891
S  S10  1  0.68407000  0.75938000  0.16197000  1.0 0.1486639891
S  S11  1  0.61617000  0.25423000  0.16176000  1.0 0.0635579032
S  S12  1  0.65753000  0.79559000  0.66176000  1.0 0.0654350185
S  S13  1  0.06593000  0.49062000  0.33803000  1.0 0.1553596073
S  S14  1  0.59741000  0.52210000  0.83803000  1.0 0.1553596073
S  S15  1  0.09247000  0.45441000  0.83824000  1.0 0.0635579032
S  S16  1  0.13383000  0.99577000  0.33824000  1.0 0.0635579032
N  N1  1  0.56378000  0.08643000  0.78409000  1.0 -0.2007188423
N  N2  1  0.44766000  0.47031000  0.28409000  1.0 -0.2007188423
N  N3  1  0.68020000  0.11287000  0.79175000  1.0 -0.2007188423
N  N4  1  0.42888000  0.36155000  0.29175000  1.0 -0.2007188423
N  N5  1  0.56934000  0.12448000  0.69488000  1.0 -0.1906851063
N  N6  1  0.32040000  0.37554000  0.19488000  1.0 -0.1906851063
N  N7  1  0.58139000  0.30817000  0.82794000  1.0 -0.2322659491
N  N8  1  0.26977000  0.49655000  0.32794000  1.0 -0.2322659491
N  N9  1  0.70462000  0.32138000  0.84778000  1.0 -0.2185033555
N  N10  1  0.27640000  0.39316000  0.34778000  1.0 -0.2185033555
N  N11  1  0.58688000  0.21494000  0.71702000  1.0 -0.2185033555
N  N12  1  0.25208000  0.38014000  0.21702000  1.0 -0.2185033555
N  N13  1  0.58388000  0.27226000  0.85006000  1.0 -0.0182561998
N  N14  1  0.32780000  0.51618000  0.35006000  1.0 -0.0182561998
N  N15  1  0.71096000  0.29413000  0.88007000  1.0 -0.0283816493
N  N16  1  0.33594000  0.41911000  0.38007000  1.0 -0.0283816493
N  N17  1  0.69569000  0.16604000  0.84407000  1.0 -0.0283816493
N  N18  1  0.42803000  0.39838000  0.34407000  1.0 -0.0283816493
N  N19  1  0.67288000  0.25511000  0.95255000  1.0 -0.0182561998
N  N20  1  0.44744000  0.52967000  0.45255000  1.0 -0.0182561998
N  N21  1  0.59573000  0.18130000  0.74145000  1.0 -0.0085476665
N  N22  1  0.31015000  0.39572000  0.24145000  1.0 -0.0085476665
N  N23  1  0.57236000  0.14226000  0.82262000  1.0 -0.0182561998
N  N24  1  0.43036000  0.50026000  0.32262000  1.0 -0.0182561998
N  N25  1  0.76862000  0.31112000  0.92562000  1.0 -0.2185033555
N  N26  1  0.36450000  0.40700000  0.42562000  1.0 -0.2185033555
N  N27  1  0.73120000  0.27494000  0.99812000  1.0 -0.2359501522
N  N28  1  0.47318000  0.51692000  0.49812000  1.0 -0.2359501522
N  N29  1  0.75418000  0.18924000  0.88980000  1.0 -0.2185033555
N  N30  1  0.45056000  0.38562000  0.38980000  1.0 -0.2185033555
N  N31  1  0.54981000  0.27623000  0.87444000  1.0 -0.2185033555
N  N32  1  0.34821000  0.57463000  0.37444000  1.0 -0.2185033555
N  N33  1  0.64237000  0.26643000  0.98046000  1.0 -0.2007188423
N  N34  1  0.46403000  0.58809000  0.48046000  1.0 -0.2007188423
N  N35  1  0.54609000  0.14809000  0.85614000  1.0 -0.2322659491
N  N36  1  0.45805000  0.56005000  0.35614000  1.0 -0.2322659491
N  N37  1  0.30234000  0.77969000  0.21591000  1.0 -0.2007188423
N  N38  1  0.18622000  0.16357000  0.71591000  1.0 -0.2007188423
N  N39  1  0.32112000  0.88845000  0.20825000  1.0 -0.2007188423
N  N40  1  0.06980000  0.13713000  0.70825000  1.0 -0.2007188423
N  N41  1  0.42960000  0.87446000  0.30512000  1.0 -0.1906851063
N  N42  1  0.18066000  0.12552000  0.80512000  1.0 -0.1906851063
N  N43  1  0.48023000  0.75345000  0.17206000  1.0 -0.2322659491
N  N44  1  0.16861000  0.94183000  0.67206000  1.0 -0.2322659491
N  N45  1  0.47360000  0.85684000  0.15222000  1.0 -0.2185033555
N  N46  1  0.04538000  0.92862000  0.65222000  1.0 -0.2185033555
N  N47  1  0.49792000  0.86986000  0.28298000  1.0 -0.2185033555
N  N48  1  0.16312000  0.03506000  0.78298000  1.0 -0.2185033555
N  N49  1  0.42220000  0.73382000  0.14994000  1.0 -0.0182561998
N  N50  1  0.16612000  0.97774000  0.64994000  1.0 -0.0182561998
N  N51  1  0.41406000  0.83089000  0.11993000  1.0 -0.0283816493
N  N52  1  0.03904000  0.95587000  0.61993000  1.0 -0.0283816493
N  N53  1  0.32197000  0.85162000  0.15593000  1.0 -0.0283816493
N  N54  1  0.05431000  0.08396000  0.65593000  1.0 -0.0283816493
N  N55  1  0.30256000  0.72033000  0.04745000  1.0 -0.0182561998
N  N56  1  0.07712000  0.99489000  0.54745000  1.0 -0.0182561998
N  N57  1  0.43985000  0.85428000  0.25855000  1.0 -0.0085476665
N  N58  1  0.15427000  0.06870000  0.75855000  1.0 -0.0085476665
N  N59  1  0.31964000  0.74974000  0.17738000  1.0 -0.0182561998
N  N60  1  0.17764000  0.10774000  0.67738000  1.0 -0.0182561998
N  N61  1  0.38550000  0.84300000  0.07438000  1.0 -0.2185033555
N  N62  1  0.98138000  0.93888000  0.57438000  1.0 -0.2185033555
N  N63  1  0.27682000  0.73308000  0.00188000  1.0 -0.2359501522
N  N64  1  0.01880000  0.97506000  0.50188000  1.0 -0.2359501522
N  N65  1  0.29944000  0.86438000  0.11020000  1.0 -0.2185033555
N  N66  1  0.99582000  0.06076000  0.61020000  1.0 -0.2185033555
N  N67  1  0.40179000  0.67537000  0.12556000  1.0 -0.2185033555
N  N68  1  0.20019000  0.97377000  0.62556000  1.0 -0.2185033555
N  N69  1  0.28597000  0.66191000  0.01954000  1.0 -0.2007188423
N  N70  1  0.10763000  0.98357000  0.51954000  1.0 -0.2007188423
N  N71  1  0.29195000  0.68995000  0.14386000  1.0 -0.2322659491
N  N72  1  0.20391000  0.10191000  0.64386000  1.0 -0.2322659491
N  N73  1  0.52969000  0.81378000  0.97735000  1.0 -0.2007188423
N  N74  1  0.91357000  0.69766000  0.47735000  1.0 -0.2007188423
N  N75  1  0.63845000  0.93020000  0.06733000  1.0 -0.2007188423
N  N76  1  0.88713000  0.67888000  0.56733000  1.0 -0.2007188423
N  N77  1  0.62446000  0.81934000  0.94486000  1.0 -0.1906851063
N  N78  1  0.87552000  0.57040000  0.44486000  1.0 -0.1906851063
N  N79  1  0.50345000  0.83139000  0.77322000  1.0 -0.2322659491
N  N80  1  0.69183000  0.51977000  0.27322000  1.0 -0.2322659491
N  N81  1  0.60684000  0.95462000  0.88324000  1.0 -0.2185033555
N  N82  1  0.67862000  0.52640000  0.38324000  1.0 -0.2185033555
N  N83  1  0.61986000  0.83688000  0.87194000  1.0 -0.2185033555
N  N84  1  0.78506000  0.50208000  0.37194000  1.0 -0.2185033555
N  N85  1  0.48382000  0.83388000  0.81162000  1.0 -0.0182561998
N  N86  1  0.72774000  0.57780000  0.31162000  1.0 -0.0182561998
N  N87  1  0.58089000  0.96096000  0.91683000  1.0 -0.0283816493
N  N88  1  0.70587000  0.58594000  0.41683000  1.0 -0.0283816493
N  N89  1  0.60162000  0.94569000  0.02965000  1.0 -0.0283816493
N  N90  1  0.83396000  0.67803000  0.52965000  1.0 -0.0283816493
N  N91  1  0.47033000  0.92288000  0.91777000  1.0 -0.0182561998
N  N92  1  0.74489000  0.69744000  0.41777000  1.0 -0.0182561998
N  N93  1  0.60428000  0.84573000  0.91443000  1.0 -0.0085476665
N  N94  1  0.81870000  0.56015000  0.41443000  1.0 -0.0085476665
N  N95  1  0.49974000  0.82236000  0.93010000  1.0 -0.0182561998
N  N96  1  0.85774000  0.68036000  0.43010000  1.0 -0.0182561998
N  N97  1  0.59300000  0.01862000  0.95750000  1.0 -0.2185033555
N  N98  1  0.68888000  0.61450000  0.45750000  1.0 -0.2185033555
N  N99  1  0.48308000  0.98120000  0.95626000  1.0 -0.2359501522
N  N100  1  0.72506000  0.72318000  0.45626000  1.0 -0.2359501522
N  N101  1  0.61438000  0.00418000  0.06494000  1.0 -0.2185033555
N  N102  1  0.81076000  0.70056000  0.56494000  1.0 -0.2185033555
N  N103  1  0.42537000  0.79981000  0.77358000  1.0 -0.2185033555
N  N104  1  0.72377000  0.59821000  0.27358000  1.0 -0.2185033555
N  N105  1  0.41191000  0.89237000  0.87594000  1.0 -0.2007188423
N  N106  1  0.73357000  0.71403000  0.37594000  1.0 -0.2007188423
N  N107  1  0.43995000  0.79609000  0.89800000  1.0 -0.2322659491
N  N108  1  0.85191000  0.70805000  0.39800000  1.0 -0.2322659491
N  N109  1  0.83643000  0.55234000  0.02265000  1.0 -0.2007188423
N  N110  1  0.22031000  0.43622000  0.52265000  1.0 -0.2007188423
N  N111  1  0.86287000  0.57112000  0.93267000  1.0 -0.2007188423
N  N112  1  0.11155000  0.31980000  0.43267000  1.0 -0.2007188423
N  N113  1  0.87448000  0.67960000  0.05514000  1.0 -0.1906851063
N  N114  1  0.12554000  0.43066000  0.55514000  1.0 -0.1906851063
N  N115  1  0.05817000  0.73023000  0.22678000  1.0 -0.2322659491
N  N116  1  0.24655000  0.41861000  0.72678000  1.0 -0.2322659491
N  N117  1  0.07138000  0.72360000  0.11676000  1.0 -0.2185033555
N  N118  1  0.14316000  0.29538000  0.61676000  1.0 -0.2185033555
N  N119  1  0.96494000  0.74792000  0.12806000  1.0 -0.2185033555
N  N120  1  0.13014000  0.41312000  0.62806000  1.0 -0.2185033555
N  N121  1  0.02226000  0.67220000  0.18838000  1.0 -0.0182561998
N  N122  1  0.26618000  0.41612000  0.68838000  1.0 -0.0182561998
N  N123  1  0.04413000  0.66406000  0.08317000  1.0 -0.0283816493
N  N124  1  0.16911000  0.28904000  0.58317000  1.0 -0.0283816493
N  N125  1  0.91604000  0.57197000  0.97035000  1.0 -0.0283816493
N  N126  1  0.14838000  0.30431000  0.47035000  1.0 -0.0283816493
N  N127  1  0.00511000  0.55256000  0.08223000  1.0 -0.0182561998
N  N128  1  0.27967000  0.32712000  0.58223000  1.0 -0.0182561998
N  N129  1  0.93130000  0.68985000  0.08557000  1.0 -0.0085476665
N  N130  1  0.14572000  0.40427000  0.58557000  1.0 -0.0085476665
N  N131  1  0.89226000  0.56964000  0.06990000  1.0 -0.0182561998
N  N132  1  0.25026000  0.42764000  0.56990000  1.0 -0.0182561998
N  N133  1  0.06112000  0.63550000  0.04250000  1.0 -0.2185033555
N  N134  1  0.15700000  0.23138000  0.54250000  1.0 -0.2185033555
N  N135  1  0.02494000  0.52682000  0.04374000  1.0 -0.2359501522
N  N136  1  0.26692000  0.26880000  0.54374000  1.0 -0.2359501522
N  N137  1  0.93924000  0.54944000  0.93506000  1.0 -0.2185033555
N  N138  1  0.13562000  0.24582000  0.43506000  1.0 -0.2185033555
N  N139  1  0.02623000  0.65179000  0.22642000  1.0 -0.2185033555
N  N140  1  0.32463000  0.45019000  0.72642000  1.0 -0.2185033555
N  N141  1  0.01643000  0.53597000  0.12406000  1.0 -0.2007188423
N  N142  1  0.33809000  0.35763000  0.62406000  1.0 -0.2007188423
N  N143  1  0.89809000  0.54195000  0.10200000  1.0 -0.2322659491
N  N144  1  0.31005000  0.45391000  0.60200000  1.0 -0.2322659491
O  O1  1  0.15111000  0.39092000  0.29939000  1.0 -0.2962656376
O  O2  1  0.65847000  0.39828000  0.79939000  1.0 -0.2962656376
O  O3  1  0.38260000  0.28194000  0.13858000  1.0 -0.4973458535
O  O4  1  0.60664000  0.00598000  0.63858000  1.0 -0.4973458535
O  O5  1  0.43691000  0.36732000  0.16621000  1.0 -0.5141502903
O  O6  1  0.54889000  0.97930000  0.66621000  1.0 -0.5141502903
O  O7  1  0.52969000  0.29636000  0.99251000  1.0 -0.5464520341
O  O8  1  0.44615000  0.71282000  0.49251000  1.0 -0.5464520341
O  O9  1  0.51647000  0.20275000  0.95978000  1.0 -0.5169973364
O  O10  1  0.50703000  0.69331000  0.45978000  1.0 -0.5169973364
O  O11  1  0.87629000  0.30424000  0.03529000  1.0 -0.5169973364
O  O12  1  0.48105000  0.40900000  0.53529000  1.0 -0.5169973364
O  O13  1  0.83866000  0.23509000  0.04599000  1.0 -0.5169973364
O  O14  1  0.56090000  0.45733000  0.54599000  1.0 -0.5169973364
O  O15  1  0.13876000  0.39395000  0.22701000  1.0 -0.2359501522
O  O16  1  0.58306000  0.33825000  0.72701000  1.0 -0.2359501522
O  O17  1  0.14480000  0.32590000  0.23310000  1.0 -0.2841242311
O  O18  1  0.65720000  0.33830000  0.73310000  1.0 -0.2841242311
O  O19  1  0.09153000  0.85172000  0.70061000  1.0 -0.2962656376
O  O20  1  0.59889000  0.85908000  0.20061000  1.0 -0.289021436
O  O21  1  0.14336000  0.24402000  0.86142000  1.0 -0.4973458535
O  O22  1  0.36740000  0.96806000  0.36142000  1.0 -0.4973458535
O  O23  1  0.20111000  0.27070000  0.83379000  1.0 -0.5141502903
O  O24  1  0.31309000  0.88268000  0.33379000  1.0 -0.5141502903
O  O25  1  0.30385000  0.53718000  0.00749000  1.0 -0.5464520341
O  O26  1  0.22031000  0.95364000  0.50749000  1.0 -0.5464520341
O  O27  1  0.24297000  0.55669000  0.04022000  1.0 -0.5169973364
O  O28  1  0.23353000  0.04725000  0.54022000  1.0 -0.5169973364
O  O29  1  0.26895000  0.84100000  0.96471000  1.0 -0.5169973364
O  O30  1  0.87371000  0.94576000  0.46471000  1.0 -0.5169973364
O  O31  1  0.18910000  0.79267000  0.95401000  1.0 -0.5141502903
O  O32  1  0.91134000  0.01491000  0.45401000  1.0 -0.5169973364
O  O33  1  0.16694000  0.91175000  0.77299000  1.0 -0.2359501522
O  O34  1  0.61124000  0.85605000  0.27299000  1.0 -0.2359501522
O  O35  1  0.09280000  0.91170000  0.76690000  1.0 -0.2841242311
O  O36  1  0.60520000  0.92410000  0.26690000  1.0 -0.2841242311
O  O37  1  0.60172000  0.40111000  0.26019000  1.0 -0.2962656376
O  O38  1  0.60908000  0.90847000  0.76019000  1.0 -0.2962656376
O  O39  1  0.99402000  0.63260000  0.60066000  1.0 -0.4973458535
O  O40  1  0.71806000  0.85664000  0.10066000  1.0 -0.4973458535
O  O41  1  0.02070000  0.68691000  0.56959000  1.0 -0.5141502903
O  O42  1  0.63268000  0.79889000  0.06959000  1.0 -0.5141502903
O  O43  1  0.28718000  0.77969000  0.73333000  1.0 -0.5464520341
O  O44  1  0.70364000  0.69615000  0.23333000  1.0 -0.5464520341
O  O45  1  0.30669000  0.76647000  0.81372000  1.0 -0.5169973364
O  O46  1  0.79725000  0.75703000  0.31372000  1.0 -0.5169973364
O  O47  1  0.59100000  0.12629000  0.07205000  1.0 -0.5169973364
O  O48  1  0.69576000  0.73105000  0.57205000  1.0 -0.5169973364
O  O49  1  0.54267000  0.08866000  0.10357000  1.0 -0.5169973364
O  O50  1  0.76491000  0.81090000  0.60357000  1.0 -0.5169973364
O  O51  1  0.66175000  0.38876000  0.24481000  1.0 -0.2359501522
O  O52  1  0.60605000  0.83306000  0.74481000  1.0 -0.2359501522
O  O53  1  0.66170000  0.39480000  0.31890000  1.0 -0.289021436
O  O54  1  0.67410000  0.90720000  0.81890000  1.0 -0.2841242311
O  O55  1  0.14092000  0.34153000  0.73981000  1.0 -0.2962656376
O  O56  1  0.14828000  0.84889000  0.23981000  1.0 -0.2962656376
O  O57  1  0.03194000  0.39336000  0.39934000  1.0 -0.4973458535
O  O58  1  0.75598000  0.61740000  0.89934000  1.0 -0.4973458535
O  O59  1  0.11732000  0.45111000  0.43041000  1.0 -0.5141502903
O  O60  1  0.72930000  0.56309000  0.93041000  1.0 -0.5141502903
O  O61  1  0.04636000  0.55385000  0.26667000  1.0 -0.5464520341
O  O62  1  0.46282000  0.47031000  0.76667000  1.0 -0.5464520341
O  O63  1  0.95275000  0.49297000  0.18628000  1.0 -0.5169973364
O  O64  1  0.44331000  0.48353000  0.68628000  1.0 -0.5169973364
O  O65  1  0.05424000  0.51895000  0.92795000  1.0 -0.5169973364
O  O66  1  0.15900000  0.12371000  0.42795000  1.0 -0.5169973364
O  O67  1  0.98509000  0.43910000  0.89643000  1.0 -0.5169973364
O  O68  1  0.20733000  0.16134000  0.39643000  1.0 -0.5169973364
O  O69  1  0.14395000  0.41694000  0.75519000  1.0 -0.2359501522
O  O70  1  0.08825000  0.86124000  0.25519000  1.0 -0.2359501522
O  O71  1  0.07590000  0.34280000  0.68110000  1.0 -0.2841242311
O  O72  1  0.08830000  0.85520000  0.18110000  1.0 -0.2841242311
