# DDEC6 charges by PACMAN v1.1 (https://github.com/mtap-research/PACMAN-charge/)
data_FUTJOV_ASR_pacman
_symmetry_space_group_name_H-M   'P 1'
_cell_length_a   6.72000000
_cell_length_b   9.49400000
_cell_length_c   10.93950000
_cell_angle_alpha   109.03300000
_cell_angle_beta   104.37500000
_cell_angle_gamma   106.67800000
_symmetry_Int_Tables_number   1
_chemical_formula_structural   Cu3(CN)4
_chemical_formula_sum   'Cu6 C8 N8'
_cell_volume   585.25945270
_cell_formula_units_Z   2
loop_
 _symmetry_equiv_pos_site_id
 _symmetry_equiv_pos_as_xyz
  1  'x, y, z'
loop_
 _atom_site_type_symbol
 _atom_site_label
 _atom_site_symmetry_multiplicity
 _atom_site_fract_x
 _atom_site_fract_y
 _atom_site_fract_z
 _atom_site_occupancy
 _atom_site_charge
Cu  Cu1  1  0.12391000  0.89586000  0.29210000  1.0 0.2413326883
Cu  Cu2  1  0.87609000  0.10414000  0.70790000  1.0 0.2413326883
Cu  Cu3  1  0.75877000  0.62019000  0.76927000  1.0 0.2413326883
Cu  Cu4  1  0.24123000  0.37981000  0.23073000  1.0 0.2484348648
Cu  Cu5  1  0.03047000  0.42643000  0.39001000  1.0 0.3868711078
Cu  Cu6  1  0.96953000  0.57357000  0.60999000  1.0 0.3796497368
C  C1  1  0.91270000  0.73610000  0.96860000  1.0 -0.0878251782
C  C2  1  0.08730000  0.26390000  0.03140000  1.0 -0.0878251782
C  C3  1  0.44870000  0.58360000  0.67220000  1.0 0.0716943377
C  C4  1  0.55130000  0.41640000  0.32780000  1.0 0.0716943377
C  C5  1  0.17830000  0.70240000  0.29720000  1.0 0.0633266726
C  C6  1  0.82170000  0.29760000  0.70280000  1.0 0.0633266726
C  C7  1  0.99590000  0.79870000  0.08780000  1.0 -0.1887779972
C  C8  1  0.00410000  0.20130000  0.91220000  1.0 -0.1887779972
N  N1  1  0.16560000  0.58720000  0.30980000  1.0 -0.2993535763
N  N2  1  0.83440000  0.41280000  0.69020000  1.0 -0.2993535763
N  N3  1  0.05590000  0.21510000  0.33140000  1.0 -0.0702098674
N  N4  1  0.94410000  0.78490000  0.66860000  1.0 -0.0646221108
N  N5  1  0.06150000  0.09140000  0.30920000  1.0 -0.0072686012
N  N6  1  0.93850000  0.90860000  0.69080000  1.0 -0.0072686012
N  N7  1  0.26790000  0.56320000  0.62000000  1.0 -0.3538565553
N  N8  1  0.73210000  0.43680000  0.38000000  1.0 -0.3538565553
