# DDEC6 charges by PACMAN v1.1 (https://github.com/mtap-research/PACMAN-charge/)
data_FUTZIF_FSR_pacman
_symmetry_space_group_name_H-M   'P 1'
_cell_length_a   17.63820000
_cell_length_b   17.63820000
_cell_length_c   35.81700000
_cell_angle_alpha   74.12920000
_cell_angle_beta   105.87100000
_cell_angle_gamma   147.22000000
_symmetry_Int_Tables_number   1
_chemical_formula_structural   Zn4H9C38(NO11)2
_chemical_formula_sum   'Zn16 H36 C152 N8 O88'
_cell_volume   5782.62568373
_cell_formula_units_Z   4
loop_
 _symmetry_equiv_pos_site_id
 _symmetry_equiv_pos_as_xyz
  1  'x, y, z'
loop_
 _atom_site_type_symbol
 _atom_site_label
 _atom_site_symmetry_multiplicity
 _atom_site_fract_x
 _atom_site_fract_y
 _atom_site_fract_z
 _atom_site_occupancy
 _atom_site_charge
Zn  Zn1  1  0.69138000  0.43674000  0.85594000  1.0 0.8408695813
Zn  Zn2  1  0.43674000  0.69138000  0.64406000  1.0 0.8408695813
Zn  Zn3  1  0.30862000  0.56326000  0.14406000  1.0 0.8408695813
Zn  Zn4  1  0.56326000  0.30862000  0.35594000  1.0 0.8408695813
Zn  Zn5  1  0.45995000  0.18215000  0.92629000  1.0 0.9535092619
Zn  Zn6  1  0.18215000  0.45995000  0.57371000  1.0 0.9535092619
Zn  Zn7  1  0.54005000  0.81785000  0.07371000  1.0 0.9535092619
Zn  Zn8  1  0.81785000  0.54005000  0.42629000  1.0 0.9535092619
Zn  Zn9  1  0.91154000  0.09700000  0.87125000  1.0 0.9147174713
Zn  Zn10  1  0.09700000  0.91154000  0.62875000  1.0 0.9147174713
Zn  Zn11  1  0.08846000  0.90300000  0.12875000  1.0 0.9147174713
Zn  Zn12  1  0.90300000  0.08846000  0.37125000  1.0 0.9147174713
Zn  Zn13  1  0.08143000  0.41459000  0.84011000  1.0 0.8876860496
Zn  Zn14  1  0.41459000  0.08143000  0.65989000  1.0 0.8876860496
Zn  Zn15  1  0.91857000  0.58541000  0.15989000  1.0 0.8876860496
Zn  Zn16  1  0.58541000  0.91857000  0.34011000  1.0 0.8876860496
H  H1  1  0.99220000  0.74560000  0.74930000  1.0 0.1116823834
H  H2  1  0.74560000  0.99220000  0.75070000  1.0 0.1116823834
H  H3  1  0.00780000  0.25440000  0.25070000  1.0 0.1116823834
H  H4  1  0.25440000  0.00780000  0.24930000  1.0 0.1116823834
H  H5  1  0.39740000  0.14740000  0.76570000  1.0 0.1299703873
H  H6  1  0.14740000  0.39740000  0.73430000  1.0 0.1299703873
H  H7  1  0.60260000  0.85260000  0.23430000  1.0 0.1299703873
H  H8  1  0.85260000  0.60260000  0.26570000  1.0 0.1299703873
H  H9  1  0.15080000  0.89260000  0.85420000  1.0 0.1299703873
H  H10  1  0.89260000  0.15080000  0.64580000  1.0 0.1299703873
H  H11  1  0.84920000  0.10740000  0.14580000  1.0 0.1299703873
H  H12  1  0.10740000  0.84920000  0.35420000  1.0 0.1299703873
H  H13  1  0.34400000  0.83740000  0.01430000  1.0 0.1405636687
H  H14  1  0.83740000  0.34400000  0.48570000  1.0 0.1405636687
H  H15  1  0.65600000  0.16260000  0.98570000  1.0 0.1405636687
H  H16  1  0.16260000  0.65600000  0.51430000  1.0 0.1405636687
H  H17  1  0.16820000  0.68620000  0.11310000  1.0 0.1299703873
H  H18  1  0.68620000  0.16820000  0.38690000  1.0 0.1299703873
H  H19  1  0.83180000  0.31380000  0.88690000  1.0 0.1299703873
H  H20  1  0.31380000  0.83180000  0.61310000  1.0 0.1299703873
H  H21  1  0.22190000  0.93510000  0.03150000  1.0 0.1478560772
H  H22  1  0.93510000  0.22190000  0.46850000  1.0 0.1478560772
H  H23  1  0.77810000  0.06490000  0.96850000  1.0 0.1478560772
H  H24  1  0.06490000  0.77810000  0.53150000  1.0 0.1478560772
H  H25  1  0.72380000  0.68660000  0.89210000  1.0 0.1405636687
H  H26  1  0.68660000  0.72380000  0.60790000  1.0 0.1405636687
H  H27  1  0.27620000  0.31340000  0.10790000  1.0 0.1405636687
H  H28  1  0.31340000  0.27620000  0.39210000  1.0 0.1405636687
H  H29  1  0.45410000  0.63710000  0.88180000  1.0 0.1405636687
H  H30  1  0.63710000  0.45410000  0.61820000  1.0 0.1405636687
H  H31  1  0.54590000  0.36290000  0.11820000  1.0 0.1405636687
H  H32  1  0.36290000  0.54590000  0.38180000  1.0 0.1405636687
H  H33  1  0.31060000  0.30000000  0.89240000  1.0 0.1405636687
H  H34  1  0.30000000  0.31060000  0.60760000  1.0 0.1405636687
H  H35  1  0.68940000  0.70000000  0.10760000  1.0 0.1405636687
H  H36  1  0.70000000  0.68940000  0.39240000  1.0 0.1405636687
C  C1  1  0.90150000  0.65450000  0.82690000  1.0 0.2715900895
C  C2  1  0.65450000  0.90150000  0.67310000  1.0 0.2715900895
C  C3  1  0.09850000  0.34550000  0.17310000  1.0 0.2715900895
C  C4  1  0.34550000  0.09850000  0.32690000  1.0 0.2715900895
C  C5  1  0.04880000  0.79260000  0.80540000  1.0 0.0216072617
C  C6  1  0.79260000  0.04880000  0.69460000  1.0 0.0216072617
C  C7  1  0.95120000  0.20740000  0.19460000  1.0 0.0216072617
C  C8  1  0.20740000  0.95120000  0.30540000  1.0 0.0216072617
C  C9  1  0.06800000  0.81660000  0.76580000  1.0 -0.1205526963
C  C10  1  0.81660000  0.06800000  0.73420000  1.0 -0.1205526963
C  C11  1  0.93200000  0.18340000  0.23420000  1.0 -0.1205526963
C  C12  1  0.18340000  0.93200000  0.26580000  1.0 -0.1205526963
C  C13  1  0.19920000  0.94540000  0.75090000  1.0 -0.0525551595
C  C14  1  0.94540000  0.19920000  0.74910000  1.0 -0.0525551595
C  C15  1  0.80080000  0.05460000  0.24910000  1.0 -0.0525551595
C  C16  1  0.05460000  0.80080000  0.25090000  1.0 -0.0525551595
C  C17  1  0.31160000  0.05880000  0.77530000  1.0 -0.0700688483
C  C18  1  0.05880000  0.31160000  0.72470000  1.0 -0.0700688483
C  C19  1  0.68840000  0.94120000  0.22470000  1.0 -0.0700688483
C  C20  1  0.94120000  0.68840000  0.27530000  1.0 -0.0700688483
C  C21  1  0.28940000  0.03340000  0.81380000  1.0 -0.0406818757
C  C22  1  0.03340000  0.28940000  0.68620000  1.0 -0.0406818757
C  C23  1  0.71060000  0.96660000  0.18620000  1.0 -0.0406818757
C  C24  1  0.96660000  0.71060000  0.31380000  1.0 -0.0406818757
C  C25  1  0.16170000  0.90470000  0.82820000  1.0 -0.099571729
C  C26  1  0.90470000  0.16170000  0.67180000  1.0 -0.099571729
C  C27  1  0.83830000  0.09530000  0.17180000  1.0 -0.099571729
C  C28  1  0.09530000  0.83830000  0.32820000  1.0 -0.099571729
C  C29  1  0.34690000  0.98830000  0.98000000  1.0 0.5780237076
C  C30  1  0.98830000  0.34690000  0.52000000  1.0 0.5780237076
C  C31  1  0.65310000  0.01170000  0.02000000  1.0 0.5780237076
C  C32  1  0.01170000  0.65310000  0.48000000  1.0 0.5780237076
C  C33  1  0.29080000  0.89740000  0.01750000  1.0 -0.0022364955
C  C34  1  0.89740000  0.29080000  0.48250000  1.0 -0.0022364955
C  C35  1  0.70920000  0.10260000  0.98250000  1.0 -0.0022364955
C  C36  1  0.10260000  0.70920000  0.51750000  1.0 -0.0022364955
C  C37  1  0.30580000  0.83240000  0.03010000  1.0 -0.0927360365
C  C38  1  0.83240000  0.30580000  0.46990000  1.0 -0.0927360365
C  C39  1  0.69420000  0.16760000  0.96990000  1.0 -0.0927360365
C  C40  1  0.16760000  0.69420000  0.53010000  1.0 -0.0927360365
C  C41  1  0.26540000  0.75500000  0.06730000  1.0 -0.0203842362
C  C42  1  0.75500000  0.26540000  0.43270000  1.0 -0.0203842362
C  C43  1  0.73460000  0.24500000  0.93270000  1.0 -0.0203842362
C  C44  1  0.24500000  0.73460000  0.56730000  1.0 -0.0203842362
C  C45  1  0.20130000  0.74110000  0.08950000  1.0 -0.1278524492
C  C46  1  0.74110000  0.20130000  0.41050000  1.0 -0.1278524492
C  C47  1  0.79870000  0.25890000  0.91050000  1.0 -0.1278524492
C  C48  1  0.25890000  0.79870000  0.58950000  1.0 -0.1278524492
C  C49  1  0.18640000  0.81120000  0.07610000  1.0 -0.0086356044
C  C50  1  0.81120000  0.18640000  0.42390000  1.0 -0.0086356044
C  C51  1  0.81360000  0.18880000  0.92390000  1.0 -0.0086356044
C  C52  1  0.18880000  0.81360000  0.57610000  1.0 -0.0086356044
C  C53  1  0.54520000  0.41840000  0.89440000  1.0 0.5983908531
C  C54  1  0.41840000  0.54520000  0.60560000  1.0 0.5983908531
C  C55  1  0.45480000  0.58160000  0.10560000  1.0 0.5983908531
C  C56  1  0.58160000  0.45480000  0.39440000  1.0 0.5983908531
C  C57  1  0.23140000  0.88860000  0.04030000  1.0 -0.099571729
C  C58  1  0.88860000  0.23140000  0.45970000  1.0 -0.099571729
C  C59  1  0.76860000  0.11140000  0.95970000  1.0 -0.099571729
C  C60  1  0.11140000  0.76860000  0.54030000  1.0 -0.099571729
C  C61  1  0.51920000  0.48100000  0.89210000  1.0 -0.0347558203
C  C62  1  0.48100000  0.51920000  0.60790000  1.0 -0.0347558203
C  C63  1  0.48080000  0.51900000  0.10790000  1.0 -0.0347558203
C  C64  1  0.51900000  0.48080000  0.39210000  1.0 -0.0347558203
C  C65  1  0.63180000  0.62800000  0.89040000  1.0 -0.0794277358
C  C66  1  0.62800000  0.63180000  0.60960000  1.0 -0.0794277358
C  C67  1  0.36820000  0.37200000  0.10960000  1.0 -0.0794277358
C  C68  1  0.37200000  0.36820000  0.39040000  1.0 -0.0794277358
C  C69  1  0.60520000  0.68400000  0.88610000  1.0 0.0001146742
C  C70  1  0.68400000  0.60520000  0.61390000  1.0 0.0001146742
C  C71  1  0.39480000  0.31600000  0.11390000  1.0 -0.0022364955
C  C72  1  0.31600000  0.39480000  0.38610000  1.0 -0.0022364955
C  C73  1  0.47100000  0.59820000  0.88430000  1.0 -0.0927360365
C  C74  1  0.59820000  0.47100000  0.61570000  1.0 -0.0927360365
C  C75  1  0.52900000  0.40180000  0.11570000  1.0 -0.0927360365
C  C76  1  0.40180000  0.52900000  0.38430000  1.0 -0.0927360365
C  C77  1  0.35930000  0.45430000  0.88610000  1.0 -0.0203842362
C  C78  1  0.45430000  0.35930000  0.61390000  1.0 -0.0203842362
C  C79  1  0.64070000  0.54570000  0.11390000  1.0 -0.0203842362
C  C80  1  0.54570000  0.64070000  0.38610000  1.0 -0.0203842362
C  C81  1  0.38540000  0.39720000  0.89050000  1.0 -0.0794277358
C  C82  1  0.39720000  0.38540000  0.60950000  1.0 -0.0794277358
C  C83  1  0.61460000  0.60280000  0.10950000  1.0 -0.0794277358
C  C84  1  0.60280000  0.61460000  0.39050000  1.0 -0.0794277358
C  C85  1  0.20980000  0.36300000  0.88040000  1.0 0.6127910968
C  C86  1  0.36300000  0.20980000  0.61960000  1.0 0.6127910968
C  C87  1  0.79020000  0.63700000  0.11960000  1.0 0.6127910968
C  C88  1  0.63700000  0.79020000  0.38040000  1.0 0.6127910968
C  C89  1  0.21930000  0.96430000  0.71020000  1.0 0.5983908531
C  C90  1  0.96430000  0.21930000  0.78980000  1.0 0.5983908531
C  C91  1  0.78070000  0.03570000  0.28980000  1.0 0.5983908531
C  C92  1  0.03570000  0.78070000  0.21020000  1.0 0.5983908531
C  C93  1  0.12400000  0.80280000  0.10300000  1.0 0.5780237076
C  C94  1  0.80280000  0.12400000  0.39700000  1.0 0.5780237076
C  C95  1  0.87600000  0.19720000  0.89700000  1.0 0.5780237076
C  C96  1  0.19720000  0.87600000  0.60300000  1.0 0.5780237076
C  C97  1  0.71970000  0.84170000  0.88250000  1.0 0.5487860199
C  C98  1  0.84170000  0.71970000  0.61750000  1.0 0.5487860199
C  C99  1  0.28030000  0.15830000  0.11750000  1.0 0.5487860199
C  C100  1  0.15830000  0.28030000  0.38250000  1.0 0.5487860199
C  C101  1  0.29170000  0.69130000  0.08270000  1.0 0.5983908531
C  C102  1  0.69130000  0.29170000  0.41730000  1.0 0.5983908531
C  C103  1  0.70830000  0.30870000  0.91730000  1.0 0.5983908531
C  C104  1  0.30870000  0.70830000  0.58270000  1.0 0.5983908531
C  C105  1  0.40690000  0.14850000  0.84010000  1.0 0.6206027623
C  C106  1  0.14850000  0.40690000  0.65990000  1.0 0.6206027623
C  C107  1  0.59310000  0.85150000  0.15990000  1.0 0.6206027623
C  C108  1  0.85150000  0.59310000  0.34010000  1.0 0.6206027623
C  C109  1  0.21880000  0.60720000  0.89960000  1.0 0.1788511333
C  C110  1  0.60720000  0.21880000  0.60040000  1.0 0.1788511333
C  C111  1  0.78120000  0.39280000  0.10040000  1.0 0.1788511333
C  C112  1  0.39280000  0.78120000  0.39960000  1.0 0.1788511333
C  C113  1  0.35250000  0.67750000  0.91180000  1.0 -0.0086356044
C  C114  1  0.67750000  0.35250000  0.58820000  1.0 -0.0022364955
C  C115  1  0.64750000  0.32250000  0.08820000  1.0 -0.0022364955
C  C116  1  0.32250000  0.64750000  0.41180000  1.0 -0.0086356044
C  C117  1  0.43280000  0.79320000  0.92940000  1.0 -0.165662496
C  C118  1  0.79320000  0.43280000  0.57060000  1.0 -0.165662496
C  C119  1  0.56720000  0.20680000  0.07060000  1.0 -0.165662496
C  C120  1  0.20680000  0.56720000  0.42940000  1.0 -0.1645984295
C  C121  1  0.35010000  0.78790000  0.94160000  1.0 0.0818584804
C  C122  1  0.78790000  0.35010000  0.55840000  1.0 0.0818584804
C  C123  1  0.64990000  0.21210000  0.05840000  1.0 0.0818584804
C  C124  1  0.21210000  0.64990000  0.44160000  1.0 0.0818584804
C  C125  1  0.10460000  0.65340000  0.90280000  1.0 -0.2021040525
C  C126  1  0.65340000  0.10460000  0.59720000  1.0 -0.2021040525
C  C127  1  0.89540000  0.34660000  0.09720000  1.0 -0.2021040525
C  C128  1  0.34660000  0.89540000  0.40280000  1.0 -0.2021040525
C  C129  1  0.91760000  0.64440000  0.81420000  1.0 0.2611196768
C  C130  1  0.64440000  0.91760000  0.68580000  1.0 0.2611196768
C  C131  1  0.08240000  0.35560000  0.18580000  1.0 0.2611196768
C  C132  1  0.35560000  0.08240000  0.31420000  1.0 0.2611196768
C  C133  1  0.22670000  0.64930000  0.85940000  1.0 0.283456063
C  C134  1  0.64930000  0.22670000  0.64060000  1.0 0.283456063
C  C135  1  0.77330000  0.35070000  0.14060000  1.0 0.283456063
C  C136  1  0.35070000  0.77330000  0.35940000  1.0 0.283456063
C  C137  1  0.18690000  0.69910000  0.85350000  1.0 -0.3326707128
C  C138  1  0.69910000  0.18690000  0.64650000  1.0 -0.3326707128
C  C139  1  0.81310000  0.30090000  0.14650000  1.0 -0.3326707128
C  C140  1  0.30090000  0.81310000  0.35350000  1.0 -0.3326707128
C  C141  1  0.15700000  0.68100000  0.88940000  1.0 0.0818584804
C  C142  1  0.68100000  0.15700000  0.61060000  1.0 0.0818584804
C  C143  1  0.84300000  0.31900000  0.11060000  1.0 0.0818584804
C  C144  1  0.31900000  0.84300000  0.38940000  1.0 0.0818584804
C  C145  1  0.14010000  0.58990000  0.92190000  1.0 0.0928856973
C  C146  1  0.58990000  0.14010000  0.57810000  1.0 0.0959103164
C  C147  1  0.85990000  0.41010000  0.07810000  1.0 0.0959103164
C  C148  1  0.41010000  0.85990000  0.42190000  1.0 0.0928856973
C  C149  1  0.22560000  0.51640000  0.92160000  1.0 -0.0700688483
C  C150  1  0.51640000  0.22560000  0.57840000  1.0 -0.0700688483
C  C151  1  0.77440000  0.48360000  0.07840000  1.0 -0.0700688483
C  C152  1  0.48360000  0.77440000  0.42160000  1.0 -0.0700688483
N  N1  1  0.24240000  0.70560000  0.91300000  1.0 0.0566536362
N  N2  1  0.70560000  0.24240000  0.58700000  1.0 0.0566536362
N  N3  1  0.75760000  0.29440000  0.08700000  1.0 0.0566536362
N  N4  1  0.29440000  0.75760000  0.41300000  1.0 0.0566536362
N  N5  1  0.16210000  0.55590000  0.90000000  1.0 0.0430197549
N  N6  1  0.55590000  0.16210000  0.60000000  1.0 0.0430197549
N  N7  1  0.83790000  0.44410000  0.10000000  1.0 0.0430197549
N  N8  1  0.44410000  0.83790000  0.40000000  1.0 0.0528718004
O  O1  1  0.89270000  0.64230000  0.85450000  1.0 -0.1400105934
O  O2  1  0.64230000  0.89270000  0.64550000  1.0 -0.1400105934
O  O3  1  0.10730000  0.35770000  0.14550000  1.0 -0.1400105934
O  O4  1  0.35770000  0.10730000  0.35450000  1.0 -0.1400105934
O  O5  1  0.37750000  0.97750000  0.95660000  1.0 -0.518694939
O  O6  1  0.97750000  0.37750000  0.54340000  1.0 -0.518694939
O  O7  1  0.62250000  0.02250000  0.04340000  1.0 -0.518694939
O  O8  1  0.02250000  0.62250000  0.45660000  1.0 -0.518694939
O  O9  1  0.35880000  0.07360000  0.97240000  1.0 -0.5304925584
O  O10  1  0.07360000  0.35880000  0.52760000  1.0 -0.5304925584
O  O11  1  0.64120000  0.92640000  0.02760000  1.0 -0.5304925584
O  O12  1  0.92640000  0.64120000  0.47240000  1.0 -0.5304925584
O  O13  1  0.64440000  0.48540000  0.87760000  1.0 -0.518694939
O  O14  1  0.48540000  0.64440000  0.62240000  1.0 -0.518694939
O  O15  1  0.35560000  0.51460000  0.12240000  1.0 -0.518694939
O  O16  1  0.51460000  0.35560000  0.37760000  1.0 -0.518694939
O  O17  1  0.45800000  0.29640000  0.91250000  1.0 -0.5575734874
O  O18  1  0.29640000  0.45800000  0.58750000  1.0 -0.5491216093
O  O19  1  0.54200000  0.70360000  0.08750000  1.0 -0.5575734874
O  O20  1  0.70360000  0.54200000  0.41250000  1.0 -0.5575734874
O  O21  1  0.39020000  0.10740000  0.87640000  1.0 -0.5695840362
O  O22  1  0.10740000  0.39020000  0.62360000  1.0 -0.5695840362
O  O23  1  0.60980000  0.89260000  0.12360000  1.0 -0.5695840362
O  O24  1  0.89260000  0.60980000  0.37640000  1.0 -0.5695840362
O  O25  1  0.51240000  0.27420000  0.82590000  1.0 -0.5304925584
O  O26  1  0.27420000  0.51240000  0.67410000  1.0 -0.5304925584
O  O27  1  0.48760000  0.72580000  0.17410000  1.0 -0.5304925584
O  O28  1  0.72580000  0.48760000  0.32590000  1.0 -0.5304925584
O  O29  1  0.34790000  0.70290000  0.06180000  1.0 -0.5491216093
O  O30  1  0.70290000  0.34790000  0.43820000  1.0 -0.5491216093
O  O31  1  0.65210000  0.29710000  0.93820000  1.0 -0.5491216093
O  O32  1  0.29710000  0.65210000  0.56180000  1.0 -0.5491216093
O  O33  1  0.26350000  0.63370000  0.11680000  1.0 -0.518694939
O  O34  1  0.63370000  0.26350000  0.38320000  1.0 -0.518694939
O  O35  1  0.73650000  0.36630000  0.88320000  1.0 -0.518694939
O  O36  1  0.36630000  0.73650000  0.61680000  1.0 -0.518694939
O  O37  1  0.11300000  0.23380000  0.88060000  1.0 -0.500605816
O  O38  1  0.23380000  0.11300000  0.61940000  1.0 -0.500605816
O  O39  1  0.88700000  0.76620000  0.11940000  1.0 -0.500605816
O  O40  1  0.76620000  0.88700000  0.38060000  1.0 -0.500605816
O  O41  1  0.19560000  0.42380000  0.87660000  1.0 -0.5575734874
O  O42  1  0.42380000  0.19560000  0.62340000  1.0 -0.5575734874
O  O43  1  0.80440000  0.57620000  0.12340000  1.0 -0.5575734874
O  O44  1  0.57620000  0.80440000  0.37660000  1.0 -0.5575734874
O  O45  1  0.10800000  0.88400000  0.68670000  1.0 -0.5304925584
O  O46  1  0.88400000  0.10800000  0.81330000  1.0 -0.5304925584
O  O47  1  0.89200000  0.11600000  0.31330000  1.0 -0.5304925584
O  O48  1  0.11600000  0.89200000  0.18670000  1.0 -0.5304925584
O  O49  1  0.33940000  0.06400000  0.70090000  1.0 -0.518694939
O  O50  1  0.06400000  0.33940000  0.79910000  1.0 -0.518694939
O  O51  1  0.66060000  0.93600000  0.29910000  1.0 -0.518694939
O  O52  1  0.93600000  0.66060000  0.20090000  1.0 -0.518694939
O  O53  1  0.09880000  0.74240000  0.13590000  1.0 -0.5491216093
O  O54  1  0.74240000  0.09880000  0.36410000  1.0 -0.5491216093
O  O55  1  0.90120000  0.25760000  0.86410000  1.0 -0.5491216093
O  O56  1  0.25760000  0.90120000  0.63590000  1.0 -0.5491216093
O  O57  1  0.11050000  0.86470000  0.08860000  1.0 -0.5058413837
O  O58  1  0.86470000  0.11050000  0.41140000  1.0 -0.5058413837
O  O59  1  0.88950000  0.13530000  0.91140000  1.0 -0.5058413837
O  O60  1  0.13530000  0.88950000  0.58860000  1.0 -0.5058413837
O  O61  1  0.84240000  0.92020000  0.88830000  1.0 -0.4770412612
O  O62  1  0.92020000  0.84240000  0.61170000  1.0 -0.4770412612
O  O63  1  0.15760000  0.07980000  0.11170000  1.0 -0.4770412612
O  O64  1  0.07980000  0.15760000  0.38830000  1.0 -0.4770412612
O  O65  1  0.68710000  0.88450000  0.87270000  1.0 -0.4770412612
O  O66  1  0.88450000  0.68710000  0.62730000  1.0 -0.4770412612
O  O67  1  0.31290000  0.11550000  0.12730000  1.0 -0.4770412612
O  O68  1  0.11550000  0.31290000  0.37270000  1.0 -0.4770412612
O  O69  1  0.80570000  0.56550000  0.80550000  1.0 -0.0406818757
O  O70  1  0.56550000  0.80570000  0.69450000  1.0 -0.0406818757
O  O71  1  0.19430000  0.43450000  0.19450000  1.0 -0.0406818757
O  O72  1  0.43450000  0.19430000  0.30550000  1.0 -0.0406818757
O  O73  1  0.11110000  0.51090000  0.87610000  1.0 -0.0525551595
O  O74  1  0.51090000  0.11110000  0.62390000  1.0 -0.0525551595
O  O75  1  0.88890000  0.48910000  0.12390000  1.0 -0.0553835947
O  O76  1  0.48910000  0.88890000  0.37610000  1.0 -0.0525551595
O  O77  1  0.02250000  0.46950000  0.79840000  1.0 0.0528718004
O  O78  1  0.46950000  0.02250000  0.70160000  1.0 0.0566536362
O  O79  1  0.97750000  0.53050000  0.20160000  1.0 0.0566536362
O  O80  1  0.53050000  0.97750000  0.29840000  1.0 0.0528718004
O  O81  1  0.84700000  0.53300000  0.80060000  1.0 -0.165662496
O  O82  1  0.53300000  0.84700000  0.69940000  1.0 -0.165662496
O  O83  1  0.15300000  0.46700000  0.19940000  1.0 -0.165662496
O  O84  1  0.46700000  0.15300000  0.30060000  1.0 -0.165662496
O  O85  1  0.22310000  0.60690000  0.83310000  1.0 -0.3479437026
O  O86  1  0.60690000  0.22310000  0.66690000  1.0 -0.3479437026
O  O87  1  0.77690000  0.39310000  0.16690000  1.0 -0.3479437026
O  O88  1  0.39310000  0.77690000  0.33310000  1.0 -0.3479437026
