# DDEC6 charges by PACMAN v1.1 (https://github.com/mtap-research/PACMAN-charge/)
data_FUVBOP_ASR_pacman
_symmetry_space_group_name_H-M   'P 1'
_cell_length_a   18.29390000
_cell_length_b   18.29390000
_cell_length_c   18.29390000
_cell_angle_alpha   115.78200000
_cell_angle_beta   115.78200000
_cell_angle_gamma   97.47560000
_symmetry_Int_Tables_number   1
_chemical_formula_structural   Cu3H10C19O14
_chemical_formula_sum   'Cu12 H40 C76 O56'
_cell_volume   4563.05614519
_cell_formula_units_Z   4
loop_
 _symmetry_equiv_pos_site_id
 _symmetry_equiv_pos_as_xyz
  1  'x, y, z'
loop_
 _atom_site_type_symbol
 _atom_site_label
 _atom_site_symmetry_multiplicity
 _atom_site_fract_x
 _atom_site_fract_y
 _atom_site_fract_z
 _atom_site_occupancy
 _atom_site_charge
Cu  Cu1  1  0.00000000  0.93251000  0.93251000  1.0 0.8415621738
Cu  Cu2  1  0.00000000  0.06749000  0.06749000  1.0 0.8415621738
Cu  Cu3  1  0.52193000  0.53024000  0.45549000  1.0 0.8534021224
Cu  Cu4  1  0.07475000  0.06644000  0.54451000  1.0 0.8534021224
Cu  Cu5  1  0.47807000  0.93356000  0.00831000  1.0 0.8534021224
Cu  Cu6  1  0.92525000  0.46976000  0.99169000  1.0 0.8534021224
Cu  Cu7  1  0.47807000  0.46976000  0.54451000  1.0 0.8534021224
Cu  Cu8  1  0.92525000  0.93356000  0.45549000  1.0 0.8534021224
Cu  Cu9  1  0.52193000  0.06644000  0.99169000  1.0 0.8534021224
Cu  Cu10  1  0.07475000  0.53024000  0.00831000  1.0 0.8534021224
Cu  Cu11  1  0.93195000  0.50000000  0.43195000  1.0 0.8867113511
Cu  Cu12  1  0.06805000  0.50000000  0.56805000  1.0 0.8867113511
H  H1  1  0.76230000  0.50480000  0.53510000  1.0 0.1501272092
H  H2  1  0.96970000  0.22720000  0.46490000  1.0 0.1501272092
H  H3  1  0.23770000  0.77280000  0.74250000  1.0 0.1501272092
H  H4  1  0.03030000  0.49520000  0.25750000  1.0 0.1501272092
H  H5  1  0.23770000  0.49520000  0.46490000  1.0 0.1501272092
H  H6  1  0.03030000  0.77280000  0.53510000  1.0 0.1501272092
H  H7  1  0.76230000  0.22720000  0.25750000  1.0 0.1501272092
H  H8  1  0.96970000  0.50480000  0.74250000  1.0 0.1501272092
H  H9  1  0.27980000  0.23400000  0.25220000  1.0 0.1356097231
H  H10  1  0.98180000  0.02760000  0.74780000  1.0 0.1348283957
H  H11  1  0.72020000  0.97240000  0.95420000  1.0 0.1348283957
H  H12  1  0.01820000  0.76600000  0.04580000  1.0 0.1348283957
H  H13  1  0.72020000  0.76600000  0.74780000  1.0 0.1356097231
H  H14  1  0.01820000  0.97240000  0.25220000  1.0 0.1356097231
H  H15  1  0.27980000  0.02760000  0.04580000  1.0 0.1348283957
H  H16  1  0.98180000  0.23400000  0.95420000  1.0 0.1348283957
H  H17  1  0.70840000  0.38750000  0.76830000  1.0 0.1135838123
H  H18  1  0.61920000  0.94010000  0.23170000  1.0 0.1135838123
H  H19  1  0.29160000  0.05990000  0.67910000  1.0 0.1135838123
H  H20  1  0.38080000  0.61250000  0.32090000  1.0 0.1182975342
H  H21  1  0.29160000  0.61250000  0.23170000  1.0 0.1135838123
H  H22  1  0.38080000  0.05990000  0.76830000  1.0 0.1135838123
H  H23  1  0.70840000  0.94010000  0.32090000  1.0 0.1135838123
H  H24  1  0.61920000  0.38750000  0.67910000  1.0 0.1135838123
H  H25  1  0.68120000  0.35830000  0.66090000  1.0 0.0925077307
H  H26  1  0.69740000  0.02030000  0.33910000  1.0 0.0925077307
H  H27  1  0.31880000  0.97970000  0.67710000  1.0 0.0925077307
H  H28  1  0.30260000  0.64170000  0.32290000  1.0 0.0925077307
H  H29  1  0.31880000  0.64170000  0.33910000  1.0 0.0925077307
H  H30  1  0.30260000  0.97970000  0.66090000  1.0 0.0925077307
H  H31  1  0.68120000  0.02030000  0.32290000  1.0 0.0925077307
H  H32  1  0.69740000  0.35830000  0.67710000  1.0 0.0925077307
H  H33  1  0.62170000  0.39410000  0.69940000  1.0 0.1182975342
H  H34  1  0.69470000  0.92230000  0.30060000  1.0 0.1182975342
H  H35  1  0.37830000  0.07770000  0.77240000  1.0 0.1182975342
H  H36  1  0.30530000  0.60590000  0.22760000  1.0 0.1182975342
H  H37  1  0.37830000  0.60590000  0.30060000  1.0 0.1182975342
H  H38  1  0.30530000  0.07770000  0.69940000  1.0 0.1182975342
H  H39  1  0.62170000  0.92230000  0.22760000  1.0 0.1182975342
H  H40  1  0.69470000  0.39410000  0.77240000  1.0 0.1182975342
C  C1  1  0.79000000  0.50560000  0.59320000  1.0 -0.0558370487
C  C2  1  0.91240000  0.19680000  0.40680000  1.0 -0.0558370487
C  C3  1  0.21000000  0.80320000  0.71560000  1.0 -0.0558370487
C  C4  1  0.08760000  0.49440000  0.28440000  1.0 -0.0558370487
C  C5  1  0.21000000  0.49440000  0.40680000  1.0 -0.0558370487
C  C6  1  0.08760000  0.80320000  0.59320000  1.0 -0.0558370487
C  C7  1  0.79000000  0.19680000  0.28440000  1.0 -0.0558370487
C  C8  1  0.91240000  0.50560000  0.71560000  1.0 -0.0558370487
C  C9  1  0.44110000  0.34400000  0.35910000  1.0 0.6000006157
C  C10  1  0.98490000  0.08200000  0.64090000  1.0 0.6000006157
C  C11  1  0.55890000  0.91800000  0.90290000  1.0 0.6000006157
C  C12  1  0.01510000  0.65600000  0.09710000  1.0 0.6000006157
C  C13  1  0.55890000  0.65600000  0.64090000  1.0 0.6000006157
C  C14  1  0.01510000  0.91800000  0.35910000  1.0 0.6000006157
C  C15  1  0.44110000  0.08200000  0.09710000  1.0 0.6000006157
C  C16  1  0.98490000  0.34400000  0.90290000  1.0 0.6000006157
C  C17  1  0.74360000  0.50090000  0.63310000  1.0 -0.1050004144
C  C18  1  0.86780000  0.11050000  0.36690000  1.0 -0.0968778256
C  C19  1  0.25640000  0.88950000  0.75730000  1.0 -0.1050004144
C  C20  1  0.13220000  0.49910000  0.24270000  1.0 -0.0968778256
C  C21  1  0.25640000  0.49910000  0.36690000  1.0 -0.1050004144
C  C22  1  0.13220000  0.88950000  0.63310000  1.0 -0.1050004144
C  C23  1  0.74360000  0.11050000  0.24270000  1.0 -0.1050004144
C  C24  1  0.86780000  0.50090000  0.75730000  1.0 -0.1050004144
C  C25  1  0.16560000  0.07580000  0.08980000  1.0 0.5812242548
C  C26  1  0.98600000  0.07580000  0.91020000  1.0 0.5812242548
C  C27  1  0.83440000  0.92420000  0.91020000  1.0 0.5812242548
C  C28  1  0.01400000  0.92420000  0.08980000  1.0 0.5812242548
C  C29  1  0.65150000  0.50370000  0.58660000  1.0 0.6000006157
C  C30  1  0.91710000  0.06490000  0.41340000  1.0 0.6000006157
C  C31  1  0.34850000  0.93510000  0.85220000  1.0 0.6000006157
C  C32  1  0.08290000  0.49630000  0.14780000  1.0 0.6000006157
C  C33  1  0.34850000  0.49630000  0.41340000  1.0 0.6000006157
C  C34  1  0.08290000  0.93510000  0.58660000  1.0 0.6000006157
C  C35  1  0.65150000  0.06490000  0.14780000  1.0 0.6000006157
C  C36  1  0.91710000  0.50370000  0.85220000  1.0 0.6000006157
C  C37  1  0.31120000  0.20750000  0.22610000  1.0 -0.0968778256
C  C38  1  0.98140000  0.08510000  0.77390000  1.0 -0.0968778256
C  C39  1  0.68880000  0.91490000  0.89630000  1.0 -0.0968778256
C  C40  1  0.01860000  0.79250000  0.10370000  1.0 -0.0968778256
C  C41  1  0.68880000  0.79250000  0.77390000  1.0 -0.0968778256
C  C42  1  0.01860000  0.91490000  0.22610000  1.0 -0.0968778256
C  C43  1  0.31120000  0.08510000  0.10370000  1.0 -0.0968778256
C  C44  1  0.98140000  0.20750000  0.89630000  1.0 -0.0968778256
C  C45  1  0.26600000  0.12440000  0.14160000  1.0 -0.01805626
C  C46  1  0.98280000  0.12440000  0.85840000  1.0 -0.01805626
C  C47  1  0.73400000  0.87560000  0.85840000  1.0 -0.01805626
C  C48  1  0.01720000  0.87560000  0.14160000  1.0 -0.01805626
C  C49  1  0.44660000  0.21110000  0.23550000  1.0 0.2932807426
C  C50  1  0.97560000  0.21110000  0.76450000  1.0 0.2932807426
C  C51  1  0.55340000  0.78890000  0.76450000  1.0 0.2932807426
C  C52  1  0.02440000  0.78890000  0.23550000  1.0 0.2932807426
C  C53  1  0.78080000  0.50070000  0.71990000  1.0 0.2729247655
C  C54  1  0.78080000  0.06090000  0.28010000  1.0 0.2729247655
C  C55  1  0.21920000  0.93910000  0.71990000  1.0 0.2729247655
C  C56  1  0.21920000  0.49930000  0.28010000  1.0 0.2729247655
C  C57  1  0.39910000  0.25250000  0.27320000  1.0 -0.0939158579
C  C58  1  0.97930000  0.12590000  0.72680000  1.0 -0.0968778256
C  C59  1  0.60090000  0.87410000  0.85340000  1.0 -0.0968778256
C  C60  1  0.02070000  0.74750000  0.14660000  1.0 -0.0939158579
C  C61  1  0.60090000  0.74750000  0.72680000  1.0 -0.0968778256
C  C62  1  0.02070000  0.87410000  0.27320000  1.0 -0.0939158579
C  C63  1  0.39910000  0.12590000  0.14660000  1.0 -0.0939158579
C  C64  1  0.97930000  0.25250000  0.85340000  1.0 -0.0968778256
C  C65  1  0.92430000  0.51220000  0.58790000  1.0 0.5697978656
C  C66  1  0.92430000  0.33640000  0.41210000  1.0 0.5697978656
C  C67  1  0.07570000  0.66360000  0.58790000  1.0 0.5697978656
C  C68  1  0.07570000  0.48780000  0.41210000  1.0 0.5697978656
C  C69  1  0.87710000  0.51170000  0.63460000  1.0 -0.0528668272
C  C70  1  0.87710000  0.24250000  0.36540000  1.0 -0.0528668272
C  C71  1  0.12290000  0.75750000  0.63460000  1.0 -0.0528668272
C  C72  1  0.12290000  0.48830000  0.36540000  1.0 -0.0528668272
C  C73  1  0.68200000  0.40000000  0.71800000  1.0 -0.414128982
C  C74  1  0.68200000  0.96400000  0.28200000  1.0 -0.414128982
C  C75  1  0.31800000  0.03600000  0.71800000  1.0 -0.414128982
C  C76  1  0.31800000  0.60000000  0.28200000  1.0 -0.414128982
O  O1  1  0.63420000  0.52710000  0.52970000  1.0 -0.4676589076
O  O2  1  0.99740000  0.10450000  0.47030000  1.0 -0.4676589076
O  O3  1  0.36580000  0.89550000  0.89290000  1.0 -0.4676589076
O  O4  1  0.00260000  0.47290000  0.10710000  1.0 -0.4676589076
O  O5  1  0.36580000  0.47290000  0.47030000  1.0 -0.4676589076
O  O6  1  0.00260000  0.89550000  0.52970000  1.0 -0.4676589076
O  O7  1  0.63420000  0.10450000  0.10710000  1.0 -0.4676589076
O  O8  1  0.99740000  0.52710000  0.89290000  1.0 -0.4676589076
O  O9  1  0.12850000  0.00150000  0.01320000  1.0 -0.5172766564
O  O10  1  0.98830000  0.11530000  0.98680000  1.0 -0.5172766564
O  O11  1  0.87150000  0.88470000  0.87300000  1.0 -0.5172766564
O  O12  1  0.01170000  0.99850000  0.12700000  1.0 -0.5172766564
O  O13  1  0.87150000  0.99850000  0.98680000  1.0 -0.5172766564
O  O14  1  0.01170000  0.88470000  0.01320000  1.0 -0.5172766564
O  O15  1  0.12850000  0.11530000  0.12700000  1.0 -0.5172766564
O  O16  1  0.98830000  0.00150000  0.87300000  1.0 -0.5172766564
O  O17  1  0.60010000  0.47550000  0.60400000  1.0 -0.4971364141
O  O18  1  0.87150000  0.99610000  0.39600000  1.0 -0.4971364141
O  O19  1  0.39990000  0.00390000  0.87540000  1.0 -0.4971364141
O  O20  1  0.12850000  0.52450000  0.12460000  1.0 -0.4971364141
O  O21  1  0.39990000  0.52450000  0.39600000  1.0 -0.4971364141
O  O22  1  0.12850000  0.00390000  0.60400000  1.0 -0.4971364141
O  O23  1  0.60010000  0.99610000  0.12460000  1.0 -0.4971364141
O  O24  1  0.87150000  0.47550000  0.87540000  1.0 -0.4971364141
O  O25  1  0.47630000  0.40540000  0.35550000  1.0 -0.4971364141
O  O26  1  0.04990000  0.12080000  0.64450000  1.0 -0.4971364141
O  O27  1  0.52370000  0.87920000  0.92910000  1.0 -0.4971364141
O  O28  1  0.95010000  0.59460000  0.07090000  1.0 -0.4971364141
O  O29  1  0.52370000  0.59460000  0.64450000  1.0 -0.4943803032
O  O30  1  0.95010000  0.87920000  0.35550000  1.0 -0.4971364141
O  O31  1  0.47630000  0.12080000  0.07090000  1.0 -0.4971364141
O  O32  1  0.04990000  0.40540000  0.92910000  1.0 -0.4971364141
O  O33  1  0.44090000  0.35350000  0.43180000  1.0 -0.5172766564
O  O34  1  0.92170000  0.00910000  0.56820000  1.0 -0.5172766564
O  O35  1  0.55910000  0.99090000  0.91260000  1.0 -0.5172766564
O  O36  1  0.07830000  0.64650000  0.08740000  1.0 -0.5172766564
O  O37  1  0.55910000  0.64650000  0.56820000  1.0 -0.5172766564
O  O38  1  0.07830000  0.99090000  0.43180000  1.0 -0.5172766564
O  O39  1  0.44090000  0.00910000  0.08740000  1.0 -0.5172766564
O  O40  1  0.92170000  0.35350000  0.91260000  1.0 -0.5172766564
O  O41  1  0.53500000  0.25210000  0.28290000  1.0 -0.414128982
O  O42  1  0.96920000  0.25210000  0.71710000  1.0 -0.414128982
O  O43  1  0.46500000  0.74790000  0.71710000  1.0 -0.414128982
O  O44  1  0.03080000  0.74790000  0.28290000  1.0 -0.414128982
O  O45  1  0.73590000  0.49240000  0.75650000  1.0 -0.2530350417
O  O46  1  0.73590000  0.97940000  0.24350000  1.0 -0.2530350417
O  O47  1  0.26410000  0.02060000  0.75650000  1.0 -0.2530350417
O  O48  1  0.26410000  0.50760000  0.24350000  1.0 -0.2587257703
O  O49  1  0.88330000  0.51310000  0.51020000  1.0 -0.5302710389
O  O50  1  0.00290000  0.37310000  0.48980000  1.0 -0.5302710389
O  O51  1  0.11670000  0.62690000  0.62980000  1.0 -0.5302710389
O  O52  1  0.99710000  0.48690000  0.37020000  1.0 -0.5302710389
O  O53  1  0.11670000  0.48690000  0.48980000  1.0 -0.5302710389
O  O54  1  0.99710000  0.62690000  0.51020000  1.0 -0.5302710389
O  O55  1  0.88330000  0.37310000  0.37020000  1.0 -0.5302710389
O  O56  1  0.00290000  0.51310000  0.62980000  1.0 -0.5302710389
