# DDEC6 charges by PACMAN v1.1 (https://github.com/mtap-research/PACMAN-charge/)
data_FUVDEH10_FSR_pacman
_symmetry_space_group_name_H-M   'P 1'
_cell_length_a   18.94640000
_cell_length_b   18.94640000
_cell_length_c   18.94640000
_cell_angle_alpha   91.05230000
_cell_angle_beta   91.05230000
_cell_angle_gamma   164.42300000
_symmetry_Int_Tables_number   1
_chemical_formula_structural   ZnH16C22(NO2)2
_chemical_formula_sum   'Zn4 H64 C88 N8 O16'
_cell_volume   1809.47658852
_cell_formula_units_Z   4
loop_
 _symmetry_equiv_pos_site_id
 _symmetry_equiv_pos_as_xyz
  1  'x, y, z'
loop_
 _atom_site_type_symbol
 _atom_site_label
 _atom_site_symmetry_multiplicity
 _atom_site_fract_x
 _atom_site_fract_y
 _atom_site_fract_z
 _atom_site_occupancy
 _atom_site_charge
Zn  Zn1  1  0.18761000  0.12897000  0.48696000  1.0 0.8391635461
Zn  Zn2  1  0.64201000  0.70065000  0.51304000  1.0 0.8391635461
Zn  Zn3  1  0.29935000  0.81239000  0.94136000  1.0 0.8391635461
Zn  Zn4  1  0.87103000  0.35799000  0.05864000  1.0 0.8391635461
H  H1  1  0.17340000  0.23680000  0.46400000  1.0 0.3578461154
H  H2  1  0.77280000  0.70940000  0.53600000  1.0 0.3578461154
H  H3  1  0.29060000  0.82660000  0.06340000  1.0 0.3578461154
H  H4  1  0.76320000  0.22720000  0.93660000  1.0 0.3578461154
H  H5  1  0.45988000  0.27508000  0.40160000  1.0 0.1025502768
H  H6  1  0.87348000  0.05828000  0.59840000  1.0 0.1025502768
H  H7  1  0.94172000  0.54012000  0.81520000  1.0 0.1025502768
H  H8  1  0.72492000  0.12652000  0.18480000  1.0 0.1025502768
H  H9  1  0.70350000  0.69420000  0.36590000  1.0 0.1387022255
H  H10  1  0.32830000  0.33760000  0.63410000  1.0 0.1387022255
H  H11  1  0.66240000  0.29650000  0.99070000  1.0 0.1387022255
H  H12  1  0.30580000  0.67170000  0.00930000  1.0 0.1387022255
H  H13  1  0.31370000  0.36200000  0.29110000  1.0 0.1211803636
H  H14  1  0.07090000  0.02260000  0.70890000  1.0 0.1211803636
H  H15  1  0.97740000  0.68630000  0.04830000  1.0 0.1211803636
H  H16  1  0.63800000  0.92910000  0.95170000  1.0 0.1211803636
H  H17  1  0.03900000  0.10030000  0.18290000  1.0 0.1025502768
H  H18  1  0.91740000  0.85610000  0.81710000  1.0 0.1025502768
H  H19  1  0.14390000  0.96100000  0.06130000  1.0 0.1025502768
H  H20  1  0.89970000  0.08260000  0.93870000  1.0 0.1025502768
H  H21  1  0.13680000  0.12200000  0.08900000  1.0 0.1025502768
H  H22  1  0.03300000  0.04780000  0.91100000  1.0 0.1025502768
H  H23  1  0.95220000  0.86320000  0.98520000  1.0 0.1025502768
H  H24  1  0.87800000  0.96700000  0.01480000  1.0 0.1095889012
H  H25  1  0.50390000  0.40340000  0.10250000  1.0 0.1095889012
H  H26  1  0.30090000  0.40140000  0.89750000  1.0 0.1095889012
H  H27  1  0.59860000  0.49610000  0.89950000  1.0 0.1095889012
H  H28  1  0.59660000  0.69910000  0.10050000  1.0 0.1095889012
H  H29  1  0.89280000  0.73160000  0.17420000  1.0 0.1211803636
H  H30  1  0.55740000  0.71860000  0.82580000  1.0 0.1211803636
H  H31  1  0.28140000  0.10720000  0.83880000  1.0 0.1211803636
H  H32  1  0.26840000  0.44260000  0.16120000  1.0 0.1211803636
H  H33  1  0.72700000  0.48580000  0.32220000  1.0 0.1095889012
H  H34  1  0.16360000  0.40480000  0.67780000  1.0 0.1095889012
H  H35  1  0.59520000  0.27300000  0.75880000  1.0 0.1095889012
H  H36  1  0.51420000  0.83640000  0.24120000  1.0 0.1095889012
H  H37  1  0.93830000  0.59870000  0.26960000  1.0 0.0884392416
H  H38  1  0.32910000  0.66870000  0.73040000  1.0 0.0884392416
H  H39  1  0.33130000  0.06170000  0.66040000  1.0 0.0884392416
H  H40  1  0.40130000  0.67090000  0.33960000  1.0 0.0884392416
H  H41  1  0.24270000  0.87510000  0.15240000  1.0 0.1095889012
H  H42  1  0.72270000  0.09030000  0.84760000  1.0 0.1095889012
H  H43  1  0.90970000  0.75730000  0.63240000  1.0 0.1095889012
H  H44  1  0.12490000  0.27730000  0.36760000  1.0 0.1095889012
H  H45  1  0.03860000  0.76900000  0.20700000  1.0 0.1025502768
H  H46  1  0.56200000  0.83160000  0.79300000  1.0 0.1025502768
H  H47  1  0.16840000  0.96140000  0.73040000  1.0 0.1025502768
H  H48  1  0.23100000  0.43800000  0.26960000  1.0 0.1025502768
H  H49  1  0.46190000  0.16060000  0.36070000  1.0 0.1095889012
H  H50  1  0.79990000  0.10120000  0.63930000  1.0 0.1095889012
H  H51  1  0.89880000  0.53810000  0.69870000  1.0 0.1095889012
H  H52  1  0.83940000  0.20010000  0.30130000  1.0 0.1095889012
H  H53  1  0.66970000  0.26610000  0.30820000  1.0 0.1025502768
H  H54  1  0.95790000  0.36150000  0.69180000  1.0 0.1025502768
H  H55  1  0.63850000  0.33030000  0.59640000  1.0 0.1025502768
H  H56  1  0.73390000  0.04210000  0.40360000  1.0 0.1025502768
H  H57  1  0.49870000  0.19260000  0.11310000  1.0 0.1095889012
H  H58  1  0.07950000  0.38560000  0.88690000  1.0 0.1095889012
H  H59  1  0.61440000  0.50130000  0.69390000  1.0 0.1095889012
H  H60  1  0.80740000  0.92050000  0.30610000  1.0 0.1095889012
H  H61  1  0.30370000  0.09730000  0.17140000  1.0 0.1095889012
H  H62  1  0.92590000  0.13230000  0.82860000  1.0 0.1095889012
H  H63  1  0.86770000  0.69630000  0.79360000  1.0 0.1095889012
H  H64  1  0.90270000  0.07410000  0.20640000  1.0 0.1095889012
C  C1  1  0.31120000  0.14809000  0.37249000  1.0 0.0846128581
C  C2  1  0.77560000  0.93871000  0.62751000  1.0 0.0846128581
C  C3  1  0.06129000  0.68880000  0.83689000  1.0 0.0846128581
C  C4  1  0.85191000  0.22440000  0.16311000  1.0 0.0846128581
C  C5  1  0.95471000  0.86280000  0.33431000  1.0 0.1387022255
C  C6  1  0.52849000  0.62040000  0.66569000  1.0 0.1387022255
C  C7  1  0.37960000  0.04529000  0.90809000  1.0 0.1387022255
C  C8  1  0.13720000  0.47151000  0.09191000  1.0 0.1387022255
C  C9  1  0.73860000  0.69930000  0.32790000  1.0 -0.2228401074
C  C10  1  0.37140000  0.41070000  0.67210000  1.0 -0.2228401074
C  C11  1  0.58930000  0.26140000  0.96070000  1.0 -0.2228401074
C  C12  1  0.30070000  0.62860000  0.03930000  1.0 -0.2228401074
C  C13  1  0.57450000  0.54210000  0.26280000  1.0 0.0734018428
C  C14  1  0.27930000  0.31170000  0.73720000  1.0 0.0734018428
C  C15  1  0.68830000  0.42550000  0.96760000  1.0 0.0734018428
C  C16  1  0.45790000  0.72070000  0.03240000  1.0 0.0734018428
C  C17  1  0.35280000  0.37130000  0.25330000  1.0 -0.1397323789
C  C18  1  0.11800000  0.09950000  0.74670000  1.0 -0.1397323789
C  C19  1  0.90050000  0.64720000  0.01850000  1.0 -0.1397323789
C  C20  1  0.62870000  0.88200000  0.98150000  1.0 -0.1397323789
C  C21  1  0.18640000  0.21290000  0.18870000  1.0 -0.1229299412
C  C22  1  0.02420000  0.99770000  0.81130000  1.0 -0.1229299412
C  C23  1  0.00230000  0.81360000  0.02650000  1.0 -0.1229299412
C  C24  1  0.78710000  0.97580000  0.97350000  1.0 -0.1229299412
C  C25  1  0.24640000  0.22720000  0.13240000  1.0 -0.1094501534
C  C26  1  0.09480000  0.11400000  0.86760000  1.0 -0.1094501534
C  C27  1  0.88600000  0.75360000  0.98080000  1.0 -0.1094501534
C  C28  1  0.77280000  0.90520000  0.01920000  1.0 -0.1094501534
C  C29  1  0.46660000  0.39580000  0.14060000  1.0 -0.1682930396
C  C30  1  0.25520000  0.32600000  0.85940000  1.0 -0.1682930396
C  C31  1  0.67400000  0.53340000  0.92920000  1.0 -0.1682930396
C  C32  1  0.60420000  0.74480000  0.07080000  1.0 -0.1682930396
C  C33  1  0.63450000  0.55560000  0.20590000  1.0 0.0884392416
C  C34  1  0.34970000  0.42860000  0.79410000  1.0 0.0884392416
C  C35  1  0.57140000  0.36550000  0.92110000  1.0 0.0884392416
C  C36  1  0.44440000  0.65030000  0.07890000  1.0 0.0884392416
C  C37  1  0.85440000  0.72280000  0.21220000  1.0 -0.2625245707
C  C38  1  0.51060000  0.64220000  0.78780000  1.0 -0.2625245707
C  C39  1  0.35780000  0.14560000  0.86840000  1.0 -0.2625245707
C  C40  1  0.27720000  0.48940000  0.13160000  1.0 -0.2625245707
C  C41  1  0.01270000  0.87490000  0.27780000  1.0 0.0884392416
C  C42  1  0.59710000  0.73490000  0.72220000  1.0 0.0884392416
C  C43  1  0.26510000  0.98730000  0.86220000  1.0 0.0884392416
C  C44  1  0.12510000  0.40290000  0.13780000  1.0 0.0884392416
C  C45  1  0.36138000  0.11710000  0.27068000  1.0 0.1095889012
C  C46  1  0.84642000  0.09070000  0.72932000  1.0 0.1095889012
C  C47  1  0.90930000  0.63862000  0.75572000  1.0 0.1095889012
C  C48  1  0.88290000  0.15358000  0.24428000  1.0 0.1095889012
C  C49  1  0.60710000  0.24400000  0.20670000  1.0 0.0096684663
C  C50  1  0.03730000  0.40040000  0.79330000  1.0 0.0096684663
C  C51  1  0.59960000  0.39290000  0.63690000  1.0 0.0096684663
C  C52  1  0.75600000  0.96270000  0.36310000  1.0 0.0096684663
C  C53  1  0.62950000  0.36280000  0.28830000  1.0 -0.0687996627
C  C54  1  0.07450000  0.34120000  0.71170000  1.0 -0.0687996627
C  C55  1  0.65880000  0.37050000  0.73330000  1.0 -0.0687996627
C  C56  1  0.63720000  0.92550000  0.26670000  1.0 -0.0687996627
C  C57  1  0.75760000  0.43210000  0.25730000  1.0 -0.1094501534
C  C58  1  0.17480000  0.50030000  0.74270000  1.0 -0.1094501534
C  C59  1  0.49970000  0.24240000  0.67450000  1.0 -0.1094501534
C  C60  1  0.56790000  0.82520000  0.32550000  1.0 -0.1094501534
C  C61  1  0.33960000  0.99710000  0.18690000  1.0 -0.0687996627
C  C62  1  0.81020000  0.15270000  0.81310000  1.0 -0.0687996627
C  C63  1  0.84730000  0.66040000  0.65750000  1.0 -0.0687996627
C  C64  1  0.00290000  0.18980000  0.34250000  1.0 -0.0687996627
C  C65  1  0.21940000  0.93580000  0.21940000  1.0 -0.0808586435
C  C66  1  0.71640000  0.00000000  0.78060000  1.0 -0.0808586435
C  C67  1  0.00000000  0.78060000  0.71640000  1.0 -0.0808586435
C  C68  1  0.06420000  0.28360000  0.28360000  1.0 -0.0808586435
C  C69  1  0.74620000  0.32010000  0.17030000  1.0 0.4199000416
C  C70  1  0.14980000  0.57590000  0.82970000  1.0 0.4199000416
C  C71  1  0.42410000  0.25380000  0.57390000  1.0 0.4199000416
C  C72  1  0.67990000  0.85020000  0.42610000  1.0 0.4199000416
C  C73  1  0.47070000  0.16830000  0.31200000  1.0 -0.0808586435
C  C74  1  0.85630000  0.15870000  0.68800000  1.0 -0.0808586435
C  C75  1  0.84130000  0.52930000  0.69760000  1.0 -0.0808586435
C  C76  1  0.83170000  0.14370000  0.30240000  1.0 -0.0808586435
C  C77  1  0.59630000  0.23250000  0.28080000  1.0 -0.0584167236
C  C78  1  0.95170000  0.31550000  0.71920000  1.0 -0.0584167236
C  C79  1  0.68450000  0.40370000  0.63620000  1.0 -0.0584167236
C  C80  1  0.76750000  0.04830000  0.36380000  1.0 -0.0584167236
C  C81  1  0.49470000  0.18930000  0.16200000  1.0 -0.0905954553
C  C82  1  0.02730000  0.33270000  0.83800000  1.0 -0.0905954553
C  C83  1  0.66730000  0.50530000  0.69460000  1.0 -0.0905954553
C  C84  1  0.81070000  0.97270000  0.30540000  1.0 -0.0905954553
C  C85  1  0.37740000  0.13070000  0.19810000  1.0 -0.0546915265
C  C86  1  0.93260000  0.17930000  0.80190000  1.0 -0.0546915265
C  C87  1  0.82070000  0.62260000  0.75330000  1.0 -0.0546915265
C  C88  1  0.86930000  0.06740000  0.24670000  1.0 -0.0546915265
N  N1  1  0.14840000  0.03840000  0.39280000  1.0 -0.3630927162
N  N2  1  0.64560000  0.75560000  0.60720000  1.0 -0.3630927162
N  N3  1  0.24440000  0.85160000  0.89000000  1.0 -0.3630927162
N  N4  1  0.96160000  0.35440000  0.11000000  1.0 -0.3630927162
N  N5  1  0.23960000  0.05640000  0.30420000  1.0 -0.1329995649
N  N6  1  0.75220000  0.93540000  0.69580000  1.0 -0.1397323789
N  N7  1  0.06460000  0.76040000  0.81680000  1.0 -0.1397323789
N  N8  1  0.94360000  0.24780000  0.18320000  1.0 -0.1329995649
O  O1  1  0.30650000  0.33810000  0.47380000  1.0 -0.840094264
O  O2  1  0.86430000  0.83270000  0.52620000  1.0 -0.840094264
O  O3  1  0.16730000  0.69350000  0.03160000  1.0 -0.840094264
O  O4  1  0.66190000  0.13570000  0.96840000  1.0 -0.840094264
O  O5  1  0.64890000  0.20512000  0.11042000  1.0 -0.517654355
O  O6  1  0.09470000  0.53848000  0.88958000  1.0 -0.517654355
O  O7  1  0.46152000  0.35110000  0.55622000  1.0 -0.517654355
O  O8  1  0.79488000  0.90530000  0.44378000  1.0 -0.517654355
O  O9  1  0.99950000  0.55520000  0.18670000  1.0 -0.1793073671
O  O10  1  0.36850000  0.81280000  0.81330000  1.0 -0.1793073671
O  O11  1  0.18720000  0.00050000  0.55570000  1.0 -0.1793073671
O  O12  1  0.44480000  0.63150000  0.44430000  1.0 -0.1793073671
O  O13  1  0.87700000  0.40200000  0.21500000  1.0 -0.1793073671
O  O14  1  0.18700000  0.66200000  0.78500000  1.0 -0.1682930396
O  O15  1  0.33800000  0.12300000  0.52500000  1.0 -0.1793073671
O  O16  1  0.59800000  0.81300000  0.47500000  1.0 -0.1793073671
