# DDEC6 charges by PACMAN v1.1 (https://github.com/mtap-research/PACMAN-charge/)
data_FUVDEH11_FSR_pacman
_symmetry_space_group_name_H-M   'P 1'
_cell_length_a   18.85600000
_cell_length_b   18.85600000
_cell_length_c   18.85600000
_cell_angle_alpha   91.04160000
_cell_angle_beta   91.04160000
_cell_angle_gamma   164.50300000
_symmetry_Int_Tables_number   1
_chemical_formula_structural   ZnH16C22(NO2)2
_chemical_formula_sum   'Zn4 H64 C88 N8 O16'
_cell_volume   1774.93193877
_cell_formula_units_Z   4
loop_
 _symmetry_equiv_pos_site_id
 _symmetry_equiv_pos_as_xyz
  1  'x, y, z'
loop_
 _atom_site_type_symbol
 _atom_site_label
 _atom_site_symmetry_multiplicity
 _atom_site_fract_x
 _atom_site_fract_y
 _atom_site_fract_z
 _atom_site_occupancy
 _atom_site_charge
Zn  Zn1  1  0.17168000  0.11276000  0.48764000  1.0 0.8368429859
Zn  Zn2  1  0.62512000  0.68404000  0.51236000  1.0 0.8368429859
Zn  Zn3  1  0.31596000  0.82832000  0.94108000  1.0 0.8368429859
Zn  Zn4  1  0.88724000  0.37488000  0.05892000  1.0 0.8368429859
H  H1  1  0.15700000  0.22090000  0.46250000  1.0 0.3547553439
H  H2  1  0.75840000  0.69450000  0.53750000  1.0 0.3547553439
H  H3  1  0.30550000  0.84300000  0.06390000  1.0 0.3547553439
H  H4  1  0.77910000  0.24160000  0.93610000  1.0 0.3547553439
H  H5  1  0.45200000  0.26610000  0.40550000  1.0 0.0995935333
H  H6  1  0.86060000  0.04650000  0.59450000  1.0 0.0995935333
H  H7  1  0.95350000  0.54800000  0.81410000  1.0 0.0995935333
H  H8  1  0.73390000  0.13940000  0.18590000  1.0 0.0995935333
H  H9  1  0.68640000  0.67410000  0.36590000  1.0 0.1375415829
H  H10  1  0.30820000  0.32050000  0.63410000  1.0 0.1375415829
H  H11  1  0.67950000  0.31360000  0.98770000  1.0 0.1375415829
H  H12  1  0.32590000  0.69180000  0.01230000  1.0 0.1375415829
H  H13  1  0.30440000  0.35030000  0.29130000  1.0 0.1168548037
H  H14  1  0.05900000  0.01310000  0.70870000  1.0 0.1168548037
H  H15  1  0.98690000  0.69560000  0.04590000  1.0 0.1168548037
H  H16  1  0.64970000  0.94100000  0.95410000  1.0 0.1168548037
H  H17  1  0.03100000  0.09280000  0.18320000  1.0 0.0995935333
H  H18  1  0.90960000  0.84780000  0.81680000  1.0 0.0995935333
H  H19  1  0.15220000  0.96900000  0.06180000  1.0 0.0995935333
H  H20  1  0.90720000  0.09040000  0.93820000  1.0 0.0995935333
H  H21  1  0.12830000  0.11680000  0.08650000  1.0 0.1113196759
H  H22  1  0.03030000  0.04180000  0.91350000  1.0 0.1113196759
H  H23  1  0.95820000  0.87170000  0.98850000  1.0 0.1113196759
H  H24  1  0.88320000  0.96970000  0.01150000  1.0 0.1113196759
H  H25  1  0.50040000  0.40260000  0.10100000  1.0 0.1113196759
H  H26  1  0.30160000  0.39940000  0.89900000  1.0 0.1113196759
H  H27  1  0.60060000  0.49960000  0.90220000  1.0 0.1113196759
H  H28  1  0.59740000  0.69840000  0.09780000  1.0 0.1113196759
H  H29  1  0.88710000  0.72730000  0.17380000  1.0 0.1168548037
H  H30  1  0.55350000  0.71330000  0.82620000  1.0 0.1168548037
H  H31  1  0.28670000  0.11290000  0.84020000  1.0 0.1168548037
H  H32  1  0.27270000  0.44650000  0.15980000  1.0 0.1168548037
H  H33  1  0.72800000  0.48640000  0.32760000  1.0 0.1113196759
H  H34  1  0.15880000  0.40040000  0.67240000  1.0 0.1113196759
H  H35  1  0.59960000  0.27200000  0.75840000  1.0 0.1113196759
H  H36  1  0.51360000  0.84120000  0.24160000  1.0 0.1113196759
H  H37  1  0.94570000  0.60590000  0.27400000  1.0 0.0995935333
H  H38  1  0.33190000  0.67170000  0.72600000  1.0 0.0995935333
H  H39  1  0.32830000  0.05430000  0.66020000  1.0 0.0995935333
H  H40  1  0.39410000  0.66810000  0.33980000  1.0 0.0995935333
H  H41  1  0.25320000  0.88970000  0.14950000  1.0 0.1113196759
H  H42  1  0.74020000  0.10370000  0.85050000  1.0 0.1113196759
H  H43  1  0.89630000  0.74680000  0.63650000  1.0 0.1113196759
H  H44  1  0.11030000  0.25980000  0.36350000  1.0 0.1113196759
H  H45  1  0.04330000  0.77770000  0.20500000  1.0 0.0995935333
H  H46  1  0.57270000  0.83830000  0.79500000  1.0 0.0995935333
H  H47  1  0.16170000  0.95670000  0.73440000  1.0 0.0995935333
H  H48  1  0.22230000  0.42730000  0.26560000  1.0 0.0995935333
H  H49  1  0.47720000  0.17660000  0.36180000  1.0 0.1113196759
H  H50  1  0.81480000  0.11540000  0.63820000  1.0 0.1113196759
H  H51  1  0.88460000  0.52280000  0.69940000  1.0 0.1113196759
H  H52  1  0.82340000  0.18520000  0.30060000  1.0 0.1113196759
H  H53  1  0.69390000  0.29230000  0.30880000  1.0 0.1113196759
H  H54  1  0.98350000  0.38510000  0.69120000  1.0 0.1113196759
H  H55  1  0.61490000  0.30610000  0.59840000  1.0 0.1113196759
H  H56  1  0.70770000  0.01650000  0.40160000  1.0 0.1113196759
H  H57  1  0.50070000  0.19660000  0.11230000  1.0 0.1113196759
H  H58  1  0.08430000  0.38840000  0.88770000  1.0 0.1113196759
H  H59  1  0.61160000  0.49930000  0.69590000  1.0 0.1113196759
H  H60  1  0.80340000  0.91570000  0.30410000  1.0 0.1113196759
H  H61  1  0.29430000  0.08850000  0.17160000  1.0 0.1113196759
H  H62  1  0.91690000  0.12270000  0.82840000  1.0 0.1113196759
H  H63  1  0.87730000  0.70570000  0.79420000  1.0 0.1113196759
H  H64  1  0.91150000  0.08310000  0.20580000  1.0 0.1113196759
C  C1  1  0.30380000  0.14010000  0.37590000  1.0 0.0602268652
C  C2  1  0.76420000  0.92790000  0.62410000  1.0 0.0602268652
C  C3  1  0.07210000  0.69620000  0.83630000  1.0 0.0602268652
C  C4  1  0.85990000  0.23580000  0.16370000  1.0 0.0602268652
C  C5  1  0.94810000  0.85420000  0.33570000  1.0 0.132693233
C  C6  1  0.51850000  0.61240000  0.66430000  1.0 0.132693233
C  C7  1  0.38760000  0.05190000  0.90610000  1.0 0.132693233
C  C8  1  0.14580000  0.48150000  0.09390000  1.0 0.132693233
C  C9  1  0.72720000  0.68530000  0.32770000  1.0 -0.2261790763
C  C10  1  0.35760000  0.39950000  0.67230000  1.0 -0.2261790763
C  C11  1  0.60050000  0.27280000  0.95810000  1.0 -0.2261790763
C  C12  1  0.31470000  0.64240000  0.04190000  1.0 -0.2261790763
C  C13  1  0.56800000  0.53350000  0.26210000  1.0 0.0814674057
C  C14  1  0.27140000  0.30590000  0.73790000  1.0 0.0814674057
C  C15  1  0.69410000  0.43200000  0.96550000  1.0 0.0814674057
C  C16  1  0.46650000  0.72860000  0.03450000  1.0 0.0814674057
C  C17  1  0.34500000  0.36180000  0.25280000  1.0 -0.1500864308
C  C18  1  0.10900000  0.09220000  0.74720000  1.0 -0.1500864308
C  C19  1  0.90780000  0.65500000  0.01680000  1.0 -0.1500864308
C  C20  1  0.63820000  0.89100000  0.98320000  1.0 -0.1500864308
C  C21  1  0.17870000  0.20530000  0.18800000  1.0 -0.1192576903
C  C22  1  0.01730000  0.99070000  0.81200000  1.0 -0.1192576903
C  C23  1  0.00930000  0.82130000  0.02660000  1.0 -0.1192576903
C  C24  1  0.79470000  0.98270000  0.97340000  1.0 -0.1192576903
C  C25  1  0.23770000  0.22070000  0.13040000  1.0 -0.1102658871
C  C26  1  0.09030000  0.10730000  0.86960000  1.0 -0.1102658871
C  C27  1  0.89270000  0.76230000  0.98300000  1.0 -0.1102658871
C  C28  1  0.77930000  0.90970000  0.01700000  1.0 -0.1102658871
C  C29  1  0.46000000  0.39140000  0.13940000  1.0 -0.1635614465
C  C30  1  0.25200000  0.32060000  0.86060000  1.0 -0.1635614465
C  C31  1  0.67940000  0.54000000  0.93140000  1.0 -0.1635614465
C  C32  1  0.60860000  0.74800000  0.06860000  1.0 -0.1635614465
C  C33  1  0.62590000  0.54790000  0.20440000  1.0 0.0814674057
C  C34  1  0.34350000  0.42150000  0.79560000  1.0 0.0814674057
C  C35  1  0.57850000  0.37410000  0.92200000  1.0 0.0814674057
C  C36  1  0.45210000  0.65650000  0.07800000  1.0 0.0814674057
C  C37  1  0.84750000  0.71760000  0.21170000  1.0 -0.269963352
C  C38  1  0.50590000  0.63580000  0.78830000  1.0 -0.269963352
C  C39  1  0.36420000  0.15250000  0.87010000  1.0 -0.269963352
C  C40  1  0.28240000  0.49410000  0.12990000  1.0 -0.269963352
C  C41  1  0.00850000  0.87270000  0.27720000  1.0 0.0814674057
C  C42  1  0.59550000  0.73130000  0.72280000  1.0 0.0814674057
C  C43  1  0.26870000  0.99150000  0.86420000  1.0 0.0814674057
C  C44  1  0.12730000  0.40450000  0.13580000  1.0 0.0814674057
C  C45  1  0.36360000  0.12000000  0.27160000  1.0 0.0995935333
C  C46  1  0.84840000  0.09200000  0.72840000  1.0 0.0995935333
C  C47  1  0.90800000  0.63640000  0.75640000  1.0 0.0995935333
C  C48  1  0.88000000  0.15160000  0.24360000  1.0 0.0995935333
C  C49  1  0.61670000  0.25660000  0.20730000  1.0 -0.000640013
C  C50  1  0.04930000  0.40940000  0.79270000  1.0 -0.000640013
C  C51  1  0.59060000  0.38330000  0.63990000  1.0 -0.000640013
C  C52  1  0.74340000  0.95070000  0.36010000  1.0 -0.000640013
C  C53  1  0.63310000  0.36680000  0.29190000  1.0 -0.0681326081
C  C54  1  0.07490000  0.34120000  0.70810000  1.0 -0.0681326081
C  C55  1  0.65880000  0.36690000  0.73370000  1.0 -0.0681326081
C  C56  1  0.63320000  0.92510000  0.26630000  1.0 -0.0681326081
C  C57  1  0.76450000  0.43980000  0.26030000  1.0 -0.1102658871
C  C58  1  0.17950000  0.50420000  0.73970000  1.0 -0.1102658871
C  C59  1  0.49580000  0.23550000  0.67530000  1.0 -0.1102658871
C  C60  1  0.56020000  0.82050000  0.32470000  1.0 -0.1102658871
C  C61  1  0.34830000  0.00920000  0.18550000  1.0 -0.0681326081
C  C62  1  0.82370000  0.16280000  0.81450000  1.0 -0.0681326081
C  C63  1  0.83720000  0.65170000  0.66090000  1.0 -0.0681326081
C  C64  1  0.99080000  0.17630000  0.33910000  1.0 -0.0681326081
C  C65  1  0.22460000  0.94400000  0.21860000  1.0 -0.0836933981
C  C66  1  0.72540000  0.00600000  0.78140000  1.0 -0.0836933981
C  C67  1  0.99400000  0.77540000  0.71940000  1.0 -0.0836933981
C  C68  1  0.05600000  0.27460000  0.28060000  1.0 -0.0836933981
C  C69  1  0.75460000  0.33040000  0.17100000  1.0 0.4119804521
C  C70  1  0.15940000  0.58360000  0.82900000  1.0 0.4119804521
C  C71  1  0.41640000  0.24540000  0.57580000  1.0 0.4119804521
C  C72  1  0.66960000  0.84060000  0.42420000  1.0 0.4119804521
C  C73  1  0.48310000  0.18160000  0.31270000  1.0 -0.0681326081
C  C74  1  0.86890000  0.17040000  0.68730000  1.0 -0.0681326081
C  C75  1  0.82960000  0.51690000  0.69850000  1.0 -0.0681326081
C  C76  1  0.81840000  0.13110000  0.30150000  1.0 -0.0681326081
C  C77  1  0.61270000  0.25070000  0.28140000  1.0 -0.0681326081
C  C78  1  0.96930000  0.33130000  0.71860000  1.0 -0.0681326081
C  C79  1  0.66870000  0.38730000  0.63800000  1.0 -0.0681326081
C  C80  1  0.74930000  0.03070000  0.36200000  1.0 -0.0681326081
C  C81  1  0.49750000  0.19400000  0.16150000  1.0 -0.0882285683
C  C82  1  0.03250000  0.33600000  0.83850000  1.0 -0.0882285683
C  C83  1  0.66400000  0.50250000  0.69650000  1.0 -0.0882285683
C  C84  1  0.80600000  0.96750000  0.30350000  1.0 -0.0882285683
C  C85  1  0.37500000  0.12920000  0.19820000  1.0 -0.0538706239
C  C86  1  0.93100000  0.17680000  0.80180000  1.0 -0.0538706239
C  C87  1  0.82320000  0.62500000  0.75420000  1.0 -0.0538706239
C  C88  1  0.87080000  0.06900000  0.24580000  1.0 -0.0538706239
N  N1  1  0.13420000  0.02310000  0.39530000  1.0 -0.3552203308
N  N2  1  0.62780000  0.73890000  0.60470000  1.0 -0.3552203308
N  N3  1  0.26110000  0.86580000  0.88890000  1.0 -0.3552203308
N  N4  1  0.97690000  0.37220000  0.11110000  1.0 -0.3552203308
N  N5  1  0.23360000  0.05210000  0.30650000  1.0 -0.1329404096
N  N6  1  0.74560000  0.92710000  0.69350000  1.0 -0.1355469257
N  N7  1  0.07290000  0.76640000  0.81850000  1.0 -0.1355469257
N  N8  1  0.94790000  0.25440000  0.18150000  1.0 -0.1355469257
O  O1  1  0.29090000  0.32280000  0.47230000  1.0 -0.8409251551
O  O2  1  0.85050000  0.81860000  0.52770000  1.0 -0.8409251551
O  O3  1  0.18140000  0.70910000  0.03190000  1.0 -0.8409251551
O  O4  1  0.67720000  0.14950000  0.96810000  1.0 -0.8409251551
O  O5  1  0.66440000  0.22210000  0.11050000  1.0 -0.4966768528
O  O6  1  0.11160000  0.55390000  0.88950000  1.0 -0.4966768528
O  O7  1  0.44610000  0.33560000  0.55770000  1.0 -0.4966768528
O  O8  1  0.77790000  0.88840000  0.44230000  1.0 -0.4966768528
O  O9  1  0.01230000  0.57100000  0.19130000  1.0 -0.2096551302
O  O10  1  0.37970000  0.82100000  0.80870000  1.0 -0.2096551302
O  O11  1  0.17900000  0.98770000  0.55870000  1.0 -0.2096551302
O  O12  1  0.42900000  0.62030000  0.44130000  1.0 -0.2096551302
O  O13  1  0.87670000  0.40240000  0.21110000  1.0 -0.1102658871
O  O14  1  0.19130000  0.66560000  0.78890000  1.0 -0.1102658871
O  O15  1  0.33440000  0.12330000  0.52570000  1.0 -0.1192576903
O  O16  1  0.59760000  0.80870000  0.47430000  1.0 -0.1192576903
