# DDEC6 charges by PACMAN v1.1 (https://github.com/mtap-research/PACMAN-charge/)
data_FUVDEH_ASR_pacman
_symmetry_space_group_name_H-M   'P 1'
_cell_length_a   19.00630000
_cell_length_b   19.00630000
_cell_length_c   19.00630000
_cell_angle_alpha   91.04380000
_cell_angle_beta   91.04380000
_cell_angle_gamma   164.48600000
_symmetry_Int_Tables_number   1
_chemical_formula_structural   ZnH16C22(NO2)2
_chemical_formula_sum   'Zn4 H64 C88 N8 O16'
_cell_volume   1819.62543281
_cell_formula_units_Z   4
loop_
 _symmetry_equiv_pos_site_id
 _symmetry_equiv_pos_as_xyz
  1  'x, y, z'
loop_
 _atom_site_type_symbol
 _atom_site_label
 _atom_site_symmetry_multiplicity
 _atom_site_fract_x
 _atom_site_fract_y
 _atom_site_fract_z
 _atom_site_occupancy
 _atom_site_charge
Zn  Zn1  1  0.18777000  0.12903000  0.48700000  1.0 0.8548269101
Zn  Zn2  1  0.64203000  0.70077000  0.51300000  1.0 0.8548269101
Zn  Zn3  1  0.29923000  0.81223000  0.94126000  1.0 0.8548269101
Zn  Zn4  1  0.87097000  0.35797000  0.05874000  1.0 0.8548269101
H  H1  1  0.17600000  0.23990000  0.46470000  1.0 0.3638566264
H  H2  1  0.77520000  0.71130000  0.53530000  1.0 0.3638566264
H  H3  1  0.28870000  0.82400000  0.06390000  1.0 0.3638566264
H  H4  1  0.76010000  0.22480000  0.93610000  1.0 0.3638566264
H  H5  1  0.45940000  0.27270000  0.39990000  1.0 0.1015373111
H  H6  1  0.87280000  0.05950000  0.60010000  1.0 0.1015373111
H  H7  1  0.94050000  0.54060000  0.81330000  1.0 0.1015373111
H  H8  1  0.72730000  0.12720000  0.18670000  1.0 0.1015373111
H  H9  1  0.69360000  0.68260000  0.36540000  1.0 0.1417493947
H  H10  1  0.31720000  0.32820000  0.63460000  1.0 0.1417493947
H  H11  1  0.67180000  0.30640000  0.98900000  1.0 0.1417493947
H  H12  1  0.31740000  0.68280000  0.01100000  1.0 0.1417493947
H  H13  1  0.31930000  0.36530000  0.29460000  1.0 0.1192408704
H  H14  1  0.07070000  0.02470000  0.70540000  1.0 0.1192408704
H  H15  1  0.97530000  0.68070000  0.04600000  1.0 0.1192408704
H  H16  1  0.63470000  0.92930000  0.95400000  1.0 0.1192408704
H  H17  1  0.03430000  0.09560000  0.18730000  1.0 0.1015373111
H  H18  1  0.90830000  0.84700000  0.81270000  1.0 0.1015373111
H  H19  1  0.15300000  0.96570000  0.06130000  1.0 0.1015373111
H  H20  1  0.90440000  0.09170000  0.93870000  1.0 0.1015373111
H  H21  1  0.13360000  0.11990000  0.09290000  1.0 0.1087298931
H  H22  1  0.02700000  0.04070000  0.90710000  1.0 0.1087298931
H  H23  1  0.95930000  0.86640000  0.98630000  1.0 0.1087298931
H  H24  1  0.88010000  0.97300000  0.01370000  1.0 0.1087298931
H  H25  1  0.49950000  0.39990000  0.10500000  1.0 0.1192408704
H  H26  1  0.29490000  0.39450000  0.89500000  1.0 0.1192408704
H  H27  1  0.60550000  0.50050000  0.90040000  1.0 0.1192408704
H  H28  1  0.60010000  0.70510000  0.09960000  1.0 0.1192408704
H  H29  1  0.89450000  0.73290000  0.17640000  1.0 0.1192408704
H  H30  1  0.55650000  0.71810000  0.82360000  1.0 0.1192408704
H  H31  1  0.28190000  0.10550000  0.83840000  1.0 0.1192408704
H  H32  1  0.26710000  0.44350000  0.16160000  1.0 0.1192408704
H  H33  1  0.72560000  0.48400000  0.32340000  1.0 0.1087298931
H  H34  1  0.16060000  0.40220000  0.67660000  1.0 0.1087298931
H  H35  1  0.59780000  0.27440000  0.75840000  1.0 0.1087298931
H  H36  1  0.51600000  0.83940000  0.24160000  1.0 0.1087298931
H  H37  1  0.93810000  0.59720000  0.27290000  1.0 0.1015373111
H  H38  1  0.32430000  0.66520000  0.72710000  1.0 0.1015373111
H  H39  1  0.33480000  0.06190000  0.65910000  1.0 0.1015373111
H  H40  1  0.40280000  0.67570000  0.34090000  1.0 0.1015373111
H  H41  1  0.24550000  0.87530000  0.15560000  1.0 0.1192408704
H  H42  1  0.71970000  0.08990000  0.84440000  1.0 0.1192408704
H  H43  1  0.91010000  0.75450000  0.62980000  1.0 0.1192408704
H  H44  1  0.12470000  0.28030000  0.37020000  1.0 0.1192408704
H  H45  1  0.04010000  0.76990000  0.20720000  1.0 0.1015373111
H  H46  1  0.56270000  0.83290000  0.79280000  1.0 0.1015373111
H  H47  1  0.16710000  0.95990000  0.72980000  1.0 0.1015373111
H  H48  1  0.23010000  0.43730000  0.27020000  1.0 0.1015373111
H  H49  1  0.46130000  0.15920000  0.36110000  1.0 0.1192408704
H  H50  1  0.79810000  0.10020000  0.63890000  1.0 0.1192408704
H  H51  1  0.89980000  0.53870000  0.69790000  1.0 0.1192408704
H  H52  1  0.84080000  0.20190000  0.30210000  1.0 0.1192408704
H  H53  1  0.67320000  0.26900000  0.31080000  1.0 0.1087298931
H  H54  1  0.95820000  0.36240000  0.68920000  1.0 0.1087298931
H  H55  1  0.63760000  0.32680000  0.59580000  1.0 0.1087298931
H  H56  1  0.73100000  0.04180000  0.40420000  1.0 0.1087298931
H  H57  1  0.50950000  0.20020000  0.11470000  1.0 0.1087298931
H  H58  1  0.08550000  0.39480000  0.88530000  1.0 0.1087298931
H  H59  1  0.60520000  0.49050000  0.69070000  1.0 0.1087298931
H  H60  1  0.79980000  0.91450000  0.30930000  1.0 0.1087298931
H  H61  1  0.30600000  0.09590000  0.17090000  1.0 0.1087298931
H  H62  1  0.92500000  0.13510000  0.82910000  1.0 0.1087298931
H  H63  1  0.86490000  0.69400000  0.78990000  1.0 0.1087298931
H  H64  1  0.90410000  0.07500000  0.21010000  1.0 0.1087298931
C  C1  1  0.31000000  0.14610000  0.37210000  1.0 0.1316085063
C  C2  1  0.77400000  0.93790000  0.62790000  1.0 0.1316085063
C  C3  1  0.06210000  0.69000000  0.83610000  1.0 0.1316085063
C  C4  1  0.85390000  0.22600000  0.16390000  1.0 0.1316085063
C  C5  1  0.95270000  0.86050000  0.33580000  1.0 0.1192408704
C  C6  1  0.52470000  0.61690000  0.66420000  1.0 0.1192408704
C  C7  1  0.38310000  0.04730000  0.90780000  1.0 0.1192408704
C  C8  1  0.13950000  0.47530000  0.09220000  1.0 0.1192408704
C  C9  1  0.73290000  0.69200000  0.32790000  1.0 -0.196898999
C  C10  1  0.36410000  0.40500000  0.67210000  1.0 -0.196898999
C  C11  1  0.59500000  0.26710000  0.95910000  1.0 -0.196898999
C  C12  1  0.30800000  0.63590000  0.04090000  1.0 -0.196898999
C  C13  1  0.57230000  0.53760000  0.26310000  1.0 0.0704238654
C  C14  1  0.27450000  0.30920000  0.73690000  1.0 0.0704238654
C  C15  1  0.69080000  0.42770000  0.96530000  1.0 0.0704238654
C  C16  1  0.46240000  0.72550000  0.03470000  1.0 0.0704238654
C  C17  1  0.35330000  0.37030000  0.25600000  1.0 -0.1367501787
C  C18  1  0.11430000  0.09730000  0.74400000  1.0 -0.1367501787
C  C19  1  0.90270000  0.64670000  0.01700000  1.0 -0.1367501787
C  C20  1  0.62970000  0.88570000  0.98300000  1.0 -0.1367501787
C  C21  1  0.18180000  0.20840000  0.19220000  1.0 -0.1172887631
C  C22  1  0.01620000  0.98960000  0.80780000  1.0 -0.1172887631
C  C23  1  0.01040000  0.81820000  0.02660000  1.0 -0.1172887631
C  C24  1  0.79160000  0.98380000  0.97340000  1.0 -0.1172887631
C  C25  1  0.24330000  0.22470000  0.13620000  1.0 -0.1143165308
C  C26  1  0.08850000  0.10710000  0.86380000  1.0 -0.1143165308
C  C27  1  0.89290000  0.75670000  0.98140000  1.0 -0.1143165308
C  C28  1  0.77530000  0.91150000  0.01860000  1.0 -0.1143165308
C  C29  1  0.46400000  0.39350000  0.14350000  1.0 -0.1615874938
C  C30  1  0.25000000  0.32050000  0.85650000  1.0 -0.1615874938
C  C31  1  0.67950000  0.53600000  0.92950000  1.0 -0.1615874938
C  C32  1  0.60650000  0.75000000  0.07050000  1.0 -0.1615874938
C  C33  1  0.63340000  0.55360000  0.20720000  1.0 0.0807391681
C  C34  1  0.34640000  0.42620000  0.79280000  1.0 0.0807391681
C  C35  1  0.57380000  0.36660000  0.92020000  1.0 0.0807391681
C  C36  1  0.44640000  0.65360000  0.07980000  1.0 0.0807391681
C  C37  1  0.85440000  0.72260000  0.21400000  1.0 -0.2580811701
C  C38  1  0.50860000  0.64040000  0.78600000  1.0 -0.2580811701
C  C39  1  0.35960000  0.14560000  0.86820000  1.0 -0.2580811701
C  C40  1  0.27740000  0.49140000  0.13180000  1.0 -0.2580811701
C  C41  1  0.01200000  0.87480000  0.27980000  1.0 0.1015373111
C  C42  1  0.59500000  0.73220000  0.72020000  1.0 0.1015373111
C  C43  1  0.26780000  0.98800000  0.86280000  1.0 0.1015373111
C  C44  1  0.12520000  0.40500000  0.13720000  1.0 0.1015373111
C  C45  1  0.36110000  0.11560000  0.27070000  1.0 0.1087298931
C  C46  1  0.84490000  0.09040000  0.72930000  1.0 0.1087298931
C  C47  1  0.90960000  0.63890000  0.75450000  1.0 0.1087298931
C  C48  1  0.88440000  0.15510000  0.24550000  1.0 0.1087298931
C  C49  1  0.60780000  0.24400000  0.20980000  1.0 0.0107148186
C  C50  1  0.03420000  0.39800000  0.79020000  1.0 0.0107148186
C  C51  1  0.60200000  0.39220000  0.63620000  1.0 0.0107148186
C  C52  1  0.75600000  0.96580000  0.36380000  1.0 0.0107148186
C  C53  1  0.62960000  0.36200000  0.28960000  1.0 -0.0779505021
C  C54  1  0.07240000  0.34000000  0.71040000  1.0 -0.0779505021
C  C55  1  0.66000000  0.37040000  0.73240000  1.0 -0.0779505021
C  C56  1  0.63800000  0.92760000  0.26760000  1.0 -0.0779505021
C  C57  1  0.75720000  0.43070000  0.25990000  1.0 -0.0914042707
C  C58  1  0.17080000  0.49730000  0.74010000  1.0 -0.0914042707
C  C59  1  0.50270000  0.24280000  0.67350000  1.0 -0.0914042707
C  C60  1  0.56930000  0.82920000  0.32650000  1.0 -0.0914042707
C  C61  1  0.34070000  0.99650000  0.18920000  1.0 -0.0526241859
C  C62  1  0.80730000  0.15150000  0.81080000  1.0 -0.0526241859
C  C63  1  0.84850000  0.65930000  0.65580000  1.0 -0.0526241859
C  C64  1  0.00350000  0.19270000  0.34420000  1.0 -0.0526241859
C  C65  1  0.22050000  0.93590000  0.22040000  1.0 -0.0914042707
C  C66  1  0.71550000  0.00010000  0.77960000  1.0 -0.0914042707
C  C67  1  0.99990000  0.77950000  0.71540000  1.0 -0.0914042707
C  C68  1  0.06410000  0.28450000  0.28460000  1.0 -0.0914042707
C  C69  1  0.73510000  0.30790000  0.17100000  1.0 0.4534094163
C  C70  1  0.13690000  0.56410000  0.82900000  1.0 0.4534094163
C  C71  1  0.43590000  0.26490000  0.57280000  1.0 0.4534094163
C  C72  1  0.69210000  0.86310000  0.42720000  1.0 0.4534094163
C  C73  1  0.47210000  0.16840000  0.31250000  1.0 -0.0694960639
C  C74  1  0.85590000  0.15960000  0.68750000  1.0 -0.0694960639
C  C75  1  0.84040000  0.52790000  0.69630000  1.0 -0.0694960639
C  C76  1  0.83160000  0.14410000  0.30370000  1.0 -0.0694960639
C  C77  1  0.59900000  0.23410000  0.28310000  1.0 -0.0586924258
C  C78  1  0.95100000  0.31590000  0.71690000  1.0 -0.0586924258
C  C79  1  0.68410000  0.40100000  0.63510000  1.0 -0.0586924258
C  C80  1  0.76590000  0.04900000  0.36490000  1.0 -0.0586924258
C  C81  1  0.50160000  0.19370000  0.16330000  1.0 -0.0987008795
C  C82  1  0.03040000  0.33830000  0.83670000  1.0 -0.0987008795
C  C83  1  0.66170000  0.49840000  0.69210000  1.0 -0.0987008795
C  C84  1  0.80630000  0.96960000  0.30790000  1.0 -0.0987008795
C  C85  1  0.38000000  0.13040000  0.19840000  1.0 -0.0526241859
C  C86  1  0.93200000  0.18160000  0.80160000  1.0 -0.0526241859
C  C87  1  0.81840000  0.62000000  0.75040000  1.0 -0.0526241859
C  C88  1  0.86960000  0.06800000  0.24960000  1.0 -0.0526241859
N  N1  1  0.15510000  0.04350000  0.39660000  1.0 -0.3792518996
N  N2  1  0.64690000  0.75850000  0.60340000  1.0 -0.3792518996
N  N3  1  0.24150000  0.84490000  0.88840000  1.0 -0.3792518996
N  N4  1  0.95650000  0.35310000  0.11160000  1.0 -0.3792518996
N  N5  1  0.24020000  0.05730000  0.30370000  1.0 -0.1615874938
N  N6  1  0.75360000  0.93650000  0.69630000  1.0 -0.1615874938
N  N7  1  0.06350000  0.75980000  0.81710000  1.0 -0.1615874938
N  N8  1  0.94270000  0.24640000  0.18290000  1.0 -0.1615874938
O  O1  1  0.30910000  0.34130000  0.47440000  1.0 -0.8372667901
O  O2  1  0.86690000  0.83470000  0.52560000  1.0 -0.8372667901
O  O3  1  0.16530000  0.69090000  0.03220000  1.0 -0.8372667901
O  O4  1  0.65870000  0.13310000  0.96780000  1.0 -0.8372667901
O  O5  1  0.64630000  0.20280000  0.10910000  1.0 -0.5277196042
O  O6  1  0.09370000  0.53720000  0.89090000  1.0 -0.5277196042
O  O7  1  0.46280000  0.35370000  0.55650000  1.0 -0.5277196042
O  O8  1  0.79720000  0.90630000  0.44350000  1.0 -0.5277196042
O  O9  1  0.98590000  0.53440000  0.19030000  1.0 -0.2580811701
O  O10  1  0.34410000  0.79560000  0.80970000  1.0 -0.2580811701
O  O11  1  0.20440000  0.01410000  0.54850000  1.0 -0.2580811701
O  O12  1  0.46560000  0.65590000  0.45150000  1.0 -0.2580811701
O  O13  1  0.81530000  0.33690000  0.21820000  1.0 -0.2411129646
O  O14  1  0.11870000  0.59710000  0.78180000  1.0 -0.2411129646
O  O15  1  0.40290000  0.18470000  0.52160000  1.0 -0.2411129646
O  O16  1  0.66310000  0.88130000  0.47840000  1.0 -0.2411129646
