# DDEC6 charges by PACMAN v1.1 (https://github.com/mtap-research/PACMAN-charge/)
data_FUVDEH08_FSR_pacman
_symmetry_space_group_name_H-M   'P 1'
_cell_length_a   19.70400000
_cell_length_b   19.70400000
_cell_length_c   19.70400000
_cell_angle_alpha   90.48680000
_cell_angle_beta   90.48680000
_cell_angle_gamma   169.42300000
_symmetry_Int_Tables_number   1
_chemical_formula_structural   ZnH12C18(NO2)2
_chemical_formula_sum   'Zn4 H48 C72 N8 O16'
_cell_volume   1398.23646325
_cell_formula_units_Z   4
loop_
 _symmetry_equiv_pos_site_id
 _symmetry_equiv_pos_as_xyz
  1  'x, y, z'
loop_
 _atom_site_type_symbol
 _atom_site_label
 _atom_site_symmetry_multiplicity
 _atom_site_fract_x
 _atom_site_fract_y
 _atom_site_fract_z
 _atom_site_occupancy
 _atom_site_charge
Zn  Zn1  1  0.14134000  0.07122000  0.49796000  1.0 0.8043534991
Zn  Zn2  1  0.57326000  0.64338000  0.50204000  1.0 0.8043534991
Zn  Zn3  1  0.35662000  0.85866000  0.92988000  1.0 0.8043534991
Zn  Zn4  1  0.92878000  0.42674000  0.07012000  1.0 0.8043534991
H  H1  1  0.36850000  0.16900000  0.42030000  1.0 0.1095413135
H  H2  1  0.74870000  0.94820000  0.57970000  1.0 0.1095413135
H  H3  1  0.05180000  0.63150000  0.80050000  1.0 0.1095413135
H  H4  1  0.83100000  0.25130000  0.19950000  1.0 0.1095413135
H  H5  1  0.59380000  0.59710000  0.36730000  1.0 0.1394867368
H  H6  1  0.22980000  0.22650000  0.63270000  1.0 0.1394867368
H  H7  1  0.77350000  0.40620000  0.00330000  1.0 0.1394867368
H  H8  1  0.40290000  0.77020000  0.99670000  1.0 0.1394867368
H  H9  1  0.22130000  0.29920000  0.28470000  1.0 0.1095413135
H  H10  1  0.01450000  0.93660000  0.71530000  1.0 0.1095413135
H  H11  1  0.06340000  0.77870000  0.07790000  1.0 0.1095413135
H  H12  1  0.70080000  0.98550000  0.92210000  1.0 0.1095413135
H  H13  1  0.98000000  0.08420000  0.17460000  1.0 0.1005553298
H  H14  1  0.90960000  0.80540000  0.82540000  1.0 0.1005553298
H  H15  1  0.19460000  0.02000000  0.10420000  1.0 0.1005553298
H  H16  1  0.91580000  0.09040000  0.89580000  1.0 0.1005553298
H  H17  1  0.13330000  0.16220000  0.08750000  1.0 0.1095413135
H  H18  1  0.07470000  0.04580000  0.91250000  1.0 0.1095413135
H  H19  1  0.95420000  0.86670000  0.02890000  1.0 0.1095413135
H  H20  1  0.83780000  0.92530000  0.97110000  1.0 0.1095413135
H  H21  1  0.50700000  0.43710000  0.11230000  1.0 0.1095413135
H  H22  1  0.32480000  0.39470000  0.88770000  1.0 0.1095413135
H  H23  1  0.60530000  0.49300000  0.93010000  1.0 0.1095413135
H  H24  1  0.56290000  0.67520000  0.06990000  1.0 0.1095413135
H  H25  1  0.87540000  0.73000000  0.19080000  1.0 0.1194292951
H  H26  1  0.53920000  0.68460000  0.80920000  1.0 0.1194292951
H  H27  1  0.31540000  0.12460000  0.85460000  1.0 0.1194292951
H  H28  1  0.27000000  0.46080000  0.14540000  1.0 0.1194292951
H  H29  1  0.61550000  0.31900000  0.14570000  1.0 0.1095413135
H  H30  1  0.17330000  0.46980000  0.85430000  1.0 0.1095413135
H  H31  1  0.53020000  0.38450000  0.70350000  1.0 0.1095413135
H  H32  1  0.68100000  0.82670000  0.29650000  1.0 0.1095413135
H  H33  1  0.54880000  0.14070000  0.31310000  1.0 0.1194292951
H  H34  1  0.82760000  0.23570000  0.68690000  1.0 0.1194292951
H  H35  1  0.76430000  0.45120000  0.59190000  1.0 0.1194292951
H  H36  1  0.85930000  0.17240000  0.40810000  1.0 0.1194292951
H  H37  1  0.31230000  0.00090000  0.36840000  1.0 0.1336452637
H  H38  1  0.63250000  0.94390000  0.63160000  1.0 0.1336452637
H  H39  1  0.05610000  0.68770000  0.68860000  1.0 0.1336452637
H  H40  1  0.99910000  0.36750000  0.31140000  1.0 0.1336452637
H  H41  1  0.37900000  0.17910000  0.20090000  1.0 0.1095413135
H  H42  1  0.97820000  0.17810000  0.79910000  1.0 0.1095413135
H  H43  1  0.82190000  0.62100000  0.80010000  1.0 0.1095413135
H  H44  1  0.82090000  0.02180000  0.19990000  1.0 0.1095413135
H  H45  1  0.55230000  0.47870000  0.54300000  1.0 0.2960762169
H  H46  1  0.93570000  0.00930000  0.45700000  1.0 0.2960762169
H  H47  1  0.99070000  0.44770000  0.92640000  1.0 0.2960762169
H  H48  1  0.52130000  0.06430000  0.07360000  1.0 0.2960762169
C  C1  1  0.22590000  0.05450000  0.38840000  1.0 0.1095413135
C  C2  1  0.66610000  0.83750000  0.61160000  1.0 0.1095413135
C  C3  1  0.16250000  0.77410000  0.82860000  1.0 0.1095413135
C  C4  1  0.94550000  0.33390000  0.17140000  1.0 0.1095413135
C  C5  1  0.87200000  0.78570000  0.34430000  1.0 0.1394867368
C  C6  1  0.44140000  0.52770000  0.65570000  1.0 0.1394867368
C  C7  1  0.47230000  0.12800000  0.91370000  1.0 0.1394867368
C  C8  1  0.21430000  0.55860000  0.08630000  1.0 0.1394867368
C  C9  1  0.64800000  0.62180000  0.33180000  1.0 -0.2052393917
C  C10  1  0.29000000  0.31620000  0.66820000  1.0 -0.2052393917
C  C11  1  0.68380000  0.35200000  0.97380000  1.0 -0.2052393917
C  C12  1  0.37820000  0.71000000  0.02620000  1.0 -0.2052393917
C  C13  1  0.50730000  0.49650000  0.26560000  1.0 0.0814649996
C  C14  1  0.23090000  0.24170000  0.73440000  1.0 0.0814649996
C  C15  1  0.75830000  0.49270000  0.98920000  1.0 0.0814649996
C  C16  1  0.50350000  0.76910000  0.01080000  1.0 0.0814649996
C  C17  1  0.27880000  0.32690000  0.24970000  1.0 -0.1338894579
C  C18  1  0.07720000  0.02910000  0.75030000  1.0 -0.1338894579
C  C19  1  0.97090000  0.72120000  0.04810000  1.0 -0.1338894579
C  C20  1  0.67310000  0.92280000  0.95190000  1.0 -0.1338894579
C  C21  1  0.13380000  0.19810000  0.18390000  1.0 -0.1037855584
C  C22  1  0.01420000  0.94990000  0.81610000  1.0 -0.1037855584
C  C23  1  0.05010000  0.86620000  0.06430000  1.0 -0.1037855584
C  C24  1  0.80190000  0.98580000  0.93570000  1.0 -0.1037855584
C  C25  1  0.22450000  0.24380000  0.13230000  1.0 -0.1120515156
C  C26  1  0.11150000  0.09220000  0.86770000  1.0 -0.1120515156
C  C27  1  0.90780000  0.77550000  0.01930000  1.0 -0.1120515156
C  C28  1  0.75620000  0.88850000  0.98070000  1.0 -0.1120515156
C  C29  1  0.45070000  0.41070000  0.14740000  1.0 -0.1532637689
C  C30  1  0.26330000  0.30330000  0.85260000  1.0 -0.1532637689
C  C31  1  0.69670000  0.54930000  0.96000000  1.0 -0.1532637689
C  C32  1  0.58930000  0.73670000  0.04000000  1.0 -0.1532637689
C  C33  1  0.59680000  0.54060000  0.21380000  1.0 0.0814649996
C  C34  1  0.32680000  0.38300000  0.78620000  1.0 0.0814649996
C  C35  1  0.61700000  0.40320000  0.94380000  1.0 0.0814649996
C  C36  1  0.45940000  0.67320000  0.05620000  1.0 0.0814649996
C  C37  1  0.82010000  0.70420000  0.22630000  1.0 -0.22464783
C  C38  1  0.47790000  0.59380000  0.77370000  1.0 -0.22464783
C  C39  1  0.40620000  0.17990000  0.88410000  1.0 -0.22464783
C  C40  1  0.29580000  0.52210000  0.11590000  1.0 -0.22464783
C  C41  1  0.95980000  0.82850000  0.29230000  1.0 0.0727911975
C  C42  1  0.53620000  0.66750000  0.70770000  1.0 0.0727911975
C  C43  1  0.33250000  0.04020000  0.86870000  1.0 0.0727911975
C  C44  1  0.17150000  0.46380000  0.13130000  1.0 0.0727911975
C  C45  1  0.55490000  0.25540000  0.19030000  1.0 -0.0909737561
C  C46  1  0.06510000  0.36460000  0.80970000  1.0 -0.0909737561
C  C47  1  0.63540000  0.44510000  0.70050000  1.0 -0.0909737561
C  C48  1  0.74460000  0.93490000  0.29950000  1.0 -0.0909737561
C  C49  1  0.60590000  0.24400000  0.22390000  1.0 -0.0279050402
C  C50  1  0.02010000  0.38200000  0.77610000  1.0 -0.0279050402
C  C51  1  0.61800000  0.39410000  0.63810000  1.0 -0.0279050402
C  C52  1  0.75600000  0.97990000  0.36190000  1.0 -0.0279050402
C  C53  1  0.51450000  0.14810000  0.29060000  1.0 -0.0729739208
C  C54  1  0.85750000  0.22390000  0.70940000  1.0 -0.0729739208
C  C55  1  0.77610000  0.48550000  0.63360000  1.0 -0.0729739208
C  C56  1  0.85190000  0.14250000  0.36640000  1.0 -0.0729739208
C  C57  1  0.37310000  0.06460000  0.32370000  1.0 -0.1920190964
C  C58  1  0.74090000  0.04940000  0.67630000  1.0 -0.1920190964
C  C59  1  0.95060000  0.62690000  0.69150000  1.0 -0.1920190964
C  C60  1  0.93540000  0.25910000  0.30850000  1.0 -0.1920190964
C  C61  1  0.32210000  0.07600000  0.29010000  1.0 0.1803797122
C  C62  1  0.78590000  0.03200000  0.70990000  1.0 0.1803797122
C  C63  1  0.96800000  0.67790000  0.75390000  1.0 0.1803797122
C  C64  1  0.92400000  0.21410000  0.24610000  1.0 0.1803797122
C  C65  1  0.41250000  0.17090000  0.22340000  1.0 -0.1957307968
C  C66  1  0.94750000  0.18910000  0.77660000  1.0 -0.1957307968
C  C67  1  0.81090000  0.58750000  0.75840000  1.0 -0.1957307968
C  C68  1  0.82910000  0.05250000  0.24160000  1.0 -0.1957307968
C  C69  1  0.75200000  0.32940000  0.18340000  1.0 0.4537469532
C  C70  1  0.14600000  0.56860000  0.81660000  1.0 0.4537469532
C  C71  1  0.43140000  0.24800000  0.57740000  1.0 0.4537469532
C  C72  1  0.67060000  0.85400000  0.42260000  1.0 0.4537469532
N  N1  1  0.04830000  0.93440000  0.40470000  1.0 -0.3305507812
N  N2  1  0.52970000  0.64360000  0.59530000  1.0 -0.3305507812
N  N3  1  0.35640000  0.95170000  0.88610000  1.0 -0.3305507812
N  N4  1  0.06560000  0.47030000  0.11390000  1.0 -0.3305507812
N  N5  1  0.18470000  0.99820000  0.32090000  1.0 -0.0512458047
N  N6  1  0.67730000  0.86380000  0.67910000  1.0 -0.0512458047
N  N7  1  0.13620000  0.81530000  0.81350000  1.0 -0.0512458047
N  N8  1  0.00180000  0.32270000  0.18650000  1.0 -0.0512458047
O  O1  1  0.87850000  0.46280000  0.13330000  1.0 -0.3644954178
O  O2  1  0.32950000  0.74520000  0.86670000  1.0 -0.3644954178
O  O3  1  0.25480000  0.12150000  0.58430000  1.0 -0.3644954178
O  O4  1  0.53720000  0.67050000  0.41570000  1.0 -0.3644954178
O  O5  1  0.61740000  0.13890000  0.20230000  1.0 -0.2919588748
O  O6  1  0.93660000  0.41510000  0.79770000  1.0 -0.2919588748
O  O7  1  0.58490000  0.38260000  0.52150000  1.0 -0.2919588748
O  O8  1  0.86110000  0.06340000  0.47850000  1.0 -0.2919588748
O  O9  1  0.65330000  0.61490000  0.53220000  1.0 -0.7625602099
O  O10  1  0.08270000  0.12110000  0.46780000  1.0 -0.7625602099
O  O11  1  0.87890000  0.34670000  0.96160000  1.0 -0.7625602099
O  O12  1  0.38510000  0.91730000  0.03840000  1.0 -0.7625602099
O  O13  1  0.97520000  0.50500000  0.21620000  1.0 -0.178628831
O  O14  1  0.28880000  0.75900000  0.78380000  1.0 -0.1729875866
O  O15  1  0.24100000  0.02480000  0.52980000  1.0 -0.1729875866
O  O16  1  0.49500000  0.71120000  0.47020000  1.0 -0.178628831
