# DDEC6 charges by PACMAN v1.1 (https://github.com/mtap-research/PACMAN-charge/)
data_FUVGAG01_ASR_pacman
_symmetry_space_group_name_H-M   'P 1'
_cell_length_a   19.66160000
_cell_length_b   19.66160000
_cell_length_c   19.66160000
_cell_angle_alpha   90.46680000
_cell_angle_beta   90.46680000
_cell_angle_gamma   169.64300000
_symmetry_Int_Tables_number   1
_chemical_formula_structural   ZnH12C18(NO2)2
_chemical_formula_sum   'Zn4 H48 C72 N8 O16'
_cell_volume   1360.89222579
_cell_formula_units_Z   4
loop_
 _symmetry_equiv_pos_site_id
 _symmetry_equiv_pos_as_xyz
  1  'x, y, z'
loop_
 _atom_site_type_symbol
 _atom_site_label
 _atom_site_symmetry_multiplicity
 _atom_site_fract_x
 _atom_site_fract_y
 _atom_site_fract_z
 _atom_site_occupancy
 _atom_site_charge
Zn  Zn1  1  0.12729000  0.05628000  0.49877000  1.0 0.7941503528
Zn  Zn2  1  0.55751000  0.62852000  0.50123000  1.0 0.7941503528
Zn  Zn3  1  0.37148000  0.87271000  0.92899000  1.0 0.7941503528
Zn  Zn4  1  0.94372000  0.44249000  0.07101000  1.0 0.7941503528
H  H1  1  0.35200000  0.15170000  0.42090000  1.0 0.109518728
H  H2  1  0.73080000  0.93110000  0.57910000  1.0 0.109518728
H  H3  1  0.06890000  0.64800000  0.79970000  1.0 0.109518728
H  H4  1  0.84830000  0.26920000  0.20030000  1.0 0.109518728
H  H5  1  0.58090000  0.58520000  0.36770000  1.0 0.1377884823
H  H6  1  0.21750000  0.21320000  0.63230000  1.0 0.1377884823
H  H7  1  0.78680000  0.41910000  0.00430000  1.0 0.1377884823
H  H8  1  0.41480000  0.78250000  0.99570000  1.0 0.1377884823
H  H9  1  0.20980000  0.29010000  0.28410000  1.0 0.109518728
H  H10  1  0.00600000  0.92570000  0.71590000  1.0 0.109518728
H  H11  1  0.07430000  0.79020000  0.08030000  1.0 0.109518728
H  H12  1  0.70990000  0.99400000  0.91970000  1.0 0.109518728
H  H13  1  0.97390000  0.08030000  0.17320000  1.0 0.1007399482
H  H14  1  0.90710000  0.80070000  0.82680000  1.0 0.1007399482
H  H15  1  0.19930000  0.02610000  0.10640000  1.0 0.1007399482
H  H16  1  0.91970000  0.09290000  0.89360000  1.0 0.1007399482
H  H17  1  0.12700000  0.15840000  0.08580000  1.0 0.1007399482
H  H18  1  0.07260000  0.04120000  0.91420000  1.0 0.1007399482
H  H19  1  0.95880000  0.87300000  0.03140000  1.0 0.1007399482
H  H20  1  0.84160000  0.92740000  0.96860000  1.0 0.1007399482
H  H21  1  0.50180000  0.43280000  0.11100000  1.0 0.109518728
H  H22  1  0.32180000  0.39080000  0.88900000  1.0 0.109518728
H  H23  1  0.60920000  0.49820000  0.93100000  1.0 0.109518728
H  H24  1  0.56720000  0.67820000  0.06900000  1.0 0.109518728
H  H25  1  0.86630000  0.72070000  0.18980000  1.0 0.1186429116
H  H26  1  0.53090000  0.67650000  0.81020000  1.0 0.1186429116
H  H27  1  0.32350000  0.13370000  0.85440000  1.0 0.1186429116
H  H28  1  0.27930000  0.46910000  0.14560000  1.0 0.1186429116
H  H29  1  0.61660000  0.32020000  0.14580000  1.0 0.109518728
H  H30  1  0.17440000  0.47080000  0.85420000  1.0 0.109518728
H  H31  1  0.52920000  0.38340000  0.70360000  1.0 0.109518728
H  H32  1  0.67980000  0.82560000  0.29640000  1.0 0.109518728
H  H33  1  0.54250000  0.13420000  0.31350000  1.0 0.1186429116
H  H34  1  0.82070000  0.22900000  0.68650000  1.0 0.1186429116
H  H35  1  0.77100000  0.45750000  0.59170000  1.0 0.1186429116
H  H36  1  0.86580000  0.17930000  0.40830000  1.0 0.1186429116
H  H37  1  0.30210000  0.99080000  0.36890000  1.0 0.1318315941
H  H38  1  0.62190000  0.93320000  0.63110000  1.0 0.1318315941
H  H39  1  0.06680000  0.69790000  0.68870000  1.0 0.1318315941
H  H40  1  0.00920000  0.37810000  0.31130000  1.0 0.1318315941
H  H41  1  0.37630000  0.17670000  0.20120000  1.0 0.109518728
H  H42  1  0.97550000  0.17510000  0.79880000  1.0 0.109518728
H  H43  1  0.82490000  0.62370000  0.80040000  1.0 0.109518728
H  H44  1  0.82330000  0.02450000  0.19960000  1.0 0.109518728
H  H45  1  0.53960000  0.46570000  0.54450000  1.0 0.2944498363
H  H46  1  0.92120000  0.99510000  0.45550000  1.0 0.2944498363
H  H47  1  0.00490000  0.46040000  0.92610000  1.0 0.2944498363
H  H48  1  0.53430000  0.07880000  0.07390000  1.0 0.2944498363
C  C1  1  0.20980000  0.03830000  0.38910000  1.0 0.1007399482
C  C2  1  0.64920000  0.82070000  0.61090000  1.0 0.1007399482
C  C3  1  0.17930000  0.79020000  0.82850000  1.0 0.1007399482
C  C4  1  0.96170000  0.35080000  0.17150000  1.0 0.1007399482
C  C5  1  0.85980000  0.77390000  0.34470000  1.0 0.1377884823
C  C6  1  0.42920000  0.51510000  0.65530000  1.0 0.1377884823
C  C7  1  0.48490000  0.14020000  0.91410000  1.0 0.1377884823
C  C8  1  0.22610000  0.57080000  0.08590000  1.0 0.1377884823
C  C9  1  0.63670000  0.61140000  0.33210000  1.0 -0.1983095981
C  C10  1  0.27930000  0.30460000  0.66790000  1.0 -0.1983095981
C  C11  1  0.69540000  0.36330000  0.97470000  1.0 -0.1983095981
C  C12  1  0.38860000  0.72070000  0.02530000  1.0 -0.1983095981
C  C13  1  0.49860000  0.48920000  0.26560000  1.0 0.0772741272
C  C14  1  0.22360000  0.23300000  0.73440000  1.0 0.0772741272
C  C15  1  0.76700000  0.50140000  0.99060000  1.0 0.0772741272
C  C16  1  0.51080000  0.77640000  0.00940000  1.0 0.0772741272
C  C17  1  0.26960000  0.31970000  0.24930000  1.0 -0.1315742012
C  C18  1  0.07040000  0.02030000  0.75070000  1.0 -0.1315742012
C  C19  1  0.97970000  0.73040000  0.05010000  1.0 -0.1315742012
C  C20  1  0.68030000  0.92960000  0.94990000  1.0 -0.1315742012
C  C21  1  0.12730000  0.19350000  0.18280000  1.0 -0.1042060216
C  C22  1  0.01070000  0.94450000  0.81720000  1.0 -0.1042060216
C  C23  1  0.05550000  0.87270000  0.06620000  1.0 -0.1042060216
C  C24  1  0.80650000  0.98930000  0.93380000  1.0 -0.1042060216
C  C25  1  0.21780000  0.23900000  0.13080000  1.0 -0.1115967926
C  C26  1  0.10820000  0.08700000  0.86920000  1.0 -0.1115967926
C  C27  1  0.91300000  0.78220000  0.02120000  1.0 -0.1115967926
C  C28  1  0.76100000  0.89180000  0.97880000  1.0 -0.1115967926
C  C29  1  0.44440000  0.40560000  0.14600000  1.0 -0.1487683949
C  C30  1  0.25960000  0.29840000  0.85400000  1.0 -0.1487683949
C  C31  1  0.70160000  0.55560000  0.96120000  1.0 -0.1487683949
C  C32  1  0.59440000  0.74040000  0.03880000  1.0 -0.1487683949
C  C33  1  0.58740000  0.53260000  0.21320000  1.0 0.0885381553
C  C34  1  0.31940000  0.37420000  0.78680000  1.0 0.0885381553
C  C35  1  0.62580000  0.41260000  0.94520000  1.0 0.0885381553
C  C36  1  0.46740000  0.68060000  0.05480000  1.0 0.0885381553
C  C37  1  0.81060000  0.69470000  0.22530000  1.0 -0.2318931256
C  C38  1  0.46940000  0.58530000  0.77470000  1.0 -0.2318931256
C  C39  1  0.41470000  0.18940000  0.88410000  1.0 -0.2318931256
C  C40  1  0.30530000  0.53060000  0.11590000  1.0 -0.2318931256
C  C41  1  0.94760000  0.81650000  0.29210000  1.0 0.0772741272
C  C42  1  0.52440000  0.65550000  0.70790000  1.0 0.0772741272
C  C43  1  0.34450000  0.05240000  0.86890000  1.0 0.0772741272
C  C44  1  0.18350000  0.47560000  0.13110000  1.0 0.0772741272
C  C45  1  0.55400000  0.25450000  0.19050000  1.0 -0.0902302653
C  C46  1  0.06400000  0.36350000  0.80950000  1.0 -0.0902302653
C  C47  1  0.63650000  0.44600000  0.70050000  1.0 -0.0902302653
C  C48  1  0.74550000  0.93600000  0.29950000  1.0 -0.0902302653
C  C49  1  0.60310000  0.24110000  0.22420000  1.0 -0.0385198562
C  C50  1  0.01690000  0.37890000  0.77580000  1.0 -0.0385198562
C  C51  1  0.62110000  0.39690000  0.63800000  1.0 -0.0385198562
C  C52  1  0.75890000  0.98310000  0.36200000  1.0 -0.0385198562
C  C53  1  0.50870000  0.14230000  0.29100000  1.0 -0.0785385814
C  C54  1  0.85130000  0.21770000  0.70900000  1.0 -0.0785385814
C  C55  1  0.78230000  0.49130000  0.63360000  1.0 -0.0785385814
C  C56  1  0.85770000  0.14870000  0.36640000  1.0 -0.0785385814
C  C57  1  0.36530000  0.05690000  0.32420000  1.0 -0.1937180754
C  C58  1  0.73270000  0.04110000  0.67580000  1.0 -0.1937180754
C  C59  1  0.95890000  0.63470000  0.69160000  1.0 -0.1937180754
C  C60  1  0.94310000  0.26730000  0.30840000  1.0 -0.1937180754
C  C61  1  0.31520000  0.06930000  0.29050000  1.0 0.1822188649
C  C62  1  0.77880000  0.02470000  0.70950000  1.0 0.1822188649
C  C63  1  0.97530000  0.68480000  0.75410000  1.0 0.1822188649
C  C64  1  0.93070000  0.22120000  0.24590000  1.0 0.1822188649
C  C65  1  0.40950000  0.16820000  0.22370000  1.0 -0.1983095981
C  C66  1  0.94450000  0.18580000  0.77630000  1.0 -0.1983095981
C  C67  1  0.81420000  0.59050000  0.75870000  1.0 -0.1983095981
C  C68  1  0.83180000  0.05550000  0.24130000  1.0 -0.1983095981
C  C69  1  0.75220000  0.33100000  0.18120000  1.0 0.4487873915
C  C70  1  0.14980000  0.57100000  0.81880000  1.0 0.4487873915
C  C71  1  0.42900000  0.24780000  0.57880000  1.0 0.4487873915
C  C72  1  0.66900000  0.85020000  0.42120000  1.0 0.4487873915
N  N1  1  0.03400000  0.92040000  0.40640000  1.0 -0.3404256996
N  N2  1  0.51400000  0.62760000  0.59360000  1.0 -0.3404256996
N  N3  1  0.37240000  0.96600000  0.88640000  1.0 -0.3404256996
N  N4  1  0.07960000  0.48600000  0.11360000  1.0 -0.3404256996
N  N5  1  0.17120000  0.98440000  0.32140000  1.0 -0.0524311398
N  N6  1  0.66300000  0.84980000  0.67860000  1.0 -0.0524311398
N  N7  1  0.15020000  0.82880000  0.81320000  1.0 -0.0524311398
N  N8  1  0.01560000  0.33700000  0.18680000  1.0 -0.0524311398
O  O1  1  0.89510000  0.48140000  0.13050000  1.0 -0.3806493204
O  O2  1  0.35090000  0.76460000  0.86950000  1.0 -0.3806493204
O  O3  1  0.23540000  0.10490000  0.58630000  1.0 -0.3806493204
O  O4  1  0.51860000  0.64910000  0.41370000  1.0 -0.3806493204
O  O5  1  0.63260000  0.15290000  0.19750000  1.0 -0.2621787485
O  O6  1  0.95540000  0.43510000  0.80250000  1.0 -0.2621787485
O  O7  1  0.56490000  0.36740000  0.52030000  1.0 -0.2621787485
O  O8  1  0.84710000  0.04460000  0.47970000  1.0 -0.2621787485
O  O9  1  0.64110000  0.60260000  0.53370000  1.0 -0.7605640438
O  O10  1  0.06890000  0.10740000  0.46630000  1.0 -0.7605640438
O  O11  1  0.89260000  0.35890000  0.96150000  1.0 -0.7605640438
O  O12  1  0.39740000  0.93110000  0.03850000  1.0 -0.7605640438
O  O13  1  0.98110000  0.51200000  0.21310000  1.0 -0.1365249452
O  O14  1  0.29890000  0.76800000  0.78690000  1.0 -0.1365249452
O  O15  1  0.23200000  0.01890000  0.53090000  1.0 -0.1315742012
O  O16  1  0.48800000  0.70110000  0.46910000  1.0 -0.1365249452
