# DDEC6 charges by PACMAN v1.1 (https://github.com/mtap-research/PACMAN-charge/)
data_FUWFUA_ASR_pacman
_symmetry_space_group_name_H-M   'P 1'
_cell_length_a   21.77410000
_cell_length_b   21.77410000
_cell_length_c   13.79800000
_cell_angle_alpha   77.82040000
_cell_angle_beta   102.18000000
_cell_angle_gamma   127.59400000
_symmetry_Int_Tables_number   1
_chemical_formula_structural   Cd9H68C88(N35O3)2
_chemical_formula_sum   'Cd9 H68 C88 N70 O6'
_cell_volume   5038.06906173
_cell_formula_units_Z   1
loop_
 _symmetry_equiv_pos_site_id
 _symmetry_equiv_pos_as_xyz
  1  'x, y, z'
loop_
 _atom_site_type_symbol
 _atom_site_label
 _atom_site_symmetry_multiplicity
 _atom_site_fract_x
 _atom_site_fract_y
 _atom_site_fract_z
 _atom_site_occupancy
 _atom_site_charge
Cd  Cd1  1  0.35736000  0.64264000  0.31320000  1.0 0.6671185715
Cd  Cd2  1  0.64264000  0.35736000  0.68680000  1.0 0.6671185715
Cd  Cd3  1  0.00000000  0.00000000  0.00000000  1.0 0.7559802158
Cd  Cd4  1  0.45802000  0.72826000  0.56153000  1.0 0.6839967392
Cd  Cd5  1  0.72826000  0.45802000  0.43847000  1.0 0.6839967392
Cd  Cd6  1  0.54198000  0.27174000  0.43847000  1.0 0.6839967392
Cd  Cd7  1  0.27174000  0.54198000  0.56153000  1.0 0.6839967392
Cd  Cd8  1  0.91427000  0.08573000  0.09236000  1.0 0.6839967392
Cd  Cd9  1  0.08573000  0.91427000  0.90764000  1.0 0.6839967392
H  H1  1  0.09610000  0.38030000  0.12430000  1.0 0.1422765725
H  H2  1  0.38030000  0.09610000  0.87570000  1.0 0.1422765725
H  H3  1  0.90390000  0.61970000  0.87570000  1.0 0.1422765725
H  H4  1  0.61970000  0.90390000  0.12430000  1.0 0.1422765725
H  H5  1  0.06640000  0.25680000  0.38690000  1.0 0.1524495902
H  H6  1  0.25680000  0.06640000  0.61310000  1.0 0.1524495902
H  H7  1  0.93360000  0.74320000  0.61310000  1.0 0.1524495902
H  H8  1  0.74320000  0.93360000  0.38690000  1.0 0.1524495902
H  H9  1  0.98380000  0.14920000  0.30900000  1.0 0.1294036729
H  H10  1  0.14920000  0.98380000  0.69100000  1.0 0.1294036729
H  H11  1  0.01620000  0.85080000  0.69100000  1.0 0.1294036729
H  H12  1  0.85080000  0.01620000  0.30900000  1.0 0.1294036729
H  H13  1  0.22360000  0.77640000  0.00970000  1.0 0.1524495902
H  H14  1  0.77640000  0.22360000  0.99030000  1.0 0.1524495902
H  H15  1  0.12730000  0.87270000  0.13600000  1.0 0.1169825045
H  H16  1  0.87270000  0.12730000  0.86400000  1.0 0.1169825045
H  H17  1  0.16910000  0.83090000  0.91140000  1.0 0.0996215348
H  H18  1  0.83090000  0.16910000  0.08860000  1.0 0.0996215348
H  H19  1  0.18100000  0.81900000  0.24250000  1.0 0.1422765725
H  H20  1  0.81900000  0.18100000  0.75750000  1.0 0.1422765725
H  H21  1  0.52460000  0.67140000  0.34370000  1.0 0.0996215348
H  H22  1  0.67140000  0.52460000  0.65630000  1.0 0.0996215348
H  H23  1  0.47540000  0.32860000  0.65630000  1.0 0.0996215348
H  H24  1  0.32860000  0.47540000  0.34370000  1.0 0.0996215348
H  H25  1  0.58460000  0.61440000  0.38160000  1.0 0.1422765725
H  H26  1  0.61440000  0.58460000  0.61840000  1.0 0.1422765725
H  H27  1  0.41540000  0.38560000  0.61840000  1.0 0.1422765725
H  H28  1  0.38560000  0.41540000  0.38160000  1.0 0.1422765725
H  H29  1  0.64780000  0.92280000  0.81700000  1.0 0.1422765725
H  H30  1  0.92280000  0.64780000  0.18300000  1.0 0.1422765725
H  H31  1  0.35220000  0.07720000  0.18300000  1.0 0.1422765725
H  H32  1  0.07720000  0.35220000  0.81700000  1.0 0.1422765725
H  H33  1  0.72270000  0.81210000  0.75430000  1.0 0.1642444579
H  H34  1  0.81210000  0.72270000  0.24570000  1.0 0.1642444579
H  H35  1  0.27730000  0.18790000  0.24570000  1.0 0.1642444579
H  H36  1  0.18790000  0.27730000  0.75430000  1.0 0.1642444579
H  H37  1  0.54330000  0.85770000  0.70360000  1.0 0.0996215348
H  H38  1  0.85770000  0.54330000  0.29640000  1.0 0.0996215348
H  H39  1  0.45670000  0.14230000  0.29640000  1.0 0.0996215348
H  H40  1  0.14230000  0.45670000  0.70360000  1.0 0.0996215348
H  H41  1  0.44190000  0.75370000  0.95530000  1.0 0.1422765725
H  H42  1  0.75370000  0.44190000  0.04470000  1.0 0.1422765725
H  H43  1  0.55810000  0.24630000  0.04470000  1.0 0.1422765725
H  H44  1  0.24630000  0.55810000  0.95530000  1.0 0.1422765725
H  H45  1  0.44770000  0.74390000  0.12780000  1.0 0.0996215348
H  H46  1  0.74390000  0.44770000  0.87220000  1.0 0.0996215348
H  H47  1  0.55230000  0.25610000  0.87220000  1.0 0.0996215348
H  H48  1  0.25610000  0.55230000  0.12780000  1.0 0.0996215348
H  H49  1  0.61270000  0.74690000  0.64810000  1.0 0.0996215348
H  H50  1  0.74690000  0.61270000  0.35190000  1.0 0.0996215348
H  H51  1  0.38730000  0.25310000  0.35190000  1.0 0.0996215348
H  H52  1  0.25310000  0.38730000  0.64810000  1.0 0.0996215348
H  H53  1  0.00940000  0.26940000  0.05340000  1.0 0.0996215348
H  H54  1  0.26940000  0.00940000  0.94660000  1.0 0.0996215348
H  H55  1  0.99060000  0.73060000  0.94660000  1.0 0.0996215348
H  H56  1  0.73060000  0.99060000  0.05340000  1.0 0.0996215348
H  H57  1  0.01720000  0.07420000  0.70650000  1.0 0.0609042652
H  H58  1  0.07420000  0.01720000  0.29350000  1.0 0.0609042652
H  H59  1  0.98280000  0.92580000  0.29350000  1.0 0.0609042652
H  H60  1  0.92580000  0.98280000  0.70650000  1.0 0.0609042652
H  H61  1  0.94190000  0.99310000  0.67740000  1.0 0.0609042652
H  H62  1  0.99310000  0.94190000  0.32260000  1.0 0.0609042652
H  H63  1  0.05810000  0.00690000  0.32260000  1.0 0.0609042652
H  H64  1  0.00690000  0.05810000  0.67740000  1.0 0.0609042652
H  H65  1  0.95110000  0.02230000  0.77770000  1.0 0.038456762
H  H66  1  0.02230000  0.95110000  0.22230000  1.0 0.038456762
H  H67  1  0.04890000  0.97770000  0.22230000  1.0 0.038456762
H  H68  1  0.97770000  0.04890000  0.77770000  1.0 0.038456762
C  C1  1  0.07350000  0.33290000  0.16410000  1.0 -0.1994737165
C  C2  1  0.33290000  0.07350000  0.83590000  1.0 -0.1994737165
C  C3  1  0.92650000  0.66710000  0.83590000  1.0 -0.1994737165
C  C4  1  0.66710000  0.92650000  0.16410000  1.0 -0.1994737165
C  C5  1  0.05680000  0.26100000  0.31780000  1.0 -0.1615640026
C  C6  1  0.26100000  0.05680000  0.68220000  1.0 -0.1615640026
C  C7  1  0.94320000  0.73900000  0.68220000  1.0 -0.1615640026
C  C8  1  0.73900000  0.94320000  0.31780000  1.0 -0.1615640026
C  C9  1  0.00690000  0.19730000  0.27090000  1.0 0.0453408992
C  C10  1  0.19730000  0.00690000  0.72910000  1.0 0.0453408992
C  C11  1  0.99310000  0.80270000  0.72910000  1.0 0.0453408992
C  C12  1  0.80270000  0.99310000  0.27090000  1.0 0.0453408992
C  C13  1  0.15154000  0.40266000  0.31320000  1.0 0.2508329672
C  C14  1  0.40266000  0.15154000  0.68680000  1.0 0.2508329672
C  C15  1  0.84846000  0.59734000  0.68680000  1.0 0.2508329672
C  C16  1  0.59734000  0.84846000  0.31320000  1.0 0.2508329672
C  C17  1  0.20420000  0.79580000  0.03810000  1.0 -0.1994737165
C  C18  1  0.79580000  0.20420000  0.96190000  1.0 -0.1994737165
C  C19  1  0.14730000  0.85270000  0.11030000  1.0 0.0609042652
C  C20  1  0.85270000  0.14730000  0.88970000  1.0 0.0609042652
C  C21  1  0.09380000  0.33180000  0.26450000  1.0 0.0609042652
C  C22  1  0.33180000  0.09380000  0.73550000  1.0 0.0609042652
C  C23  1  0.90620000  0.66820000  0.73550000  1.0 0.0609042652
C  C24  1  0.66820000  0.90620000  0.26450000  1.0 0.0609042652
C  C25  1  0.69830000  0.87670000  0.79560000  1.0 0.0801910011
C  C26  1  0.87670000  0.69830000  0.20440000  1.0 0.0801910011
C  C27  1  0.30170000  0.12330000  0.20440000  1.0 0.0801910011
C  C28  1  0.12330000  0.30170000  0.79560000  1.0 0.0801910011
C  C29  1  0.76770000  0.91910000  0.86540000  1.0 0.2216652071
C  C30  1  0.91910000  0.76770000  0.13460000  1.0 0.2216652071
C  C31  1  0.23230000  0.08090000  0.13460000  1.0 0.2216652071
C  C32  1  0.08090000  0.23230000  0.86540000  1.0 0.2216652071
C  C33  1  0.53030000  0.46970000  0.38510000  1.0 0.2599271757
C  C34  1  0.46970000  0.53030000  0.61490000  1.0 0.2599271757
C  C35  1  0.17140000  0.82860000  0.98000000  1.0 0.0699830999
C  C36  1  0.82860000  0.17140000  0.02000000  1.0 0.0699830999
C  C37  1  0.20890000  0.79110000  0.14000000  1.0 0.0699830999
C  C38  1  0.79110000  0.20890000  0.86000000  1.0 0.0699830999
C  C39  1  0.17930000  0.82070000  0.17410000  1.0 -0.1615640026
C  C40  1  0.82070000  0.17930000  0.82590000  1.0 -0.1615640026
C  C41  1  0.49400000  0.61720000  0.35040000  1.0 0.0609042652
C  C42  1  0.61720000  0.49400000  0.64960000  1.0 0.0609042652
C  C43  1  0.50600000  0.38280000  0.64960000  1.0 0.0609042652
C  C44  1  0.38280000  0.50600000  0.35040000  1.0 0.0609042652
C  C45  1  0.53060000  0.58360000  0.36860000  1.0 -0.1994737165
C  C46  1  0.58360000  0.53060000  0.63140000  1.0 -0.1994737165
C  C47  1  0.46940000  0.41640000  0.63140000  1.0 -0.1994737165
C  C48  1  0.41640000  0.46940000  0.36860000  1.0 -0.1994737165
C  C49  1  0.64320000  0.88800000  0.78160000  1.0 -0.1911759304
C  C50  1  0.88800000  0.64320000  0.21840000  1.0 -0.1911759304
C  C51  1  0.35680000  0.11200000  0.21840000  1.0 -0.1911759304
C  C52  1  0.11200000  0.35680000  0.78160000  1.0 -0.1911759304
C  C53  1  0.68640000  0.82280000  0.74540000  1.0 -0.1759106743
C  C54  1  0.82280000  0.68640000  0.25460000  1.0 -0.1759106743
C  C55  1  0.31360000  0.17720000  0.25460000  1.0 -0.1759106743
C  C56  1  0.17720000  0.31360000  0.74540000  1.0 -0.1759106743
C  C57  1  0.49200000  0.50800000  0.36860000  1.0 0.0699830999
C  C58  1  0.50800000  0.49200000  0.63140000  1.0 0.0699830999
C  C59  1  0.58040000  0.84780000  0.71480000  1.0 0.0609042652
C  C60  1  0.84780000  0.58040000  0.28520000  1.0 0.0609042652
C  C61  1  0.41960000  0.15220000  0.28520000  1.0 0.0609042652
C  C62  1  0.15220000  0.41960000  0.71480000  1.0 0.0609042652
C  C63  1  0.35140000  0.64860000  0.93970000  1.0 0.086846642
C  C64  1  0.64860000  0.35140000  0.06030000  1.0 0.086846642
C  C65  1  0.40410000  0.70710000  0.98880000  1.0 -0.1911759304
C  C66  1  0.70710000  0.40410000  0.01120000  1.0 -0.1911759304
C  C67  1  0.59590000  0.29290000  0.01120000  1.0 -0.1911759304
C  C68  1  0.29290000  0.59590000  0.98880000  1.0 -0.1911759304
C  C69  1  0.40540000  0.70160000  0.09500000  1.0 0.1061005516
C  C70  1  0.70160000  0.40540000  0.90500000  1.0 0.1061005516
C  C71  1  0.59460000  0.29840000  0.90500000  1.0 0.1061005516
C  C72  1  0.29840000  0.59460000  0.09500000  1.0 0.1061005516
C  C73  1  0.62050000  0.78430000  0.68180000  1.0 0.0699830999
C  C74  1  0.78430000  0.62050000  0.31820000  1.0 0.0699830999
C  C75  1  0.37950000  0.21570000  0.31820000  1.0 0.0699830999
C  C76  1  0.21570000  0.37950000  0.68180000  1.0 0.0699830999
C  C77  1  0.97830000  0.02170000  0.73170000  1.0 -0.3265578674
C  C78  1  0.02170000  0.97830000  0.26830000  1.0 -0.3265578674
C  C79  1  0.01730000  0.98270000  0.78530000  1.0 0.5420465095
C  C80  1  0.98270000  0.01730000  0.21470000  1.0 0.5420465095
C  C81  1  0.02180000  0.26660000  0.12220000  1.0 0.0609042652
C  C82  1  0.26660000  0.02180000  0.87780000  1.0 0.0609042652
C  C83  1  0.97820000  0.73340000  0.87780000  1.0 0.0609042652
C  C84  1  0.73340000  0.97820000  0.12220000  1.0 0.0609042652
C  C85  1  0.24240000  0.75760000  0.20730000  1.0 0.2104301823
C  C86  1  0.75760000  0.24240000  0.79270000  1.0 0.2104301823
C  C87  1  0.35170000  0.64830000  0.83740000  1.0 0.2306195421
C  C88  1  0.64830000  0.35170000  0.16260000  1.0 0.2306195421
N  N1  1  0.24102000  0.51738000  0.33230000  1.0 -0.0406033448
N  N2  1  0.51738000  0.24102000  0.66770000  1.0 -0.0406033448
N  N3  1  0.75898000  0.48262000  0.66770000  1.0 -0.0406033448
N  N4  1  0.48262000  0.75898000  0.33230000  1.0 -0.0406033448
N  N5  1  0.19655000  0.47019000  0.26420000  1.0 -0.2506425395
N  N6  1  0.47019000  0.19655000  0.73580000  1.0 -0.2506425395
N  N7  1  0.80345000  0.52981000  0.73580000  1.0 -0.2506425395
N  N8  1  0.52981000  0.80345000  0.26420000  1.0 -0.2506425395
N  N9  1  0.22299000  0.47941000  0.41950000  1.0 -0.0500440097
N  N10  1  0.47941000  0.22299000  0.58050000  1.0 -0.0500440097
N  N11  1  0.77701000  0.52059000  0.58050000  1.0 -0.0500440097
N  N12  1  0.52059000  0.77701000  0.41950000  1.0 -0.0500440097
N  N13  1  0.16519000  0.40581000  0.40930000  1.0 -0.2506425395
N  N14  1  0.40581000  0.16519000  0.59070000  1.0 -0.2506425395
N  N15  1  0.83481000  0.59419000  0.59070000  1.0 -0.2506425395
N  N16  1  0.59419000  0.83481000  0.40930000  1.0 -0.2506425395
N  N17  1  0.98784000  0.19816000  0.17350000  1.0 -0.2210258009
N  N18  1  0.19816000  0.98784000  0.82650000  1.0 -0.2210258009
N  N19  1  0.01216000  0.80184000  0.82650000  1.0 -0.2210258009
N  N20  1  0.80184000  0.01216000  0.17350000  1.0 -0.2210258009
N  N21  1  0.87580000  0.96240000  0.94520000  1.0 -0.0708502868
N  N22  1  0.96240000  0.87580000  0.05480000  1.0 -0.0708502868
N  N23  1  0.12420000  0.03760000  0.05480000  1.0 -0.0708502868
N  N24  1  0.03760000  0.12420000  0.94520000  1.0 -0.0708502868
N  N25  1  0.56881000  0.79659000  0.66560000  1.0 -0.2325509416
N  N26  1  0.79659000  0.56881000  0.33440000  1.0 -0.2325509416
N  N27  1  0.43119000  0.20341000  0.33440000  1.0 -0.2325509416
N  N28  1  0.20341000  0.43119000  0.66560000  1.0 -0.2325509416
N  N29  1  0.31969000  0.61431000  0.69630000  1.0 -0.0500440097
N  N30  1  0.61431000  0.31969000  0.30370000  1.0 -0.0500440097
N  N31  1  0.68031000  0.38569000  0.30370000  1.0 -0.0500440097
N  N32  1  0.38569000  0.68031000  0.69630000  1.0 -0.0500440097
N  N33  1  0.29659000  0.59361000  0.78480000  1.0 -0.2391775346
N  N34  1  0.59361000  0.29659000  0.21520000  1.0 -0.2391775346
N  N35  1  0.70341000  0.40639000  0.21520000  1.0 -0.2391775346
N  N36  1  0.40639000  0.70341000  0.78480000  1.0 -0.2391775346
N  N37  1  0.84667000  0.99193000  0.97370000  1.0 -0.0708502868
N  N38  1  0.99193000  0.84667000  0.02630000  1.0 -0.0708502868
N  N39  1  0.15333000  0.00807000  0.02630000  1.0 -0.0708502868
N  N40  1  0.00807000  0.15333000  0.97370000  1.0 -0.0708502868
N  N41  1  0.82673000  0.91547000  0.87600000  1.0 -0.2391775346
N  N42  1  0.91547000  0.82673000  0.12400000  1.0 -0.2391775346
N  N43  1  0.17327000  0.08453000  0.12400000  1.0 -0.2391775346
N  N44  1  0.08453000  0.17327000  0.87600000  1.0 -0.2391775346
N  N45  1  0.77790000  0.96510000  0.92440000  1.0 -0.2773954448
N  N46  1  0.96510000  0.77790000  0.07560000  1.0 -0.2773954448
N  N47  1  0.22210000  0.03490000  0.07560000  1.0 -0.2773954448
N  N48  1  0.03490000  0.22210000  0.92440000  1.0 -0.2773954448
N  N49  1  0.61551000  0.45229000  0.40760000  1.0 -0.0500440097
N  N50  1  0.45229000  0.61551000  0.59240000  1.0 -0.0500440097
N  N51  1  0.38449000  0.54771000  0.59240000  1.0 -0.0500440097
N  N52  1  0.54771000  0.38449000  0.40760000  1.0 -0.0500440097
N  N53  1  0.60502000  0.50658000  0.39320000  1.0 -0.2506425395
N  N54  1  0.50658000  0.60502000  0.60680000  1.0 -0.2506425395
N  N55  1  0.39498000  0.49342000  0.60680000  1.0 -0.2506425395
N  N56  1  0.49342000  0.39498000  0.39320000  1.0 -0.2506425395
N  N57  1  0.14327000  0.85673000  0.01120000  1.0 -0.2210258009
N  N58  1  0.85673000  0.14327000  0.98880000  1.0 -0.2210258009
N  N59  1  0.27290000  0.72710000  0.18290000  1.0 -0.2773954448
N  N60  1  0.72710000  0.27290000  0.81710000  1.0 -0.2773954448
N  N61  1  0.24660000  0.75340000  0.30440000  1.0 -0.2725040989
N  N62  1  0.75340000  0.24660000  0.69560000  1.0 -0.2725040989
N  N63  1  0.41980000  0.58020000  0.34150000  1.0 -0.2210258009
N  N64  1  0.58020000  0.41980000  0.65850000  1.0 -0.2210258009
N  N65  1  0.29670000  0.70330000  0.26970000  1.0 -0.0500440097
N  N66  1  0.70330000  0.29670000  0.73030000  1.0 -0.0500440097
N  N67  1  0.35470000  0.64530000  0.14580000  1.0 -0.2210258009
N  N68  1  0.64530000  0.35470000  0.85420000  1.0 -0.2210258009
N  N69  1  0.28150000  0.71850000  0.34000000  1.0 -0.0406033448
N  N70  1  0.71850000  0.28150000  0.66000000  1.0 -0.0406033448
O  O1  1  0.34702000  0.65298000  0.46830000  1.0 -0.7889518516
O  O2  1  0.65298000  0.34702000  0.53170000  1.0 -0.7889518516
O  O3  1  0.02529000  0.97471000  0.86860000  1.0 -0.448218547
O  O4  1  0.97471000  0.02529000  0.13140000  1.0 -0.448218547
O  O5  1  0.03780000  0.96220000  0.72940000  1.0 -0.5384483712
O  O6  1  0.96220000  0.03780000  0.27060000  1.0 -0.5384483712
