# DDEC6 charges by PACMAN v1.1 (https://github.com/mtap-research/PACMAN-charge/)
data_FUWQIZ_ASR_pacman
_symmetry_space_group_name_H-M   'P 1'
_cell_length_a   16.77720000
_cell_length_b   16.77720000
_cell_length_c   16.77720000
_cell_angle_alpha   67.48830000
_cell_angle_beta   67.48830000
_cell_angle_gamma   67.48830000
_symmetry_Int_Tables_number   1
_chemical_formula_structural   CuH7C13(NO2)2
_chemical_formula_sum   'Cu6 H42 C78 N12 O24'
_cell_volume   3872.55440601
_cell_formula_units_Z   6
loop_
 _symmetry_equiv_pos_site_id
 _symmetry_equiv_pos_as_xyz
  1  'x, y, z'
loop_
 _atom_site_type_symbol
 _atom_site_label
 _atom_site_symmetry_multiplicity
 _atom_site_fract_x
 _atom_site_fract_y
 _atom_site_fract_z
 _atom_site_occupancy
 _atom_site_charge
Cu  Cu1  1  0.92484000  0.49537000  0.49537000  1.0 0.862399343
Cu  Cu2  1  0.49537000  0.49537000  0.92484000  1.0 0.862399343
Cu  Cu3  1  0.49537000  0.92484000  0.49537000  1.0 0.862399343
Cu  Cu4  1  0.07516000  0.50463000  0.50463000  1.0 0.862399343
Cu  Cu5  1  0.50463000  0.50463000  0.07516000  1.0 0.862399343
Cu  Cu6  1  0.50463000  0.07516000  0.50463000  1.0 0.862399343
H  H1  1  0.77175000  0.47000000  0.77175000  1.0 0.1415563631
H  H2  1  0.47000000  0.77175000  0.77175000  1.0 0.1415563631
H  H3  1  0.77175000  0.77175000  0.47000000  1.0 0.1415563631
H  H4  1  0.22825000  0.22825000  0.53000000  1.0 0.1415563631
H  H5  1  0.22825000  0.53000000  0.22825000  1.0 0.1415563631
H  H6  1  0.53000000  0.22825000  0.22825000  1.0 0.1415563631
H  H7  1  0.00020000  0.48060000  0.78530000  1.0 0.128449108
H  H8  1  0.48060000  0.78530000  0.00020000  1.0 0.128449108
H  H9  1  0.78530000  0.00020000  0.48060000  1.0 0.128449108
H  H10  1  0.99980000  0.21470000  0.51940000  1.0 0.128449108
H  H11  1  0.21470000  0.51940000  0.99980000  1.0 0.128449108
H  H12  1  0.51940000  0.99980000  0.21470000  1.0 0.128449108
H  H13  1  0.99980000  0.51940000  0.21470000  1.0 0.128449108
H  H14  1  0.51940000  0.21470000  0.99980000  1.0 0.128449108
H  H15  1  0.21470000  0.99980000  0.51940000  1.0 0.128449108
H  H16  1  0.00020000  0.78530000  0.48060000  1.0 0.128449108
H  H17  1  0.78530000  0.48060000  0.00020000  1.0 0.128449108
H  H18  1  0.48060000  0.00020000  0.78530000  1.0 0.128449108
H  H19  1  0.06180000  0.34990000  0.88020000  1.0 0.2782673609
H  H20  1  0.34990000  0.88020000  0.06180000  1.0 0.2782673609
H  H21  1  0.88020000  0.06180000  0.34990000  1.0 0.2782673609
H  H22  1  0.93820000  0.11980000  0.65010000  1.0 0.2782673609
H  H23  1  0.11980000  0.65010000  0.93820000  1.0 0.2782673609
H  H24  1  0.65010000  0.93820000  0.11980000  1.0 0.2782673609
H  H25  1  0.93820000  0.65010000  0.11980000  1.0 0.2782673609
H  H26  1  0.65010000  0.11980000  0.93820000  1.0 0.2782673609
H  H27  1  0.11980000  0.93820000  0.65010000  1.0 0.2782673609
H  H28  1  0.06180000  0.88020000  0.34990000  1.0 0.2782673609
H  H29  1  0.88020000  0.34990000  0.06180000  1.0 0.2782673609
H  H30  1  0.34990000  0.06180000  0.88020000  1.0 0.2782673609
H  H31  1  0.14150000  0.33230000  0.90990000  1.0 0.2862259381
H  H32  1  0.33230000  0.90990000  0.14150000  1.0 0.2862259381
H  H33  1  0.90990000  0.14150000  0.33230000  1.0 0.2862259381
H  H34  1  0.85850000  0.09010000  0.66770000  1.0 0.2862259381
H  H35  1  0.09010000  0.66770000  0.85850000  1.0 0.2862259381
H  H36  1  0.66770000  0.85850000  0.09010000  1.0 0.2862259381
H  H37  1  0.85850000  0.66770000  0.09010000  1.0 0.2782673609
H  H38  1  0.66770000  0.09010000  0.85850000  1.0 0.2862259381
H  H39  1  0.09010000  0.85850000  0.66770000  1.0 0.2862259381
H  H40  1  0.14150000  0.90990000  0.33230000  1.0 0.2862259381
H  H41  1  0.90990000  0.33230000  0.14150000  1.0 0.2862259381
H  H42  1  0.33230000  0.14150000  0.90990000  1.0 0.2862259381
C  C1  1  0.93474000  0.47904000  0.66704000  1.0 0.5839567416
C  C2  1  0.47904000  0.66704000  0.93474000  1.0 0.5839567416
C  C3  1  0.66704000  0.93474000  0.47904000  1.0 0.5839567416
C  C4  1  0.06526000  0.33296000  0.52096000  1.0 0.5839567416
C  C5  1  0.33296000  0.52096000  0.06526000  1.0 0.5839567416
C  C6  1  0.52096000  0.06526000  0.33296000  1.0 0.5839567416
C  C7  1  0.06526000  0.52096000  0.33296000  1.0 0.5839567416
C  C8  1  0.52096000  0.33296000  0.06526000  1.0 0.5839567416
C  C9  1  0.33296000  0.06526000  0.52096000  1.0 0.5839567416
C  C10  1  0.93474000  0.66704000  0.47904000  1.0 0.5839567416
C  C11  1  0.66704000  0.47904000  0.93474000  1.0 0.5839567416
C  C12  1  0.47904000  0.93474000  0.66704000  1.0 0.5839567416
C  C13  1  0.08858000  0.44528000  0.99828000  1.0 -0.0688798339
C  C14  1  0.44528000  0.99828000  0.08858000  1.0 -0.0688798339
C  C15  1  0.99828000  0.08858000  0.44528000  1.0 -0.0688798339
C  C16  1  0.91142000  0.00172000  0.55472000  1.0 -0.0688798339
C  C17  1  0.00172000  0.55472000  0.91142000  1.0 -0.0688798339
C  C18  1  0.55472000  0.91142000  0.00172000  1.0 -0.0688798339
C  C19  1  0.91142000  0.55472000  0.00172000  1.0 -0.0688798339
C  C20  1  0.55472000  0.00172000  0.91142000  1.0 -0.0688798339
C  C21  1  0.00172000  0.91142000  0.55472000  1.0 -0.0688798339
C  C22  1  0.08858000  0.99828000  0.44528000  1.0 -0.0688798339
C  C23  1  0.99828000  0.44528000  0.08858000  1.0 -0.0688798339
C  C24  1  0.44528000  0.08858000  0.99828000  1.0 -0.0688798339
C  C25  1  0.90185000  0.48175000  0.90185000  1.0 0.0904613444
C  C26  1  0.48175000  0.90185000  0.90185000  1.0 0.0904613444
C  C27  1  0.90185000  0.90185000  0.48175000  1.0 0.0904613444
C  C28  1  0.09815000  0.09815000  0.51825000  1.0 0.0904613444
C  C29  1  0.09815000  0.51825000  0.09815000  1.0 0.0904613444
C  C30  1  0.51825000  0.09815000  0.09815000  1.0 0.0904613444
C  C31  1  0.80427000  0.47297000  0.80427000  1.0 -0.1123725764
C  C32  1  0.47297000  0.80427000  0.80427000  1.0 -0.1123725764
C  C33  1  0.80427000  0.80427000  0.47297000  1.0 -0.1123725764
C  C34  1  0.19573000  0.19573000  0.52703000  1.0 -0.1123725764
C  C35  1  0.19573000  0.52703000  0.19573000  1.0 -0.1123725764
C  C36  1  0.52703000  0.19573000  0.19573000  1.0 -0.1123725764
C  C37  1  0.94076000  0.47936000  0.81256000  1.0 -0.1406330346
C  C38  1  0.47936000  0.81256000  0.94076000  1.0 -0.1406330346
C  C39  1  0.81256000  0.94076000  0.47936000  1.0 -0.1406330346
C  C40  1  0.05924000  0.18744000  0.52064000  1.0 -0.1406330346
C  C41  1  0.18744000  0.52064000  0.05924000  1.0 -0.1406330346
C  C42  1  0.52064000  0.05924000  0.18744000  1.0 -0.1406330346
C  C43  1  0.05924000  0.52064000  0.18744000  1.0 -0.1406330346
C  C44  1  0.52064000  0.18744000  0.05924000  1.0 -0.1406330346
C  C45  1  0.18744000  0.05924000  0.52064000  1.0 -0.1406330346
C  C46  1  0.94076000  0.81256000  0.47936000  1.0 -0.1406330346
C  C47  1  0.81256000  0.47936000  0.94076000  1.0 -0.1406330346
C  C48  1  0.47936000  0.94076000  0.81256000  1.0 -0.1406330346
C  C49  1  0.89268000  0.47518000  0.76408000  1.0 -0.0232560637
C  C50  1  0.47518000  0.76408000  0.89268000  1.0 -0.0232560637
C  C51  1  0.76408000  0.89268000  0.47518000  1.0 -0.0232560637
C  C52  1  0.10732000  0.23592000  0.52482000  1.0 -0.0232560637
C  C53  1  0.23592000  0.52482000  0.10732000  1.0 -0.0232560637
C  C54  1  0.52482000  0.10732000  0.23592000  1.0 -0.0232560637
C  C55  1  0.10732000  0.52482000  0.23592000  1.0 -0.0232560637
C  C56  1  0.52482000  0.23592000  0.10732000  1.0 -0.0232560637
C  C57  1  0.23592000  0.10732000  0.52482000  1.0 -0.0232560637
C  C58  1  0.89268000  0.76408000  0.47518000  1.0 -0.0232560637
C  C59  1  0.76408000  0.47518000  0.89268000  1.0 -0.0232560637
C  C60  1  0.47518000  0.89268000  0.76408000  1.0 -0.0232560637
C  C61  1  0.95257000  0.49107000  0.95257000  1.0 -0.0232560637
C  C62  1  0.49107000  0.95257000  0.95257000  1.0 -0.0232560637
C  C63  1  0.95257000  0.95257000  0.49107000  1.0 -0.0232560637
C  C64  1  0.04743000  0.04743000  0.50893000  1.0 -0.0232560637
C  C65  1  0.04743000  0.50893000  0.04743000  1.0 -0.0232560637
C  C66  1  0.50893000  0.04743000  0.04743000  1.0 -0.0232560637
C  C67  1  0.03800000  0.43810000  0.95140000  1.0 0.128449108
C  C68  1  0.43810000  0.95140000  0.03800000  1.0 0.128449108
C  C69  1  0.95140000  0.03800000  0.43810000  1.0 0.128449108
C  C70  1  0.96200000  0.04860000  0.56190000  1.0 0.128449108
C  C71  1  0.04860000  0.56190000  0.96200000  1.0 0.128449108
C  C72  1  0.56190000  0.96200000  0.04860000  1.0 0.128449108
C  C73  1  0.96200000  0.56190000  0.04860000  1.0 0.128449108
C  C74  1  0.56190000  0.04860000  0.96200000  1.0 0.128449108
C  C75  1  0.04860000  0.96200000  0.56190000  1.0 0.128449108
C  C76  1  0.03800000  0.95140000  0.43810000  1.0 0.128449108
C  C77  1  0.95140000  0.43810000  0.03800000  1.0 0.128449108
C  C78  1  0.43810000  0.03800000  0.95140000  1.0 0.128449108
N  N1  1  0.08760000  0.36270000  0.90760000  1.0 -0.6183108754
N  N2  1  0.36270000  0.90760000  0.08760000  1.0 -0.6183108754
N  N3  1  0.90760000  0.08760000  0.36270000  1.0 -0.6183108754
N  N4  1  0.91240000  0.09240000  0.63730000  1.0 -0.6183108754
N  N5  1  0.09240000  0.63730000  0.91240000  1.0 -0.6183108754
N  N6  1  0.63730000  0.91240000  0.09240000  1.0 -0.6183108754
N  N7  1  0.91240000  0.63730000  0.09240000  1.0 -0.6183108754
N  N8  1  0.63730000  0.09240000  0.91240000  1.0 -0.6183108754
N  N9  1  0.09240000  0.91240000  0.63730000  1.0 -0.6183108754
N  N10  1  0.08760000  0.90760000  0.36270000  1.0 -0.6183108754
N  N11  1  0.90760000  0.36270000  0.08760000  1.0 -0.6183108754
N  N12  1  0.36270000  0.08760000  0.90760000  1.0 -0.6183108754
O  O1  1  0.88653000  0.47814000  0.62543000  1.0 -0.519049661
O  O2  1  0.47814000  0.62543000  0.88653000  1.0 -0.519049661
O  O3  1  0.62543000  0.88653000  0.47814000  1.0 -0.519049661
O  O4  1  0.11347000  0.37457000  0.52186000  1.0 -0.519049661
O  O5  1  0.37457000  0.52186000  0.11347000  1.0 -0.519049661
O  O6  1  0.52186000  0.11347000  0.37457000  1.0 -0.519049661
O  O7  1  0.11347000  0.52186000  0.37457000  1.0 -0.519049661
O  O8  1  0.52186000  0.37457000  0.11347000  1.0 -0.519049661
O  O9  1  0.37457000  0.11347000  0.52186000  1.0 -0.519049661
O  O10  1  0.88653000  0.62543000  0.47814000  1.0 -0.519049661
O  O11  1  0.62543000  0.47814000  0.88653000  1.0 -0.519049661
O  O12  1  0.47814000  0.88653000  0.62543000  1.0 -0.519049661
O  O13  1  0.01337000  0.48554000  0.63312000  1.0 -0.5139497784
O  O14  1  0.48554000  0.63312000  0.01337000  1.0 -0.5139497784
O  O15  1  0.63312000  0.01337000  0.48554000  1.0 -0.5139497784
O  O16  1  0.98663000  0.36688000  0.51446000  1.0 -0.5139497784
O  O17  1  0.36688000  0.51446000  0.98663000  1.0 -0.5139497784
O  O18  1  0.51446000  0.98663000  0.36688000  1.0 -0.5139497784
O  O19  1  0.98663000  0.51446000  0.36688000  1.0 -0.5139497784
O  O20  1  0.51446000  0.36688000  0.98663000  1.0 -0.5139497784
O  O21  1  0.36688000  0.98663000  0.51446000  1.0 -0.5139497784
O  O22  1  0.01337000  0.63312000  0.48554000  1.0 -0.5139497784
O  O23  1  0.63312000  0.48554000  0.01337000  1.0 -0.5139497784
O  O24  1  0.48554000  0.01337000  0.63312000  1.0 -0.5139497784
