# DDEC6 charges by PACMAN v1.1 (https://github.com/mtap-research/PACMAN-charge/)
data_FUYCAE_ASR_pacman
_symmetry_space_group_name_H-M   'P 1'
_cell_length_a   17.78750000
_cell_length_b   17.78750000
_cell_length_c   32.81150000
_cell_angle_alpha   90.00000000
_cell_angle_beta   90.00000000
_cell_angle_gamma   90.00000000
_symmetry_Int_Tables_number   1
_chemical_formula_structural   Co4H38C56S(N2O7)2
_chemical_formula_sum   'Co16 H152 C224 S4 N16 O56'
_cell_volume   10381.39966930
_cell_formula_units_Z   4
loop_
 _symmetry_equiv_pos_site_id
 _symmetry_equiv_pos_as_xyz
  1  'x, y, z'
loop_
 _atom_site_type_symbol
 _atom_site_label
 _atom_site_symmetry_multiplicity
 _atom_site_fract_x
 _atom_site_fract_y
 _atom_site_fract_z
 _atom_site_occupancy
 _atom_site_charge
Co  Co1  1  0.59092000  0.40908000  0.00000000  1.0 1.0858671263
Co  Co2  1  0.40908000  0.59092000  0.00000000  1.0 1.0858671263
Co  Co3  1  0.09092000  0.09092000  0.50000000  1.0 1.0858671263
Co  Co4  1  0.90908000  0.90908000  0.50000000  1.0 1.0858671263
Co  Co5  1  0.90908000  0.09092000  0.50000000  1.0 1.0858671263
Co  Co6  1  0.09092000  0.90908000  0.50000000  1.0 1.0858671263
Co  Co7  1  0.40908000  0.40908000  0.00000000  1.0 1.0858671263
Co  Co8  1  0.59092000  0.59092000  0.00000000  1.0 1.0858671263
Co  Co9  1  0.50000000  0.31464000  0.92123000  1.0 0.9525219246
Co  Co10  1  0.50000000  0.68536000  0.92123000  1.0 0.9525219246
Co  Co11  1  0.18536000  0.00000000  0.42123000  1.0 0.9525219246
Co  Co12  1  0.81464000  0.00000000  0.42123000  1.0 0.9525219246
Co  Co13  1  0.00000000  0.81464000  0.57877000  1.0 0.9525219246
Co  Co14  1  0.00000000  0.18536000  0.57877000  1.0 0.9525219246
Co  Co15  1  0.31464000  0.50000000  0.07877000  1.0 0.9525219246
Co  Co16  1  0.68536000  0.50000000  0.07877000  1.0 0.9525219246
H  H1  1  0.50000000  0.30950000  0.99280000  1.0 0.3867229304
H  H2  1  0.50000000  0.69050000  0.99280000  1.0 0.3867229304
H  H3  1  0.19050000  0.00000000  0.49280000  1.0 0.3867229304
H  H4  1  0.80950000  0.00000000  0.49280000  1.0 0.3867229304
H  H5  1  0.00000000  0.80950000  0.50720000  1.0 0.3867229304
H  H6  1  0.00000000  0.19050000  0.50720000  1.0 0.3867229304
H  H7  1  0.30950000  0.50000000  0.00720000  1.0 0.3867229304
H  H8  1  0.69050000  0.50000000  0.00720000  1.0 0.3867229304
H  H9  1  0.69660000  0.26350000  0.86360000  1.0 0.1096597541
H  H10  1  0.30340000  0.73650000  0.86360000  1.0 0.1096597541
H  H11  1  0.23650000  0.19660000  0.36360000  1.0 0.1096597541
H  H12  1  0.76350000  0.80340000  0.36360000  1.0 0.1096597541
H  H13  1  0.80340000  0.76350000  0.63640000  1.0 0.1096597541
H  H14  1  0.19660000  0.23650000  0.63640000  1.0 0.1096597541
H  H15  1  0.26350000  0.69660000  0.13640000  1.0 0.1096597541
H  H16  1  0.73650000  0.30340000  0.13640000  1.0 0.1096597541
H  H17  1  0.80340000  0.23650000  0.63640000  1.0 0.1096597541
H  H18  1  0.19660000  0.76350000  0.63640000  1.0 0.1096597541
H  H19  1  0.26350000  0.30340000  0.13640000  1.0 0.1096597541
H  H20  1  0.73650000  0.69660000  0.13640000  1.0 0.1096597541
H  H21  1  0.69660000  0.73650000  0.86360000  1.0 0.1096597541
H  H22  1  0.30340000  0.26350000  0.86360000  1.0 0.1096597541
H  H23  1  0.23650000  0.80340000  0.36360000  1.0 0.1096597541
H  H24  1  0.76350000  0.19660000  0.36360000  1.0 0.1096597541
H  H25  1  0.80100000  0.24660000  0.82490000  1.0 0.1096597541
H  H26  1  0.19900000  0.75340000  0.82490000  1.0 0.1096597541
H  H27  1  0.25340000  0.30100000  0.32490000  1.0 0.1096597541
H  H28  1  0.74660000  0.69900000  0.32490000  1.0 0.1096597541
H  H29  1  0.69900000  0.74660000  0.67510000  1.0 0.1096597541
H  H30  1  0.30100000  0.25340000  0.67510000  1.0 0.1096597541
H  H31  1  0.24660000  0.80100000  0.17510000  1.0 0.1096597541
H  H32  1  0.75340000  0.19900000  0.17510000  1.0 0.1096597541
H  H33  1  0.69900000  0.25340000  0.67510000  1.0 0.1096597541
H  H34  1  0.30100000  0.74660000  0.67510000  1.0 0.1096597541
H  H35  1  0.24660000  0.19900000  0.17510000  1.0 0.1096597541
H  H36  1  0.75340000  0.80100000  0.17510000  1.0 0.1096597541
H  H37  1  0.80100000  0.75340000  0.82490000  1.0 0.1096597541
H  H38  1  0.19900000  0.24660000  0.82490000  1.0 0.1096597541
H  H39  1  0.25340000  0.69900000  0.32490000  1.0 0.1096597541
H  H40  1  0.74660000  0.30100000  0.32490000  1.0 0.1096597541
H  H41  1  0.90940000  0.40120000  0.89260000  1.0 0.1212542399
H  H42  1  0.09060000  0.59880000  0.89260000  1.0 0.1212542399
H  H43  1  0.09880000  0.40940000  0.39260000  1.0 0.1212542399
H  H44  1  0.90120000  0.59060000  0.39260000  1.0 0.1212542399
H  H45  1  0.59060000  0.90120000  0.60740000  1.0 0.1212542399
H  H46  1  0.40940000  0.09880000  0.60740000  1.0 0.1212542399
H  H47  1  0.40120000  0.90940000  0.10740000  1.0 0.1212542399
H  H48  1  0.59880000  0.09060000  0.10740000  1.0 0.1212542399
H  H49  1  0.59060000  0.09880000  0.60740000  1.0 0.1212542399
H  H50  1  0.40940000  0.90120000  0.60740000  1.0 0.1212542399
H  H51  1  0.40120000  0.09060000  0.10740000  1.0 0.1212542399
H  H52  1  0.59880000  0.90940000  0.10740000  1.0 0.1212542399
H  H53  1  0.90940000  0.59880000  0.89260000  1.0 0.1212542399
H  H54  1  0.09060000  0.40120000  0.89260000  1.0 0.1212542399
H  H55  1  0.09880000  0.59060000  0.39260000  1.0 0.1212542399
H  H56  1  0.90120000  0.40940000  0.39260000  1.0 0.1212542399
H  H57  1  0.80400000  0.41220000  0.93150000  1.0 0.1212542399
H  H58  1  0.19600000  0.58780000  0.93150000  1.0 0.1212542399
H  H59  1  0.08780000  0.30400000  0.43150000  1.0 0.1212542399
H  H60  1  0.91220000  0.69600000  0.43150000  1.0 0.1212542399
H  H61  1  0.69600000  0.91220000  0.56850000  1.0 0.1212542399
H  H62  1  0.30400000  0.08780000  0.56850000  1.0 0.1212542399
H  H63  1  0.41220000  0.80400000  0.06850000  1.0 0.1212542399
H  H64  1  0.58780000  0.19600000  0.06850000  1.0 0.1212542399
H  H65  1  0.69600000  0.08780000  0.56850000  1.0 0.1212542399
H  H66  1  0.30400000  0.91220000  0.56850000  1.0 0.1212542399
H  H67  1  0.41220000  0.19600000  0.06850000  1.0 0.1212542399
H  H68  1  0.58780000  0.80400000  0.06850000  1.0 0.1212542399
H  H69  1  0.80400000  0.58780000  0.93150000  1.0 0.1212542399
H  H70  1  0.19600000  0.41220000  0.93150000  1.0 0.1212542399
H  H71  1  0.08780000  0.69600000  0.43150000  1.0 0.1212542399
H  H72  1  0.91220000  0.30400000  0.43150000  1.0 0.1212542399
H  H73  1  0.88710000  0.29080000  0.77330000  1.0 0.1212542399
H  H74  1  0.11290000  0.70920000  0.77330000  1.0 0.1212542399
H  H75  1  0.20920000  0.38710000  0.27330000  1.0 0.1212542399
H  H76  1  0.79080000  0.61290000  0.27330000  1.0 0.1212542399
H  H77  1  0.61290000  0.79080000  0.72670000  1.0 0.1212542399
H  H78  1  0.38710000  0.20920000  0.72670000  1.0 0.1212542399
H  H79  1  0.29080000  0.88710000  0.22670000  1.0 0.1212542399
H  H80  1  0.70920000  0.11290000  0.22670000  1.0 0.1212542399
H  H81  1  0.61290000  0.20920000  0.72670000  1.0 0.1212542399
H  H82  1  0.38710000  0.79080000  0.72670000  1.0 0.1212542399
H  H83  1  0.29080000  0.11290000  0.22670000  1.0 0.1212542399
H  H84  1  0.70920000  0.88710000  0.22670000  1.0 0.1212542399
H  H85  1  0.88710000  0.70920000  0.77330000  1.0 0.1212542399
H  H86  1  0.11290000  0.29080000  0.77330000  1.0 0.1212542399
H  H87  1  0.20920000  0.61290000  0.27330000  1.0 0.1212542399
H  H88  1  0.79080000  0.38710000  0.27330000  1.0 0.1212542399
H  H89  1  0.92630000  0.17930000  0.72820000  1.0 0.1096597541
H  H90  1  0.07370000  0.82070000  0.72820000  1.0 0.1096597541
H  H91  1  0.32070000  0.42630000  0.22820000  1.0 0.1096597541
H  H92  1  0.67930000  0.57370000  0.22820000  1.0 0.1096597541
H  H93  1  0.57370000  0.67930000  0.77180000  1.0 0.1096597541
H  H94  1  0.42630000  0.32070000  0.77180000  1.0 0.1096597541
H  H95  1  0.17930000  0.92630000  0.27180000  1.0 0.1096597541
H  H96  1  0.82070000  0.07370000  0.27180000  1.0 0.1096597541
H  H97  1  0.57370000  0.32070000  0.77180000  1.0 0.1096597541
H  H98  1  0.42630000  0.67930000  0.77180000  1.0 0.1096597541
H  H99  1  0.17930000  0.07370000  0.27180000  1.0 0.1096597541
H  H100  1  0.82070000  0.92630000  0.27180000  1.0 0.1096597541
H  H101  1  0.92630000  0.82070000  0.72820000  1.0 0.1096597541
H  H102  1  0.07370000  0.17930000  0.72820000  1.0 0.1096597541
H  H103  1  0.32070000  0.57370000  0.22820000  1.0 0.1096597541
H  H104  1  0.67930000  0.42630000  0.22820000  1.0 0.1096597541
H  H105  1  0.92730000  0.14390000  0.66050000  1.0 0.1212542399
H  H106  1  0.07270000  0.85610000  0.66050000  1.0 0.1212542399
H  H107  1  0.35610000  0.42730000  0.16050000  1.0 0.1212542399
H  H108  1  0.64390000  0.57270000  0.16050000  1.0 0.1212542399
H  H109  1  0.57270000  0.64390000  0.83950000  1.0 0.1212542399
H  H110  1  0.42730000  0.35610000  0.83950000  1.0 0.1212542399
H  H111  1  0.14390000  0.92730000  0.33950000  1.0 0.1212542399
H  H112  1  0.85610000  0.07270000  0.33950000  1.0 0.1212542399
H  H113  1  0.57270000  0.35610000  0.83950000  1.0 0.1212542399
H  H114  1  0.42730000  0.64390000  0.83950000  1.0 0.1212542399
H  H115  1  0.14390000  0.07270000  0.33950000  1.0 0.1212542399
H  H116  1  0.85610000  0.92730000  0.33950000  1.0 0.1212542399
H  H117  1  0.92730000  0.85610000  0.66050000  1.0 0.1212542399
H  H118  1  0.07270000  0.14390000  0.66050000  1.0 0.1212542399
H  H119  1  0.35610000  0.57270000  0.16050000  1.0 0.1212542399
H  H120  1  0.64390000  0.42730000  0.16050000  1.0 0.1212542399
H  H121  1  0.93220000  0.33960000  0.70290000  1.0 0.1096597541
H  H122  1  0.06780000  0.66040000  0.70290000  1.0 0.1096597541
H  H123  1  0.16040000  0.43220000  0.20290000  1.0 0.1096597541
H  H124  1  0.83960000  0.56780000  0.20290000  1.0 0.1096597541
H  H125  1  0.56780000  0.83960000  0.79710000  1.0 0.1096597541
H  H126  1  0.43220000  0.16040000  0.79710000  1.0 0.1096597541
H  H127  1  0.33960000  0.93220000  0.29710000  1.0 0.1096597541
H  H128  1  0.66040000  0.06780000  0.29710000  1.0 0.1096597541
H  H129  1  0.56780000  0.16040000  0.79710000  1.0 0.1096597541
H  H130  1  0.43220000  0.83960000  0.79710000  1.0 0.1096597541
H  H131  1  0.33960000  0.06780000  0.29710000  1.0 0.1096597541
H  H132  1  0.66040000  0.93220000  0.29710000  1.0 0.1096597541
H  H133  1  0.93220000  0.66040000  0.70290000  1.0 0.1096597541
H  H134  1  0.06780000  0.33960000  0.70290000  1.0 0.1096597541
H  H135  1  0.16040000  0.56780000  0.20290000  1.0 0.1096597541
H  H136  1  0.83960000  0.43220000  0.20290000  1.0 0.1096597541
H  H137  1  0.93200000  0.30450000  0.63470000  1.0 0.1096597541
H  H138  1  0.06800000  0.69550000  0.63470000  1.0 0.1096597541
H  H139  1  0.19550000  0.43200000  0.13470000  1.0 0.1096597541
H  H140  1  0.80450000  0.56800000  0.13470000  1.0 0.1096597541
H  H141  1  0.56800000  0.80450000  0.86530000  1.0 0.1096597541
H  H142  1  0.43200000  0.19550000  0.86530000  1.0 0.1096597541
H  H143  1  0.30450000  0.93200000  0.36530000  1.0 0.1096597541
H  H144  1  0.69550000  0.06800000  0.36530000  1.0 0.1096597541
H  H145  1  0.56800000  0.19550000  0.86530000  1.0 0.1096597541
H  H146  1  0.43200000  0.80450000  0.86530000  1.0 0.1096597541
H  H147  1  0.30450000  0.06800000  0.36530000  1.0 0.1096597541
H  H148  1  0.69550000  0.93200000  0.36530000  1.0 0.1096597541
H  H149  1  0.93200000  0.69550000  0.63470000  1.0 0.1096597541
H  H150  1  0.06800000  0.30450000  0.63470000  1.0 0.1096597541
H  H151  1  0.19550000  0.56800000  0.13470000  1.0 0.1096597541
H  H152  1  0.80450000  0.43200000  0.13470000  1.0 0.1096597541
C  C1  1  0.67200000  0.34230000  0.92939000  1.0 0.6001879915
C  C2  1  0.32800000  0.65770000  0.92939000  1.0 0.6001879915
C  C3  1  0.15770000  0.17200000  0.42939000  1.0 0.6001879915
C  C4  1  0.84230000  0.82800000  0.42939000  1.0 0.6001879915
C  C5  1  0.82800000  0.84230000  0.57061000  1.0 0.6001879915
C  C6  1  0.17200000  0.15770000  0.57061000  1.0 0.6001879915
C  C7  1  0.34230000  0.67200000  0.07061000  1.0 0.6001879915
C  C8  1  0.65770000  0.32800000  0.07061000  1.0 0.6001879915
C  C9  1  0.82800000  0.15770000  0.57061000  1.0 0.6001879915
C  C10  1  0.17200000  0.84230000  0.57061000  1.0 0.6001879915
C  C11  1  0.34230000  0.32800000  0.07061000  1.0 0.6001879915
C  C12  1  0.65770000  0.67200000  0.07061000  1.0 0.6001879915
C  C13  1  0.67200000  0.65770000  0.92939000  1.0 0.6001879915
C  C14  1  0.32800000  0.34230000  0.92939000  1.0 0.6001879915
C  C15  1  0.15770000  0.82800000  0.42939000  1.0 0.6001879915
C  C16  1  0.84230000  0.17200000  0.42939000  1.0 0.6001879915
C  C17  1  0.73900000  0.33520000  0.90314000  1.0 -0.0380301269
C  C18  1  0.26100000  0.66480000  0.90314000  1.0 -0.0380301269
C  C19  1  0.16480000  0.23900000  0.40314000  1.0 -0.0380301269
C  C20  1  0.83520000  0.76100000  0.40314000  1.0 -0.0380301269
C  C21  1  0.76100000  0.83520000  0.59686000  1.0 -0.0380301269
C  C22  1  0.23900000  0.16480000  0.59686000  1.0 -0.0380301269
C  C23  1  0.33520000  0.73900000  0.09686000  1.0 -0.0380301269
C  C24  1  0.66480000  0.26100000  0.09686000  1.0 -0.0380301269
C  C25  1  0.76100000  0.16480000  0.59686000  1.0 -0.0380301269
C  C26  1  0.23900000  0.83520000  0.59686000  1.0 -0.0380301269
C  C27  1  0.33520000  0.26100000  0.09686000  1.0 -0.0380301269
C  C28  1  0.66480000  0.73900000  0.09686000  1.0 -0.0380301269
C  C29  1  0.73900000  0.66480000  0.90314000  1.0 -0.0380301269
C  C30  1  0.26100000  0.33520000  0.90314000  1.0 -0.0380301269
C  C31  1  0.16480000  0.76100000  0.40314000  1.0 -0.0380301269
C  C32  1  0.83520000  0.23900000  0.40314000  1.0 -0.0380301269
C  C33  1  0.74010000  0.28980000  0.87031000  1.0 -0.105772285
C  C34  1  0.25990000  0.71020000  0.87031000  1.0 -0.105772285
C  C35  1  0.21020000  0.24010000  0.37031000  1.0 -0.105772285
C  C36  1  0.78980000  0.75990000  0.37031000  1.0 -0.105772285
C  C37  1  0.75990000  0.78980000  0.62969000  1.0 -0.105772285
C  C38  1  0.24010000  0.21020000  0.62969000  1.0 -0.105772285
C  C39  1  0.28980000  0.74010000  0.12969000  1.0 -0.105772285
C  C40  1  0.71020000  0.25990000  0.12969000  1.0 -0.105772285
C  C41  1  0.75990000  0.21020000  0.62969000  1.0 -0.105772285
C  C42  1  0.24010000  0.78980000  0.62969000  1.0 -0.105772285
C  C43  1  0.28980000  0.25990000  0.12969000  1.0 -0.105772285
C  C44  1  0.71020000  0.74010000  0.12969000  1.0 -0.105772285
C  C45  1  0.74010000  0.71020000  0.87031000  1.0 -0.105772285
C  C46  1  0.25990000  0.28980000  0.87031000  1.0 -0.105772285
C  C47  1  0.21020000  0.75990000  0.37031000  1.0 -0.105772285
C  C48  1  0.78980000  0.24010000  0.37031000  1.0 -0.105772285
C  C49  1  0.80220000  0.28060000  0.84642000  1.0 -0.1563250229
C  C50  1  0.19780000  0.71940000  0.84642000  1.0 -0.1563250229
C  C51  1  0.21940000  0.30220000  0.34642000  1.0 -0.1563250229
C  C52  1  0.78060000  0.69780000  0.34642000  1.0 -0.1563250229
C  C53  1  0.69780000  0.78060000  0.65358000  1.0 -0.1563250229
C  C54  1  0.30220000  0.21940000  0.65358000  1.0 -0.1563250229
C  C55  1  0.28060000  0.80220000  0.15358000  1.0 -0.1563250229
C  C56  1  0.71940000  0.19780000  0.15358000  1.0 -0.1563250229
C  C57  1  0.69780000  0.21940000  0.65358000  1.0 -0.1563250229
C  C58  1  0.30220000  0.78060000  0.65358000  1.0 -0.1563250229
C  C59  1  0.28060000  0.19780000  0.15358000  1.0 -0.1563250229
C  C60  1  0.71940000  0.80220000  0.15358000  1.0 -0.1563250229
C  C61  1  0.80220000  0.71940000  0.84642000  1.0 -0.1563250229
C  C62  1  0.19780000  0.28060000  0.84642000  1.0 -0.1563250229
C  C63  1  0.21940000  0.69780000  0.34642000  1.0 -0.1563250229
C  C64  1  0.78060000  0.30220000  0.34642000  1.0 -0.1563250229
C  C65  1  0.86760000  0.32170000  0.85406000  1.0 0.0418211291
C  C66  1  0.13240000  0.67830000  0.85406000  1.0 0.0418211291
C  C67  1  0.17830000  0.36760000  0.35406000  1.0 0.0418211291
C  C68  1  0.82170000  0.63240000  0.35406000  1.0 0.0418211291
C  C69  1  0.63240000  0.82170000  0.64594000  1.0 0.0418211291
C  C70  1  0.36760000  0.17830000  0.64594000  1.0 0.0418211291
C  C71  1  0.32170000  0.86760000  0.14594000  1.0 0.0418211291
C  C72  1  0.67830000  0.13240000  0.14594000  1.0 0.0418211291
C  C73  1  0.63240000  0.17830000  0.64594000  1.0 0.0418211291
C  C74  1  0.36760000  0.82170000  0.64594000  1.0 0.0418211291
C  C75  1  0.32170000  0.13240000  0.14594000  1.0 0.0418211291
C  C76  1  0.67830000  0.86760000  0.14594000  1.0 0.0418211291
C  C77  1  0.86760000  0.67830000  0.85406000  1.0 0.0418211291
C  C78  1  0.13240000  0.32170000  0.85406000  1.0 0.0418211291
C  C79  1  0.17830000  0.63240000  0.35406000  1.0 0.0418211291
C  C80  1  0.82170000  0.36760000  0.35406000  1.0 0.0418211291
C  C81  1  0.86720000  0.37220000  0.88678000  1.0 -0.1378557675
C  C82  1  0.13280000  0.62780000  0.88678000  1.0 -0.1378557675
C  C83  1  0.12780000  0.36720000  0.38678000  1.0 -0.1378557675
C  C84  1  0.87220000  0.63280000  0.38678000  1.0 -0.1378557675
C  C85  1  0.63280000  0.87220000  0.61322000  1.0 -0.1378557675
C  C86  1  0.36720000  0.12780000  0.61322000  1.0 -0.1378557675
C  C87  1  0.37220000  0.86720000  0.11322000  1.0 -0.1378557675
C  C88  1  0.62780000  0.13280000  0.11322000  1.0 -0.1378557675
C  C89  1  0.63280000  0.12780000  0.61322000  1.0 -0.1378557675
C  C90  1  0.36720000  0.87220000  0.61322000  1.0 -0.1378557675
C  C91  1  0.37220000  0.13280000  0.11322000  1.0 -0.1378557675
C  C92  1  0.62780000  0.86720000  0.11322000  1.0 -0.1378557675
C  C93  1  0.86720000  0.62780000  0.88678000  1.0 -0.1378557675
C  C94  1  0.13280000  0.37220000  0.88678000  1.0 -0.1378557675
C  C95  1  0.12780000  0.63280000  0.38678000  1.0 -0.1378557675
C  C96  1  0.87220000  0.36720000  0.38678000  1.0 -0.1378557675
C  C97  1  0.80400000  0.37810000  0.91004000  1.0 -0.105772285
C  C98  1  0.19600000  0.62190000  0.91004000  1.0 -0.105772285
C  C99  1  0.12190000  0.30400000  0.41004000  1.0 -0.105772285
C  C100  1  0.87810000  0.69600000  0.41004000  1.0 -0.105772285
C  C101  1  0.69600000  0.87810000  0.58996000  1.0 -0.105772285
C  C102  1  0.30400000  0.12190000  0.58996000  1.0 -0.105772285
C  C103  1  0.37810000  0.80400000  0.08996000  1.0 -0.105772285
C  C104  1  0.62190000  0.19600000  0.08996000  1.0 -0.105772285
C  C105  1  0.69600000  0.12190000  0.58996000  1.0 -0.105772285
C  C106  1  0.30400000  0.87810000  0.58996000  1.0 -0.105772285
C  C107  1  0.37810000  0.19600000  0.08996000  1.0 -0.105772285
C  C108  1  0.62190000  0.80400000  0.08996000  1.0 -0.105772285
C  C109  1  0.80400000  0.62190000  0.91004000  1.0 -0.105772285
C  C110  1  0.19600000  0.37810000  0.91004000  1.0 -0.105772285
C  C111  1  0.12190000  0.69600000  0.41004000  1.0 -0.105772285
C  C112  1  0.87810000  0.30400000  0.41004000  1.0 -0.105772285
C  C113  1  0.93490000  0.31440000  0.82895000  1.0 0.2054469853
C  C114  1  0.06510000  0.68560000  0.82895000  1.0 0.2054469853
C  C115  1  0.18560000  0.43490000  0.32895000  1.0 0.2054469853
C  C116  1  0.81440000  0.56510000  0.32895000  1.0 0.2054469853
C  C117  1  0.56510000  0.81440000  0.67105000  1.0 0.2054469853
C  C118  1  0.43490000  0.18560000  0.67105000  1.0 0.2054469853
C  C119  1  0.31440000  0.93490000  0.17105000  1.0 0.2054469853
C  C120  1  0.68560000  0.06510000  0.17105000  1.0 0.2054469853
C  C121  1  0.56510000  0.18560000  0.67105000  1.0 0.2054469853
C  C122  1  0.43490000  0.81440000  0.67105000  1.0 0.2054469853
C  C123  1  0.31440000  0.06510000  0.17105000  1.0 0.2054469853
C  C124  1  0.68560000  0.93490000  0.17105000  1.0 0.2054469853
C  C125  1  0.93490000  0.68560000  0.82895000  1.0 0.2054469853
C  C126  1  0.06510000  0.31440000  0.82895000  1.0 0.2054469853
C  C127  1  0.18560000  0.56510000  0.32895000  1.0 0.2054469853
C  C128  1  0.81440000  0.43490000  0.32895000  1.0 0.2054469853
C  C129  1  0.93290000  0.29580000  0.78671000  1.0 -0.2497663938
C  C130  1  0.06710000  0.70420000  0.78671000  1.0 -0.2497663938
C  C131  1  0.20420000  0.43290000  0.28671000  1.0 -0.2497663938
C  C132  1  0.79580000  0.56710000  0.28671000  1.0 -0.2497663938
C  C133  1  0.56710000  0.79580000  0.71329000  1.0 -0.2497663938
C  C134  1  0.43290000  0.20420000  0.71329000  1.0 -0.2497663938
C  C135  1  0.29580000  0.93290000  0.21329000  1.0 -0.2497663938
C  C136  1  0.70420000  0.06710000  0.21329000  1.0 -0.2497663938
C  C137  1  0.56710000  0.20420000  0.71329000  1.0 -0.2497663938
C  C138  1  0.43290000  0.79580000  0.71329000  1.0 -0.2497663938
C  C139  1  0.29580000  0.06710000  0.21329000  1.0 -0.2497663938
C  C140  1  0.70420000  0.93290000  0.21329000  1.0 -0.2497663938
C  C141  1  0.93290000  0.70420000  0.78671000  1.0 -0.2497663938
C  C142  1  0.06710000  0.29580000  0.78671000  1.0 -0.2497663938
C  C143  1  0.20420000  0.56710000  0.28671000  1.0 -0.2497663938
C  C144  1  0.79580000  0.43290000  0.28671000  1.0 -0.2497663938
C  C145  1  0.00000000  0.28540000  0.76570000  1.0 0.0985801339
C  C146  1  0.00000000  0.71460000  0.76570000  1.0 0.0985801339
C  C147  1  0.21460000  0.50000000  0.26570000  1.0 0.0985801339
C  C148  1  0.78540000  0.50000000  0.26570000  1.0 0.0985801339
C  C149  1  0.50000000  0.78540000  0.73430000  1.0 0.0985801339
C  C150  1  0.50000000  0.21460000  0.73430000  1.0 0.0985801339
C  C151  1  0.28540000  0.00000000  0.23430000  1.0 0.0985801339
C  C152  1  0.71460000  0.00000000  0.23430000  1.0 0.0985801339
C  C153  1  0.00000000  0.26260000  0.72280000  1.0 0.0062030188
C  C154  1  0.00000000  0.73740000  0.72280000  1.0 0.0047842416
C  C155  1  0.23740000  0.50000000  0.22280000  1.0 0.0062030188
C  C156  1  0.76260000  0.50000000  0.22280000  1.0 0.0062030188
C  C157  1  0.50000000  0.76260000  0.77720000  1.0 0.0062030188
C  C158  1  0.50000000  0.23740000  0.77720000  1.0 0.0062030188
C  C159  1  0.26260000  0.00000000  0.27720000  1.0 0.0047842416
C  C160  1  0.73740000  0.00000000  0.27720000  1.0 0.0062030188
C  C161  1  0.95210000  0.20880000  0.70940000  1.0 -0.1206780465
C  C162  1  0.04790000  0.79120000  0.70940000  1.0 -0.1206780465
C  C163  1  0.29120000  0.45210000  0.20940000  1.0 -0.1206780465
C  C164  1  0.70880000  0.54790000  0.20940000  1.0 -0.1206780465
C  C165  1  0.54790000  0.70880000  0.79060000  1.0 -0.1206780465
C  C166  1  0.45210000  0.29120000  0.79060000  1.0 -0.1206780465
C  C167  1  0.20880000  0.95210000  0.29060000  1.0 -0.1206780465
C  C168  1  0.79120000  0.04790000  0.29060000  1.0 -0.1206780465
C  C169  1  0.54790000  0.29120000  0.79060000  1.0 -0.1206780465
C  C170  1  0.45210000  0.70880000  0.79060000  1.0 -0.1206780465
C  C171  1  0.20880000  0.04790000  0.29060000  1.0 -0.1206780465
C  C172  1  0.79120000  0.95210000  0.29060000  1.0 -0.1206780465
C  C173  1  0.95210000  0.79120000  0.70940000  1.0 -0.1206780465
C  C174  1  0.04790000  0.20880000  0.70940000  1.0 -0.1206780465
C  C175  1  0.29120000  0.54790000  0.20940000  1.0 -0.1206780465
C  C176  1  0.70880000  0.45210000  0.20940000  1.0 -0.1206780465
C  C177  1  0.95220000  0.18780000  0.66800000  1.0 -0.0108249938
C  C178  1  0.04780000  0.81220000  0.66800000  1.0 -0.0108249938
C  C179  1  0.31220000  0.45220000  0.16800000  1.0 -0.0108249938
C  C180  1  0.68780000  0.54780000  0.16800000  1.0 -0.0108249938
C  C181  1  0.54780000  0.68780000  0.83200000  1.0 -0.0108249938
C  C182  1  0.45220000  0.31220000  0.83200000  1.0 -0.0108249938
C  C183  1  0.18780000  0.95220000  0.33200000  1.0 -0.0108249938
C  C184  1  0.81220000  0.04780000  0.33200000  1.0 -0.0108249938
C  C185  1  0.54780000  0.31220000  0.83200000  1.0 -0.0108249938
C  C186  1  0.45220000  0.68780000  0.83200000  1.0 -0.0108249938
C  C187  1  0.18780000  0.04780000  0.33200000  1.0 -0.0108249938
C  C188  1  0.81220000  0.95220000  0.33200000  1.0 -0.0108249938
C  C189  1  0.95220000  0.81220000  0.66800000  1.0 -0.0108249938
C  C190  1  0.04780000  0.18780000  0.66800000  1.0 -0.0108249938
C  C191  1  0.31220000  0.54780000  0.16800000  1.0 -0.0108249938
C  C192  1  0.68780000  0.45220000  0.16800000  1.0 -0.0108249938
C  C193  1  0.95680000  0.29550000  0.69550000  1.0 -0.0868377944
C  C194  1  0.04320000  0.70450000  0.69550000  1.0 -0.0868377944
C  C195  1  0.20450000  0.45680000  0.19550000  1.0 -0.0868377944
C  C196  1  0.79550000  0.54320000  0.19550000  1.0 -0.0868377944
C  C197  1  0.54320000  0.79550000  0.80450000  1.0 -0.0868377944
C  C198  1  0.45680000  0.20450000  0.80450000  1.0 -0.0868377944
C  C199  1  0.29550000  0.95680000  0.30450000  1.0 -0.0868377944
C  C200  1  0.70450000  0.04320000  0.30450000  1.0 -0.0868377944
C  C201  1  0.54320000  0.20450000  0.80450000  1.0 -0.0868377944
C  C202  1  0.45680000  0.79550000  0.80450000  1.0 -0.0868377944
C  C203  1  0.29550000  0.04320000  0.30450000  1.0 -0.0868377944
C  C204  1  0.70450000  0.95680000  0.30450000  1.0 -0.0868377944
C  C205  1  0.95680000  0.70450000  0.69550000  1.0 -0.0868377944
C  C206  1  0.04320000  0.29550000  0.69550000  1.0 -0.0868377944
C  C207  1  0.20450000  0.54320000  0.19550000  1.0 -0.0868377944
C  C208  1  0.79550000  0.45680000  0.19550000  1.0 -0.0868377944
C  C209  1  0.95830000  0.27580000  0.65370000  1.0 -0.0108249938
C  C210  1  0.04170000  0.72420000  0.65370000  1.0 -0.0108249938
C  C211  1  0.22420000  0.45830000  0.15370000  1.0 -0.0108249938
C  C212  1  0.77580000  0.54170000  0.15370000  1.0 -0.0108249938
C  C213  1  0.54170000  0.77580000  0.84630000  1.0 -0.0108249938
C  C214  1  0.45830000  0.22420000  0.84630000  1.0 -0.0108249938
C  C215  1  0.27580000  0.95830000  0.34630000  1.0 -0.0108249938
C  C216  1  0.72420000  0.04170000  0.34630000  1.0 -0.0108249938
C  C217  1  0.54170000  0.22420000  0.84630000  1.0 -0.0108249938
C  C218  1  0.45830000  0.77580000  0.84630000  1.0 -0.0108249938
C  C219  1  0.27580000  0.04170000  0.34630000  1.0 -0.0108249938
C  C220  1  0.72420000  0.95830000  0.34630000  1.0 -0.0108249938
C  C221  1  0.95830000  0.72420000  0.65370000  1.0 -0.0108249938
C  C222  1  0.04170000  0.27580000  0.65370000  1.0 -0.0108249938
C  C223  1  0.22420000  0.54170000  0.15370000  1.0 -0.0108249938
C  C224  1  0.77580000  0.45830000  0.15370000  1.0 -0.0108249938
S  S1  1  0.50000000  0.50000000  0.92836000  1.0 1.3173247918
S  S2  1  0.00000000  0.00000000  0.42836000  1.0 1.3173247918
S  S3  1  0.00000000  0.00000000  0.57164000  1.0 1.3289894208
S  S4  1  0.50000000  0.50000000  0.07164000  1.0 1.3173247918
N  N1  1  0.00000000  0.21860000  0.64145000  1.0 -0.0790872083
N  N2  1  0.00000000  0.78140000  0.64145000  1.0 -0.0790872083
N  N3  1  0.28140000  0.50000000  0.14145000  1.0 -0.0790872083
N  N4  1  0.71860000  0.50000000  0.14145000  1.0 -0.0790872083
N  N5  1  0.50000000  0.71860000  0.85855000  1.0 -0.0790872083
N  N6  1  0.50000000  0.28140000  0.85855000  1.0 -0.0790872083
N  N7  1  0.21860000  0.00000000  0.35855000  1.0 -0.0790872083
N  N8  1  0.78140000  0.00000000  0.35855000  1.0 -0.0790872083
N  N9  1  0.00000000  0.32340000  0.84882000  1.0 -0.3364062414
N  N10  1  0.00000000  0.67660000  0.84882000  1.0 -0.3343945846
N  N11  1  0.17660000  0.50000000  0.34882000  1.0 -0.3343945846
N  N12  1  0.82340000  0.50000000  0.34882000  1.0 -0.3343945846
N  N13  1  0.50000000  0.82340000  0.65118000  1.0 -0.3343945846
N  N14  1  0.50000000  0.17660000  0.65118000  1.0 -0.3343945846
N  N15  1  0.32340000  0.00000000  0.15118000  1.0 -0.3364062414
N  N16  1  0.67660000  0.00000000  0.15118000  1.0 -0.3343945846
O  O1  1  0.67646000  0.38049000  0.96158000  1.0 -0.5447611765
O  O2  1  0.32354000  0.61951000  0.96158000  1.0 -0.5447611765
O  O3  1  0.11951000  0.17646000  0.46158000  1.0 -0.5447611765
O  O4  1  0.88049000  0.82354000  0.46158000  1.0 -0.5447611765
O  O5  1  0.82354000  0.88049000  0.53842000  1.0 -0.5447611765
O  O6  1  0.17646000  0.11951000  0.53842000  1.0 -0.5447611765
O  O7  1  0.38049000  0.67646000  0.03842000  1.0 -0.5447611765
O  O8  1  0.61951000  0.32354000  0.03842000  1.0 -0.5447611765
O  O9  1  0.82354000  0.11951000  0.53842000  1.0 -0.5447611765
O  O10  1  0.17646000  0.88049000  0.53842000  1.0 -0.5447611765
O  O11  1  0.38049000  0.32354000  0.03842000  1.0 -0.5447611765
O  O12  1  0.61951000  0.67646000  0.03842000  1.0 -0.5447611765
O  O13  1  0.67646000  0.61951000  0.96158000  1.0 -0.5447611765
O  O14  1  0.32354000  0.38049000  0.96158000  1.0 -0.5447611765
O  O15  1  0.11951000  0.82354000  0.46158000  1.0 -0.5447611765
O  O16  1  0.88049000  0.17646000  0.46158000  1.0 -0.5447611765
O  O17  1  0.61300000  0.30860000  0.91677000  1.0 -0.5972162143
O  O18  1  0.38700000  0.69140000  0.91677000  1.0 -0.5972162143
O  O19  1  0.19140000  0.11300000  0.41677000  1.0 -0.5972162143
O  O20  1  0.80860000  0.88700000  0.41677000  1.0 -0.5972162143
O  O21  1  0.88700000  0.80860000  0.58323000  1.0 -0.5972162143
O  O22  1  0.11300000  0.19140000  0.58323000  1.0 -0.5972162143
O  O23  1  0.30860000  0.61300000  0.08323000  1.0 -0.5972162143
O  O24  1  0.69140000  0.38700000  0.08323000  1.0 -0.5972162143
O  O25  1  0.88700000  0.19140000  0.58323000  1.0 -0.5972162143
O  O26  1  0.11300000  0.80860000  0.58323000  1.0 -0.5972162143
O  O27  1  0.30860000  0.38700000  0.08323000  1.0 -0.5972162143
O  O28  1  0.69140000  0.61300000  0.08323000  1.0 -0.5972162143
O  O29  1  0.61300000  0.69140000  0.91677000  1.0 -0.5972162143
O  O30  1  0.38700000  0.30860000  0.91677000  1.0 -0.5972162143
O  O31  1  0.19140000  0.88700000  0.41677000  1.0 -0.5972162143
O  O32  1  0.80860000  0.11300000  0.41677000  1.0 -0.5972162143
O  O33  1  0.50000000  0.34830000  0.97933000  1.0 -0.8758593456
O  O34  1  0.50000000  0.65170000  0.97933000  1.0 -0.8758593456
O  O35  1  0.15170000  0.00000000  0.47933000  1.0 -0.8749398843
O  O36  1  0.84830000  0.00000000  0.47933000  1.0 -0.8758593456
O  O37  1  0.00000000  0.84830000  0.52067000  1.0 -0.8749398843
O  O38  1  0.00000000  0.15170000  0.52067000  1.0 -0.8749398843
O  O39  1  0.34830000  0.50000000  0.02067000  1.0 -0.8749398843
O  O40  1  0.65170000  0.50000000  0.02067000  1.0 -0.8758593456
O  O41  1  0.56690000  0.50000000  0.95580000  1.0 -0.6865050897
O  O42  1  0.43310000  0.50000000  0.95580000  1.0 -0.6865050897
O  O43  1  0.00000000  0.06690000  0.45580000  1.0 -0.6865050897
O  O44  1  0.00000000  0.93310000  0.45580000  1.0 -0.6865050897
O  O45  1  0.93310000  0.00000000  0.54420000  1.0 -0.6865050897
O  O46  1  0.06690000  0.00000000  0.54420000  1.0 -0.6865050897
O  O47  1  0.50000000  0.56690000  0.04420000  1.0 -0.6865050897
O  O48  1  0.50000000  0.43310000  0.04420000  1.0 -0.6865050897
O  O49  1  0.50000000  0.43250000  0.90293000  1.0 -0.6459849731
O  O50  1  0.50000000  0.56750000  0.90293000  1.0 -0.6459849731
O  O51  1  0.06750000  0.00000000  0.40293000  1.0 -0.6459849731
O  O52  1  0.93250000  0.00000000  0.40293000  1.0 -0.6459849731
O  O53  1  0.00000000  0.93250000  0.59707000  1.0 -0.6459849731
O  O54  1  0.00000000  0.06750000  0.59707000  1.0 -0.6459849731
O  O55  1  0.43250000  0.50000000  0.09707000  1.0 -0.6459849731
O  O56  1  0.56750000  0.50000000  0.09707000  1.0 -0.6459849731
