# DDEC6 charges by PACMAN v1.1 (https://github.com/mtap-research/PACMAN-charge/)
data_FUYCEJ_ASR_pacman
_symmetry_space_group_name_H-M   'P 1'
_cell_length_a   17.99600000
_cell_length_b   17.99600000
_cell_length_c   17.99600000
_cell_angle_alpha   90.00000000
_cell_angle_beta   90.00000000
_cell_angle_gamma   90.00000000
_symmetry_Int_Tables_number   1
_chemical_formula_structural   TiH6(C3O)6
_chemical_formula_sum   'Ti8 H48 C144 O48'
_cell_volume   5828.11286394
_cell_formula_units_Z   8
loop_
 _symmetry_equiv_pos_site_id
 _symmetry_equiv_pos_as_xyz
  1  'x, y, z'
loop_
 _atom_site_type_symbol
 _atom_site_label
 _atom_site_symmetry_multiplicity
 _atom_site_fract_x
 _atom_site_fract_y
 _atom_site_fract_z
 _atom_site_occupancy
 _atom_site_charge
Ti  Ti1  1  0.62477000  0.37523000  0.87523000  1.0 1.5693119568
Ti  Ti2  1  0.87523000  0.62477000  0.37523000  1.0 1.5693119568
Ti  Ti3  1  0.37523000  0.87523000  0.62477000  1.0 1.5693119568
Ti  Ti4  1  0.12477000  0.12477000  0.12477000  1.0 1.5693119568
Ti  Ti5  1  0.37525000  0.62475000  0.12475000  1.0 1.5693119568
Ti  Ti6  1  0.12475000  0.37525000  0.62475000  1.0 1.5693119568
Ti  Ti7  1  0.62475000  0.12475000  0.37525000  1.0 1.5693119568
Ti  Ti8  1  0.87525000  0.87525000  0.87525000  1.0 1.5693119568
H  H1  1  0.72816000  0.49773000  0.07664000  1.0 0.143344554
H  H2  1  0.77184000  0.50227000  0.57664000  1.0 0.143344554
H  H3  1  0.27184000  0.99773000  0.42336000  1.0 0.143344554
H  H4  1  0.22816000  0.00227000  0.92336000  1.0 0.143344554
H  H5  1  0.07664000  0.72816000  0.49773000  1.0 0.143344554
H  H6  1  0.57664000  0.77184000  0.50227000  1.0 0.143344554
H  H7  1  0.42336000  0.27184000  0.99773000  1.0 0.143344554
H  H8  1  0.92336000  0.22816000  0.00227000  1.0 0.143344554
H  H9  1  0.49773000  0.07664000  0.72816000  1.0 0.143344554
H  H10  1  0.50227000  0.57664000  0.77184000  1.0 0.143344554
H  H11  1  0.99773000  0.42336000  0.27184000  1.0 0.143344554
H  H12  1  0.00227000  0.92336000  0.22816000  1.0 0.143344554
H  H13  1  0.82581000  0.25210000  0.97851000  1.0 0.1461994898
H  H14  1  0.67419000  0.74790000  0.47851000  1.0 0.1461994898
H  H15  1  0.17419000  0.75210000  0.52149000  1.0 0.1461994898
H  H16  1  0.32581000  0.24790000  0.02149000  1.0 0.1461994898
H  H17  1  0.97851000  0.82581000  0.25210000  1.0 0.1461994898
H  H18  1  0.47851000  0.67419000  0.74790000  1.0 0.1461994898
H  H19  1  0.52149000  0.17419000  0.75210000  1.0 0.1461994898
H  H20  1  0.02149000  0.32581000  0.24790000  1.0 0.1461994898
H  H21  1  0.25210000  0.97851000  0.82581000  1.0 0.1461994898
H  H22  1  0.74790000  0.47851000  0.67419000  1.0 0.1461994898
H  H23  1  0.75210000  0.52149000  0.17419000  1.0 0.1461994898
H  H24  1  0.24790000  0.02149000  0.32581000  1.0 0.1461994898
H  H25  1  0.27186000  0.50229000  0.92332000  1.0 0.143344554
H  H26  1  0.22814000  0.49771000  0.42332000  1.0 0.143344554
H  H27  1  0.72814000  0.00229000  0.57668000  1.0 0.143344554
H  H28  1  0.77186000  0.99771000  0.07668000  1.0 0.143344554
H  H29  1  0.92332000  0.27186000  0.50229000  1.0 0.143344554
H  H30  1  0.42332000  0.22814000  0.49771000  1.0 0.143344554
H  H31  1  0.57668000  0.72814000  0.00229000  1.0 0.143344554
H  H32  1  0.07668000  0.77186000  0.99771000  1.0 0.143344554
H  H33  1  0.50229000  0.92332000  0.27186000  1.0 0.143344554
H  H34  1  0.49771000  0.42332000  0.22814000  1.0 0.143344554
H  H35  1  0.00229000  0.57668000  0.72814000  1.0 0.143344554
H  H36  1  0.99771000  0.07668000  0.77186000  1.0 0.143344554
H  H37  1  0.17424000  0.74792000  0.02147000  1.0 0.1461994898
H  H38  1  0.32576000  0.25208000  0.52147000  1.0 0.1461994898
H  H39  1  0.82576000  0.24792000  0.47853000  1.0 0.1461994898
H  H40  1  0.67424000  0.75208000  0.97853000  1.0 0.1461994898
H  H41  1  0.02147000  0.17424000  0.74792000  1.0 0.1461994898
H  H42  1  0.52147000  0.32576000  0.25208000  1.0 0.1461994898
H  H43  1  0.47853000  0.82576000  0.24792000  1.0 0.1461994898
H  H44  1  0.97853000  0.67424000  0.75208000  1.0 0.1461994898
H  H45  1  0.74792000  0.02147000  0.17424000  1.0 0.1461994898
H  H46  1  0.25208000  0.52147000  0.32576000  1.0 0.1461994898
H  H47  1  0.24792000  0.47853000  0.82576000  1.0 0.1461994898
H  H48  1  0.75208000  0.97853000  0.67424000  1.0 0.1461994898
C  C1  1  0.75084000  0.44253000  0.05537000  1.0 -0.1504460901
C  C2  1  0.74916000  0.55747000  0.55537000  1.0 -0.1504460901
C  C3  1  0.24916000  0.94253000  0.44463000  1.0 -0.1504460901
C  C4  1  0.25084000  0.05747000  0.94463000  1.0 -0.1504460901
C  C5  1  0.05537000  0.75084000  0.44253000  1.0 -0.1504460901
C  C6  1  0.55537000  0.74916000  0.55747000  1.0 -0.1504460901
C  C7  1  0.44463000  0.24916000  0.94253000  1.0 -0.1504460901
C  C8  1  0.94463000  0.25084000  0.05747000  1.0 -0.1504460901
C  C9  1  0.44253000  0.05537000  0.75084000  1.0 -0.1504460901
C  C10  1  0.55747000  0.55537000  0.74916000  1.0 -0.1504460901
C  C11  1  0.94253000  0.44463000  0.24916000  1.0 -0.1504460901
C  C12  1  0.05747000  0.94463000  0.25084000  1.0 -0.1504460901
C  C13  1  0.81088000  0.40775000  0.09247000  1.0 0.0598875465
C  C14  1  0.68912000  0.59225000  0.59247000  1.0 0.0598875465
C  C15  1  0.18912000  0.90775000  0.40753000  1.0 0.0598875465
C  C16  1  0.31088000  0.09225000  0.90753000  1.0 0.0598875465
C  C17  1  0.09247000  0.81088000  0.40775000  1.0 0.0598875465
C  C18  1  0.59247000  0.68912000  0.59225000  1.0 0.0598875465
C  C19  1  0.40753000  0.18912000  0.90775000  1.0 0.0598875465
C  C20  1  0.90753000  0.31088000  0.09225000  1.0 0.0598875465
C  C21  1  0.40775000  0.09247000  0.81088000  1.0 0.0598875465
C  C22  1  0.59225000  0.59247000  0.68912000  1.0 0.0598875465
C  C23  1  0.90775000  0.40753000  0.18912000  1.0 0.0598875465
C  C24  1  0.09225000  0.90753000  0.31088000  1.0 0.0598875465
C  C25  1  0.71835000  0.41005000  0.99225000  1.0 0.2178183821
C  C26  1  0.78165000  0.58995000  0.49225000  1.0 0.2178183821
C  C27  1  0.28165000  0.91005000  0.50775000  1.0 0.2178183821
C  C28  1  0.21835000  0.08995000  0.00775000  1.0 0.2178183821
C  C29  1  0.99225000  0.71835000  0.41005000  1.0 0.2178183821
C  C30  1  0.49225000  0.78165000  0.58995000  1.0 0.2178183821
C  C31  1  0.50775000  0.28165000  0.91005000  1.0 0.2178183821
C  C32  1  0.00775000  0.21835000  0.08995000  1.0 0.2178183821
C  C33  1  0.41005000  0.99225000  0.71835000  1.0 0.2178183821
C  C34  1  0.58995000  0.49225000  0.78165000  1.0 0.2178183821
C  C35  1  0.91005000  0.50775000  0.28165000  1.0 0.2178183821
C  C36  1  0.08995000  0.00775000  0.21835000  1.0 0.2178183821
C  C37  1  0.80465000  0.30729000  0.00129000  1.0 -0.1504460901
C  C38  1  0.69535000  0.69271000  0.50129000  1.0 -0.1504460901
C  C39  1  0.19535000  0.80729000  0.49871000  1.0 -0.1504460901
C  C40  1  0.30465000  0.19271000  0.99871000  1.0 -0.1504460901
C  C41  1  0.00129000  0.80465000  0.30729000  1.0 -0.1504460901
C  C42  1  0.50129000  0.69535000  0.69271000  1.0 -0.1504460901
C  C43  1  0.49871000  0.19535000  0.80729000  1.0 -0.1504460901
C  C44  1  0.99871000  0.30465000  0.19271000  1.0 -0.1504460901
C  C45  1  0.30729000  0.00129000  0.80465000  1.0 -0.1504460901
C  C46  1  0.69271000  0.50129000  0.69535000  1.0 -0.1504460901
C  C47  1  0.80729000  0.49871000  0.19535000  1.0 -0.1504460901
C  C48  1  0.19271000  0.99871000  0.30465000  1.0 -0.1504460901
C  C49  1  0.84185000  0.34191000  0.06136000  1.0 0.0598875465
C  C50  1  0.65815000  0.65809000  0.56136000  1.0 0.0598875465
C  C51  1  0.15815000  0.84191000  0.43864000  1.0 0.0598875465
C  C52  1  0.34185000  0.15809000  0.93864000  1.0 0.0598875465
C  C53  1  0.06136000  0.84185000  0.34191000  1.0 0.0598875465
C  C54  1  0.56136000  0.65815000  0.65809000  1.0 0.0598875465
C  C55  1  0.43864000  0.15815000  0.84191000  1.0 0.0598875465
C  C56  1  0.93864000  0.34185000  0.15809000  1.0 0.0598875465
C  C57  1  0.34191000  0.06136000  0.84185000  1.0 0.0598875465
C  C58  1  0.65809000  0.56136000  0.65815000  1.0 0.0598875465
C  C59  1  0.84191000  0.43864000  0.15815000  1.0 0.0598875465
C  C60  1  0.15809000  0.93864000  0.34185000  1.0 0.0598875465
C  C61  1  0.74158000  0.33994000  0.96889000  1.0 0.2178183821
C  C62  1  0.75842000  0.66006000  0.46889000  1.0 0.2178183821
C  C63  1  0.25842000  0.83994000  0.53111000  1.0 0.2178183821
C  C64  1  0.24158000  0.16006000  0.03111000  1.0 0.2178183821
C  C65  1  0.96889000  0.74158000  0.33994000  1.0 0.2178183821
C  C66  1  0.46889000  0.75842000  0.66006000  1.0 0.2178183821
C  C67  1  0.53111000  0.25842000  0.83994000  1.0 0.2178183821
C  C68  1  0.03111000  0.24158000  0.16006000  1.0 0.2178183821
C  C69  1  0.33994000  0.96889000  0.74158000  1.0 0.2178183821
C  C70  1  0.66006000  0.46889000  0.75842000  1.0 0.2178183821
C  C71  1  0.83994000  0.53111000  0.25842000  1.0 0.2178183821
C  C72  1  0.16006000  0.03111000  0.24158000  1.0 0.2178183821
C  C73  1  0.24919000  0.55749000  0.94459000  1.0 -0.1504460901
C  C74  1  0.25081000  0.44251000  0.44459000  1.0 -0.1504460901
C  C75  1  0.75081000  0.05749000  0.55541000  1.0 -0.1504460901
C  C76  1  0.74919000  0.94251000  0.05541000  1.0 -0.1504460901
C  C77  1  0.94459000  0.24919000  0.55749000  1.0 -0.1504460901
C  C78  1  0.44459000  0.25081000  0.44251000  1.0 -0.1504460901
C  C79  1  0.55541000  0.75081000  0.05749000  1.0 -0.1504460901
C  C80  1  0.05541000  0.74919000  0.94251000  1.0 -0.1504460901
C  C81  1  0.55749000  0.94459000  0.24919000  1.0 -0.1504460901
C  C82  1  0.44251000  0.44459000  0.25081000  1.0 -0.1504460901
C  C83  1  0.05749000  0.55541000  0.75081000  1.0 -0.1504460901
C  C84  1  0.94251000  0.05541000  0.74919000  1.0 -0.1504460901
C  C85  1  0.18915000  0.59228000  0.90749000  1.0 0.0598875465
C  C86  1  0.31085000  0.40772000  0.40749000  1.0 0.0598875465
C  C87  1  0.81085000  0.09228000  0.59251000  1.0 0.0598875465
C  C88  1  0.68915000  0.90772000  0.09251000  1.0 0.0598875465
C  C89  1  0.90749000  0.18915000  0.59228000  1.0 0.0598875465
C  C90  1  0.40749000  0.31085000  0.40772000  1.0 0.0598875465
C  C91  1  0.59251000  0.81085000  0.09228000  1.0 0.0598875465
C  C92  1  0.09251000  0.68915000  0.90772000  1.0 0.0598875465
C  C93  1  0.59228000  0.90749000  0.18915000  1.0 0.0598875465
C  C94  1  0.40772000  0.40749000  0.31085000  1.0 0.0598875465
C  C95  1  0.09228000  0.59251000  0.81085000  1.0 0.0598875465
C  C96  1  0.90772000  0.09251000  0.68915000  1.0 0.0598875465
C  C97  1  0.28168000  0.58996000  0.00771000  1.0 0.2178183821
C  C98  1  0.21832000  0.41004000  0.50771000  1.0 0.2178183821
C  C99  1  0.71832000  0.08996000  0.49229000  1.0 0.2178183821
C  C100  1  0.78168000  0.91004000  0.99229000  1.0 0.2178183821
C  C101  1  0.00771000  0.28168000  0.58996000  1.0 0.2178183821
C  C102  1  0.50771000  0.21832000  0.41004000  1.0 0.2178183821
C  C103  1  0.49229000  0.71832000  0.08996000  1.0 0.2178183821
C  C104  1  0.99229000  0.78168000  0.91004000  1.0 0.2178183821
C  C105  1  0.58996000  0.00771000  0.28168000  1.0 0.2178183821
C  C106  1  0.41004000  0.50771000  0.21832000  1.0 0.2178183821
C  C107  1  0.08996000  0.49229000  0.71832000  1.0 0.2178183821
C  C108  1  0.91004000  0.99229000  0.78168000  1.0 0.2178183821
C  C109  1  0.19539000  0.69272000  0.99869000  1.0 -0.1504460901
C  C110  1  0.30461000  0.30728000  0.49869000  1.0 -0.1504460901
C  C111  1  0.80461000  0.19272000  0.50131000  1.0 -0.1504460901
C  C112  1  0.69539000  0.80728000  0.00131000  1.0 -0.1504460901
C  C113  1  0.99869000  0.19539000  0.69272000  1.0 -0.1504460901
C  C114  1  0.49869000  0.30461000  0.30728000  1.0 -0.1504460901
C  C115  1  0.50131000  0.80461000  0.19272000  1.0 -0.1504460901
C  C116  1  0.00131000  0.69539000  0.80728000  1.0 -0.1504460901
C  C117  1  0.69272000  0.99869000  0.19539000  1.0 -0.1504460901
C  C118  1  0.30728000  0.49869000  0.30461000  1.0 -0.1504460901
C  C119  1  0.19272000  0.50131000  0.80461000  1.0 -0.1504460901
C  C120  1  0.80728000  0.00131000  0.69539000  1.0 -0.1504460901
C  C121  1  0.15818000  0.65812000  0.93860000  1.0 0.0598875465
C  C122  1  0.34182000  0.34188000  0.43860000  1.0 0.0598875465
C  C123  1  0.84182000  0.15812000  0.56140000  1.0 0.0598875465
C  C124  1  0.65818000  0.84188000  0.06140000  1.0 0.0598875465
C  C125  1  0.93860000  0.15818000  0.65812000  1.0 0.0598875465
C  C126  1  0.43860000  0.34182000  0.34188000  1.0 0.0598875465
C  C127  1  0.56140000  0.84182000  0.15812000  1.0 0.0598875465
C  C128  1  0.06140000  0.65818000  0.84188000  1.0 0.0598875465
C  C129  1  0.65812000  0.93860000  0.15818000  1.0 0.0598875465
C  C130  1  0.34188000  0.43860000  0.34182000  1.0 0.0598875465
C  C131  1  0.15812000  0.56140000  0.84182000  1.0 0.0598875465
C  C132  1  0.84188000  0.06140000  0.65818000  1.0 0.0598875465
C  C133  1  0.25845000  0.66006000  0.03109000  1.0 0.2178183821
C  C134  1  0.24155000  0.33994000  0.53109000  1.0 0.2178183821
C  C135  1  0.74155000  0.16006000  0.46891000  1.0 0.2178183821
C  C136  1  0.75845000  0.83994000  0.96891000  1.0 0.2178183821
C  C137  1  0.03109000  0.25845000  0.66006000  1.0 0.2178183821
C  C138  1  0.53109000  0.24155000  0.33994000  1.0 0.2178183821
C  C139  1  0.46891000  0.74155000  0.16006000  1.0 0.2178183821
C  C140  1  0.96891000  0.75845000  0.83994000  1.0 0.2178183821
C  C141  1  0.66006000  0.03109000  0.25845000  1.0 0.2178183821
C  C142  1  0.33994000  0.53109000  0.24155000  1.0 0.2178183821
C  C143  1  0.16006000  0.46891000  0.74155000  1.0 0.2178183821
C  C144  1  0.83994000  0.96891000  0.75845000  1.0 0.2178183821
O  O1  1  0.70112000  0.30401000  0.91311000  1.0 -0.5290440443
O  O2  1  0.79888000  0.69599000  0.41311000  1.0 -0.5290440443
O  O3  1  0.29888000  0.80401000  0.58689000  1.0 -0.5290440443
O  O4  1  0.20112000  0.19599000  0.08689000  1.0 -0.5290440443
O  O5  1  0.91311000  0.70112000  0.30401000  1.0 -0.5290440443
O  O6  1  0.41311000  0.79888000  0.69599000  1.0 -0.5290440443
O  O7  1  0.58689000  0.29888000  0.80401000  1.0 -0.5290440443
O  O8  1  0.08689000  0.20112000  0.19599000  1.0 -0.5290440443
O  O9  1  0.30401000  0.91311000  0.70112000  1.0 -0.5290440443
O  O10  1  0.69599000  0.41311000  0.79888000  1.0 -0.5290440443
O  O11  1  0.80401000  0.58689000  0.29888000  1.0 -0.5290440443
O  O12  1  0.19599000  0.08689000  0.20112000  1.0 -0.5290440443
O  O13  1  0.66265000  0.44618000  0.95186000  1.0 -0.5381236621
O  O14  1  0.83735000  0.55382000  0.45186000  1.0 -0.5381236621
O  O15  1  0.33735000  0.94618000  0.54814000  1.0 -0.5381236621
O  O16  1  0.16265000  0.05382000  0.04814000  1.0 -0.5381236621
O  O17  1  0.95186000  0.66265000  0.44618000  1.0 -0.5381236621
O  O18  1  0.45186000  0.83735000  0.55382000  1.0 -0.5381236621
O  O19  1  0.54814000  0.33735000  0.94618000  1.0 -0.5381236621
O  O20  1  0.04814000  0.16265000  0.05382000  1.0 -0.5381236621
O  O21  1  0.44618000  0.95186000  0.66265000  1.0 -0.5381236621
O  O22  1  0.55382000  0.45186000  0.83735000  1.0 -0.5381236621
O  O23  1  0.94618000  0.54814000  0.33735000  1.0 -0.5381236621
O  O24  1  0.05382000  0.04814000  0.16265000  1.0 -0.5381236621
O  O25  1  0.29891000  0.69599000  0.08687000  1.0 -0.5290440443
O  O26  1  0.20109000  0.30401000  0.58687000  1.0 -0.5290440443
O  O27  1  0.70109000  0.19599000  0.41313000  1.0 -0.5290440443
O  O28  1  0.79891000  0.80401000  0.91313000  1.0 -0.5290440443
O  O29  1  0.08687000  0.29891000  0.69599000  1.0 -0.5290440443
O  O30  1  0.58687000  0.20109000  0.30401000  1.0 -0.5290440443
O  O31  1  0.41313000  0.70109000  0.19599000  1.0 -0.5290440443
O  O32  1  0.91313000  0.79891000  0.80401000  1.0 -0.5290440443
O  O33  1  0.69599000  0.08687000  0.29891000  1.0 -0.5290440443
O  O34  1  0.30401000  0.58687000  0.20109000  1.0 -0.5290440443
O  O35  1  0.19599000  0.41313000  0.70109000  1.0 -0.5290440443
O  O36  1  0.80401000  0.91313000  0.79891000  1.0 -0.5290440443
O  O37  1  0.33737000  0.55382000  0.04811000  1.0 -0.5381236621
O  O38  1  0.16263000  0.44618000  0.54811000  1.0 -0.5381236621
O  O39  1  0.66263000  0.05382000  0.45189000  1.0 -0.5381236621
O  O40  1  0.83737000  0.94618000  0.95189000  1.0 -0.5381236621
O  O41  1  0.04811000  0.33737000  0.55382000  1.0 -0.5381236621
O  O42  1  0.54811000  0.16263000  0.44618000  1.0 -0.5381236621
O  O43  1  0.45189000  0.66263000  0.05382000  1.0 -0.5381236621
O  O44  1  0.95189000  0.83737000  0.94618000  1.0 -0.5381236621
O  O45  1  0.55382000  0.04811000  0.33737000  1.0 -0.5381236621
O  O46  1  0.44618000  0.54811000  0.16263000  1.0 -0.5381236621
O  O47  1  0.05382000  0.45189000  0.66263000  1.0 -0.5381236621
O  O48  1  0.94618000  0.95189000  0.83737000  1.0 -0.5381236621
