# DDEC6 charges by PACMAN v1.1 (https://github.com/mtap-research/PACMAN-charge/)
data_FUYCUZ_FSR_pacman
_symmetry_space_group_name_H-M   'P 1'
_cell_length_a   25.36880000
_cell_length_b   25.36880000
_cell_length_c   25.36880000
_cell_angle_alpha   90.00000000
_cell_angle_beta   90.00000000
_cell_angle_gamma   90.00000000
_symmetry_Int_Tables_number   1
_chemical_formula_structural   Zn8H48C87O41
_chemical_formula_sum   'Zn32 H192 C348 O164'
_cell_volume   16326.75116976
_cell_formula_units_Z   4
loop_
 _symmetry_equiv_pos_site_id
 _symmetry_equiv_pos_as_xyz
  1  'x, y, z'
loop_
 _atom_site_type_symbol
 _atom_site_label
 _atom_site_symmetry_multiplicity
 _atom_site_fract_x
 _atom_site_fract_y
 _atom_site_fract_z
 _atom_site_occupancy
 _atom_site_charge
Zn  Zn1  1  0.57460000  0.42540000  0.92540000  1.0 0.8271691099
Zn  Zn2  1  0.92540000  0.57460000  0.42540000  1.0 0.8271691099
Zn  Zn3  1  0.42540000  0.92540000  0.57460000  1.0 0.8271691099
Zn  Zn4  1  0.07460000  0.07460000  0.07460000  1.0 0.8271691099
Zn  Zn5  1  0.47656000  0.42563000  0.00148000  1.0 0.7002437011
Zn  Zn6  1  0.00148000  0.47656000  0.42563000  1.0 0.7002437011
Zn  Zn7  1  0.42563000  0.00148000  0.47656000  1.0 0.7002437011
Zn  Zn8  1  0.07437000  0.99852000  0.97656000  1.0 0.7002437011
Zn  Zn9  1  0.50148000  0.02344000  0.57437000  1.0 0.7002437011
Zn  Zn10  1  0.57437000  0.50148000  0.02344000  1.0 0.7002437011
Zn  Zn11  1  0.49852000  0.52344000  0.92563000  1.0 0.7002437011
Zn  Zn12  1  0.99852000  0.97656000  0.07437000  1.0 0.7002437011
Zn  Zn13  1  0.92563000  0.49852000  0.52344000  1.0 0.7002437011
Zn  Zn14  1  0.02344000  0.57437000  0.50148000  1.0 0.7002437011
Zn  Zn15  1  0.97656000  0.07437000  0.99852000  1.0 0.7002437011
Zn  Zn16  1  0.52344000  0.92563000  0.49852000  1.0 0.7002437011
Zn  Zn17  1  0.07443000  0.57443000  0.92557000  1.0 0.7002437011
Zn  Zn18  1  0.92557000  0.07443000  0.57443000  1.0 0.7002437011
Zn  Zn19  1  0.57443000  0.92557000  0.07443000  1.0 0.7002437011
Zn  Zn20  1  0.42557000  0.42557000  0.42557000  1.0 0.7002437011
Zn  Zn21  1  0.52292000  0.42609000  0.50280000  1.0 0.6427750732
Zn  Zn22  1  0.50280000  0.52292000  0.42609000  1.0 0.6427750732
Zn  Zn23  1  0.42609000  0.50280000  0.52292000  1.0 0.6427750732
Zn  Zn24  1  0.07391000  0.49720000  0.02292000  1.0 0.6427750732
Zn  Zn25  1  0.00280000  0.97708000  0.57391000  1.0 0.6427750732
Zn  Zn26  1  0.57391000  0.00280000  0.97708000  1.0 0.6427750732
Zn  Zn27  1  0.99720000  0.47708000  0.92609000  1.0 0.6427750732
Zn  Zn28  1  0.49720000  0.02292000  0.07391000  1.0 0.6427750732
Zn  Zn29  1  0.92609000  0.99720000  0.47708000  1.0 0.6427750732
Zn  Zn30  1  0.97708000  0.57391000  0.00280000  1.0 0.6427750732
Zn  Zn31  1  0.02292000  0.07391000  0.49720000  1.0 0.6427750732
Zn  Zn32  1  0.47708000  0.92609000  0.99720000  1.0 0.6427750732
H  H1  1  0.33010000  0.54440000  0.89170000  1.0 0.0508658779
H  H2  1  0.89170000  0.33010000  0.54440000  1.0 0.0508658779
H  H3  1  0.54440000  0.89170000  0.33010000  1.0 0.0508658779
H  H4  1  0.95560000  0.10830000  0.83010000  1.0 0.0508658779
H  H5  1  0.39170000  0.16990000  0.45560000  1.0 0.0508658779
H  H6  1  0.45560000  0.39170000  0.16990000  1.0 0.0508658779
H  H7  1  0.60830000  0.66990000  0.04440000  1.0 0.0508658779
H  H8  1  0.10830000  0.83010000  0.95560000  1.0 0.0508658779
H  H9  1  0.04440000  0.60830000  0.66990000  1.0 0.0508658779
H  H10  1  0.16990000  0.45560000  0.39170000  1.0 0.0508658779
H  H11  1  0.83010000  0.95560000  0.10830000  1.0 0.0508658779
H  H12  1  0.66990000  0.04440000  0.60830000  1.0 0.0508658779
H  H13  1  0.23920000  0.55850000  0.89660000  1.0 0.0638589656
H  H14  1  0.89660000  0.23920000  0.55850000  1.0 0.0638589656
H  H15  1  0.55850000  0.89660000  0.23920000  1.0 0.0638589656
H  H16  1  0.94150000  0.10340000  0.73920000  1.0 0.0638589656
H  H17  1  0.39660000  0.26080000  0.44150000  1.0 0.0638589656
H  H18  1  0.44150000  0.39660000  0.26080000  1.0 0.0638589656
H  H19  1  0.60340000  0.76080000  0.05850000  1.0 0.0638589656
H  H20  1  0.10340000  0.73920000  0.94150000  1.0 0.0638589656
H  H21  1  0.05850000  0.60340000  0.76080000  1.0 0.0638589656
H  H22  1  0.26080000  0.44150000  0.39660000  1.0 0.0638589656
H  H23  1  0.73920000  0.94150000  0.10340000  1.0 0.0638589656
H  H24  1  0.76080000  0.05850000  0.60340000  1.0 0.0638589656
H  H25  1  0.32750000  0.48400000  0.03870000  1.0 0.0689455833
H  H26  1  0.03870000  0.32750000  0.48400000  1.0 0.0689455833
H  H27  1  0.48400000  0.03870000  0.32750000  1.0 0.0689455833
H  H28  1  0.01600000  0.96130000  0.82750000  1.0 0.0689455833
H  H29  1  0.53870000  0.17250000  0.51600000  1.0 0.0689455833
H  H30  1  0.51600000  0.53870000  0.17250000  1.0 0.0689455833
H  H31  1  0.46130000  0.67250000  0.98400000  1.0 0.0689455833
H  H32  1  0.96130000  0.82750000  0.01600000  1.0 0.0689455833
H  H33  1  0.98400000  0.46130000  0.67250000  1.0 0.0689455833
H  H34  1  0.17250000  0.51600000  0.53870000  1.0 0.0689455833
H  H35  1  0.82750000  0.01600000  0.96130000  1.0 0.0689455833
H  H36  1  0.67250000  0.98400000  0.46130000  1.0 0.0689455833
H  H37  1  0.23480000  0.49280000  0.04390000  1.0 0.0762434066
H  H38  1  0.04390000  0.23480000  0.49280000  1.0 0.0762434066
H  H39  1  0.49280000  0.04390000  0.23480000  1.0 0.0762434066
H  H40  1  0.00720000  0.95610000  0.73480000  1.0 0.0762434066
H  H41  1  0.54390000  0.26520000  0.50720000  1.0 0.0762434066
H  H42  1  0.50720000  0.54390000  0.26520000  1.0 0.0762434066
H  H43  1  0.45610000  0.76520000  0.99280000  1.0 0.0762434066
H  H44  1  0.95610000  0.73480000  0.00720000  1.0 0.0762434066
H  H45  1  0.99280000  0.45610000  0.76520000  1.0 0.0762434066
H  H46  1  0.26520000  0.50720000  0.54390000  1.0 0.0762434066
H  H47  1  0.73480000  0.00720000  0.95610000  1.0 0.0762434066
H  H48  1  0.76520000  0.99280000  0.45610000  1.0 0.0762434066
H  H49  1  0.57370000  0.40620000  0.75570000  1.0 0.1210323387
H  H50  1  0.75570000  0.57370000  0.40620000  1.0 0.1210323387
H  H51  1  0.40620000  0.75570000  0.57370000  1.0 0.1210323387
H  H52  1  0.09380000  0.24430000  0.07370000  1.0 0.1210323387
H  H53  1  0.25570000  0.92630000  0.59380000  1.0 0.1210323387
H  H54  1  0.59380000  0.25570000  0.92630000  1.0 0.1210323387
H  H55  1  0.74430000  0.42630000  0.90620000  1.0 0.1210323387
H  H56  1  0.24430000  0.07370000  0.09380000  1.0 0.1210323387
H  H57  1  0.90620000  0.74430000  0.42630000  1.0 0.1210323387
H  H58  1  0.92630000  0.59380000  0.25570000  1.0 0.1210323387
H  H59  1  0.07370000  0.09380000  0.24430000  1.0 0.1210323387
H  H60  1  0.42630000  0.90620000  0.74430000  1.0 0.1210323387
H  H61  1  0.56120000  0.40620000  0.66320000  1.0 0.0905415489
H  H62  1  0.66320000  0.56120000  0.40620000  1.0 0.0905415489
H  H63  1  0.40620000  0.66320000  0.56120000  1.0 0.0905415489
H  H64  1  0.09380000  0.33680000  0.06120000  1.0 0.0905415489
H  H65  1  0.16320000  0.93880000  0.59380000  1.0 0.0905415489
H  H66  1  0.59380000  0.16320000  0.93880000  1.0 0.0905415489
H  H67  1  0.83680000  0.43880000  0.90620000  1.0 0.0905415489
H  H68  1  0.33680000  0.06120000  0.09380000  1.0 0.0905415489
H  H69  1  0.90620000  0.83680000  0.43880000  1.0 0.0905415489
H  H70  1  0.93880000  0.59380000  0.16320000  1.0 0.0905415489
H  H71  1  0.06120000  0.09380000  0.33680000  1.0 0.0905415489
H  H72  1  0.43880000  0.90620000  0.83680000  1.0 0.0905415489
H  H73  1  0.45820000  0.51590000  0.77300000  1.0 0.0905415489
H  H74  1  0.77300000  0.45820000  0.51590000  1.0 0.0905415489
H  H75  1  0.51590000  0.77300000  0.45820000  1.0 0.0905415489
H  H76  1  0.98410000  0.22700000  0.95820000  1.0 0.0952102289
H  H77  1  0.27300000  0.04180000  0.48410000  1.0 0.0952102289
H  H78  1  0.48410000  0.27300000  0.04180000  1.0 0.0905415489
H  H79  1  0.72700000  0.54180000  0.01590000  1.0 0.0905415489
H  H80  1  0.22700000  0.95820000  0.98410000  1.0 0.0905415489
H  H81  1  0.01590000  0.72700000  0.54180000  1.0 0.0905415489
H  H82  1  0.04180000  0.48410000  0.27300000  1.0 0.0905415489
H  H83  1  0.95820000  0.98410000  0.22700000  1.0 0.0905415489
H  H84  1  0.54180000  0.01590000  0.72700000  1.0 0.0952102289
H  H85  1  0.43860000  0.51130000  0.68470000  1.0 0.0638589656
H  H86  1  0.68470000  0.43860000  0.51130000  1.0 0.0638589656
H  H87  1  0.51130000  0.68470000  0.43860000  1.0 0.0638589656
H  H88  1  0.98870000  0.31530000  0.93860000  1.0 0.0638589656
H  H89  1  0.18470000  0.06140000  0.48870000  1.0 0.0638589656
H  H90  1  0.48870000  0.18470000  0.06140000  1.0 0.0638589656
H  H91  1  0.81530000  0.56140000  0.01130000  1.0 0.0638589656
H  H92  1  0.31530000  0.93860000  0.98870000  1.0 0.0638589656
H  H93  1  0.01130000  0.81530000  0.56140000  1.0 0.0638589656
H  H94  1  0.06140000  0.48870000  0.18470000  1.0 0.0638589656
H  H95  1  0.93860000  0.98870000  0.31530000  1.0 0.0638589656
H  H96  1  0.56140000  0.01130000  0.81530000  1.0 0.0638589656
H  H97  1  0.31150000  0.42380000  0.97800000  1.0 0.0762434066
H  H98  1  0.97800000  0.31150000  0.42380000  1.0 0.0762434066
H  H99  1  0.42380000  0.97800000  0.31150000  1.0 0.0762434066
H  H100  1  0.07620000  0.02200000  0.81150000  1.0 0.0762434066
H  H101  1  0.47800000  0.18850000  0.57620000  1.0 0.0762434066
H  H102  1  0.57620000  0.47800000  0.18850000  1.0 0.0689455833
H  H103  1  0.52200000  0.68850000  0.92380000  1.0 0.0762434066
H  H104  1  0.02200000  0.81150000  0.07620000  1.0 0.0689455833
H  H105  1  0.92380000  0.52200000  0.68850000  1.0 0.0762434066
H  H106  1  0.18850000  0.57620000  0.47800000  1.0 0.0689455833
H  H107  1  0.81150000  0.07620000  0.02200000  1.0 0.0762434066
H  H108  1  0.68850000  0.92380000  0.52200000  1.0 0.0689455833
H  H109  1  0.22120000  0.43730000  0.97830000  1.0 0.0689455833
H  H110  1  0.97830000  0.22120000  0.43730000  1.0 0.0689455833
H  H111  1  0.43730000  0.97830000  0.22120000  1.0 0.0689455833
H  H112  1  0.06270000  0.02170000  0.72120000  1.0 0.0689455833
H  H113  1  0.47830000  0.27880000  0.56270000  1.0 0.0689455833
H  H114  1  0.56270000  0.47830000  0.27880000  1.0 0.0689455833
H  H115  1  0.52170000  0.77880000  0.93730000  1.0 0.0689455833
H  H116  1  0.02170000  0.72120000  0.06270000  1.0 0.0689455833
H  H117  1  0.93730000  0.52170000  0.77880000  1.0 0.0689455833
H  H118  1  0.27880000  0.56270000  0.47830000  1.0 0.0689455833
H  H119  1  0.72120000  0.06270000  0.02170000  1.0 0.0689455833
H  H120  1  0.77880000  0.93730000  0.52170000  1.0 0.0689455833
H  H121  1  0.57150000  0.40400000  0.75560000  1.0 0.1210323387
H  H122  1  0.75560000  0.57150000  0.40400000  1.0 0.1210323387
H  H123  1  0.40400000  0.75560000  0.57150000  1.0 0.1210323387
H  H124  1  0.09600000  0.24440000  0.07150000  1.0 0.1210323387
H  H125  1  0.25560000  0.92850000  0.59600000  1.0 0.1210323387
H  H126  1  0.59600000  0.25560000  0.92850000  1.0 0.1210323387
H  H127  1  0.74440000  0.42850000  0.90400000  1.0 0.1210323387
H  H128  1  0.24440000  0.07150000  0.09600000  1.0 0.1210323387
H  H129  1  0.90400000  0.74440000  0.42850000  1.0 0.1210323387
H  H130  1  0.92850000  0.59600000  0.25560000  1.0 0.1210323387
H  H131  1  0.07150000  0.09600000  0.24440000  1.0 0.1210323387
H  H132  1  0.42850000  0.90400000  0.74440000  1.0 0.1210323387
H  H133  1  0.55520000  0.40030000  0.66430000  1.0 0.0905415489
H  H134  1  0.66430000  0.55520000  0.40030000  1.0 0.0905415489
H  H135  1  0.40030000  0.66430000  0.55520000  1.0 0.0905415489
H  H136  1  0.09970000  0.33570000  0.05520000  1.0 0.0905415489
H  H137  1  0.16430000  0.94480000  0.59970000  1.0 0.0905415489
H  H138  1  0.59970000  0.16430000  0.94480000  1.0 0.0905415489
H  H139  1  0.83570000  0.44480000  0.90030000  1.0 0.0905415489
H  H140  1  0.33570000  0.05520000  0.09970000  1.0 0.0905415489
H  H141  1  0.90030000  0.83570000  0.44480000  1.0 0.0905415489
H  H142  1  0.94480000  0.59970000  0.16430000  1.0 0.0905415489
H  H143  1  0.05520000  0.09970000  0.33570000  1.0 0.0905415489
H  H144  1  0.44480000  0.90030000  0.83570000  1.0 0.0905415489
H  H145  1  0.47270000  0.52690000  0.77370000  1.0 0.0905415489
H  H146  1  0.77370000  0.47270000  0.52690000  1.0 0.0905415489
H  H147  1  0.52690000  0.77370000  0.47270000  1.0 0.0905415489
H  H148  1  0.97310000  0.22630000  0.97270000  1.0 0.0905415489
H  H149  1  0.27370000  0.02730000  0.47310000  1.0 0.0905415489
H  H150  1  0.47310000  0.27370000  0.02730000  1.0 0.0905415489
H  H151  1  0.72630000  0.52730000  0.02690000  1.0 0.0905415489
H  H152  1  0.22630000  0.97270000  0.97310000  1.0 0.0905415489
H  H153  1  0.02690000  0.72630000  0.52730000  1.0 0.0905415489
H  H154  1  0.02730000  0.47310000  0.27370000  1.0 0.0905415489
H  H155  1  0.97270000  0.97310000  0.22630000  1.0 0.0905415489
H  H156  1  0.52730000  0.02690000  0.72630000  1.0 0.0905415489
H  H157  1  0.46030000  0.53040000  0.68260000  1.0 0.0689455833
H  H158  1  0.68260000  0.46030000  0.53040000  1.0 0.0689455833
H  H159  1  0.53040000  0.68260000  0.46030000  1.0 0.0689455833
H  H160  1  0.96960000  0.31740000  0.96030000  1.0 0.0689455833
H  H161  1  0.18260000  0.03970000  0.46960000  1.0 0.0689455833
H  H162  1  0.46960000  0.18260000  0.03970000  1.0 0.0689455833
H  H163  1  0.81740000  0.53970000  0.03040000  1.0 0.0689455833
H  H164  1  0.31740000  0.96030000  0.96960000  1.0 0.0689455833
H  H165  1  0.03040000  0.81740000  0.53970000  1.0 0.0689455833
H  H166  1  0.03970000  0.46960000  0.18260000  1.0 0.0689455833
H  H167  1  0.96030000  0.96960000  0.31740000  1.0 0.0689455833
H  H168  1  0.53970000  0.03040000  0.81740000  1.0 0.0689455833
H  H169  1  0.33970000  0.57260000  0.93380000  1.0 0.0508658779
H  H170  1  0.93380000  0.33970000  0.57260000  1.0 0.0508658779
H  H171  1  0.57260000  0.93380000  0.33970000  1.0 0.0508658779
H  H172  1  0.92740000  0.06620000  0.83970000  1.0 0.0508658779
H  H173  1  0.43380000  0.16030000  0.42740000  1.0 0.0508658779
H  H174  1  0.42740000  0.43380000  0.16030000  1.0 0.0508658779
H  H175  1  0.56620000  0.66030000  0.07260000  1.0 0.0508658779
H  H176  1  0.06620000  0.83970000  0.92740000  1.0 0.0508658779
H  H177  1  0.07260000  0.56620000  0.66030000  1.0 0.0508658779
H  H178  1  0.16030000  0.42740000  0.43380000  1.0 0.0508658779
H  H179  1  0.83970000  0.92740000  0.06620000  1.0 0.0508658779
H  H180  1  0.66030000  0.07260000  0.56620000  1.0 0.0508658779
H  H181  1  0.24890000  0.58630000  0.92390000  1.0 0.0689455833
H  H182  1  0.92390000  0.24890000  0.58630000  1.0 0.0689455833
H  H183  1  0.58630000  0.92390000  0.24890000  1.0 0.0689455833
H  H184  1  0.91370000  0.07610000  0.74890000  1.0 0.0689455833
H  H185  1  0.42390000  0.25110000  0.41370000  1.0 0.0689455833
H  H186  1  0.41370000  0.42390000  0.25110000  1.0 0.0689455833
H  H187  1  0.57610000  0.75110000  0.08630000  1.0 0.0689455833
H  H188  1  0.07610000  0.74890000  0.91370000  1.0 0.0689455833
H  H189  1  0.08630000  0.57610000  0.75110000  1.0 0.0689455833
H  H190  1  0.25110000  0.41370000  0.42390000  1.0 0.0689455833
H  H191  1  0.74890000  0.91370000  0.07610000  1.0 0.0689455833
H  H192  1  0.75110000  0.08630000  0.57610000  1.0 0.0689455833
C  C1  1  0.31150000  0.53580000  0.92310000  1.0 -0.0716809325
C  C2  1  0.92310000  0.31150000  0.53580000  1.0 -0.0716809325
C  C3  1  0.53580000  0.92310000  0.31150000  1.0 -0.0716809325
C  C4  1  0.96420000  0.07690000  0.81150000  1.0 -0.0716809325
C  C5  1  0.42310000  0.18850000  0.46420000  1.0 -0.0716809325
C  C6  1  0.46420000  0.42310000  0.18850000  1.0 -0.0716809325
C  C7  1  0.57690000  0.68850000  0.03580000  1.0 -0.0716809325
C  C8  1  0.07690000  0.81150000  0.96420000  1.0 -0.0716809325
C  C9  1  0.03580000  0.57690000  0.68850000  1.0 -0.0716809325
C  C10  1  0.18850000  0.46420000  0.42310000  1.0 -0.0716809325
C  C11  1  0.81150000  0.96420000  0.07690000  1.0 -0.0716809325
C  C12  1  0.68850000  0.03580000  0.57690000  1.0 -0.0716809325
C  C13  1  0.25740000  0.54290000  0.92530000  1.0 -0.0589432331
C  C14  1  0.92530000  0.25740000  0.54290000  1.0 -0.0589432331
C  C15  1  0.54290000  0.92530000  0.25740000  1.0 -0.0589432331
C  C16  1  0.95710000  0.07470000  0.75740000  1.0 -0.0589432331
C  C17  1  0.42530000  0.24260000  0.45710000  1.0 -0.0589432331
C  C18  1  0.45710000  0.42530000  0.24260000  1.0 -0.0589432331
C  C19  1  0.57470000  0.74260000  0.04290000  1.0 -0.0589432331
C  C20  1  0.07470000  0.75740000  0.95710000  1.0 -0.0589432331
C  C21  1  0.04290000  0.57470000  0.74260000  1.0 -0.0589432331
C  C22  1  0.24260000  0.45710000  0.42530000  1.0 -0.0589432331
C  C23  1  0.75740000  0.95710000  0.07470000  1.0 -0.0589432331
C  C24  1  0.74260000  0.04290000  0.57470000  1.0 -0.0589432331
C  C25  1  0.39730000  0.51080000  0.96340000  1.0 0.2582378841
C  C26  1  0.96340000  0.39730000  0.51080000  1.0 0.2582378841
C  C27  1  0.51080000  0.96340000  0.39730000  1.0 0.2582378841
C  C28  1  0.98920000  0.03660000  0.89730000  1.0 0.2582378841
C  C29  1  0.46340000  0.10270000  0.48920000  1.0 0.2582378841
C  C30  1  0.48920000  0.46340000  0.10270000  1.0 0.2582378841
C  C31  1  0.53660000  0.60270000  0.01080000  1.0 0.2582378841
C  C32  1  0.03660000  0.89730000  0.98920000  1.0 0.2582378841
C  C33  1  0.01080000  0.53660000  0.60270000  1.0 0.2582378841
C  C34  1  0.10270000  0.48920000  0.46340000  1.0 0.2582378841
C  C35  1  0.89730000  0.98920000  0.03660000  1.0 0.2582378841
C  C36  1  0.60270000  0.01080000  0.53660000  1.0 0.2582378841
C  C37  1  0.33860000  0.51620000  0.96660000  1.0 0.0182260315
C  C38  1  0.96660000  0.33860000  0.51620000  1.0 0.0182260315
C  C39  1  0.51620000  0.96660000  0.33860000  1.0 0.0182260315
C  C40  1  0.98380000  0.03340000  0.83860000  1.0 0.0182260315
C  C41  1  0.46660000  0.16140000  0.48380000  1.0 0.0182260315
C  C42  1  0.48380000  0.46660000  0.16140000  1.0 0.0182260315
C  C43  1  0.53340000  0.66140000  0.01620000  1.0 0.0182260315
C  C44  1  0.03340000  0.83860000  0.98380000  1.0 0.0182260315
C  C45  1  0.01620000  0.53340000  0.66140000  1.0 0.0182260315
C  C46  1  0.16140000  0.48380000  0.46660000  1.0 0.0182260315
C  C47  1  0.83860000  0.98380000  0.03340000  1.0 0.0182260315
C  C48  1  0.66140000  0.01620000  0.53340000  1.0 0.0182260315
C  C49  1  0.30910000  0.49950000  0.01000000  1.0 -0.1414711381
C  C50  1  0.01000000  0.30910000  0.49950000  1.0 -0.1414711381
C  C51  1  0.49950000  0.01000000  0.30910000  1.0 -0.1414711381
C  C52  1  0.00050000  0.99000000  0.80910000  1.0 -0.1414711381
C  C53  1  0.51000000  0.19090000  0.50050000  1.0 -0.1414711381
C  C54  1  0.50050000  0.51000000  0.19090000  1.0 -0.1414711381
C  C55  1  0.49000000  0.69090000  0.99950000  1.0 -0.1414711381
C  C56  1  0.99000000  0.80910000  0.00050000  1.0 -0.1414711381
C  C57  1  0.99950000  0.49000000  0.69090000  1.0 -0.1414711381
C  C58  1  0.19090000  0.50050000  0.51000000  1.0 -0.1414711381
C  C59  1  0.80910000  0.00050000  0.99000000  1.0 -0.1414711381
C  C60  1  0.69090000  0.99950000  0.49000000  1.0 -0.1414711381
C  C61  1  0.25410000  0.50420000  0.01390000  1.0 -0.1137220153
C  C62  1  0.01390000  0.25410000  0.50420000  1.0 -0.1137220153
C  C63  1  0.50420000  0.01390000  0.25410000  1.0 -0.1137220153
C  C64  1  0.99580000  0.98610000  0.75410000  1.0 -0.1137220153
C  C65  1  0.51390000  0.24590000  0.49580000  1.0 -0.1137220153
C  C66  1  0.49580000  0.51390000  0.24590000  1.0 -0.1137220153
C  C67  1  0.48610000  0.74590000  0.00420000  1.0 -0.1137220153
C  C68  1  0.98610000  0.75410000  0.99580000  1.0 -0.1137220153
C  C69  1  0.00420000  0.48610000  0.74590000  1.0 -0.1137220153
C  C70  1  0.24590000  0.49580000  0.51390000  1.0 -0.1137220153
C  C71  1  0.75410000  0.99580000  0.98610000  1.0 -0.1137220153
C  C72  1  0.74590000  0.00420000  0.48610000  1.0 -0.1137220153
C  C73  1  0.23020000  0.52700000  0.96990000  1.0 0.0365988849
C  C74  1  0.96990000  0.23020000  0.52700000  1.0 0.0365988849
C  C75  1  0.52700000  0.96990000  0.23020000  1.0 0.0365988849
C  C76  1  0.97300000  0.03010000  0.73020000  1.0 0.0365988849
C  C77  1  0.46990000  0.26980000  0.47300000  1.0 0.0365988849
C  C78  1  0.47300000  0.46990000  0.26980000  1.0 0.0365988849
C  C79  1  0.53010000  0.76980000  0.02700000  1.0 0.0365988849
C  C80  1  0.03010000  0.73020000  0.97300000  1.0 0.0365988849
C  C81  1  0.02700000  0.53010000  0.76980000  1.0 0.0365988849
C  C82  1  0.26980000  0.47300000  0.46990000  1.0 0.0365988849
C  C83  1  0.73020000  0.97300000  0.03010000  1.0 0.0365988849
C  C84  1  0.76980000  0.02700000  0.53010000  1.0 0.0365988849
C  C85  1  0.17110000  0.53380000  0.97130000  1.0 0.2498430895
C  C86  1  0.97130000  0.17110000  0.53380000  1.0 0.2498430895
C  C87  1  0.53380000  0.97130000  0.17110000  1.0 0.2498430895
C  C88  1  0.96620000  0.02870000  0.67110000  1.0 0.2498430895
C  C89  1  0.47130000  0.32890000  0.46620000  1.0 0.2498430895
C  C90  1  0.46620000  0.47130000  0.32890000  1.0 0.2498430895
C  C91  1  0.52870000  0.82890000  0.03380000  1.0 0.2498430895
C  C92  1  0.02870000  0.67110000  0.96620000  1.0 0.2498430895
C  C93  1  0.03380000  0.52870000  0.82890000  1.0 0.2498430895
C  C94  1  0.32890000  0.46620000  0.47130000  1.0 0.2498430895
C  C95  1  0.67110000  0.96620000  0.02870000  1.0 0.2498430895
C  C96  1  0.82890000  0.03380000  0.52870000  1.0 0.2498430895
C  C97  1  0.54800000  0.42890000  0.74060000  1.0 -0.1988127
C  C98  1  0.74060000  0.54800000  0.42890000  1.0 -0.1988127
C  C99  1  0.42890000  0.74060000  0.54800000  1.0 -0.1988127
C  C100  1  0.07110000  0.25940000  0.04800000  1.0 -0.1988127
C  C101  1  0.24060000  0.95200000  0.57110000  1.0 -0.1988127
C  C102  1  0.57110000  0.24060000  0.95200000  1.0 -0.1988127
C  C103  1  0.75940000  0.45200000  0.92890000  1.0 -0.1988127
C  C104  1  0.25940000  0.04800000  0.07110000  1.0 -0.1988127
C  C105  1  0.92890000  0.75940000  0.45200000  1.0 -0.1988127
C  C106  1  0.95200000  0.57110000  0.24060000  1.0 -0.1988127
C  C107  1  0.04800000  0.07110000  0.25940000  1.0 -0.1988127
C  C108  1  0.45200000  0.92890000  0.75940000  1.0 -0.1988127
C  C109  1  0.53950000  0.42670000  0.68580000  1.0 -0.1988127
C  C110  1  0.68580000  0.53950000  0.42670000  1.0 -0.1988127
C  C111  1  0.42670000  0.68580000  0.53950000  1.0 -0.1988127
C  C112  1  0.07330000  0.31420000  0.03950000  1.0 -0.1988127
C  C113  1  0.18580000  0.96050000  0.57330000  1.0 -0.1988127
C  C114  1  0.57330000  0.18580000  0.96050000  1.0 -0.1988127
C  C115  1  0.81420000  0.46050000  0.92670000  1.0 -0.1988127
C  C116  1  0.31420000  0.03950000  0.07330000  1.0 -0.1988127
C  C117  1  0.92670000  0.81420000  0.46050000  1.0 -0.1988127
C  C118  1  0.96050000  0.57330000  0.18580000  1.0 -0.1988127
C  C119  1  0.03950000  0.07330000  0.31420000  1.0 -0.1988127
C  C120  1  0.46050000  0.92670000  0.81420000  1.0 -0.1988127
C  C121  1  0.53010000  0.46920000  0.83290000  1.0 0.413648893
C  C122  1  0.83290000  0.53010000  0.46920000  1.0 0.413648893
C  C123  1  0.46920000  0.83290000  0.53010000  1.0 0.413648893
C  C124  1  0.03080000  0.16710000  0.03010000  1.0 0.413648893
C  C125  1  0.33290000  0.96990000  0.53080000  1.0 0.413648893
C  C126  1  0.53080000  0.33290000  0.96990000  1.0 0.413648893
C  C127  1  0.66710000  0.46990000  0.96920000  1.0 0.413648893
C  C128  1  0.16710000  0.03010000  0.03080000  1.0 0.413648893
C  C129  1  0.96920000  0.66710000  0.46990000  1.0 0.413648893
C  C130  1  0.96990000  0.53080000  0.33290000  1.0 0.413648893
C  C131  1  0.03010000  0.03080000  0.16710000  1.0 0.413648893
C  C132  1  0.46990000  0.96920000  0.66710000  1.0 0.413648893
C  C133  1  0.51850000  0.46520000  0.77600000  1.0 -0.0799390759
C  C134  1  0.77600000  0.51850000  0.46520000  1.0 -0.0799390759
C  C135  1  0.46520000  0.77600000  0.51850000  1.0 -0.0799390759
C  C136  1  0.03480000  0.22400000  0.01850000  1.0 -0.0799390759
C  C137  1  0.27600000  0.98150000  0.53480000  1.0 -0.0799390759
C  C138  1  0.53480000  0.27600000  0.98150000  1.0 -0.0799390759
C  C139  1  0.72400000  0.48150000  0.96520000  1.0 -0.0799390759
C  C140  1  0.22400000  0.01850000  0.03480000  1.0 -0.0799390759
C  C141  1  0.96520000  0.72400000  0.48150000  1.0 -0.0799390759
C  C142  1  0.98150000  0.53480000  0.27600000  1.0 -0.0799390759
C  C143  1  0.01850000  0.03480000  0.22400000  1.0 -0.0799390759
C  C144  1  0.48150000  0.96520000  0.72400000  1.0 -0.0799390759
C  C145  1  0.47880000  0.49310000  0.75160000  1.0 -0.0907744084
C  C146  1  0.75160000  0.47880000  0.49310000  1.0 -0.0907744084
C  C147  1  0.49310000  0.75160000  0.47880000  1.0 -0.0907744084
C  C148  1  0.00690000  0.24840000  0.97880000  1.0 -0.0907744084
C  C149  1  0.25160000  0.02120000  0.50690000  1.0 -0.0907744084
C  C150  1  0.50690000  0.25160000  0.02120000  1.0 -0.0907744084
C  C151  1  0.74840000  0.52120000  0.99310000  1.0 -0.0907744084
C  C152  1  0.24840000  0.97880000  0.00690000  1.0 -0.0907744084
C  C153  1  0.99310000  0.74840000  0.52120000  1.0 -0.0907744084
C  C154  1  0.02120000  0.50690000  0.25160000  1.0 -0.0907744084
C  C155  1  0.97880000  0.00690000  0.24840000  1.0 -0.0907744084
C  C156  1  0.52120000  0.99310000  0.74840000  1.0 -0.0907744084
C  C157  1  0.46650000  0.49070000  0.69890000  1.0 -0.0434273744
C  C158  1  0.69890000  0.46650000  0.49070000  1.0 -0.0434273744
C  C159  1  0.49070000  0.69890000  0.46650000  1.0 -0.0434273744
C  C160  1  0.00930000  0.30110000  0.96650000  1.0 -0.0434273744
C  C161  1  0.19890000  0.03350000  0.50930000  1.0 -0.0434273744
C  C162  1  0.50930000  0.19890000  0.03350000  1.0 -0.0434273744
C  C163  1  0.80110000  0.53350000  0.99070000  1.0 -0.0434273744
C  C164  1  0.30110000  0.96650000  0.00930000  1.0 -0.0434273744
C  C165  1  0.99070000  0.80110000  0.53350000  1.0 -0.0434273744
C  C166  1  0.03350000  0.50930000  0.19890000  1.0 -0.0434273744
C  C167  1  0.96650000  0.00930000  0.30110000  1.0 -0.0434273744
C  C168  1  0.53350000  0.99070000  0.80110000  1.0 -0.0434273744
C  C169  1  0.49680000  0.45670000  0.66640000  1.0 -0.0716809325
C  C170  1  0.66640000  0.49680000  0.45670000  1.0 -0.0716809325
C  C171  1  0.45670000  0.66640000  0.49680000  1.0 -0.0716809325
C  C172  1  0.04330000  0.33360000  0.99680000  1.0 -0.0716809325
C  C173  1  0.16640000  0.00320000  0.54330000  1.0 -0.0716809325
C  C174  1  0.54330000  0.16640000  0.00320000  1.0 -0.0716809325
C  C175  1  0.83360000  0.50320000  0.95670000  1.0 -0.0716809325
C  C176  1  0.33360000  0.99680000  0.04330000  1.0 -0.0716809325
C  C177  1  0.95670000  0.83360000  0.50320000  1.0 -0.0716809325
C  C178  1  0.00320000  0.54330000  0.16640000  1.0 -0.0716809325
C  C179  1  0.99680000  0.04330000  0.33360000  1.0 -0.0716809325
C  C180  1  0.50320000  0.95670000  0.83360000  1.0 -0.0716809325
C  C181  1  0.48780000  0.45030000  0.60820000  1.0 0.2582378841
C  C182  1  0.60820000  0.48780000  0.45030000  1.0 0.2582378841
C  C183  1  0.45030000  0.60820000  0.48780000  1.0 0.2582378841
C  C184  1  0.04970000  0.39180000  0.98780000  1.0 0.2582378841
C  C185  1  0.10820000  0.01220000  0.54970000  1.0 0.2582378841
C  C186  1  0.54970000  0.10820000  0.01220000  1.0 0.2582378841
C  C187  1  0.89180000  0.51220000  0.95030000  1.0 0.2582378841
C  C188  1  0.39180000  0.98780000  0.04970000  1.0 0.2582378841
C  C189  1  0.95030000  0.89180000  0.51220000  1.0 0.2582378841
C  C190  1  0.01220000  0.54970000  0.10820000  1.0 0.2582378841
C  C191  1  0.98780000  0.04970000  0.39180000  1.0 0.2498430895
C  C192  1  0.51220000  0.95030000  0.89180000  1.0 0.2582378841
C  C193  1  0.39150000  0.48340000  0.95840000  1.0 0.2498430895
C  C194  1  0.95840000  0.39150000  0.48340000  1.0 0.2498430895
C  C195  1  0.48340000  0.95840000  0.39150000  1.0 0.2498430895
C  C196  1  0.01660000  0.04160000  0.89150000  1.0 0.2498430895
C  C197  1  0.45840000  0.10850000  0.51660000  1.0 0.2498430895
C  C198  1  0.51660000  0.45840000  0.10850000  1.0 0.2498430895
C  C199  1  0.54160000  0.60850000  0.98340000  1.0 0.2498430895
C  C200  1  0.04160000  0.89150000  0.01660000  1.0 0.2498430895
C  C201  1  0.98340000  0.54160000  0.60850000  1.0 0.2498430895
C  C202  1  0.10850000  0.51660000  0.45840000  1.0 0.2498430895
C  C203  1  0.89150000  0.01660000  0.04160000  1.0 0.2498430895
C  C204  1  0.60850000  0.98340000  0.54160000  1.0 0.2498430895
C  C205  1  0.33500000  0.49540000  0.95410000  1.0 0.0365988849
C  C206  1  0.95410000  0.33500000  0.49540000  1.0 0.0365988849
C  C207  1  0.49540000  0.95410000  0.33500000  1.0 0.0365988849
C  C208  1  0.00460000  0.04590000  0.83500000  1.0 0.0365988849
C  C209  1  0.45410000  0.16500000  0.50460000  1.0 0.0365988849
C  C210  1  0.50460000  0.45410000  0.16500000  1.0 0.0365988849
C  C211  1  0.54590000  0.66500000  0.99540000  1.0 0.0365988849
C  C212  1  0.04590000  0.83500000  0.00460000  1.0 0.0365988849
C  C213  1  0.99540000  0.54590000  0.66500000  1.0 0.0365988849
C  C214  1  0.16500000  0.50460000  0.45410000  1.0 0.0365988849
C  C215  1  0.83500000  0.00460000  0.04590000  1.0 0.0365988849
C  C216  1  0.66500000  0.99540000  0.54590000  1.0 0.0365988849
C  C217  1  0.29850000  0.45740000  0.96770000  1.0 -0.1501405993
C  C218  1  0.96770000  0.29850000  0.45740000  1.0 -0.1501405993
C  C219  1  0.45740000  0.96770000  0.29850000  1.0 -0.1501405993
C  C220  1  0.04260000  0.03230000  0.79850000  1.0 -0.1501405993
C  C221  1  0.46770000  0.20150000  0.54260000  1.0 -0.1501405993
C  C222  1  0.54260000  0.46770000  0.20150000  1.0 -0.1501405993
C  C223  1  0.53230000  0.70150000  0.95740000  1.0 -0.1501405993
C  C224  1  0.03230000  0.79850000  0.04260000  1.0 -0.1501405993
C  C225  1  0.95740000  0.53230000  0.70150000  1.0 -0.1501405993
C  C226  1  0.20150000  0.54260000  0.46770000  1.0 -0.1501405993
C  C227  1  0.79850000  0.04260000  0.03230000  1.0 -0.1501405993
C  C228  1  0.70150000  0.95740000  0.53230000  1.0 -0.1501405993
C  C229  1  0.24500000  0.46420000  0.96770000  1.0 -0.1137220153
C  C230  1  0.96770000  0.24500000  0.46420000  1.0 -0.1137220153
C  C231  1  0.46420000  0.96770000  0.24500000  1.0 -0.1137220153
C  C232  1  0.03580000  0.03230000  0.74500000  1.0 -0.1137220153
C  C233  1  0.46770000  0.25500000  0.53580000  1.0 -0.1137220153
C  C234  1  0.53580000  0.46770000  0.25500000  1.0 -0.1137220153
C  C235  1  0.53230000  0.75500000  0.96420000  1.0 -0.1137220153
C  C236  1  0.03230000  0.74500000  0.03580000  1.0 -0.1137220153
C  C237  1  0.96420000  0.53230000  0.75500000  1.0 -0.1137220153
C  C238  1  0.25500000  0.53580000  0.46770000  1.0 -0.1137220153
C  C239  1  0.74500000  0.03580000  0.03230000  1.0 -0.1137220153
C  C240  1  0.75500000  0.96420000  0.53230000  1.0 -0.1137220153
C  C241  1  0.22820000  0.51310000  0.95100000  1.0 0.0182260315
C  C242  1  0.95100000  0.22820000  0.51310000  1.0 0.0182260315
C  C243  1  0.51310000  0.95100000  0.22820000  1.0 0.0182260315
C  C244  1  0.98690000  0.04900000  0.72820000  1.0 0.0182260315
C  C245  1  0.45100000  0.27180000  0.48690000  1.0 0.0182260315
C  C246  1  0.48690000  0.45100000  0.27180000  1.0 0.0182260315
C  C247  1  0.54900000  0.77180000  0.01310000  1.0 0.0182260315
C  C248  1  0.04900000  0.72820000  0.98690000  1.0 0.0182260315
C  C249  1  0.01310000  0.54900000  0.77180000  1.0 0.0182260315
C  C250  1  0.27180000  0.48690000  0.45100000  1.0 0.0182260315
C  C251  1  0.72820000  0.98690000  0.04900000  1.0 0.0182260315
C  C252  1  0.77180000  0.01310000  0.54900000  1.0 0.0182260315
C  C253  1  0.17070000  0.52140000  0.94920000  1.0 0.2498430895
C  C254  1  0.94920000  0.17070000  0.52140000  1.0 0.2498430895
C  C255  1  0.52140000  0.94920000  0.17070000  1.0 0.2498430895
C  C256  1  0.97860000  0.05080000  0.67070000  1.0 0.2498430895
C  C257  1  0.44920000  0.32930000  0.47860000  1.0 0.2498430895
C  C258  1  0.47860000  0.44920000  0.32930000  1.0 0.2498430895
C  C259  1  0.55080000  0.82930000  0.02140000  1.0 0.2498430895
C  C260  1  0.05080000  0.67070000  0.97860000  1.0 0.2498430895
C  C261  1  0.02140000  0.55080000  0.82930000  1.0 0.2498430895
C  C262  1  0.32930000  0.47860000  0.44920000  1.0 0.2498430895
C  C263  1  0.67070000  0.97860000  0.05080000  1.0 0.2498430895
C  C264  1  0.82930000  0.02140000  0.55080000  1.0 0.2498430895
C  C265  1  0.52420000  0.46510000  0.77440000  1.0 -0.0309154168
C  C266  1  0.77440000  0.52420000  0.46510000  1.0 -0.0309154168
C  C267  1  0.46510000  0.77440000  0.52420000  1.0 -0.0309154168
C  C268  1  0.03490000  0.22560000  0.02420000  1.0 -0.0309154168
C  C269  1  0.27440000  0.97580000  0.53490000  1.0 -0.0309154168
C  C270  1  0.53490000  0.27440000  0.97580000  1.0 -0.0309154168
C  C271  1  0.72560000  0.47580000  0.96510000  1.0 -0.0309154168
C  C272  1  0.22560000  0.02420000  0.03490000  1.0 -0.0434273744
C  C273  1  0.96510000  0.72560000  0.47580000  1.0 -0.0309154168
C  C274  1  0.97580000  0.53490000  0.27440000  1.0 -0.0309154168
C  C275  1  0.02420000  0.03490000  0.22560000  1.0 -0.0309154168
C  C276  1  0.47580000  0.96510000  0.72560000  1.0 -0.0309154168
C  C277  1  0.49040000  0.50220000  0.75170000  1.0 -0.0907744084
C  C278  1  0.75170000  0.49040000  0.50220000  1.0 -0.0907744084
C  C279  1  0.50220000  0.75170000  0.49040000  1.0 -0.0907744084
C  C280  1  0.99780000  0.24830000  0.99040000  1.0 -0.0907744084
C  C281  1  0.25170000  0.00960000  0.49780000  1.0 -0.0907744084
C  C282  1  0.49780000  0.25170000  0.00960000  1.0 -0.0907744084
C  C283  1  0.74830000  0.50960000  0.00220000  1.0 -0.0907744084
C  C284  1  0.24830000  0.99040000  0.99780000  1.0 -0.0907744084
C  C285  1  0.00220000  0.74830000  0.50960000  1.0 -0.0907744084
C  C286  1  0.00960000  0.49780000  0.25170000  1.0 -0.0907744084
C  C287  1  0.99040000  0.99780000  0.24830000  1.0 -0.0907744084
C  C288  1  0.50960000  0.00220000  0.74830000  1.0 -0.0907744084
C  C289  1  0.48210000  0.50380000  0.69740000  1.0 -0.0434273744
C  C290  1  0.69740000  0.48210000  0.50380000  1.0 -0.0434273744
C  C291  1  0.50380000  0.69740000  0.48210000  1.0 -0.0434273744
C  C292  1  0.99620000  0.30260000  0.98210000  1.0 -0.0434273744
C  C293  1  0.19740000  0.01790000  0.49620000  1.0 -0.0469994105
C  C294  1  0.49620000  0.19740000  0.01790000  1.0 -0.0434273744
C  C295  1  0.80260000  0.51790000  0.00380000  1.0 -0.0434273744
C  C296  1  0.30260000  0.98210000  0.99620000  1.0 -0.0469994105
C  C297  1  0.00380000  0.80260000  0.51790000  1.0 -0.0469994105
C  C298  1  0.01790000  0.49620000  0.19740000  1.0 -0.0434273744
C  C299  1  0.98210000  0.99620000  0.30260000  1.0 -0.0434273744
C  C300  1  0.51790000  0.00380000  0.80260000  1.0 -0.0469994105
C  C301  1  0.50610000  0.46620000  0.66450000  1.0 -0.0799390759
C  C302  1  0.66450000  0.50610000  0.46620000  1.0 -0.0799390759
C  C303  1  0.46620000  0.66450000  0.50610000  1.0 -0.0799390759
C  C304  1  0.03380000  0.33550000  0.00610000  1.0 -0.0799390759
C  C305  1  0.16450000  0.99390000  0.53380000  1.0 -0.0907744084
C  C306  1  0.53380000  0.16450000  0.99390000  1.0 -0.0799390759
C  C307  1  0.83550000  0.49390000  0.96620000  1.0 -0.0799390759
C  C308  1  0.33550000  0.00610000  0.03380000  1.0 -0.0799390759
C  C309  1  0.96620000  0.83550000  0.49390000  1.0 -0.0799390759
C  C310  1  0.99390000  0.53380000  0.16450000  1.0 -0.0799390759
C  C311  1  0.00610000  0.03380000  0.33550000  1.0 -0.0907744084
C  C312  1  0.49390000  0.96620000  0.83550000  1.0 -0.0799390759
C  C313  1  0.49130000  0.47300000  0.60730000  1.0 0.2498430895
C  C314  1  0.60730000  0.49130000  0.47300000  1.0 0.2498430895
C  C315  1  0.47300000  0.60730000  0.49130000  1.0 0.2498430895
C  C316  1  0.02700000  0.39270000  0.99130000  1.0 0.2498430895
C  C317  1  0.10730000  0.00870000  0.52700000  1.0 0.2498430895
C  C318  1  0.52700000  0.10730000  0.00870000  1.0 0.2498430895
C  C319  1  0.89270000  0.50870000  0.97300000  1.0 0.2498430895
C  C320  1  0.39270000  0.99130000  0.02700000  1.0 0.2498430895
C  C321  1  0.97300000  0.89270000  0.50870000  1.0 0.2498430895
C  C322  1  0.00870000  0.52700000  0.10730000  1.0 0.2498430895
C  C323  1  0.99130000  0.02700000  0.39270000  1.0 0.2498430895
C  C324  1  0.50870000  0.97300000  0.89270000  1.0 0.2498430895
C  C325  1  0.31570000  0.54460000  0.94040000  1.0 -0.0589432331
C  C326  1  0.94040000  0.31570000  0.54460000  1.0 -0.0589432331
C  C327  1  0.54460000  0.94040000  0.31570000  1.0 -0.0589432331
C  C328  1  0.95540000  0.05960000  0.81570000  1.0 -0.0469994105
C  C329  1  0.44040000  0.18430000  0.45540000  1.0 -0.0589432331
C  C330  1  0.45540000  0.44040000  0.18430000  1.0 -0.0589432331
C  C331  1  0.55960000  0.68430000  0.04460000  1.0 -0.0589432331
C  C332  1  0.05960000  0.81570000  0.95540000  1.0 -0.0589432331
C  C333  1  0.04460000  0.55960000  0.68430000  1.0 -0.0589432331
C  C334  1  0.18430000  0.45540000  0.44040000  1.0 -0.0589432331
C  C335  1  0.81570000  0.95540000  0.05960000  1.0 -0.0589432331
C  C336  1  0.68430000  0.04460000  0.55960000  1.0 -0.0589432331
C  C337  1  0.26210000  0.55360000  0.93630000  1.0 -0.0589432331
C  C338  1  0.93630000  0.26210000  0.55360000  1.0 -0.0589432331
C  C339  1  0.55360000  0.93630000  0.26210000  1.0 -0.0589432331
C  C340  1  0.94640000  0.06370000  0.76210000  1.0 -0.0589432331
C  C341  1  0.43630000  0.23790000  0.44640000  1.0 -0.0589432331
C  C342  1  0.44640000  0.43630000  0.23790000  1.0 -0.0589432331
C  C343  1  0.56370000  0.73790000  0.05360000  1.0 -0.0589432331
C  C344  1  0.06370000  0.76210000  0.94640000  1.0 -0.0589432331
C  C345  1  0.05360000  0.56370000  0.73790000  1.0 -0.0589432331
C  C346  1  0.23790000  0.44640000  0.43630000  1.0 -0.0589432331
C  C347  1  0.76210000  0.94640000  0.06370000  1.0 -0.0589432331
C  C348  1  0.73790000  0.05360000  0.56370000  1.0 -0.0589432331
O  O1  1  0.53110000  0.46890000  0.96890000  1.0 -0.8060367808
O  O2  1  0.96890000  0.53110000  0.46890000  1.0 -0.8060367808
O  O3  1  0.46890000  0.96890000  0.53110000  1.0 -0.8060367808
O  O4  1  0.03110000  0.03110000  0.03110000  1.0 -0.8060367808
O  O5  1  0.14940000  0.56270000  0.93200000  1.0 -0.381900619
O  O6  1  0.93200000  0.14940000  0.56270000  1.0 -0.381900619
O  O7  1  0.56270000  0.93200000  0.14940000  1.0 -0.381900619
O  O8  1  0.93730000  0.06800000  0.64940000  1.0 -0.381900619
O  O9  1  0.43200000  0.35060000  0.43730000  1.0 -0.381900619
O  O10  1  0.43730000  0.43200000  0.35060000  1.0 -0.381900619
O  O11  1  0.56800000  0.85060000  0.06270000  1.0 -0.381900619
O  O12  1  0.06800000  0.64940000  0.93730000  1.0 -0.381900619
O  O13  1  0.06270000  0.56800000  0.85060000  1.0 -0.381900619
O  O14  1  0.35060000  0.43730000  0.43200000  1.0 -0.381900619
O  O15  1  0.64940000  0.93730000  0.06800000  1.0 -0.381900619
O  O16  1  0.85060000  0.06270000  0.56800000  1.0 -0.381900619
O  O17  1  0.42220000  0.53680000  0.93040000  1.0 -0.1501405993
O  O18  1  0.93040000  0.42220000  0.53680000  1.0 -0.1501405993
O  O19  1  0.53680000  0.93040000  0.42220000  1.0 -0.1501405993
O  O20  1  0.96320000  0.06960000  0.92220000  1.0 -0.1501405993
O  O21  1  0.43040000  0.07780000  0.46320000  1.0 -0.1501405993
O  O22  1  0.46320000  0.43040000  0.07780000  1.0 -0.1501405993
O  O23  1  0.56960000  0.57780000  0.03680000  1.0 -0.1501405993
O  O24  1  0.06960000  0.92220000  0.96320000  1.0 -0.1501405993
O  O25  1  0.03680000  0.56960000  0.57780000  1.0 -0.1501405993
O  O26  1  0.07780000  0.46320000  0.43040000  1.0 -0.1501405993
O  O27  1  0.92220000  0.96320000  0.06960000  1.0 -0.1501405993
O  O28  1  0.57780000  0.03680000  0.56960000  1.0 -0.1501405993
O  O29  1  0.41750000  0.48090000  0.00080000  1.0 -0.1776452926
O  O30  1  0.00080000  0.41750000  0.48090000  1.0 -0.1776452926
O  O31  1  0.48090000  0.00080000  0.41750000  1.0 -0.1776452926
O  O32  1  0.01910000  0.99920000  0.91750000  1.0 -0.1776452926
O  O33  1  0.50080000  0.08250000  0.51910000  1.0 -0.1776452926
O  O34  1  0.51910000  0.50080000  0.08250000  1.0 -0.1776452926
O  O35  1  0.49920000  0.58250000  0.98090000  1.0 -0.1776452926
O  O36  1  0.99920000  0.91750000  0.01910000  1.0 -0.1776452926
O  O37  1  0.98090000  0.49920000  0.58250000  1.0 -0.1776452926
O  O38  1  0.08250000  0.51910000  0.50080000  1.0 -0.1776452926
O  O39  1  0.91750000  0.01910000  0.99920000  1.0 -0.1776452926
O  O40  1  0.58250000  0.98090000  0.49920000  1.0 -0.1776452926
O  O41  1  0.14830000  0.51100000  0.01000000  1.0 -0.2094459216
O  O42  1  0.01000000  0.14830000  0.51100000  1.0 -0.2094459216
O  O43  1  0.51100000  0.01000000  0.14830000  1.0 -0.2094459216
O  O44  1  0.98900000  0.99000000  0.64830000  1.0 -0.2094459216
O  O45  1  0.51000000  0.35170000  0.48900000  1.0 -0.2094459216
O  O46  1  0.48900000  0.51000000  0.35170000  1.0 -0.2094459216
O  O47  1  0.49000000  0.85170000  0.01100000  1.0 -0.2094459216
O  O48  1  0.99000000  0.64830000  0.98900000  1.0 -0.2094459216
O  O49  1  0.01100000  0.49000000  0.85170000  1.0 -0.2094459216
O  O50  1  0.35170000  0.48900000  0.51000000  1.0 -0.2094459216
O  O51  1  0.64830000  0.98900000  0.99000000  1.0 -0.2094459216
O  O52  1  0.85170000  0.01100000  0.49000000  1.0 -0.2094459216
O  O53  1  0.46930000  0.46930000  0.46930000  1.0 -0.6885995075
O  O54  1  0.03070000  0.53070000  0.96930000  1.0 -0.6885995075
O  O55  1  0.96930000  0.03070000  0.53070000  1.0 -0.6885995075
O  O56  1  0.53070000  0.96930000  0.03070000  1.0 -0.6885995075
O  O57  1  0.55840000  0.43430000  0.85160000  1.0 -0.4828340515
O  O58  1  0.85160000  0.55840000  0.43430000  1.0 -0.4828340515
O  O59  1  0.43430000  0.85160000  0.55840000  1.0 -0.4828340515
O  O60  1  0.06570000  0.14840000  0.05840000  1.0 -0.4828340515
O  O61  1  0.35160000  0.94160000  0.56570000  1.0 -0.4828340515
O  O62  1  0.56570000  0.35160000  0.94160000  1.0 -0.4828340515
O  O63  1  0.64840000  0.44160000  0.93430000  1.0 -0.4828340515
O  O64  1  0.14840000  0.05840000  0.06570000  1.0 -0.4828340515
O  O65  1  0.93430000  0.64840000  0.44160000  1.0 -0.4828340515
O  O66  1  0.94160000  0.56570000  0.35160000  1.0 -0.4828340515
O  O67  1  0.05840000  0.06570000  0.14840000  1.0 -0.4828340515
O  O68  1  0.44160000  0.93430000  0.64840000  1.0 -0.4828340515
O  O69  1  0.51180000  0.50970000  0.85490000  1.0 -0.5340869769
O  O70  1  0.85490000  0.51180000  0.50970000  1.0 -0.5340869769
O  O71  1  0.50970000  0.85490000  0.51180000  1.0 -0.5340869769
O  O72  1  0.99030000  0.14510000  0.01180000  1.0 -0.5340869769
O  O73  1  0.35490000  0.98820000  0.49030000  1.0 -0.5340869769
O  O74  1  0.49030000  0.35490000  0.98820000  1.0 -0.5340869769
O  O75  1  0.64510000  0.48820000  0.00970000  1.0 -0.5340869769
O  O76  1  0.14510000  0.01180000  0.99030000  1.0 -0.5340869769
O  O77  1  0.00970000  0.64510000  0.48820000  1.0 -0.5350492104
O  O78  1  0.98820000  0.49030000  0.35490000  1.0 -0.5340869769
O  O79  1  0.01180000  0.99030000  0.14510000  1.0 -0.5350492104
O  O80  1  0.48820000  0.00970000  0.64510000  1.0 -0.5340869769
O  O81  1  0.51670000  0.42220000  0.57930000  1.0 -0.1414711381
O  O82  1  0.57930000  0.51670000  0.42220000  1.0 -0.1414711381
O  O83  1  0.42220000  0.57930000  0.51670000  1.0 -0.1414711381
O  O84  1  0.07780000  0.42070000  0.01670000  1.0 -0.1414711381
O  O85  1  0.07930000  0.98330000  0.57780000  1.0 -0.1414711381
O  O86  1  0.57780000  0.07930000  0.98330000  1.0 -0.1414711381
O  O87  1  0.92070000  0.48330000  0.92220000  1.0 -0.1414711381
O  O88  1  0.42070000  0.01670000  0.07780000  1.0 -0.1414711381
O  O89  1  0.92220000  0.92070000  0.48330000  1.0 -0.1414711381
O  O90  1  0.98330000  0.57780000  0.07930000  1.0 -0.1414711381
O  O91  1  0.01670000  0.07780000  0.42070000  1.0 -0.1414711381
O  O92  1  0.48330000  0.92220000  0.92070000  1.0 -0.1414711381
O  O93  1  0.44780000  0.47550000  0.59010000  1.0 -0.1501405993
O  O94  1  0.59010000  0.44780000  0.47550000  1.0 -0.1501405993
O  O95  1  0.47550000  0.59010000  0.44780000  1.0 -0.1501405993
O  O96  1  0.02450000  0.40990000  0.94780000  1.0 -0.1501405993
O  O97  1  0.09010000  0.05220000  0.52450000  1.0 -0.1501405993
O  O98  1  0.52450000  0.09010000  0.05220000  1.0 -0.1501405993
O  O99  1  0.90990000  0.55220000  0.97550000  1.0 -0.1501405993
O  O100  1  0.40990000  0.94780000  0.02450000  1.0 -0.1501405993
O  O101  1  0.97550000  0.90990000  0.55220000  1.0 -0.1501405993
O  O102  1  0.05220000  0.52450000  0.09010000  1.0 -0.1501405993
O  O103  1  0.94780000  0.02450000  0.40990000  1.0 -0.1501405993
O  O104  1  0.55220000  0.97550000  0.90990000  1.0 -0.1501405993
O  O105  1  0.41980000  0.51610000  0.93630000  1.0 -0.0309154168
O  O106  1  0.93630000  0.41980000  0.51610000  1.0 -0.0309154168
O  O107  1  0.51610000  0.93630000  0.41980000  1.0 -0.0309154168
O  O108  1  0.98390000  0.06370000  0.91980000  1.0 -0.0309154168
O  O109  1  0.43630000  0.08020000  0.48390000  1.0 -0.0309154168
O  O110  1  0.48390000  0.43630000  0.08020000  1.0 -0.0309154168
O  O111  1  0.56370000  0.58020000  0.01610000  1.0 -0.0309154168
O  O112  1  0.06370000  0.91980000  0.98390000  1.0 -0.0309154168
O  O113  1  0.01610000  0.56370000  0.58020000  1.0 -0.0309154168
O  O114  1  0.08020000  0.48390000  0.43630000  1.0 -0.0309154168
O  O115  1  0.91980000  0.98390000  0.06370000  1.0 -0.0309154168
O  O116  1  0.58020000  0.01610000  0.56370000  1.0 -0.0309154168
O  O117  1  0.40420000  0.44010000  0.98360000  1.0 -0.1944265221
O  O118  1  0.98360000  0.40420000  0.44010000  1.0 -0.1988127
O  O119  1  0.44010000  0.98360000  0.40420000  1.0 -0.1988127
O  O120  1  0.05990000  0.01640000  0.90420000  1.0 -0.1944265221
O  O121  1  0.48360000  0.09580000  0.55990000  1.0 -0.1944265221
O  O122  1  0.55990000  0.48360000  0.09580000  1.0 -0.1988127
O  O123  1  0.51640000  0.59580000  0.94010000  1.0 -0.1944265221
O  O124  1  0.01640000  0.90420000  0.05990000  1.0 -0.1944265221
O  O125  1  0.94010000  0.51640000  0.59580000  1.0 -0.1944265221
O  O126  1  0.09580000  0.55990000  0.48360000  1.0 -0.1944265221
O  O127  1  0.90420000  0.05990000  0.01640000  1.0 -0.1944265221
O  O128  1  0.59580000  0.94010000  0.51640000  1.0 -0.1988127
O  O129  1  0.14020000  0.48920000  0.97080000  1.0 -0.1944265221
O  O130  1  0.97080000  0.14020000  0.48920000  1.0 -0.1988127
O  O131  1  0.48920000  0.97080000  0.14020000  1.0 -0.1988127
O  O132  1  0.01080000  0.02920000  0.64020000  1.0 -0.1944265221
O  O133  1  0.47080000  0.35980000  0.51080000  1.0 -0.1988127
O  O134  1  0.51080000  0.47080000  0.35980000  1.0 -0.1988127
O  O135  1  0.52920000  0.85980000  0.98920000  1.0 -0.1944265221
O  O136  1  0.02920000  0.64020000  0.01080000  1.0 -0.1988127
O  O137  1  0.98920000  0.52920000  0.85980000  1.0 -0.1944265221
O  O138  1  0.35980000  0.51080000  0.47080000  1.0 -0.1988127
O  O139  1  0.64020000  0.01080000  0.02920000  1.0 -0.1988127
O  O140  1  0.85980000  0.98920000  0.52920000  1.0 -0.1988127
O  O141  1  0.52120000  0.44700000  0.57690000  1.0 -0.1322886688
O  O142  1  0.57690000  0.52120000  0.44700000  1.0 -0.1322886688
O  O143  1  0.44700000  0.57690000  0.52120000  1.0 -0.1322886688
O  O144  1  0.05300000  0.42310000  0.02120000  1.0 -0.1322886688
O  O145  1  0.07690000  0.97880000  0.55300000  1.0 -0.1322886688
O  O146  1  0.55300000  0.07690000  0.97880000  1.0 -0.1322886688
O  O147  1  0.92310000  0.47880000  0.94700000  1.0 -0.1322886688
O  O148  1  0.42310000  0.02120000  0.05300000  1.0 -0.1322886688
O  O149  1  0.94700000  0.92310000  0.47880000  1.0 -0.1322886688
O  O150  1  0.97880000  0.55300000  0.07690000  1.0 -0.1322886688
O  O151  1  0.02120000  0.05300000  0.42310000  1.0 -0.1322886688
O  O152  1  0.47880000  0.94700000  0.92310000  1.0 -0.1322886688
O  O153  1  0.45390000  0.50130000  0.59310000  1.0 -0.1696931799
O  O154  1  0.59310000  0.45390000  0.50130000  1.0 -0.1696931799
O  O155  1  0.50130000  0.59310000  0.45390000  1.0 -0.1696931799
O  O156  1  0.99870000  0.40690000  0.95390000  1.0 -0.1696931799
O  O157  1  0.09310000  0.04610000  0.49870000  1.0 -0.1696931799
O  O158  1  0.49870000  0.09310000  0.04610000  1.0 -0.1696931799
O  O159  1  0.90690000  0.54610000  0.00130000  1.0 -0.1696931799
O  O160  1  0.40690000  0.95390000  0.99870000  1.0 -0.1696931799
O  O161  1  0.00130000  0.90690000  0.54610000  1.0 -0.1696931799
O  O162  1  0.04610000  0.49870000  0.09310000  1.0 -0.1696931799
O  O163  1  0.95390000  0.99870000  0.40690000  1.0 -0.1696931799
O  O164  1  0.54610000  0.00130000  0.90690000  1.0 -0.1696931799
