# DDEC6 charges by PACMAN v1.1 (https://github.com/mtap-research/PACMAN-charge/)
data_FUYVIH_ASR_pacman
_symmetry_space_group_name_H-M   'P 1'
_cell_length_a   26.65190000
_cell_length_b   23.52580000
_cell_length_c   15.03550000
_cell_angle_alpha   84.38590000
_cell_angle_beta   61.45880000
_cell_angle_gamma   34.15530000
_symmetry_Int_Tables_number   1
_chemical_formula_structural   Co6H37C47(N3O10)2
_chemical_formula_sum   'Co12 H74 C94 N12 O40'
_cell_volume   3708.16758606
_cell_formula_units_Z   2
loop_
 _symmetry_equiv_pos_site_id
 _symmetry_equiv_pos_as_xyz
  1  'x, y, z'
loop_
 _atom_site_type_symbol
 _atom_site_label
 _atom_site_symmetry_multiplicity
 _atom_site_fract_x
 _atom_site_fract_y
 _atom_site_fract_z
 _atom_site_occupancy
 _atom_site_charge
Co  Co1  1  0.88479000  0.04823000  0.15895000  1.0 1.0003233388
Co  Co2  1  0.69486000  0.20296000  0.45936000  1.0 0.8133616134
Co  Co3  1  0.03781000  0.88979000  0.24817000  1.0 0.8899919226
Co  Co4  1  0.90803000  0.15895000  0.04823000  1.0 1.0003233388
Co  Co5  1  0.64282000  0.45936000  0.20296000  1.0 0.8133616134
Co  Co6  1  0.82423000  0.24817000  0.88979000  1.0 0.8899919226
Co  Co7  1  0.20177000  0.36521000  0.34197000  1.0 1.0003233388
Co  Co8  1  0.04704000  0.55514000  0.60718000  1.0 0.8133616134
Co  Co9  1  0.36021000  0.21219000  0.42577000  1.0 0.8899919226
Co  Co10  1  0.09105000  0.34197000  0.36521000  1.0 1.0003233388
Co  Co11  1  0.79064000  0.60718000  0.55514000  1.0 0.8133616134
Co  Co12  1  0.00183000  0.42577000  0.21219000  1.0 0.8899919226
H  H1  1  0.78243000  0.13171000  0.04429000  1.0 0.0901332147
H  H2  1  0.36141000  0.63423000  0.80505000  1.0 0.0998075455
H  H3  1  0.55405000  0.43635000  0.60997000  1.0 0.0998075455
H  H4  1  0.41388000  0.41338000  0.66358000  1.0 0.1098419517
H  H5  1  0.21976000  0.61070000  0.84858000  1.0 0.1098419517
H  H6  1  0.97005000  0.97923000  0.56869000  1.0 0.122996736
H  H7  1  0.96488000  0.02916000  0.70080000  1.0 0.0998075455
H  H8  1  0.70889000  0.36445000  0.78019000  1.0 0.0901332147
H  H9  1  0.70557000  0.32299000  0.65269000  1.0 0.122996736
H  H10  1  0.44694000  0.30946000  0.52858000  1.0 0.1098419517
H  H11  1  0.34760000  0.31828000  0.56180000  1.0 0.0998075455
H  H12  1  0.60316000  0.06876000  0.19650000  1.0 0.0901332147
H  H13  1  0.71448000  0.04872000  0.15392000  1.0 0.122996736
H  H14  1  0.87257000  0.98699000  0.29403000  1.0 0.3491021528
H  H15  1  0.36002000  0.54452000  0.91764000  1.0 0.0998075455
H  H16  1  0.55330000  0.34324000  0.72444000  1.0 0.1098419517
H  H17  1  0.41762000  0.47738000  0.58018000  1.0 0.0998075455
H  H18  1  0.22675000  0.68173000  0.75967000  1.0 0.1098419517
H  H19  1  0.04157000  0.04429000  0.13171000  1.0 0.0901332147
H  H20  1  0.19931000  0.80505000  0.63423000  1.0 0.0998075455
H  H21  1  0.39963000  0.60997000  0.43635000  1.0 0.0998075455
H  H22  1  0.50916000  0.66358000  0.41338000  1.0 0.1098419517
H  H23  1  0.32096000  0.84858000  0.61070000  1.0 0.1098419517
H  H24  1  0.48203000  0.56869000  0.97923000  1.0 0.122996736
H  H25  1  0.30516000  0.70080000  0.02916000  1.0 0.0998075455
H  H26  1  0.14647000  0.78019000  0.36445000  1.0 0.0901332147
H  H27  1  0.31875000  0.65269000  0.32299000  1.0 0.122996736
H  H28  1  0.71502000  0.52858000  0.30946000  1.0 0.1098419517
H  H29  1  0.77232000  0.56180000  0.31828000  1.0 0.0998075455
H  H30  1  0.13158000  0.19650000  0.06876000  1.0 0.0901332147
H  H31  1  0.08288000  0.15392000  0.04872000  1.0 0.122996736
H  H32  1  0.84641000  0.29403000  0.98699000  1.0 0.3491021528
H  H33  1  0.17782000  0.91764000  0.54452000  1.0 0.0998075455
H  H34  1  0.37902000  0.72444000  0.34324000  1.0 0.1098419517
H  H35  1  0.52482000  0.58018000  0.47738000  1.0 0.0998075455
H  H36  1  0.33185000  0.75967000  0.68173000  1.0 0.1098419517
H  H37  1  0.11829000  0.46757000  0.20843000  1.0 0.0901332147
H  H38  1  0.61577000  0.88859000  0.05069000  1.0 0.0998075455
H  H39  1  0.81365000  0.69595000  0.85037000  1.0 0.0998075455
H  H40  1  0.83662000  0.83612000  0.74084000  1.0 0.1098419517
H  H41  1  0.63930000  0.03024000  0.92904000  1.0 0.1098419517
H  H42  1  0.27077000  0.27995000  0.76797000  1.0 0.122996736
H  H43  1  0.22084000  0.28512000  0.94484000  1.0 0.0998075455
H  H44  1  0.88555000  0.54111000  0.10353000  1.0 0.0901332147
H  H45  1  0.92701000  0.54443000  0.93125000  1.0 0.122996736
H  H46  1  0.94054000  0.80306000  0.53498000  1.0 0.1098419517
H  H47  1  0.93172000  0.90240000  0.47768000  1.0 0.0998075455
H  H48  1  0.18124000  0.64684000  0.11842000  1.0 0.0901332147
H  H49  1  0.20128000  0.53552000  0.16712000  1.0 0.122996736
H  H50  1  0.26301000  0.37743000  0.40359000  1.0 0.3491021528
H  H51  1  0.70548000  0.88998000  0.07218000  1.0 0.0998075455
H  H52  1  0.90676000  0.69670000  0.87098000  1.0 0.1098419517
H  H53  1  0.77262000  0.83238000  0.72518000  1.0 0.0998075455
H  H54  1  0.56827000  0.02325000  0.91815000  1.0 0.1098419517
H  H55  1  0.20571000  0.20843000  0.46757000  1.0 0.0901332147
H  H56  1  0.44495000  0.05069000  0.88859000  1.0 0.0998075455
H  H57  1  0.64003000  0.85037000  0.69595000  1.0 0.0998075455
H  H58  1  0.58642000  0.74084000  0.83612000  1.0 0.1098419517
H  H59  1  0.40142000  0.92904000  0.03024000  1.0 0.1098419517
H  H60  1  0.68131000  0.76797000  0.27995000  1.0 0.122996736
H  H61  1  0.54920000  0.94484000  0.28512000  1.0 0.0998075455
H  H62  1  0.46981000  0.10353000  0.54111000  1.0 0.0901332147
H  H63  1  0.59731000  0.93125000  0.54443000  1.0 0.122996736
H  H64  1  0.72142000  0.53498000  0.80306000  1.0 0.1098419517
H  H65  1  0.68820000  0.47768000  0.90240000  1.0 0.0998075455
H  H66  1  0.05350000  0.11842000  0.64684000  1.0 0.0901332147
H  H67  1  0.09608000  0.16712000  0.53552000  1.0 0.122996736
H  H68  1  0.95597000  0.40359000  0.37743000  1.0 0.3491021528
H  H69  1  0.33236000  0.07218000  0.88998000  1.0 0.0998075455
H  H70  1  0.52556000  0.87098000  0.69670000  1.0 0.1098419517
H  H71  1  0.66982000  0.72518000  0.83238000  1.0 0.0998075455
H  H72  1  0.49033000  0.91815000  0.02325000  1.0 0.1098419517
H  H73  1  0.58875000  0.41125000  0.41125000  1.0 0.0702836312
H  H74  1  0.83875000  0.66125000  0.66125000  1.0 0.0702836312
C  C1  1  0.80651000  0.14927000  0.02353000  1.0 0.4919728621
C  C2  1  0.14634000  0.76954000  0.98506000  1.0 0.5672503545
C  C3  1  0.26921000  0.64201000  0.85759000  1.0 0.0110935246
C  C4  1  0.37130000  0.58830000  0.77910000  1.0 -0.1166086492
C  C5  1  0.48670000  0.46950000  0.66410000  1.0 -0.0570908912
C  C6  1  0.40500000  0.45680000  0.69460000  1.0 -0.014516331
C  C7  1  0.28890000  0.57410000  0.80570000  1.0 -0.0989917011
C  C8  1  0.84409000  0.11151000  0.50549000  1.0 0.5672503545
C  C9  1  0.83810000  0.14592000  0.59448000  1.0 0.0296818957
C  C10  1  0.91424000  0.06044000  0.61196000  1.0 -0.1927215622
C  C11  1  0.91068000  0.09088000  0.69132000  1.0 0.0755719527
C  C12  1  0.76264000  0.28444000  0.73756000  1.0 0.0702836312
C  C13  1  0.76138000  0.25938000  0.66002000  1.0 -0.183802189
C  C14  1  0.66542000  0.16202000  0.31858000  1.0 0.5641138389
C  C15  1  0.59699000  0.17217000  0.33603000  1.0 0.0242127752
C  C16  1  0.48258000  0.25658000  0.45862000  1.0 -0.1703335956
C  C17  1  0.42300000  0.26300000  0.47720000  1.0 0.0296818957
C  C18  1  0.57123000  0.11783000  0.26577000  1.0 0.0702836312
C  C19  1  0.63929000  0.10449000  0.23911000  1.0 -0.1703335956
C  C20  1  0.37190000  0.53350000  0.84670000  1.0 -0.1317553778
C  C21  1  0.48650000  0.41470000  0.73190000  1.0 -0.0416027174
C  C22  1  0.40910000  0.49230000  0.64690000  1.0 -0.0221262404
C  C23  1  0.29170000  0.61550000  0.75670000  1.0 -0.0912127287
C  C24  1  0.02069000  0.02353000  0.14927000  1.0 0.4919728621
C  C25  1  0.09906000  0.98506000  0.76954000  1.0 0.5672503545
C  C26  1  0.23119000  0.85759000  0.64201000  1.0 0.0110935246
C  C27  1  0.26130000  0.77910000  0.58830000  1.0 -0.1166086492
C  C28  1  0.37970000  0.66410000  0.46950000  1.0 -0.0570908912
C  C29  1  0.44360000  0.69460000  0.45680000  1.0 -0.014516331
C  C30  1  0.33130000  0.80570000  0.57410000  1.0 -0.0989917011
C  C31  1  0.53891000  0.50549000  0.11151000  1.0 0.5672503545
C  C32  1  0.42150000  0.59448000  0.14592000  1.0 0.0296818957
C  C33  1  0.41336000  0.61196000  0.06044000  1.0 -0.1927215622
C  C34  1  0.30712000  0.69132000  0.09088000  1.0 0.0755719527
C  C35  1  0.21536000  0.73756000  0.28444000  1.0 0.0702836312
C  C36  1  0.31922000  0.66002000  0.25938000  1.0 -0.183802189
C  C37  1  0.85398000  0.31858000  0.16202000  1.0 0.5641138389
C  C38  1  0.89481000  0.33603000  0.17217000  1.0 0.0242127752
C  C39  1  0.80222000  0.45862000  0.25658000  1.0 -0.1703335956
C  C40  1  0.83680000  0.47720000  0.26300000  1.0 0.0296818957
C  C41  1  0.04517000  0.26577000  0.11783000  1.0 0.0702836312
C  C42  1  0.01711000  0.23911000  0.10449000  1.0 -0.1703335956
C  C43  1  0.24790000  0.84670000  0.53350000  1.0 -0.1317553778
C  C44  1  0.36690000  0.73190000  0.41470000  1.0 -0.0416027174
C  C45  1  0.45170000  0.64690000  0.49230000  1.0 -0.0221262404
C  C46  1  0.33610000  0.75670000  0.61550000  1.0 -0.0912127287
C  C47  1  0.10073000  0.44349000  0.22931000  1.0 0.4919728621
C  C48  1  0.48046000  0.10366000  0.15094000  1.0 0.5672503545
C  C49  1  0.60799000  0.98079000  0.01881000  1.0 0.0110935246
C  C50  1  0.66170000  0.87870000  0.98870000  1.0 -0.1166086492
C  C51  1  0.78050000  0.76330000  0.87030000  1.0 -0.0570908912
C  C52  1  0.79320000  0.84500000  0.80640000  1.0 -0.014516331
C  C53  1  0.67590000  0.96110000  0.91870000  1.0 -0.0989917011
C  C54  1  0.13849000  0.40591000  0.71109000  1.0 0.5672503545
C  C55  1  0.10408000  0.41190000  0.82850000  1.0 0.0296818957
C  C56  1  0.18956000  0.33576000  0.83664000  1.0 -0.1927215622
C  C57  1  0.15912000  0.33932000  0.94288000  1.0 0.0755719527
C  C58  1  0.96556000  0.48736000  0.03464000  1.0 0.0702836312
C  C59  1  0.99062000  0.48862000  0.93078000  1.0 -0.183802189
C  C60  1  0.08798000  0.58458000  0.39602000  1.0 0.5641138389
C  C61  1  0.07783000  0.65301000  0.35519000  1.0 0.0242127752
C  C62  1  0.99342000  0.76742000  0.44778000  1.0 -0.1703335956
C  C63  1  0.98700000  0.82700000  0.41320000  1.0 0.0296818957
C  C64  1  0.13217000  0.67877000  0.20483000  1.0 0.0702836312
C  C65  1  0.14551000  0.61071000  0.23289000  1.0 -0.1703335956
C  C66  1  0.71650000  0.87810000  0.00210000  1.0 -0.1317553778
C  C67  1  0.83530000  0.76350000  0.88310000  1.0 -0.0416027174
C  C68  1  0.75770000  0.84090000  0.79830000  1.0 -0.0221262404
C  C69  1  0.63450000  0.95830000  0.91390000  1.0 -0.0912127287
C  C70  1  0.22647000  0.22931000  0.44349000  1.0 0.4919728621
C  C71  1  0.26494000  0.15094000  0.10366000  1.0 0.5672503545
C  C72  1  0.39241000  0.01881000  0.98079000  1.0 0.0110935246
C  C73  1  0.47090000  0.98870000  0.87870000  1.0 -0.1166086492
C  C74  1  0.58590000  0.87030000  0.76330000  1.0 -0.0570908912
C  C75  1  0.55540000  0.80640000  0.84500000  1.0 -0.014516331
C  C76  1  0.44430000  0.91870000  0.96110000  1.0 -0.0989917011
C  C77  1  0.74451000  0.71109000  0.40591000  1.0 0.5672503545
C  C78  1  0.65552000  0.82850000  0.41190000  1.0 0.0296818957
C  C79  1  0.63804000  0.83664000  0.33576000  1.0 -0.1927215622
C  C80  1  0.55868000  0.94288000  0.33932000  1.0 0.0755719527
C  C81  1  0.51244000  0.03464000  0.48736000  1.0 0.0702836312
C  C82  1  0.58998000  0.93078000  0.48862000  1.0 -0.183802189
C  C83  1  0.93142000  0.39602000  0.58458000  1.0 0.5641138389
C  C84  1  0.91397000  0.35519000  0.65301000  1.0 0.0242127752
C  C85  1  0.79138000  0.44778000  0.76742000  1.0 -0.1703335956
C  C86  1  0.77280000  0.41320000  0.82700000  1.0 0.0296818957
C  C87  1  0.98423000  0.20483000  0.67877000  1.0 0.0702836312
C  C88  1  0.01089000  0.23289000  0.61071000  1.0 -0.1703335956
C  C89  1  0.40330000  0.00210000  0.87810000  1.0 -0.1317553778
C  C90  1  0.51810000  0.88310000  0.76350000  1.0 -0.0416027174
C  C91  1  0.60310000  0.79830000  0.84090000  1.0 -0.0221262404
C  C92  1  0.49330000  0.91390000  0.95830000  1.0 -0.0912127287
C  C93  1  0.66950000  0.33050000  0.33050000  1.0 0.4539616539
C  C94  1  0.91950000  0.58050000  0.58050000  1.0 0.4539616539
N  N1  1  0.50556000  0.39832000  0.62668000  1.0 -0.0672117748
N  N2  1  0.83537000  0.20201000  0.75479000  1.0 -0.2242192344
N  N3  1  0.46478000  0.19460000  0.38140000  1.0 -0.2576263599
N  N4  1  0.46944000  0.62668000  0.39832000  1.0 -0.0672117748
N  N5  1  0.20783000  0.75479000  0.20201000  1.0 -0.2242192344
N  N6  1  0.95922000  0.38140000  0.19460000  1.0 -0.2576263599
N  N7  1  0.85168000  0.74444000  0.78056000  1.0 -0.0672117748
N  N8  1  0.04799000  0.41463000  0.04217000  1.0 -0.2242192344
N  N9  1  0.05540000  0.78522000  0.29078000  1.0 -0.2576263599
N  N10  1  0.62332000  0.78056000  0.74444000  1.0 -0.0672117748
N  N11  1  0.49521000  0.04217000  0.41463000  1.0 -0.2242192344
N  N12  1  0.86860000  0.29078000  0.78522000  1.0 -0.2576263599
O  O1  1  0.87790000  0.01742000  0.29178000  1.0 -0.8657160565
O  O2  1  0.72499000  0.23917000  0.32803000  1.0 -0.4903343782
O  O3  1  0.86918000  0.10876000  0.04404000  1.0 -0.5430855916
O  O4  1  0.77313000  0.20917000  0.97943000  1.0 -0.4903343782
O  O5  1  0.04840000  0.86082000  0.00578000  1.0 -0.5340374873
O  O6  1  0.15492000  0.77134000  0.05886000  1.0 -0.5587486789
O  O7  1  0.93927000  0.99495000  0.43025000  1.0 -0.5662302241
O  O8  1  0.75607000  0.20005000  0.51335000  1.0 -0.5587486789
O  O9  1  0.76413000  0.09055000  0.20705000  1.0 -0.5662302241
O  O10  1  0.61700000  0.22542000  0.41878000  1.0 -0.5901246235
O  O11  1  0.81290000  0.29178000  0.01742000  1.0 -0.8657160565
O  O12  1  0.70781000  0.32803000  0.23917000  1.0 -0.4903343782
O  O13  1  0.97802000  0.04404000  0.10876000  1.0 -0.5430855916
O  O14  1  0.03827000  0.97943000  0.20917000  1.0 -0.4903343782
O  O15  1  0.08500000  0.00578000  0.86082000  1.0 -0.5340374873
O  O16  1  0.01488000  0.05886000  0.77134000  1.0 -0.5587486789
O  O17  1  0.63553000  0.43025000  0.99495000  1.0 -0.5662302241
O  O18  1  0.53053000  0.51335000  0.20005000  1.0 -0.5587486789
O  O19  1  0.93827000  0.20705000  0.09055000  1.0 -0.5662302241
O  O20  1  0.73880000  0.41878000  0.22542000  1.0 -0.5901246235
O  O21  1  0.23258000  0.37210000  0.43710000  1.0 -0.8657160565
O  O22  1  0.01083000  0.52501000  0.54219000  1.0 -0.4903343782
O  O23  1  0.14124000  0.38082000  0.27198000  1.0 -0.5430855916
O  O24  1  0.04083000  0.47687000  0.21173000  1.0 -0.4903343782
O  O25  1  0.38918000  0.20160000  0.16500000  1.0 -0.5340374873
O  O26  1  0.47866000  0.09508000  0.23512000  1.0 -0.5587486789
O  O27  1  0.25505000  0.31073000  0.61447000  1.0 -0.5662302241
O  O28  1  0.04995000  0.49393000  0.71947000  1.0 -0.5587486789
O  O29  1  0.15945000  0.48587000  0.31173000  1.0 -0.5662302241
O  O30  1  0.02458000  0.63300000  0.51120000  1.0 -0.5901246235
O  O31  1  0.95822000  0.43710000  0.37210000  1.0 -0.8657160565
O  O32  1  0.92197000  0.54219000  0.52501000  1.0 -0.4903343782
O  O33  1  0.20596000  0.27198000  0.38082000  1.0 -0.5430855916
O  O34  1  0.27057000  0.21173000  0.47687000  1.0 -0.4903343782
O  O35  1  0.24422000  0.16500000  0.20160000  1.0 -0.5340374873
O  O36  1  0.19114000  0.23512000  0.09508000  1.0 -0.5587486789
O  O37  1  0.81975000  0.61447000  0.31073000  1.0 -0.5662302241
O  O38  1  0.73665000  0.71947000  0.49393000  1.0 -0.5587486789
O  O39  1  0.04295000  0.31173000  0.48587000  1.0 -0.5662302241
O  O40  1  0.83122000  0.51120000  0.63300000  1.0 -0.5901246235
