# DDEC6 charges by PACMAN v1.1 (https://github.com/mtap-research/PACMAN-charge/)
data_GABGOI_FSR_pacman
_symmetry_space_group_name_H-M   'P 1'
_cell_length_a   16.07420000
_cell_length_b   17.11780000
_cell_length_c   24.40310000
_cell_angle_alpha   90.00000000
_cell_angle_beta   94.52100000
_cell_angle_gamma   90.00000000
_symmetry_Int_Tables_number   1
_chemical_formula_structural   ZnH15C16(NO)4
_chemical_formula_sum   'Zn12 H180 C192 N48 O48'
_cell_volume   6693.74101984
_cell_formula_units_Z   12
loop_
 _symmetry_equiv_pos_site_id
 _symmetry_equiv_pos_as_xyz
  1  'x, y, z'
loop_
 _atom_site_type_symbol
 _atom_site_label
 _atom_site_symmetry_multiplicity
 _atom_site_fract_x
 _atom_site_fract_y
 _atom_site_fract_z
 _atom_site_occupancy
 _atom_site_charge
Zn  Zn1  1  0.80330000  0.28480000  0.43142000  1.0 0.7509347287
Zn  Zn2  1  0.69670000  0.78480000  0.56858000  1.0 0.7509347287
Zn  Zn3  1  0.20304000  0.30486000  0.07741000  1.0 0.7605409709
Zn  Zn4  1  0.29696000  0.80486000  0.92259000  1.0 0.7605409709
Zn  Zn5  1  0.46968000  0.34069000  0.74124000  1.0 0.7233455268
Zn  Zn6  1  0.03032000  0.84069000  0.25876000  1.0 0.7233455268
Zn  Zn7  1  0.19670000  0.71520000  0.56858000  1.0 0.7509347287
Zn  Zn8  1  0.30330000  0.21520000  0.43142000  1.0 0.7509347287
Zn  Zn9  1  0.79696000  0.69514000  0.92259000  1.0 0.7605409709
Zn  Zn10  1  0.70304000  0.19514000  0.07741000  1.0 0.7605409709
Zn  Zn11  1  0.53032000  0.65931000  0.25876000  1.0 0.7233455268
Zn  Zn12  1  0.96968000  0.15931000  0.74124000  1.0 0.7233455268
H  H1  1  0.92770000  0.38360000  0.50490000  1.0 0.1113155881
H  H2  1  0.57230000  0.88360000  0.49510000  1.0 0.1113155881
H  H3  1  0.98870000  0.24080000  0.39060000  1.0 0.1291060428
H  H4  1  0.51130000  0.74080000  0.60940000  1.0 0.1291060428
H  H5  1  0.11720000  0.29390000  0.43530000  1.0 0.1291060428
H  H6  1  0.38280000  0.79390000  0.56470000  1.0 0.1291060428
H  H7  1  0.12930000  0.43760000  0.49930000  1.0 0.1188307007
H  H8  1  0.37070000  0.93760000  0.50070000  1.0 0.1188307007
H  H9  1  0.06430000  0.43360000  0.54400000  1.0 0.1113155881
H  H10  1  0.43570000  0.93360000  0.45600000  1.0 0.1113155881
H  H11  1  0.18730000  0.32120000  0.53080000  1.0 0.1291060428
H  H12  1  0.31270000  0.82120000  0.46920000  1.0 0.1291060428
H  H13  1  0.12160000  0.31520000  0.57440000  1.0 0.1188307007
H  H14  1  0.37840000  0.81520000  0.42560000  1.0 0.1188307007
H  H15  1  0.23440000  0.42380000  0.57030000  1.0 0.1291060428
H  H16  1  0.26560000  0.92380000  0.42970000  1.0 0.1291060428
H  H17  1  0.17140000  0.41370000  0.61420000  1.0 0.1188307007
H  H18  1  0.32860000  0.91370000  0.38580000  1.0 0.1188307007
H  H19  1  0.37930000  0.41980000  0.64140000  1.0 0.1113155881
H  H20  1  0.12070000  0.91980000  0.35860000  1.0 0.1113155881
H  H21  1  0.29020000  0.25980000  0.73660000  1.0 0.1291060428
H  H22  1  0.20980000  0.75980000  0.26340000  1.0 0.1291060428
H  H23  1  0.17920000  0.28720000  0.66000000  1.0 0.1188307007
H  H24  1  0.32080000  0.78720000  0.34000000  1.0 0.1188307007
H  H25  1  0.79260000  0.26920000  0.30110000  1.0 0.1188307007
H  H26  1  0.70740000  0.76920000  0.69890000  1.0 0.1188307007
H  H27  1  0.65380000  0.39590000  0.38840000  1.0 0.1113155881
H  H28  1  0.84620000  0.89590000  0.61160000  1.0 0.1113155881
H  H29  1  0.69000000  0.33333333  0.23740000  1.0 0.1396089283
H  H30  1  0.81000000  0.83333000  0.76260000  1.0 0.1396089283
H  H31  1  0.55160000  0.45680000  0.31530000  1.0 0.1008772607
H  H32  1  0.94840000  0.95680000  0.68470000  1.0 0.1008772607
H  H33  1  0.59520000  0.46850000  0.26060000  1.0 0.1113155881
H  H34  1  0.90480000  0.96850000  0.73940000  1.0 0.1113155881
H  H35  1  0.47710000  0.35210000  0.28050000  1.0 0.1113155881
H  H36  1  0.02290000  0.85210000  0.71950000  1.0 0.1113155881
H  H37  1  0.53210000  0.34510000  0.23030000  1.0 0.1188307007
H  H38  1  0.96790000  0.84510000  0.76970000  1.0 0.1188307007
H  H39  1  0.47350000  0.45490000  0.19010000  1.0 0.1188307007
H  H40  1  0.02650000  0.95490000  0.80990000  1.0 0.1188307007
H  H41  1  0.42950000  0.47630000  0.24340000  1.0 0.1188307007
H  H42  1  0.07050000  0.97630000  0.75660000  1.0 0.1188307007
H  H43  1  0.31260000  0.36700000  0.26880000  1.0 0.1291060428
H  H44  1  0.18740000  0.86700000  0.73120000  1.0 0.1291060428
H  H45  1  0.20700000  0.30230000  0.20700000  1.0 0.1188307007
H  H46  1  0.29300000  0.80230000  0.79300000  1.0 0.1188307007
H  H47  1  0.37320000  0.39060000  0.11880000  1.0 0.1188307007
H  H48  1  0.12680000  0.89060000  0.88120000  1.0 0.1188307007
H  H49  1  0.46980000  0.22490000  0.84230000  1.0 0.1188307007
H  H50  1  0.03020000  0.72490000  0.15770000  1.0 0.1188307007
H  H51  1  0.64690000  0.25960000  0.74900000  1.0 0.1188307007
H  H52  1  0.85310000  0.75960000  0.25100000  1.0 0.1188307007
H  H53  1  0.69740000  0.16870000  0.82070000  1.0 0.1291060428
H  H54  1  0.80260000  0.66870000  0.17930000  1.0 0.1291060428
H  H55  1  0.64120000  0.13590000  0.91620000  1.0 0.1113155881
H  H56  1  0.85880000  0.63590000  0.08380000  1.0 0.1113155881
H  H57  1  0.54510000  0.14870000  0.92040000  1.0 0.1113155881
H  H58  1  0.95490000  0.64870000  0.07960000  1.0 0.1113155881
H  H59  1  0.61600000  0.02030000  0.86270000  1.0 0.1188307007
H  H60  1  0.88400000  0.52030000  0.13730000  1.0 0.1188307007
H  H61  1  0.51920000  0.03620000  0.85760000  1.0 0.1113155881
H  H62  1  0.98080000  0.53620000  0.14240000  1.0 0.1113155881
H  H63  1  0.53140000  0.03070000  0.95820000  1.0 0.1008772607
H  H64  1  0.96860000  0.53070000  0.04180000  1.0 0.1008772607
H  H65  1  0.61690000  0.98860000  0.95160000  1.0 0.1113155881
H  H66  1  0.88310000  0.48860000  0.04840000  1.0 0.1113155881
H  H67  1  0.60690000  0.84350000  0.91250000  1.0 0.1396089283
H  H68  1  0.89310000  0.34350000  0.08750000  1.0 0.1396089283
H  H69  1  0.49110000  0.74990000  0.90820000  1.0 0.1291060428
H  H70  1  0.00890000  0.24990000  0.09180000  1.0 0.1291060428
H  H71  1  0.39900000  0.95510000  0.92900000  1.0 0.1188307007
H  H72  1  0.10100000  0.45510000  0.07100000  1.0 0.1188307007
H  H73  1  0.75770000  0.03840000  0.46940000  1.0 0.1113155881
H  H74  1  0.74230000  0.53840000  0.53060000  1.0 0.1113155881
H  H75  1  0.83310000  0.83050000  0.41920000  1.0 0.1188307007
H  H76  1  0.66690000  0.33050000  0.58080000  1.0 0.1188307007
H  H77  1  0.89050000  0.02500000  0.33870000  1.0 0.1113155881
H  H78  1  0.60950000  0.52500000  0.66130000  1.0 0.1113155881
H  H79  1  0.31200000  0.34960000  0.91980000  1.0 0.1188307007
H  H80  1  0.18800000  0.84960000  0.08020000  1.0 0.1188307007
H  H81  1  0.37240000  0.53790000  0.83440000  1.0 0.1113155881
H  H82  1  0.12760000  0.03790000  0.16560000  1.0 0.1113155881
H  H83  1  0.26930000  0.56330000  0.97750000  1.0 0.1188307007
H  H84  1  0.23070000  0.06330000  0.02250000  1.0 0.1188307007
H  H85  1  0.29140000  0.40600000  0.70520000  1.0 0.1008772607
H  H86  1  0.20860000  0.90600000  0.29480000  1.0 0.1008772607
H  H87  1  0.42220000  0.23890000  0.63320000  1.0 0.1396089283
H  H88  1  0.07780000  0.73890000  0.36680000  1.0 0.1396089283
H  H89  1  0.29930000  0.27650000  0.56810000  1.0 0.1291060428
H  H90  1  0.20070000  0.77650000  0.43190000  1.0 0.1291060428
H  H91  1  0.07230000  0.61640000  0.49510000  1.0 0.1113155881
H  H92  1  0.42770000  0.11640000  0.50490000  1.0 0.1113155881
H  H93  1  0.01130000  0.75920000  0.60940000  1.0 0.1291060428
H  H94  1  0.48870000  0.25920000  0.39060000  1.0 0.1291060428
H  H95  1  0.88280000  0.70610000  0.56470000  1.0 0.1291060428
H  H96  1  0.61720000  0.20610000  0.43530000  1.0 0.1291060428
H  H97  1  0.87070000  0.56240000  0.50070000  1.0 0.1188307007
H  H98  1  0.62930000  0.06240000  0.49930000  1.0 0.1188307007
H  H99  1  0.93570000  0.56640000  0.45600000  1.0 0.1113155881
H  H100  1  0.56430000  0.06640000  0.54400000  1.0 0.1113155881
H  H101  1  0.81270000  0.67880000  0.46920000  1.0 0.1291060428
H  H102  1  0.68730000  0.17880000  0.53080000  1.0 0.1291060428
H  H103  1  0.87840000  0.68480000  0.42560000  1.0 0.1188307007
H  H104  1  0.62160000  0.18480000  0.57440000  1.0 0.1188307007
H  H105  1  0.76560000  0.57620000  0.42970000  1.0 0.1291060428
H  H106  1  0.73440000  0.07620000  0.57030000  1.0 0.1291060428
H  H107  1  0.82860000  0.58630000  0.38580000  1.0 0.1188307007
H  H108  1  0.67140000  0.08630000  0.61420000  1.0 0.1188307007
H  H109  1  0.62070000  0.58020000  0.35860000  1.0 0.1113155881
H  H110  1  0.87930000  0.08020000  0.64140000  1.0 0.1113155881
H  H111  1  0.70980000  0.74020000  0.26340000  1.0 0.1291060428
H  H112  1  0.79020000  0.24020000  0.73660000  1.0 0.1291060428
H  H113  1  0.82080000  0.71280000  0.34000000  1.0 0.1188307007
H  H114  1  0.67920000  0.21280000  0.66000000  1.0 0.1188307007
H  H115  1  0.20740000  0.73080000  0.69890000  1.0 0.1188307007
H  H116  1  0.29260000  0.23080000  0.30110000  1.0 0.1188307007
H  H117  1  0.34620000  0.60410000  0.61160000  1.0 0.1113155881
H  H118  1  0.15380000  0.10410000  0.38840000  1.0 0.1113155881
H  H119  1  0.31000000  0.66666667  0.76260000  1.0 0.1396089283
H  H120  1  0.19000000  0.16667000  0.23740000  1.0 0.1396089283
H  H121  1  0.44840000  0.54320000  0.68470000  1.0 0.1008772607
H  H122  1  0.05160000  0.04320000  0.31530000  1.0 0.1008772607
H  H123  1  0.40480000  0.53150000  0.73940000  1.0 0.1113155881
H  H124  1  0.09520000  0.03150000  0.26060000  1.0 0.1113155881
H  H125  1  0.52290000  0.64790000  0.71950000  1.0 0.1113155881
H  H126  1  0.97710000  0.14790000  0.28050000  1.0 0.1113155881
H  H127  1  0.46790000  0.65490000  0.76970000  1.0 0.1188307007
H  H128  1  0.03210000  0.15490000  0.23030000  1.0 0.1188307007
H  H129  1  0.52650000  0.54510000  0.80990000  1.0 0.1188307007
H  H130  1  0.97350000  0.04510000  0.19010000  1.0 0.1188307007
H  H131  1  0.57050000  0.52370000  0.75660000  1.0 0.1188307007
H  H132  1  0.92950000  0.02370000  0.24340000  1.0 0.1188307007
H  H133  1  0.68740000  0.63300000  0.73120000  1.0 0.1291060428
H  H134  1  0.81260000  0.13300000  0.26880000  1.0 0.1291060428
H  H135  1  0.79300000  0.69770000  0.79300000  1.0 0.1188307007
H  H136  1  0.70700000  0.19770000  0.20700000  1.0 0.1188307007
H  H137  1  0.62680000  0.60940000  0.88120000  1.0 0.1188307007
H  H138  1  0.87320000  0.10940000  0.11880000  1.0 0.1188307007
H  H139  1  0.53020000  0.77510000  0.15770000  1.0 0.1188307007
H  H140  1  0.96980000  0.27510000  0.84230000  1.0 0.1188307007
H  H141  1  0.35310000  0.74040000  0.25100000  1.0 0.1188307007
H  H142  1  0.14690000  0.24040000  0.74900000  1.0 0.1188307007
H  H143  1  0.30260000  0.83130000  0.17930000  1.0 0.1188307007
H  H144  1  0.19740000  0.33130000  0.82070000  1.0 0.1291060428
H  H145  1  0.35880000  0.86410000  0.08380000  1.0 0.1113155881
H  H146  1  0.14120000  0.36410000  0.91620000  1.0 0.1113155881
H  H147  1  0.45490000  0.85130000  0.07960000  1.0 0.1113155881
H  H148  1  0.04510000  0.35130000  0.92040000  1.0 0.1113155881
H  H149  1  0.38400000  0.97970000  0.13730000  1.0 0.1188307007
H  H150  1  0.11600000  0.47970000  0.86270000  1.0 0.1188307007
H  H151  1  0.48080000  0.96380000  0.14240000  1.0 0.1113155881
H  H152  1  0.01920000  0.46380000  0.85760000  1.0 0.1113155881
H  H153  1  0.46860000  0.96930000  0.04180000  1.0 0.1008772607
H  H154  1  0.03140000  0.46930000  0.95820000  1.0 0.1008772607
H  H155  1  0.38310000  0.01140000  0.04840000  1.0 0.1113155881
H  H156  1  0.11690000  0.51140000  0.95160000  1.0 0.1113155881
H  H157  1  0.39310000  0.15650000  0.08750000  1.0 0.1396089283
H  H158  1  0.10690000  0.65650000  0.91250000  1.0 0.1396089283
H  H159  1  0.50890000  0.25010000  0.09180000  1.0 0.1291060428
H  H160  1  0.99110000  0.75010000  0.90820000  1.0 0.1291060428
H  H161  1  0.60100000  0.04490000  0.07100000  1.0 0.1188307007
H  H162  1  0.89900000  0.54490000  0.92900000  1.0 0.1188307007
H  H163  1  0.24230000  0.96160000  0.53060000  1.0 0.1113155881
H  H164  1  0.25770000  0.46160000  0.46940000  1.0 0.1113155881
H  H165  1  0.16690000  0.16950000  0.58080000  1.0 0.1188307007
H  H166  1  0.33310000  0.66950000  0.41920000  1.0 0.1188307007
H  H167  1  0.10950000  0.97500000  0.66130000  1.0 0.1113155881
H  H168  1  0.39050000  0.47500000  0.33870000  1.0 0.1113155881
H  H169  1  0.68800000  0.65040000  0.08020000  1.0 0.1188307007
H  H170  1  0.81200000  0.15040000  0.91980000  1.0 0.1188307007
H  H171  1  0.62760000  0.46210000  0.16560000  1.0 0.1113155881
H  H172  1  0.87240000  0.96210000  0.83440000  1.0 0.1113155881
H  H173  1  0.73070000  0.43670000  0.02250000  1.0 0.1188307007
H  H174  1  0.76930000  0.93670000  0.97750000  1.0 0.1188307007
H  H175  1  0.70860000  0.59400000  0.29480000  1.0 0.1008772607
H  H176  1  0.79140000  0.09400000  0.70520000  1.0 0.1008772607
H  H177  1  0.57780000  0.76110000  0.36680000  1.0 0.1396089283
H  H178  1  0.92220000  0.26110000  0.63320000  1.0 0.1396089283
H  H179  1  0.70070000  0.72350000  0.43190000  1.0 0.1291060428
H  H180  1  0.79930000  0.22350000  0.56810000  1.0 0.1291060428
C  C1  1  0.95850000  0.35380000  0.48200000  1.0 0.1008772607
C  C2  1  0.54150000  0.85380000  0.51800000  1.0 0.1008772607
C  C3  1  0.99250000  0.27610000  0.41970000  1.0 -0.0407422407
C  C4  1  0.50750000  0.77610000  0.58030000  1.0 -0.0407422407
C  C5  1  0.06320000  0.30530000  0.44410000  1.0 -0.0913341481
C  C6  1  0.43680000  0.80530000  0.55590000  1.0 -0.0913341481
C  C7  1  0.09740000  0.40240000  0.52070000  1.0 -0.1287669546
C  C8  1  0.40260000  0.90240000  0.47930000  1.0 -0.1287669546
C  C9  1  0.15520000  0.35170000  0.55520000  1.0 -0.1998506251
C  C10  1  0.34480000  0.85170000  0.44480000  1.0 -0.1998506251
C  C11  1  0.20750000  0.38460000  0.59150000  1.0 -0.1617130681
C  C12  1  0.29250000  0.88460000  0.40850000  1.0 -0.1617130681
C  C13  1  0.34760000  0.37690000  0.65030000  1.0 0.0245211608
C  C14  1  0.15240000  0.87690000  0.34970000  1.0 0.0245211608
C  C15  1  0.29670000  0.28790000  0.70460000  1.0 -0.1001873495
C  C16  1  0.20330000  0.78790000  0.29540000  1.0 -0.1001873495
C  C17  1  0.23350000  0.30640000  0.66330000  1.0 -0.1287669546
C  C18  1  0.26650000  0.80640000  0.33670000  1.0 -0.1287669546
C  C19  1  0.75080000  0.30260000  0.31100000  1.0 -0.0407422407
C  C20  1  0.74920000  0.80260000  0.68900000  1.0 -0.0407422407
C  C21  1  0.67530000  0.37080000  0.35880000  1.0 0.1008772607
C  C22  1  0.82470000  0.87080000  0.64120000  1.0 0.1008772607
C  C23  1  0.69420000  0.33750000  0.27560000  1.0 -0.1001873495
C  C24  1  0.80580000  0.83750000  0.72440000  1.0 -0.1001873495
C  C25  1  0.57470000  0.42960000  0.28510000  1.0 -0.1200400933
C  C26  1  0.92530000  0.92960000  0.71490000  1.0 -0.1200400933
C  C27  1  0.50690000  0.38180000  0.25440000  1.0 -0.205985761
C  C28  1  0.99310000  0.88180000  0.74560000  1.0 -0.205985761
C  C29  1  0.44630000  0.43320000  0.22090000  1.0 -0.1113674349
C  C30  1  0.05370000  0.93320000  0.77910000  1.0 -0.1113674349
C  C31  1  0.31320000  0.36240000  0.23080000  1.0 -0.0913341481
C  C32  1  0.18680000  0.86240000  0.76920000  1.0 -0.0913341481
C  C33  1  0.25440000  0.32750000  0.19650000  1.0 -0.0486537206
C  C34  1  0.24560000  0.82750000  0.80350000  1.0 -0.0486537206
C  C35  1  0.34530000  0.37440000  0.14880000  1.0 0.1188307007
C  C36  1  0.15470000  0.87440000  0.85120000  1.0 0.1188307007
C  C37  1  0.51960000  0.21990000  0.82570000  1.0 0.1113155881
C  C38  1  0.98040000  0.71990000  0.17430000  1.0 0.1113155881
C  C39  1  0.61520000  0.23910000  0.77580000  1.0 -0.0407422407
C  C40  1  0.88480000  0.73910000  0.22420000  1.0 -0.0407422407
C  C41  1  0.64400000  0.18970000  0.81570000  1.0 -0.0799768332
C  C42  1  0.85600000  0.68970000  0.18430000  1.0 -0.0799768332
C  C43  1  0.58660000  0.13040000  0.89670000  1.0 -0.1200400933
C  C44  1  0.91340000  0.63040000  0.10330000  1.0 -0.1200400933
C  C45  1  0.57000000  0.04130000  0.88160000  1.0 -0.205985761
C  C46  1  0.93000000  0.54130000  0.11840000  1.0 -0.205985761
C  C47  1  0.56190000  0.99890000  0.93380000  1.0 -0.1459963161
C  C48  1  0.93810000  0.49890000  0.06620000  1.0 -0.1459963161
C  C49  1  0.55080000  0.85500000  0.91530000  1.0 -0.1001873495
C  C50  1  0.94920000  0.35500000  0.08470000  1.0 -0.1001873495
C  C51  1  0.48660000  0.80370000  0.91260000  1.0 -0.0300719505
C  C52  1  0.01340000  0.30370000  0.08740000  1.0 -0.0300719505
C  C53  1  0.43630000  0.91480000  0.92390000  1.0 0.1008772607
C  C54  1  0.06370000  0.41480000  0.07610000  1.0 0.1008772607
C  C55  1  0.82300000  0.13310000  0.39870000  1.0 0.5399171796
C  C56  1  0.67700000  0.63310000  0.60130000  1.0 0.5399171796
C  C57  1  0.82340000  0.04520000  0.40350000  1.0 -0.0144435761
C  C58  1  0.67660000  0.54520000  0.59650000  1.0 -0.0144435761
C  C59  1  0.78580000  0.00850000  0.44490000  1.0 -0.1287669546
C  C60  1  0.71420000  0.50850000  0.55510000  1.0 -0.1287669546
C  C61  1  0.78830000  0.92850000  0.45120000  1.0 -0.0201413575
C  C62  1  0.71170000  0.42850000  0.54880000  1.0 -0.0201413575
C  C63  1  0.74930000  0.89210000  0.49890000  1.0 0.519899444
C  C64  1  0.75070000  0.39210000  0.50110000  1.0 0.519899444
C  C65  1  0.83090000  0.88450000  0.41530000  1.0 -0.1200400933
C  C66  1  0.66910000  0.38450000  0.58470000  1.0 -0.1200400933
C  C67  1  0.87090000  0.92040000  0.37300000  1.0 -0.0201413575
C  C68  1  0.62910000  0.42040000  0.62700000  1.0 -0.0201413575
C  C69  1  0.92230000  0.87140000  0.33690000  1.0 0.519899444
C  C70  1  0.57770000  0.37140000  0.66310000  1.0 0.519899444
C  C71  1  0.86550000  0.00070000  0.36730000  1.0 -0.1287669546
C  C72  1  0.63450000  0.50070000  0.63270000  1.0 -0.1287669546
C  C73  1  0.25420000  0.41680000  0.00760000  1.0 0.5304256665
C  C74  1  0.24580000  0.91680000  0.99240000  1.0 0.5304256665
C  C75  1  0.28750000  0.45080000  0.95640000  1.0 -0.0300719505
C  C76  1  0.21250000  0.95080000  0.04360000  1.0 -0.0300719505
C  C77  1  0.31500000  0.40360000  0.91620000  1.0 -0.1287669546
C  C78  1  0.18500000  0.90360000  0.08380000  1.0 -0.1287669546
C  C79  1  0.34730000  0.43560000  0.87020000  1.0 -0.0300719505
C  C80  1  0.15270000  0.93560000  0.12980000  1.0 -0.0300719505
C  C81  1  0.38010000  0.38290000  0.82770000  1.0 0.5304256665
C  C82  1  0.11990000  0.88290000  0.17230000  1.0 0.5304256665
C  C83  1  0.34990000  0.51620000  0.86490000  1.0 -0.1287669546
C  C84  1  0.15010000  0.01620000  0.13510000  1.0 -0.1287669546
C  C85  1  0.31990000  0.56500000  0.90370000  1.0 -0.0300719505
C  C86  1  0.18010000  0.06500000  0.09630000  1.0 -0.0300719505
C  C87  1  0.28890000  0.53150000  0.95050000  1.0 -0.1287669546
C  C88  1  0.21110000  0.03150000  0.04950000  1.0 -0.1287669546
C  C89  1  0.32250000  0.65180000  0.89660000  1.0 0.5304256665
C  C90  1  0.17750000  0.15180000  0.10340000  1.0 0.5304256665
C  C91  1  0.30770000  0.37010000  0.67960000  1.0 0.0799031567
C  C92  1  0.19230000  0.87010000  0.32040000  1.0 0.0799031567
C  C93  1  0.38090000  0.27520000  0.63930000  1.0 -0.1617130681
C  C94  1  0.11910000  0.77520000  0.36070000  1.0 -0.1617130681
C  C95  1  0.31320000  0.29790000  0.60260000  1.0 -0.173670544
C  C96  1  0.18680000  0.79790000  0.39740000  1.0 -0.173670544
C  C97  1  0.04150000  0.64620000  0.51800000  1.0 0.1008772607
C  C98  1  0.45850000  0.14620000  0.48200000  1.0 0.1008772607
C  C99  1  0.00750000  0.72390000  0.58030000  1.0 -0.0407422407
C  C100  1  0.49250000  0.22390000  0.41970000  1.0 -0.0407422407
C  C101  1  0.93680000  0.69470000  0.55590000  1.0 -0.0913341481
C  C102  1  0.56320000  0.19470000  0.44410000  1.0 -0.0913341481
C  C103  1  0.90260000  0.59760000  0.47930000  1.0 -0.1287669546
C  C104  1  0.59740000  0.09760000  0.52070000  1.0 -0.1287669546
C  C105  1  0.84480000  0.64830000  0.44480000  1.0 -0.1998506251
C  C106  1  0.65520000  0.14830000  0.55520000  1.0 -0.1998506251
C  C107  1  0.79250000  0.61540000  0.40850000  1.0 -0.1617130681
C  C108  1  0.70750000  0.11540000  0.59150000  1.0 -0.1617130681
C  C109  1  0.65240000  0.62310000  0.34970000  1.0 0.0245211608
C  C110  1  0.84760000  0.12310000  0.65030000  1.0 0.0252296359
C  C111  1  0.70330000  0.71210000  0.29540000  1.0 -0.1001873495
C  C112  1  0.79670000  0.21210000  0.70460000  1.0 -0.1001873495
C  C113  1  0.76650000  0.69360000  0.33670000  1.0 -0.1287669546
C  C114  1  0.73350000  0.19360000  0.66330000  1.0 -0.1287669546
C  C115  1  0.24920000  0.69740000  0.68900000  1.0 -0.0407422407
C  C116  1  0.25080000  0.19740000  0.31100000  1.0 -0.0407422407
C  C117  1  0.32470000  0.62920000  0.64120000  1.0 0.1008772607
C  C118  1  0.17530000  0.12920000  0.35880000  1.0 0.1008772607
C  C119  1  0.30580000  0.66250000  0.72440000  1.0 -0.1001873495
C  C120  1  0.19420000  0.16250000  0.27560000  1.0 -0.1001873495
C  C121  1  0.42530000  0.57040000  0.71490000  1.0 -0.1200400933
C  C122  1  0.07470000  0.07040000  0.28510000  1.0 -0.1200400933
C  C123  1  0.49310000  0.61820000  0.74560000  1.0 -0.205985761
C  C124  1  0.00690000  0.11820000  0.25440000  1.0 -0.205985761
C  C125  1  0.55370000  0.56680000  0.77910000  1.0 -0.1113674349
C  C126  1  0.94630000  0.06680000  0.22090000  1.0 -0.1113674349
C  C127  1  0.68680000  0.63760000  0.76920000  1.0 -0.0913341481
C  C128  1  0.81320000  0.13760000  0.23080000  1.0 -0.0913341481
C  C129  1  0.74560000  0.67250000  0.80350000  1.0 -0.0486537206
C  C130  1  0.75440000  0.17250000  0.19650000  1.0 -0.0486537206
C  C131  1  0.65470000  0.62560000  0.85120000  1.0 0.1188307007
C  C132  1  0.84530000  0.12560000  0.14880000  1.0 0.1188307007
C  C133  1  0.48040000  0.78010000  0.17430000  1.0 0.1113155881
C  C134  1  0.01960000  0.28010000  0.82570000  1.0 0.1113155881
C  C135  1  0.38480000  0.76090000  0.22420000  1.0 -0.0407422407
C  C136  1  0.11520000  0.26090000  0.77580000  1.0 -0.0407422407
C  C137  1  0.35600000  0.81030000  0.18430000  1.0 -0.0799768332
C  C138  1  0.14400000  0.31030000  0.81570000  1.0 -0.0799768332
C  C139  1  0.41340000  0.86960000  0.10330000  1.0 -0.1200400933
C  C140  1  0.08660000  0.36960000  0.89670000  1.0 -0.1200400933
C  C141  1  0.43000000  0.95870000  0.11840000  1.0 -0.205985761
C  C142  1  0.07000000  0.45870000  0.88160000  1.0 -0.205985761
C  C143  1  0.43810000  0.00110000  0.06620000  1.0 -0.1459963161
C  C144  1  0.06190000  0.50110000  0.93380000  1.0 -0.1459963161
C  C145  1  0.44920000  0.14500000  0.08470000  1.0 -0.1001873495
C  C146  1  0.05080000  0.64500000  0.91530000  1.0 -0.1001873495
C  C147  1  0.51340000  0.19630000  0.08740000  1.0 -0.0407422407
C  C148  1  0.98660000  0.69630000  0.91260000  1.0 -0.0300719505
C  C149  1  0.56370000  0.08520000  0.07610000  1.0 0.1008772607
C  C150  1  0.93630000  0.58520000  0.92390000  1.0 0.1008772607
C  C151  1  0.17700000  0.86690000  0.60130000  1.0 0.5399171796
C  C152  1  0.32300000  0.36690000  0.39870000  1.0 0.5399171796
C  C153  1  0.17660000  0.95480000  0.59650000  1.0 -0.0144435761
C  C154  1  0.32340000  0.45480000  0.40350000  1.0 -0.0144435761
C  C155  1  0.21420000  0.99150000  0.55510000  1.0 -0.1287669546
C  C156  1  0.28580000  0.49150000  0.44490000  1.0 -0.1287669546
C  C157  1  0.21170000  0.07150000  0.54880000  1.0 -0.0201413575
C  C158  1  0.28830000  0.57150000  0.45120000  1.0 -0.0201413575
C  C159  1  0.25070000  0.10790000  0.50110000  1.0 0.519899444
C  C160  1  0.24930000  0.60790000  0.49890000  1.0 0.519899444
C  C161  1  0.16910000  0.11550000  0.58470000  1.0 -0.1200400933
C  C162  1  0.33090000  0.61550000  0.41530000  1.0 -0.1200400933
C  C163  1  0.12910000  0.07960000  0.62700000  1.0 -0.0201413575
C  C164  1  0.37090000  0.57960000  0.37300000  1.0 -0.0201413575
C  C165  1  0.07770000  0.12860000  0.66310000  1.0 0.519899444
C  C166  1  0.42230000  0.62860000  0.33690000  1.0 0.519899444
C  C167  1  0.13450000  0.99930000  0.63270000  1.0 -0.1287669546
C  C168  1  0.36550000  0.49930000  0.36730000  1.0 -0.1287669546
C  C169  1  0.74580000  0.58320000  0.99240000  1.0 0.5304256665
C  C170  1  0.75420000  0.08320000  0.00760000  1.0 0.5304256665
C  C171  1  0.71250000  0.54920000  0.04360000  1.0 -0.0300719505
C  C172  1  0.78750000  0.04920000  0.95640000  1.0 -0.0300719505
C  C173  1  0.68500000  0.59640000  0.08380000  1.0 -0.1287669546
C  C174  1  0.81500000  0.09640000  0.91620000  1.0 -0.1287669546
C  C175  1  0.65270000  0.56440000  0.12980000  1.0 -0.0300719505
C  C176  1  0.84730000  0.06440000  0.87020000  1.0 -0.0300719505
C  C177  1  0.61990000  0.61710000  0.17230000  1.0 0.5304256665
C  C178  1  0.88010000  0.11710000  0.82770000  1.0 0.5304256665
C  C179  1  0.65010000  0.48380000  0.13510000  1.0 -0.1287669546
C  C180  1  0.84990000  0.98380000  0.86490000  1.0 -0.1287669546
C  C181  1  0.68010000  0.43500000  0.09630000  1.0 -0.0300719505
C  C182  1  0.81990000  0.93500000  0.90370000  1.0 -0.0300719505
C  C183  1  0.71110000  0.46850000  0.04950000  1.0 -0.1287669546
C  C184  1  0.78890000  0.96850000  0.95050000  1.0 -0.1287669546
C  C185  1  0.67750000  0.34820000  0.10340000  1.0 0.5304256665
C  C186  1  0.82250000  0.84820000  0.89660000  1.0 0.5304256665
C  C187  1  0.69230000  0.62990000  0.32040000  1.0 0.0799031567
C  C188  1  0.80770000  0.12990000  0.67960000  1.0 0.0799031567
C  C189  1  0.61910000  0.72480000  0.36070000  1.0 -0.1617130681
C  C190  1  0.88090000  0.22480000  0.63930000  1.0 -0.1617130681
C  C191  1  0.68680000  0.70210000  0.39740000  1.0 -0.173670544
C  C192  1  0.81320000  0.20210000  0.60260000  1.0 -0.173670544
N  N1  1  0.92640000  0.30680000  0.44480000  1.0 -0.2726060326
N  N2  1  0.57360000  0.80680000  0.55520000  1.0 -0.2726060326
N  N3  1  0.04180000  0.35420000  0.48330000  1.0 0.045756453
N  N4  1  0.45820000  0.85420000  0.51670000  1.0 0.045756453
N  N5  1  0.26930000  0.36020000  0.62780000  1.0 0.0799031567
N  N6  1  0.23070000  0.86020000  0.37220000  1.0 0.0799031567
N  N7  1  0.37240000  0.32020000  0.68810000  1.0 -0.0201413575
N  N8  1  0.12760000  0.82020000  0.31190000  1.0 -0.0201413575
N  N9  1  0.73810000  0.32320000  0.36360000  1.0 -0.2807839426
N  N10  1  0.76190000  0.82320000  0.63640000  1.0 -0.2807839426
N  N11  1  0.64450000  0.38010000  0.30680000  1.0 0.039439745
N  N12  1  0.85550000  0.88010000  0.69320000  1.0 0.039439745
N  N13  1  0.37230000  0.38900000  0.20010000  1.0 0.045756453
N  N14  1  0.12770000  0.88900000  0.79990000  1.0 0.045756453
N  N15  1  0.27630000  0.33570000  0.14400000  1.0 -0.2807839426
N  N16  1  0.22370000  0.83570000  0.85600000  1.0 -0.2850529465
N  N17  1  0.53420000  0.25450000  0.78030000  1.0 -0.2726060326
N  N18  1  0.96580000  0.75450000  0.21970000  1.0 -0.2726060326
N  N19  1  0.58250000  0.17720000  0.84590000  1.0 0.045756453
N  N20  1  0.91750000  0.67720000  0.15410000  1.0 0.045756453
N  N21  1  0.51800000  0.92540000  0.92270000  1.0 0.039439745
N  N22  1  0.98200000  0.42540000  0.07730000  1.0 0.039439745
N  N23  1  0.41420000  0.84360000  0.91730000  1.0 -0.2807839426
N  N24  1  0.08580000  0.34360000  0.08270000  1.0 -0.2807839426
N  N25  1  0.07360000  0.69320000  0.55520000  1.0 -0.2726060326
N  N26  1  0.42640000  0.19320000  0.44480000  1.0 -0.2726060326
N  N27  1  0.95820000  0.64580000  0.51670000  1.0 0.045756453
N  N28  1  0.54180000  0.14580000  0.48330000  1.0 0.045756453
N  N29  1  0.73070000  0.63980000  0.37220000  1.0 0.0745406014
N  N30  1  0.76930000  0.13980000  0.62780000  1.0 0.0799031567
N  N31  1  0.62760000  0.67980000  0.31190000  1.0 -0.0201413575
N  N32  1  0.87240000  0.17980000  0.68810000  1.0 -0.0201413575
N  N33  1  0.26190000  0.67680000  0.63640000  1.0 -0.2807839426
N  N34  1  0.23810000  0.17680000  0.36360000  1.0 -0.2807839426
N  N35  1  0.35550000  0.61990000  0.69320000  1.0 0.039439745
N  N36  1  0.14450000  0.11990000  0.30680000  1.0 0.039439745
N  N37  1  0.62770000  0.61100000  0.79990000  1.0 0.045756453
N  N38  1  0.87230000  0.11100000  0.20010000  1.0 0.045756453
N  N39  1  0.72370000  0.66430000  0.85600000  1.0 -0.2850529465
N  N40  1  0.77630000  0.16430000  0.14400000  1.0 -0.2807839426
N  N41  1  0.46580000  0.74550000  0.21970000  1.0 -0.2726060326
N  N42  1  0.03420000  0.24550000  0.78030000  1.0 -0.2726060326
N  N43  1  0.41750000  0.82280000  0.15410000  1.0 0.045756453
N  N44  1  0.08250000  0.32280000  0.84590000  1.0 0.045756453
N  N45  1  0.48200000  0.07460000  0.07730000  1.0 0.039439745
N  N46  1  0.01800000  0.57460000  0.92270000  1.0 0.039439745
N  N47  1  0.58580000  0.15640000  0.08270000  1.0 -0.2807839426
N  N48  1  0.91420000  0.65640000  0.91730000  1.0 -0.2807839426
O  O1  1  0.78580000  0.17010000  0.43438000  1.0 -0.5585315141
O  O2  1  0.71420000  0.67010000  0.56562000  1.0 -0.5585315141
O  O3  1  0.85990000  0.16390000  0.36151000  1.0 -0.5809467944
O  O4  1  0.64010000  0.66390000  0.63849000  1.0 -0.5809467944
O  O5  1  0.71500000  0.93320000  0.53101000  1.0 -0.572300798
O  O6  1  0.78500000  0.43320000  0.46899000  1.0 -0.572300798
O  O7  1  0.75380000  0.81740000  0.50317000  1.0 -0.5585315141
O  O8  1  0.74620000  0.31740000  0.49683000  1.0 -0.5585315141
O  O9  1  0.93280000  0.80200000  0.34670000  1.0 -0.5485088739
O  O10  1  0.56720000  0.30200000  0.65330000  1.0 -0.5485088739
O  O11  1  0.95390000  0.90750000  0.29743000  1.0 -0.5585315141
O  O12  1  0.54610000  0.40750000  0.70257000  1.0 -0.5585315141
O  O13  1  0.24850000  0.34380000  0.00978000  1.0 -0.5444658163
O  O14  1  0.25150000  0.84380000  0.99022000  1.0 -0.5444658163
O  O15  1  0.23480000  0.46130000  0.04426000  1.0 -0.5809467944
O  O16  1  0.26520000  0.96130000  0.95574000  1.0 -0.5809467944
O  O17  1  0.35990000  0.31400000  0.82570000  1.0 -0.5585315141
O  O18  1  0.14010000  0.81400000  0.17430000  1.0 -0.5585315141
O  O19  1  0.43020000  0.41430000  0.79587000  1.0 -0.5585315141
O  O20  1  0.06980000  0.91430000  0.20413000  1.0 -0.5585315141
O  O21  1  0.35190000  0.67880000  0.85554000  1.0 -0.572300798
O  O22  1  0.14810000  0.17880000  0.14446000  1.0 -0.572300798
O  O23  1  0.29340000  0.69180000  0.93464000  1.0 -0.5444658163
O  O24  1  0.20660000  0.19180000  0.06536000  1.0 -0.5444658163
O  O25  1  0.21420000  0.82990000  0.56562000  1.0 -0.5585315141
O  O26  1  0.28580000  0.32990000  0.43438000  1.0 -0.5585315141
O  O27  1  0.14010000  0.83610000  0.63849000  1.0 -0.5809467944
O  O28  1  0.35990000  0.33610000  0.36151000  1.0 -0.5809467944
O  O29  1  0.28500000  0.06680000  0.46899000  1.0 -0.572300798
O  O30  1  0.21500000  0.56680000  0.53101000  1.0 -0.572300798
O  O31  1  0.24620000  0.18260000  0.49683000  1.0 -0.5585315141
O  O32  1  0.25380000  0.68260000  0.50317000  1.0 -0.5585315141
O  O33  1  0.06720000  0.19800000  0.65330000  1.0 -0.5485088739
O  O34  1  0.43280000  0.69800000  0.34670000  1.0 -0.5485088739
O  O35  1  0.04610000  0.09250000  0.70257000  1.0 -0.5585315141
O  O36  1  0.45390000  0.59250000  0.29743000  1.0 -0.5585315141
O  O37  1  0.75150000  0.65620000  0.99022000  1.0 -0.5444658163
O  O38  1  0.74850000  0.15620000  0.00978000  1.0 -0.5444658163
O  O39  1  0.76520000  0.53870000  0.95574000  1.0 -0.5809467944
O  O40  1  0.73480000  0.03870000  0.04426000  1.0 -0.5809467944
O  O41  1  0.64010000  0.68600000  0.17430000  1.0 -0.5585315141
O  O42  1  0.85990000  0.18600000  0.82570000  1.0 -0.5585315141
O  O43  1  0.56980000  0.58570000  0.20413000  1.0 -0.5585315141
O  O44  1  0.93020000  0.08570000  0.79587000  1.0 -0.5585315141
O  O45  1  0.64810000  0.32120000  0.14446000  1.0 -0.572300798
O  O46  1  0.85190000  0.82120000  0.85554000  1.0 -0.572300798
O  O47  1  0.70660000  0.30820000  0.06536000  1.0 -0.5444658163
O  O48  1  0.79340000  0.80820000  0.93464000  1.0 -0.5444658163
