# DDEC6 charges by PACMAN v1.1 (https://github.com/mtap-research/PACMAN-charge/)
data_GABWAL_ASR_pacman
_symmetry_space_group_name_H-M   'P 1'
_cell_length_a   18.74630000
_cell_length_b   18.74630000
_cell_length_c   36.91860000
_cell_angle_alpha   90.00000000
_cell_angle_beta   90.00000000
_cell_angle_gamma   90.00000000
_symmetry_Int_Tables_number   1
_chemical_formula_structural   AlH20C34O5
_chemical_formula_sum   'Al16 H320 C544 O80'
_cell_volume   12974.07336217
_cell_formula_units_Z   16
loop_
 _symmetry_equiv_pos_site_id
 _symmetry_equiv_pos_as_xyz
  1  'x, y, z'
loop_
 _atom_site_type_symbol
 _atom_site_label
 _atom_site_symmetry_multiplicity
 _atom_site_fract_x
 _atom_site_fract_y
 _atom_site_fract_z
 _atom_site_occupancy
 _atom_site_charge
Al  Al1  1  0.40553000  0.36901000  0.08039000  1.0 1.6153606705
Al  Al2  1  0.59447000  0.63099000  0.08039000  1.0 1.6153606705
Al  Al3  1  0.13099000  0.90553000  0.58039000  1.0 1.6153606705
Al  Al4  1  0.86901000  0.09447000  0.58039000  1.0 1.6153606705
Al  Al5  1  0.09447000  0.86901000  0.41961000  1.0 1.6153606705
Al  Al6  1  0.90553000  0.13099000  0.41961000  1.0 1.6153606705
Al  Al7  1  0.36901000  0.40553000  0.91961000  1.0 1.6153606705
Al  Al8  1  0.63099000  0.59447000  0.91961000  1.0 1.6153606705
Al  Al9  1  0.33660000  0.33660000  0.00000000  1.0 1.6019526504
Al  Al10  1  0.66340000  0.66340000  0.00000000  1.0 1.6019526504
Al  Al11  1  0.16340000  0.83660000  0.50000000  1.0 1.6019526504
Al  Al12  1  0.83660000  0.16340000  0.50000000  1.0 1.6019526504
Al  Al13  1  0.50000000  0.50000000  0.11529000  1.0 1.6098291658
Al  Al14  1  0.00000000  0.00000000  0.61529000  1.0 1.6098291658
Al  Al15  1  0.00000000  0.00000000  0.38471000  1.0 1.6098291658
Al  Al16  1  0.50000000  0.50000000  0.88471000  1.0 1.6098291658
H  H1  1  0.50861000  0.43193000  0.06266000  1.0 0.4116481773
H  H2  1  0.38163000  0.44000000  0.02902000  1.0 0.4116481773
H  H3  1  0.66585000  0.37966000  0.14918000  1.0 0.1215952571
H  H4  1  0.76507000  0.31941000  0.16753000  1.0 0.1122159552
H  H5  1  0.89113000  0.47821000  0.13058000  1.0 0.1215952571
H  H6  1  0.78999000  0.54072000  0.11113000  1.0 0.1122159552
H  H7  1  0.86154000  0.32846000  0.21370000  1.0 0.1215952571
H  H8  1  0.05822000  0.24613000  0.19493000  1.0 0.1122159552
H  H9  1  0.96287000  0.36874000  0.11947000  1.0 0.0998627972
H  H10  1  0.90876000  0.32137000  0.27455000  1.0 0.1122159552
H  H11  1  0.90250000  0.25432000  0.32834000  1.0 0.1215952571
H  H12  1  0.01597000  0.09344000  0.28375000  1.0 0.1284473397
H  H13  1  0.01109000  0.15373000  0.22767000  1.0 0.1122159552
H  H14  1  0.15824000  0.29828000  0.17307000  1.0 0.1122159552
H  H15  1  0.25800000  0.29468000  0.13755000  1.0 0.1215952571
H  H16  1  0.13780000  0.29847000  0.04727000  1.0 0.1284473397
H  H17  1  0.03672000  0.31009000  0.08341000  1.0 0.0998627972
H  H18  1  0.49029000  0.24088000  0.96298000  1.0 0.1215952571
H  H19  1  0.59057000  0.19349000  0.93410000  1.0 0.0998627972
H  H20  1  0.51662000  0.18066000  0.08273000  1.0 0.0923896197
H  H21  1  0.60254000  0.11803000  0.11613000  1.0 0.0792204657
H  H22  1  0.70315000  0.07101000  0.08737000  1.0 0.0693977358
H  H23  1  0.67665000  0.15214000  0.91029000  1.0 0.0624399156
H  H24  1  0.77706000  0.10395000  0.88167000  1.0 0.0693977358
H  H25  1  0.86210000  0.04147000  0.91553000  1.0 0.0792204657
H  H26  1  0.78769000  0.02976000  0.06386000  1.0 0.0792204657
H  H27  1  0.88810000  0.98157000  0.03524000  1.0 0.0792204657
H  H28  1  0.90348000  0.99586000  0.97276000  1.0 0.0376553932
H  H29  1  0.49648000  0.22627000  0.96277000  1.0 0.1284473397
H  H30  1  0.59761000  0.17286000  0.93737000  1.0 0.0998627972
H  H31  1  0.53225000  0.21354000  0.08548000  1.0 0.0792204657
H  H32  1  0.62227000  0.16881000  0.12306000  1.0 0.0792204657
H  H33  1  0.72340000  0.11539000  0.09766000  1.0 0.0693977358
H  H34  1  0.68565000  0.12667000  0.91664000  1.0 0.0923896197
H  H35  1  0.78753000  0.07340000  0.89199000  1.0 0.0923896197
H  H36  1  0.87650000  0.02835000  0.93004000  1.0 0.0502669444
H  H37  1  0.80809000  0.07075000  0.07782000  1.0 0.0624399156
H  H38  1  0.90941000  0.01655000  0.05298000  1.0 0.0502669444
H  H39  1  0.92217000  0.00782000  0.99015000  1.0 0.0502669444
H  H40  1  0.48730000  0.22222000  0.02838000  1.0 0.0998627972
H  H41  1  0.49139000  0.56807000  0.06266000  1.0 0.4116481773
H  H42  1  0.61837000  0.56000000  0.02902000  1.0 0.4116481773
H  H43  1  0.33415000  0.62034000  0.14918000  1.0 0.1215952571
H  H44  1  0.23493000  0.68059000  0.16753000  1.0 0.1122159552
H  H45  1  0.10887000  0.52179000  0.13058000  1.0 0.1215952571
H  H46  1  0.21001000  0.45928000  0.11113000  1.0 0.1122159552
H  H47  1  0.13846000  0.67154000  0.21370000  1.0 0.1215952571
H  H48  1  0.94178000  0.75387000  0.19493000  1.0 0.1122159552
H  H49  1  0.03713000  0.63126000  0.11947000  1.0 0.0998627972
H  H50  1  0.09124000  0.67863000  0.27455000  1.0 0.1122159552
H  H51  1  0.09750000  0.74568000  0.32834000  1.0 0.1215952571
H  H52  1  0.98403000  0.90656000  0.28375000  1.0 0.1284473397
H  H53  1  0.98891000  0.84627000  0.22767000  1.0 0.1122159552
H  H54  1  0.84176000  0.70172000  0.17307000  1.0 0.1122159552
H  H55  1  0.74200000  0.70532000  0.13755000  1.0 0.1215952571
H  H56  1  0.86220000  0.70153000  0.04727000  1.0 0.1284473397
H  H57  1  0.96328000  0.68991000  0.08341000  1.0 0.0998627972
H  H58  1  0.50971000  0.75912000  0.96298000  1.0 0.1215952571
H  H59  1  0.40943000  0.80651000  0.93410000  1.0 0.0998627972
H  H60  1  0.48338000  0.81934000  0.08273000  1.0 0.0923896197
H  H61  1  0.39746000  0.88197000  0.11613000  1.0 0.0792204657
H  H62  1  0.29685000  0.92899000  0.08737000  1.0 0.0693977358
H  H63  1  0.32335000  0.84786000  0.91029000  1.0 0.0624399156
H  H64  1  0.22294000  0.89605000  0.88167000  1.0 0.0693977358
H  H65  1  0.13790000  0.95853000  0.91553000  1.0 0.0792204657
H  H66  1  0.21231000  0.97024000  0.06386000  1.0 0.0792204657
H  H67  1  0.11190000  0.01843000  0.03524000  1.0 0.0792204657
H  H68  1  0.09652000  0.00414000  0.97276000  1.0 0.0376553932
H  H69  1  0.50352000  0.77373000  0.96277000  1.0 0.1284473397
H  H70  1  0.40239000  0.82714000  0.93737000  1.0 0.0998627972
H  H71  1  0.46775000  0.78646000  0.08548000  1.0 0.0792204657
H  H72  1  0.37773000  0.83119000  0.12306000  1.0 0.0792204657
H  H73  1  0.27660000  0.88461000  0.09766000  1.0 0.0693977358
H  H74  1  0.31435000  0.87333000  0.91664000  1.0 0.0923896197
H  H75  1  0.21247000  0.92660000  0.89199000  1.0 0.0923896197
H  H76  1  0.12350000  0.97165000  0.93004000  1.0 0.0502669444
H  H77  1  0.19191000  0.92925000  0.07782000  1.0 0.0624399156
H  H78  1  0.09059000  0.98345000  0.05298000  1.0 0.0502669444
H  H79  1  0.07783000  0.99218000  0.99015000  1.0 0.0502669444
H  H80  1  0.51270000  0.77778000  0.02838000  1.0 0.0998627972
H  H81  1  0.06807000  0.00861000  0.56266000  1.0 0.4116481773
H  H82  1  0.06000000  0.88163000  0.52902000  1.0 0.4116481773
H  H83  1  0.12034000  0.16585000  0.64918000  1.0 0.1215952571
H  H84  1  0.18059000  0.26507000  0.66753000  1.0 0.1122159552
H  H85  1  0.02179000  0.39113000  0.63058000  1.0 0.1215952571
H  H86  1  0.95928000  0.28999000  0.61113000  1.0 0.1122159552
H  H87  1  0.17154000  0.36154000  0.71370000  1.0 0.1215952571
H  H88  1  0.25387000  0.55822000  0.69493000  1.0 0.1122159552
H  H89  1  0.13126000  0.46287000  0.61947000  1.0 0.0998627972
H  H90  1  0.17863000  0.40876000  0.77455000  1.0 0.1122159552
H  H91  1  0.24568000  0.40250000  0.82834000  1.0 0.1215952571
H  H92  1  0.40656000  0.51597000  0.78375000  1.0 0.1284473397
H  H93  1  0.34627000  0.51109000  0.72767000  1.0 0.1122159552
H  H94  1  0.20172000  0.65824000  0.67307000  1.0 0.1122159552
H  H95  1  0.20532000  0.75800000  0.63755000  1.0 0.1215952571
H  H96  1  0.20153000  0.63780000  0.54727000  1.0 0.1284473397
H  H97  1  0.18991000  0.53672000  0.58341000  1.0 0.0998627972
H  H98  1  0.25912000  0.99029000  0.46298000  1.0 0.1215952571
H  H99  1  0.30651000  0.09057000  0.43410000  1.0 0.0998627972
H  H100  1  0.31934000  0.01662000  0.58273000  1.0 0.0923896197
H  H101  1  0.38197000  0.10254000  0.61613000  1.0 0.0792204657
H  H102  1  0.42899000  0.20315000  0.58737000  1.0 0.0693977358
H  H103  1  0.34786000  0.17665000  0.41029000  1.0 0.0624399156
H  H104  1  0.39605000  0.27706000  0.38167000  1.0 0.0693977358
H  H105  1  0.45853000  0.36210000  0.41553000  1.0 0.0792204657
H  H106  1  0.47024000  0.28769000  0.56386000  1.0 0.0792204657
H  H107  1  0.51843000  0.38810000  0.53524000  1.0 0.0792204657
H  H108  1  0.50414000  0.40348000  0.47276000  1.0 0.0376553932
H  H109  1  0.27373000  0.99648000  0.46277000  1.0 0.1284473397
H  H110  1  0.32714000  0.09761000  0.43737000  1.0 0.0998627972
H  H111  1  0.28646000  0.03225000  0.58548000  1.0 0.0792204657
H  H112  1  0.33119000  0.12227000  0.62306000  1.0 0.0792204657
H  H113  1  0.38461000  0.22340000  0.59766000  1.0 0.0693977358
H  H114  1  0.37333000  0.18565000  0.41664000  1.0 0.0923896197
H  H115  1  0.42660000  0.28753000  0.39199000  1.0 0.0923896197
H  H116  1  0.47165000  0.37650000  0.43004000  1.0 0.0502669444
H  H117  1  0.42925000  0.30809000  0.57782000  1.0 0.0624399156
H  H118  1  0.48345000  0.40941000  0.55298000  1.0 0.0502669444
H  H119  1  0.49218000  0.42217000  0.49015000  1.0 0.0502669444
H  H120  1  0.27778000  0.98730000  0.52838000  1.0 0.0998627972
H  H121  1  0.93193000  0.99139000  0.56266000  1.0 0.4116481773
H  H122  1  0.94000000  0.11837000  0.52902000  1.0 0.4116481773
H  H123  1  0.87966000  0.83415000  0.64918000  1.0 0.1215952571
H  H124  1  0.81941000  0.73493000  0.66753000  1.0 0.1122159552
H  H125  1  0.97821000  0.60887000  0.63058000  1.0 0.1215952571
H  H126  1  0.04072000  0.71001000  0.61113000  1.0 0.1122159552
H  H127  1  0.82846000  0.63846000  0.71370000  1.0 0.1215952571
H  H128  1  0.74613000  0.44178000  0.69493000  1.0 0.1122159552
H  H129  1  0.86874000  0.53713000  0.61947000  1.0 0.0998627972
H  H130  1  0.82137000  0.59124000  0.77455000  1.0 0.1122159552
H  H131  1  0.75432000  0.59750000  0.82834000  1.0 0.1215952571
H  H132  1  0.59344000  0.48403000  0.78375000  1.0 0.1284473397
H  H133  1  0.65373000  0.48891000  0.72767000  1.0 0.1122159552
H  H134  1  0.79828000  0.34176000  0.67307000  1.0 0.1122159552
H  H135  1  0.79468000  0.24200000  0.63755000  1.0 0.1215952571
H  H136  1  0.79847000  0.36220000  0.54727000  1.0 0.1284473397
H  H137  1  0.81009000  0.46328000  0.58341000  1.0 0.0998627972
H  H138  1  0.74088000  0.00971000  0.46298000  1.0 0.1215952571
H  H139  1  0.69349000  0.90943000  0.43410000  1.0 0.0998627972
H  H140  1  0.68066000  0.98338000  0.58273000  1.0 0.0923896197
H  H141  1  0.61803000  0.89746000  0.61613000  1.0 0.0792204657
H  H142  1  0.57101000  0.79685000  0.58737000  1.0 0.0693977358
H  H143  1  0.65214000  0.82335000  0.41029000  1.0 0.0624399156
H  H144  1  0.60395000  0.72294000  0.38167000  1.0 0.0693977358
H  H145  1  0.54147000  0.63790000  0.41553000  1.0 0.0792204657
H  H146  1  0.52976000  0.71231000  0.56386000  1.0 0.0792204657
H  H147  1  0.48157000  0.61190000  0.53524000  1.0 0.0792204657
H  H148  1  0.49586000  0.59652000  0.47276000  1.0 0.0376553932
H  H149  1  0.72627000  0.00352000  0.46277000  1.0 0.1284473397
H  H150  1  0.67286000  0.90239000  0.43737000  1.0 0.0998627972
H  H151  1  0.71354000  0.96775000  0.58548000  1.0 0.0792204657
H  H152  1  0.66881000  0.87773000  0.62306000  1.0 0.0792204657
H  H153  1  0.61539000  0.77660000  0.59766000  1.0 0.0693977358
H  H154  1  0.62667000  0.81435000  0.41664000  1.0 0.0923896197
H  H155  1  0.57340000  0.71247000  0.39199000  1.0 0.0923896197
H  H156  1  0.52835000  0.62350000  0.43004000  1.0 0.0502669444
H  H157  1  0.57075000  0.69191000  0.57782000  1.0 0.0624399156
H  H158  1  0.51655000  0.59059000  0.55298000  1.0 0.0502669444
H  H159  1  0.50782000  0.57783000  0.49015000  1.0 0.0502669444
H  H160  1  0.72222000  0.01270000  0.52838000  1.0 0.0998627972
H  H161  1  0.99139000  0.93193000  0.43734000  1.0 0.4116481773
H  H162  1  0.11837000  0.94000000  0.47098000  1.0 0.4116481773
H  H163  1  0.83415000  0.87966000  0.35082000  1.0 0.1215952571
H  H164  1  0.73493000  0.81941000  0.33247000  1.0 0.1122159552
H  H165  1  0.60887000  0.97821000  0.36942000  1.0 0.1215952571
H  H166  1  0.71001000  0.04072000  0.38887000  1.0 0.1122159552
H  H167  1  0.63846000  0.82846000  0.28630000  1.0 0.1215952571
H  H168  1  0.44178000  0.74613000  0.30507000  1.0 0.1122159552
H  H169  1  0.53713000  0.86874000  0.38053000  1.0 0.0998627972
H  H170  1  0.59124000  0.82137000  0.22545000  1.0 0.1122159552
H  H171  1  0.59750000  0.75432000  0.17166000  1.0 0.1215952571
H  H172  1  0.48403000  0.59344000  0.21625000  1.0 0.1284473397
H  H173  1  0.48891000  0.65373000  0.27233000  1.0 0.1122159552
H  H174  1  0.34176000  0.79828000  0.32693000  1.0 0.1122159552
H  H175  1  0.24200000  0.79468000  0.36245000  1.0 0.1215952571
H  H176  1  0.36220000  0.79847000  0.45273000  1.0 0.1284473397
H  H177  1  0.46328000  0.81009000  0.41659000  1.0 0.0998627972
H  H178  1  0.00971000  0.74088000  0.53702000  1.0 0.1215952571
H  H179  1  0.90943000  0.69349000  0.56590000  1.0 0.0998627972
H  H180  1  0.98338000  0.68066000  0.41727000  1.0 0.0923896197
H  H181  1  0.89746000  0.61803000  0.38387000  1.0 0.0693977358
H  H182  1  0.79685000  0.57101000  0.41263000  1.0 0.0693977358
H  H183  1  0.82335000  0.65214000  0.58971000  1.0 0.0624399156
H  H184  1  0.72294000  0.60395000  0.61833000  1.0 0.0693977358
H  H185  1  0.63790000  0.54147000  0.58447000  1.0 0.0792204657
H  H186  1  0.71231000  0.52976000  0.43614000  1.0 0.0792204657
H  H187  1  0.61190000  0.48157000  0.46476000  1.0 0.0792204657
H  H188  1  0.59652000  0.49586000  0.52724000  1.0 0.0376553932
H  H189  1  0.00352000  0.72627000  0.53723000  1.0 0.1284473397
H  H190  1  0.90239000  0.67286000  0.56263000  1.0 0.0998627972
H  H191  1  0.96775000  0.71354000  0.41452000  1.0 0.0792204657
H  H192  1  0.87773000  0.66881000  0.37694000  1.0 0.0792204657
H  H193  1  0.77660000  0.61539000  0.40234000  1.0 0.0693977358
H  H194  1  0.81435000  0.62667000  0.58336000  1.0 0.0923896197
H  H195  1  0.71247000  0.57340000  0.60801000  1.0 0.0923896197
H  H196  1  0.62350000  0.52835000  0.56996000  1.0 0.0502669444
H  H197  1  0.69191000  0.57075000  0.42218000  1.0 0.0624399156
H  H198  1  0.59059000  0.51655000  0.44702000  1.0 0.0502669444
H  H199  1  0.57783000  0.50782000  0.50985000  1.0 0.0502669444
H  H200  1  0.01270000  0.72222000  0.47162000  1.0 0.0998627972
H  H201  1  0.00861000  0.06807000  0.43734000  1.0 0.4116481773
H  H202  1  0.88163000  0.06000000  0.47098000  1.0 0.4116481773
H  H203  1  0.16585000  0.12034000  0.35082000  1.0 0.1215952571
H  H204  1  0.26507000  0.18059000  0.33247000  1.0 0.1122159552
H  H205  1  0.39113000  0.02179000  0.36942000  1.0 0.1215952571
H  H206  1  0.28999000  0.95928000  0.38887000  1.0 0.1122159552
H  H207  1  0.36154000  0.17154000  0.28630000  1.0 0.1215952571
H  H208  1  0.55822000  0.25387000  0.30507000  1.0 0.1122159552
H  H209  1  0.46287000  0.13126000  0.38053000  1.0 0.0998627972
H  H210  1  0.40876000  0.17863000  0.22545000  1.0 0.1122159552
H  H211  1  0.40250000  0.24568000  0.17166000  1.0 0.1215952571
H  H212  1  0.51597000  0.40656000  0.21625000  1.0 0.1284473397
H  H213  1  0.51109000  0.34627000  0.27233000  1.0 0.1122159552
H  H214  1  0.65824000  0.20172000  0.32693000  1.0 0.1122159552
H  H215  1  0.75800000  0.20532000  0.36245000  1.0 0.1215952571
H  H216  1  0.63780000  0.20153000  0.45273000  1.0 0.1284473397
H  H217  1  0.53672000  0.18991000  0.41659000  1.0 0.0998627972
H  H218  1  0.99029000  0.25912000  0.53702000  1.0 0.1215952571
H  H219  1  0.09057000  0.30651000  0.56590000  1.0 0.0998627972
H  H220  1  0.01662000  0.31934000  0.41727000  1.0 0.0923896197
H  H221  1  0.10254000  0.38197000  0.38387000  1.0 0.0693977358
H  H222  1  0.20315000  0.42899000  0.41263000  1.0 0.0693977358
H  H223  1  0.17665000  0.34786000  0.58971000  1.0 0.0624399156
H  H224  1  0.27706000  0.39605000  0.61833000  1.0 0.0693977358
H  H225  1  0.36210000  0.45853000  0.58447000  1.0 0.0792204657
H  H226  1  0.28769000  0.47024000  0.43614000  1.0 0.0792204657
H  H227  1  0.38810000  0.51843000  0.46476000  1.0 0.0792204657
H  H228  1  0.40348000  0.50414000  0.52724000  1.0 0.0376553932
H  H229  1  0.99648000  0.27373000  0.53723000  1.0 0.1284473397
H  H230  1  0.09761000  0.32714000  0.56263000  1.0 0.0998627972
H  H231  1  0.03225000  0.28646000  0.41452000  1.0 0.0792204657
H  H232  1  0.12227000  0.33119000  0.37694000  1.0 0.0792204657
H  H233  1  0.22340000  0.38461000  0.40234000  1.0 0.0693977358
H  H234  1  0.18565000  0.37333000  0.58336000  1.0 0.0923896197
H  H235  1  0.28753000  0.42660000  0.60801000  1.0 0.0923896197
H  H236  1  0.37650000  0.47165000  0.56996000  1.0 0.0502669444
H  H237  1  0.30809000  0.42925000  0.42218000  1.0 0.0624399156
H  H238  1  0.40941000  0.48345000  0.44702000  1.0 0.0502669444
H  H239  1  0.42217000  0.49218000  0.50985000  1.0 0.0502669444
H  H240  1  0.98730000  0.27778000  0.47162000  1.0 0.0998627972
H  H241  1  0.43193000  0.50861000  0.93734000  1.0 0.4116481773
H  H242  1  0.44000000  0.38163000  0.97098000  1.0 0.4116481773
H  H243  1  0.37966000  0.66585000  0.85082000  1.0 0.1215952571
H  H244  1  0.31941000  0.76507000  0.83247000  1.0 0.1122159552
H  H245  1  0.47821000  0.89113000  0.86942000  1.0 0.1215952571
H  H246  1  0.54072000  0.78999000  0.88887000  1.0 0.1122159552
H  H247  1  0.32846000  0.86154000  0.78630000  1.0 0.1215952571
H  H248  1  0.24613000  0.05822000  0.80507000  1.0 0.1122159552
H  H249  1  0.36874000  0.96287000  0.88053000  1.0 0.0998627972
H  H250  1  0.32137000  0.90876000  0.72545000  1.0 0.1122159552
H  H251  1  0.25432000  0.90250000  0.67166000  1.0 0.1215952571
H  H252  1  0.09344000  0.01597000  0.71625000  1.0 0.1284473397
H  H253  1  0.15373000  0.01109000  0.77233000  1.0 0.1122159552
H  H254  1  0.29828000  0.15824000  0.82693000  1.0 0.1122159552
H  H255  1  0.29468000  0.25800000  0.86245000  1.0 0.1215952571
H  H256  1  0.29847000  0.13780000  0.95273000  1.0 0.1284473397
H  H257  1  0.31009000  0.03672000  0.91659000  1.0 0.0998627972
H  H258  1  0.24088000  0.49029000  0.03702000  1.0 0.1215952571
H  H259  1  0.19349000  0.59057000  0.06590000  1.0 0.0998627972
H  H260  1  0.18066000  0.51662000  0.91727000  1.0 0.0923896197
H  H261  1  0.11803000  0.60254000  0.88387000  1.0 0.0792204657
H  H262  1  0.07101000  0.70315000  0.91263000  1.0 0.0693977358
H  H263  1  0.15214000  0.67665000  0.08971000  1.0 0.0624399156
H  H264  1  0.10395000  0.77706000  0.11833000  1.0 0.0693977358
H  H265  1  0.04147000  0.86210000  0.08447000  1.0 0.0792204657
H  H266  1  0.02976000  0.78769000  0.93614000  1.0 0.0792204657
H  H267  1  0.98157000  0.88810000  0.96476000  1.0 0.0792204657
H  H268  1  0.99586000  0.90348000  0.02724000  1.0 0.0376553932
H  H269  1  0.22627000  0.49648000  0.03723000  1.0 0.1284473397
H  H270  1  0.17286000  0.59761000  0.06263000  1.0 0.0998627972
H  H271  1  0.21354000  0.53225000  0.91452000  1.0 0.0792204657
H  H272  1  0.16881000  0.62227000  0.87694000  1.0 0.0792204657
H  H273  1  0.11539000  0.72340000  0.90234000  1.0 0.0693977358
H  H274  1  0.12667000  0.68565000  0.08336000  1.0 0.0923896197
H  H275  1  0.07340000  0.78753000  0.10801000  1.0 0.0923896197
H  H276  1  0.02835000  0.87650000  0.06996000  1.0 0.0502669444
H  H277  1  0.07075000  0.80809000  0.92218000  1.0 0.0624399156
H  H278  1  0.01655000  0.90941000  0.94702000  1.0 0.0502669444
H  H279  1  0.00782000  0.92217000  0.00985000  1.0 0.0502669444
H  H280  1  0.22222000  0.48730000  0.97162000  1.0 0.0998627972
H  H281  1  0.56807000  0.49139000  0.93734000  1.0 0.4116481773
H  H282  1  0.56000000  0.61837000  0.97098000  1.0 0.4116481773
H  H283  1  0.62034000  0.33415000  0.85082000  1.0 0.1215952571
H  H284  1  0.68059000  0.23493000  0.83247000  1.0 0.1122159552
H  H285  1  0.52179000  0.10887000  0.86942000  1.0 0.1215952571
H  H286  1  0.45928000  0.21001000  0.88887000  1.0 0.1122159552
H  H287  1  0.67154000  0.13846000  0.78630000  1.0 0.1215952571
H  H288  1  0.75387000  0.94178000  0.80507000  1.0 0.1122159552
H  H289  1  0.63126000  0.03713000  0.88053000  1.0 0.0998627972
H  H290  1  0.67863000  0.09124000  0.72545000  1.0 0.1122159552
H  H291  1  0.74568000  0.09750000  0.67166000  1.0 0.1215952571
H  H292  1  0.90656000  0.98403000  0.71625000  1.0 0.1284473397
H  H293  1  0.84627000  0.98891000  0.77233000  1.0 0.1122159552
H  H294  1  0.70172000  0.84176000  0.82693000  1.0 0.1122159552
H  H295  1  0.70532000  0.74200000  0.86245000  1.0 0.1215952571
H  H296  1  0.70153000  0.86220000  0.95273000  1.0 0.1284473397
H  H297  1  0.68991000  0.96328000  0.91659000  1.0 0.0998627972
H  H298  1  0.75912000  0.50971000  0.03702000  1.0 0.1215952571
H  H299  1  0.80651000  0.40943000  0.06590000  1.0 0.0998627972
H  H300  1  0.81934000  0.48338000  0.91727000  1.0 0.0923896197
H  H301  1  0.88197000  0.39746000  0.88387000  1.0 0.0792204657
H  H302  1  0.92899000  0.29685000  0.91263000  1.0 0.0693977358
H  H303  1  0.84786000  0.32335000  0.08971000  1.0 0.0624399156
H  H304  1  0.89605000  0.22294000  0.11833000  1.0 0.0693977358
H  H305  1  0.95853000  0.13790000  0.08447000  1.0 0.0792204657
H  H306  1  0.97024000  0.21231000  0.93614000  1.0 0.0792204657
H  H307  1  0.01843000  0.11190000  0.96476000  1.0 0.0792204657
H  H308  1  0.00414000  0.09652000  0.02724000  1.0 0.0376553932
H  H309  1  0.77373000  0.50352000  0.03723000  1.0 0.1284473397
H  H310  1  0.82714000  0.40239000  0.06263000  1.0 0.0998627972
H  H311  1  0.78646000  0.46775000  0.91452000  1.0 0.0792204657
H  H312  1  0.83119000  0.37773000  0.87694000  1.0 0.0792204657
H  H313  1  0.88461000  0.27660000  0.90234000  1.0 0.0693977358
H  H314  1  0.87333000  0.31435000  0.08336000  1.0 0.0923896197
H  H315  1  0.92660000  0.21247000  0.10801000  1.0 0.0923896197
H  H316  1  0.97165000  0.12350000  0.06996000  1.0 0.0502669444
H  H317  1  0.92925000  0.19191000  0.92218000  1.0 0.0624399156
H  H318  1  0.98345000  0.09059000  0.94702000  1.0 0.0502669444
H  H319  1  0.99218000  0.07783000  0.00985000  1.0 0.0502669444
H  H320  1  0.77778000  0.51270000  0.97162000  1.0 0.0998627972
C  C1  1  0.65310000  0.50150000  0.11488000  1.0 0.6096476994
C  C2  1  0.71830000  0.46660000  0.12699000  1.0 -0.0694729585
C  C3  1  0.71170000  0.39960000  0.14507000  1.0 -0.092279151
C  C4  1  0.77010000  0.36470000  0.15624000  1.0 -0.153808362
C  C5  1  0.84000000  0.39440000  0.15146000  1.0 0.0624399156
C  C6  1  0.84520000  0.45810000  0.13447000  1.0 -0.1700405434
C  C7  1  0.78480000  0.49550000  0.12242000  1.0 -0.1206677653
C  C8  1  0.90240000  0.35450000  0.16556000  1.0 0.0693977358
C  C9  1  0.90140000  0.32230000  0.19815000  1.0 -0.2014794622
C  C10  1  0.96020000  0.27860000  0.20963000  1.0 0.0792204657
C  C11  1  0.01900000  0.27510000  0.18789000  1.0 -0.2074029755
C  C12  1  0.02270000  0.31370000  0.15525000  1.0 0.0792204657
C  C13  1  0.96330000  0.34850000  0.14306000  1.0 -0.2636312611
C  C14  1  0.96000000  0.24200000  0.24494000  1.0 0.0693977358
C  C15  1  0.92790000  0.27450000  0.27569000  1.0 -0.1700405434
C  C16  1  0.92550000  0.23450000  0.30773000  1.0 -0.0997335454
C  C17  1  0.95680000  0.16440000  0.31061000  1.0 -0.04959228
C  C18  1  0.99110000  0.13750000  0.28184000  1.0 -0.092279151
C  C19  1  0.99020000  0.17530000  0.24839000  1.0 -0.1615555838
C  C20  1  0.95600000  0.12640000  0.34628000  1.0 0.6205793664
C  C21  1  0.08770000  0.30700000  0.13223000  1.0 0.0792204657
C  C22  1  0.15360000  0.30020000  0.14747000  1.0 -0.1311563871
C  C23  1  0.21230000  0.29620000  0.12647000  1.0 -0.092279151
C  C24  1  0.20720000  0.29430000  0.08883000  1.0 -0.0414513077
C  C25  1  0.14210000  0.29940000  0.07291000  1.0 -0.1206677653
C  C26  1  0.08230000  0.30610000  0.09444000  1.0 -0.2336863623
C  C27  1  0.27330000  0.29920000  0.06664000  1.0 0.6205793664
C  C28  1  0.45430000  0.25960000  0.03290000  1.0 0.3804718599
C  C29  1  0.51560000  0.20720000  0.01370000  1.0 -0.0694729585
C  C30  1  0.52490000  0.21560000  0.97670000  1.0 -0.0997335454
C  C31  1  0.58440000  0.18730000  0.95940000  1.0 -0.1377767987
C  C32  1  0.63490000  0.14980000  0.97950000  1.0 0.0502669444
C  C33  1  0.62610000  0.14150000  0.01660000  1.0 0.0110841373
C  C34  1  0.56670000  0.17070000  0.03380000  1.0 0.0502669444
C  C35  1  0.55750000  0.16160000  0.07100000  1.0 -0.0414513077
C  C36  1  0.60850000  0.12420000  0.09080000  1.0 -0.0205891797
C  C37  1  0.66830000  0.09590000  0.07370000  1.0 -0.092279151
C  C38  1  0.67700000  0.10410000  0.03650000  1.0 0.0300145123
C  C39  1  0.70200000  0.11830000  0.96110000  1.0 -0.0023953674
C  C40  1  0.71120000  0.12680000  0.92400000  1.0 -0.092279151
C  C41  1  0.77080000  0.09810000  0.90700000  1.0 -0.0790201459
C  C42  1  0.82130000  0.06100000  0.92710000  1.0 -0.0604390553
C  C43  1  0.81220000  0.05250000  0.96430000  1.0 0.0376553932
C  C44  1  0.75260000  0.08120000  0.98130000  1.0 0.0228648803
C  C45  1  0.74340000  0.07270000  0.01840000  1.0 0.0376553932
C  C46  1  0.79390000  0.03560000  0.03850000  1.0 -0.04959228
C  C47  1  0.85360000  0.00690000  0.02150000  1.0 0.0017770672
C  C48  1  0.86270000  0.01540000  0.98440000  1.0 -0.0414513077
C  C49  1  0.52640000  0.21330000  0.01540000  1.0 -0.0790201459
C  C50  1  0.53300000  0.20810000  0.97800000  1.0 -0.0997335454
C  C51  1  0.59310000  0.17640000  0.96290000  1.0 -0.1206677653
C  C52  1  0.64660000  0.14980000  0.98530000  1.0 0.0110841373
C  C53  1  0.64000000  0.15500000  0.02270000  1.0 0.0017770672
C  C54  1  0.57990000  0.18670000  0.03780000  1.0 0.0502669444
C  C55  1  0.57330000  0.19190000  0.07520000  1.0 -0.0290770817
C  C56  1  0.62680000  0.16530000  0.09750000  1.0 -0.0604390553
C  C57  1  0.68680000  0.13360000  0.08240000  1.0 -0.0997335454
C  C58  1  0.69340000  0.12840000  0.04500000  1.0 0.0300145123
C  C59  1  0.71420000  0.11420000  0.96950000  1.0 0.0110841373
C  C60  1  0.72180000  0.10870000  0.93220000  1.0 -0.0414513077
C  C61  1  0.78240000  0.07690000  0.91750000  1.0 0.0017770672
C  C62  1  0.83530000  0.05020000  0.94010000  1.0 -0.0604390553
C  C63  1  0.82780000  0.05560000  0.97740000  1.0 0.0376553932
C  C64  1  0.76760000  0.08770000  0.99210000  1.0 0.0110841373
C  C65  1  0.76070000  0.09350000  0.02940000  1.0 0.0300145123
C  C66  1  0.81320000  0.06700000  0.05230000  1.0 -0.1311563871
C  C67  1  0.87330000  0.03490000  0.03750000  1.0 -0.1206677653
C  C68  1  0.88080000  0.02940000  0.00020000  1.0 -0.0790201459
C  C69  1  0.34690000  0.49850000  0.11488000  1.0 0.6096476994
C  C70  1  0.28170000  0.53340000  0.12699000  1.0 -0.0694729585
C  C71  1  0.28830000  0.60040000  0.14507000  1.0 -0.092279151
C  C72  1  0.22990000  0.63530000  0.15624000  1.0 -0.153808362
C  C73  1  0.16000000  0.60560000  0.15146000  1.0 0.0624399156
C  C74  1  0.15480000  0.54190000  0.13447000  1.0 -0.1700405434
C  C75  1  0.21520000  0.50450000  0.12242000  1.0 -0.1206677653
C  C76  1  0.09760000  0.64550000  0.16556000  1.0 0.0693977358
C  C77  1  0.09860000  0.67770000  0.19815000  1.0 -0.2014794622
C  C78  1  0.03980000  0.72140000  0.20963000  1.0 0.0792204657
C  C79  1  0.98100000  0.72490000  0.18789000  1.0 -0.2074029755
C  C80  1  0.97730000  0.68630000  0.15525000  1.0 0.0792204657
C  C81  1  0.03670000  0.65150000  0.14306000  1.0 -0.2636312611
C  C82  1  0.04000000  0.75800000  0.24494000  1.0 0.0693977358
C  C83  1  0.07210000  0.72550000  0.27569000  1.0 -0.1700405434
C  C84  1  0.07450000  0.76550000  0.30773000  1.0 -0.0997335454
C  C85  1  0.04320000  0.83560000  0.31061000  1.0 -0.04959228
C  C86  1  0.00890000  0.86250000  0.28184000  1.0 -0.092279151
C  C87  1  0.00980000  0.82470000  0.24839000  1.0 -0.1615555838
C  C88  1  0.04400000  0.87360000  0.34628000  1.0 0.6205793664
C  C89  1  0.91230000  0.69300000  0.13223000  1.0 0.0792204657
C  C90  1  0.84640000  0.69980000  0.14747000  1.0 -0.1311563871
C  C91  1  0.78770000  0.70380000  0.12647000  1.0 -0.092279151
C  C92  1  0.79280000  0.70570000  0.08883000  1.0 -0.0414513077
C  C93  1  0.85790000  0.70060000  0.07291000  1.0 -0.1206677653
C  C94  1  0.91770000  0.69390000  0.09444000  1.0 -0.2336863623
C  C95  1  0.72670000  0.70080000  0.06664000  1.0 0.6205793664
C  C96  1  0.54570000  0.74040000  0.03290000  1.0 0.3804718599
C  C97  1  0.48440000  0.79280000  0.01370000  1.0 -0.0694729585
C  C98  1  0.47510000  0.78440000  0.97670000  1.0 -0.0997335454
C  C99  1  0.41560000  0.81270000  0.95940000  1.0 -0.1377767987
C  C100  1  0.36510000  0.85020000  0.97950000  1.0 0.0502669444
C  C101  1  0.37390000  0.85850000  0.01660000  1.0 0.0110841373
C  C102  1  0.43330000  0.82930000  0.03380000  1.0 0.0502669444
C  C103  1  0.44250000  0.83840000  0.07100000  1.0 -0.0414513077
C  C104  1  0.39150000  0.87580000  0.09080000  1.0 -0.0205891797
C  C105  1  0.33170000  0.90410000  0.07370000  1.0 -0.092279151
C  C106  1  0.32300000  0.89590000  0.03650000  1.0 0.0300145123
C  C107  1  0.29800000  0.88170000  0.96110000  1.0 -0.0023953674
C  C108  1  0.28880000  0.87320000  0.92400000  1.0 -0.092279151
C  C109  1  0.22920000  0.90190000  0.90700000  1.0 -0.0790201459
C  C110  1  0.17870000  0.93900000  0.92710000  1.0 -0.0604390553
C  C111  1  0.18780000  0.94750000  0.96430000  1.0 0.0376553932
C  C112  1  0.24740000  0.91880000  0.98130000  1.0 0.0228648803
C  C113  1  0.25660000  0.92730000  0.01840000  1.0 0.0376553932
C  C114  1  0.20610000  0.96440000  0.03850000  1.0 -0.04959228
C  C115  1  0.14640000  0.99310000  0.02150000  1.0 0.0017770672
C  C116  1  0.13730000  0.98460000  0.98440000  1.0 -0.0414513077
C  C117  1  0.47360000  0.78670000  0.01540000  1.0 -0.0790201459
C  C118  1  0.46700000  0.79190000  0.97800000  1.0 -0.0997335454
C  C119  1  0.40690000  0.82360000  0.96290000  1.0 -0.1206677653
C  C120  1  0.35340000  0.85020000  0.98530000  1.0 0.0110841373
C  C121  1  0.36000000  0.84500000  0.02270000  1.0 0.0017770672
C  C122  1  0.42010000  0.81330000  0.03780000  1.0 0.0502669444
C  C123  1  0.42670000  0.80810000  0.07520000  1.0 -0.0290770817
C  C124  1  0.37320000  0.83470000  0.09750000  1.0 -0.0604390553
C  C125  1  0.31320000  0.86640000  0.08240000  1.0 -0.0997335454
C  C126  1  0.30660000  0.87160000  0.04500000  1.0 0.0300145123
C  C127  1  0.28580000  0.88580000  0.96950000  1.0 0.0110841373
C  C128  1  0.27820000  0.89130000  0.93220000  1.0 -0.0414513077
C  C129  1  0.21760000  0.92310000  0.91750000  1.0 0.0017770672
C  C130  1  0.16470000  0.94980000  0.94010000  1.0 -0.0604390553
C  C131  1  0.17220000  0.94440000  0.97740000  1.0 0.0376553932
C  C132  1  0.23240000  0.91230000  0.99210000  1.0 0.0110841373
C  C133  1  0.23930000  0.90650000  0.02940000  1.0 0.0300145123
C  C134  1  0.18680000  0.93300000  0.05230000  1.0 -0.1311563871
C  C135  1  0.12670000  0.96510000  0.03750000  1.0 -0.1206677653
C  C136  1  0.11920000  0.97060000  0.00020000  1.0 -0.0790201459
C  C137  1  0.99850000  0.15310000  0.61488000  1.0 0.6096476994
C  C138  1  0.03340000  0.21830000  0.62699000  1.0 -0.0694729585
C  C139  1  0.10040000  0.21170000  0.64507000  1.0 -0.0997335454
C  C140  1  0.13530000  0.27010000  0.65624000  1.0 -0.153808362
C  C141  1  0.10560000  0.34000000  0.65146000  1.0 0.0624399156
C  C142  1  0.04190000  0.34520000  0.63447000  1.0 -0.1700405434
C  C143  1  0.00450000  0.28480000  0.62242000  1.0 -0.1206677653
C  C144  1  0.14550000  0.40240000  0.66556000  1.0 0.0693977358
C  C145  1  0.17770000  0.40140000  0.69815000  1.0 -0.2014794622
C  C146  1  0.22140000  0.46020000  0.70963000  1.0 0.0792204657
C  C147  1  0.22490000  0.51900000  0.68789000  1.0 -0.2074029755
C  C148  1  0.18630000  0.52270000  0.65525000  1.0 0.0792204657
C  C149  1  0.15150000  0.46330000  0.64306000  1.0 -0.2636312611
C  C150  1  0.25800000  0.46000000  0.74494000  1.0 0.0693977358
C  C151  1  0.22550000  0.42790000  0.77569000  1.0 -0.1700405434
C  C152  1  0.26550000  0.42550000  0.80773000  1.0 -0.0997335454
C  C153  1  0.33560000  0.45680000  0.81061000  1.0 -0.04959228
C  C154  1  0.36250000  0.49110000  0.78184000  1.0 -0.092279151
C  C155  1  0.32470000  0.49020000  0.74839000  1.0 -0.1615555838
C  C156  1  0.37360000  0.45600000  0.84628000  1.0 0.6205793664
C  C157  1  0.19300000  0.58770000  0.63223000  1.0 0.0792204657
C  C158  1  0.19980000  0.65360000  0.64747000  1.0 -0.1311563871
C  C159  1  0.20380000  0.71230000  0.62647000  1.0 -0.092279151
C  C160  1  0.20570000  0.70720000  0.58883000  1.0 -0.0414513077
C  C161  1  0.20060000  0.64210000  0.57291000  1.0 -0.1206677653
C  C162  1  0.19390000  0.58230000  0.59444000  1.0 -0.2353858866
C  C163  1  0.20080000  0.77330000  0.56664000  1.0 0.6205793664
C  C164  1  0.24040000  0.95430000  0.53290000  1.0 0.3804718599
C  C165  1  0.29280000  0.01560000  0.51370000  1.0 -0.0694729585
C  C166  1  0.28440000  0.02490000  0.47670000  1.0 -0.0997335454
C  C167  1  0.31270000  0.08440000  0.45940000  1.0 -0.1377767987
C  C168  1  0.35020000  0.13490000  0.47950000  1.0 0.0502669444
C  C169  1  0.35850000  0.12610000  0.51660000  1.0 0.0110841373
C  C170  1  0.32930000  0.06670000  0.53380000  1.0 0.0502669444
C  C171  1  0.33840000  0.05750000  0.57100000  1.0 -0.0414513077
C  C172  1  0.37580000  0.10850000  0.59080000  1.0 -0.0205891797
C  C173  1  0.40410000  0.16830000  0.57370000  1.0 -0.092279151
C  C174  1  0.39590000  0.17700000  0.53650000  1.0 0.0300145123
C  C175  1  0.38170000  0.20200000  0.46110000  1.0 -0.0023953674
C  C176  1  0.37320000  0.21120000  0.42400000  1.0 -0.092279151
C  C177  1  0.40190000  0.27080000  0.40700000  1.0 -0.0790201459
C  C178  1  0.43900000  0.32130000  0.42710000  1.0 -0.0604390553
C  C179  1  0.44750000  0.31220000  0.46430000  1.0 0.0376553932
C  C180  1  0.41880000  0.25260000  0.48130000  1.0 0.0228648803
C  C181  1  0.42730000  0.24340000  0.51840000  1.0 0.0376553932
C  C182  1  0.46440000  0.29390000  0.53850000  1.0 -0.04959228
C  C183  1  0.49310000  0.35360000  0.52150000  1.0 0.0017770672
C  C184  1  0.48460000  0.36270000  0.48440000  1.0 -0.0414513077
C  C185  1  0.28670000  0.02640000  0.51540000  1.0 -0.0790201459
C  C186  1  0.29190000  0.03300000  0.47800000  1.0 -0.0997335454
C  C187  1  0.32360000  0.09310000  0.46290000  1.0 -0.1206677653
C  C188  1  0.35020000  0.14660000  0.48530000  1.0 0.0110841373
C  C189  1  0.34500000  0.14000000  0.52270000  1.0 0.0017770672
C  C190  1  0.31330000  0.07990000  0.53780000  1.0 0.0502669444
C  C191  1  0.30810000  0.07330000  0.57520000  1.0 -0.0290770817
C  C192  1  0.33470000  0.12680000  0.59750000  1.0 -0.0604390553
C  C193  1  0.36640000  0.18680000  0.58240000  1.0 -0.0997335454
C  C194  1  0.37160000  0.19340000  0.54500000  1.0 0.0300145123
C  C195  1  0.38580000  0.21420000  0.46950000  1.0 0.0110841373
C  C196  1  0.39130000  0.22180000  0.43220000  1.0 -0.0414513077
C  C197  1  0.42310000  0.28240000  0.41750000  1.0 0.0110841373
C  C198  1  0.44980000  0.33530000  0.44010000  1.0 -0.0604390553
C  C199  1  0.44440000  0.32780000  0.47740000  1.0 0.0376553932
C  C200  1  0.41230000  0.26760000  0.49210000  1.0 0.0110841373
C  C201  1  0.40650000  0.26070000  0.52940000  1.0 0.0300145123
C  C202  1  0.43300000  0.31320000  0.55230000  1.0 -0.1311563871
C  C203  1  0.46510000  0.37330000  0.53750000  1.0 -0.1206677653
C  C204  1  0.47060000  0.38080000  0.50020000  1.0 -0.0790201459
C  C205  1  0.00150000  0.84690000  0.61488000  1.0 0.6096476994
C  C206  1  0.96660000  0.78170000  0.62699000  1.0 -0.0694729585
C  C207  1  0.89960000  0.78830000  0.64507000  1.0 -0.092279151
C  C208  1  0.86470000  0.72990000  0.65624000  1.0 -0.153808362
C  C209  1  0.89440000  0.66000000  0.65146000  1.0 0.0624399156
C  C210  1  0.95810000  0.65480000  0.63447000  1.0 -0.1700405434
C  C211  1  0.99550000  0.71520000  0.62242000  1.0 -0.1206677653
C  C212  1  0.85450000  0.59760000  0.66556000  1.0 0.0693977358
C  C213  1  0.82230000  0.59860000  0.69815000  1.0 -0.2014794622
C  C214  1  0.77860000  0.53980000  0.70963000  1.0 0.0792204657
C  C215  1  0.77510000  0.48100000  0.68789000  1.0 -0.2074029755
C  C216  1  0.81370000  0.47730000  0.65525000  1.0 0.0792204657
C  C217  1  0.84850000  0.53670000  0.64306000  1.0 -0.2636312611
C  C218  1  0.74200000  0.54000000  0.74494000  1.0 0.0693977358
C  C219  1  0.77450000  0.57210000  0.77569000  1.0 -0.1700405434
C  C220  1  0.73450000  0.57450000  0.80773000  1.0 -0.0997335454
C  C221  1  0.66440000  0.54320000  0.81061000  1.0 -0.04959228
C  C222  1  0.63750000  0.50890000  0.78184000  1.0 -0.092279151
C  C223  1  0.67530000  0.50980000  0.74839000  1.0 -0.1615555838
C  C224  1  0.62640000  0.54400000  0.84628000  1.0 0.6205793664
C  C225  1  0.80700000  0.41230000  0.63223000  1.0 0.0792204657
C  C226  1  0.80020000  0.34640000  0.64747000  1.0 -0.1311563871
C  C227  1  0.79620000  0.28770000  0.62647000  1.0 -0.092279151
C  C228  1  0.79430000  0.29280000  0.58883000  1.0 -0.0414513077
C  C229  1  0.79940000  0.35790000  0.57291000  1.0 -0.1206677653
C  C230  1  0.80610000  0.41770000  0.59444000  1.0 -0.2336863623
C  C231  1  0.79920000  0.22670000  0.56664000  1.0 0.6205793664
C  C232  1  0.75960000  0.04570000  0.53290000  1.0 0.3804718599
C  C233  1  0.70720000  0.98440000  0.51370000  1.0 -0.0694729585
C  C234  1  0.71560000  0.97510000  0.47670000  1.0 -0.0997335454
C  C235  1  0.68730000  0.91560000  0.45940000  1.0 -0.1377767987
C  C236  1  0.64980000  0.86510000  0.47950000  1.0 0.0502669444
C  C237  1  0.64150000  0.87390000  0.51660000  1.0 0.0110841373
C  C238  1  0.67070000  0.93330000  0.53380000  1.0 0.0502669444
C  C239  1  0.66160000  0.94250000  0.57100000  1.0 -0.0414513077
C  C240  1  0.62420000  0.89150000  0.59080000  1.0 -0.0205891797
C  C241  1  0.59590000  0.83170000  0.57370000  1.0 -0.092279151
C  C242  1  0.60410000  0.82300000  0.53650000  1.0 0.0300145123
C  C243  1  0.61830000  0.79800000  0.46110000  1.0 -0.0023953674
C  C244  1  0.62680000  0.78880000  0.42400000  1.0 -0.092279151
C  C245  1  0.59810000  0.72920000  0.40700000  1.0 -0.0790201459
C  C246  1  0.56100000  0.67870000  0.42710000  1.0 -0.0604390553
C  C247  1  0.55250000  0.68780000  0.46430000  1.0 0.0376553932
C  C248  1  0.58120000  0.74740000  0.48130000  1.0 0.0228648803
C  C249  1  0.57270000  0.75660000  0.51840000  1.0 0.0376553932
C  C250  1  0.53560000  0.70610000  0.53850000  1.0 -0.04959228
C  C251  1  0.50690000  0.64640000  0.52150000  1.0 0.0017770672
C  C252  1  0.51540000  0.63730000  0.48440000  1.0 -0.0414513077
C  C253  1  0.71330000  0.97360000  0.51540000  1.0 -0.0790201459
C  C254  1  0.70810000  0.96700000  0.47800000  1.0 -0.0997335454
C  C255  1  0.67640000  0.90690000  0.46290000  1.0 -0.1206677653
C  C256  1  0.64980000  0.85340000  0.48530000  1.0 0.0110841373
C  C257  1  0.65500000  0.86000000  0.52270000  1.0 0.0017770672
C  C258  1  0.68670000  0.92010000  0.53780000  1.0 0.0502669444
C  C259  1  0.69190000  0.92670000  0.57520000  1.0 -0.0290770817
C  C260  1  0.66530000  0.87320000  0.59750000  1.0 -0.0604390553
C  C261  1  0.63360000  0.81320000  0.58240000  1.0 -0.0997335454
C  C262  1  0.62840000  0.80660000  0.54500000  1.0 0.0300145123
C  C263  1  0.61420000  0.78580000  0.46950000  1.0 0.0110841373
C  C264  1  0.60870000  0.77820000  0.43220000  1.0 -0.0414513077
C  C265  1  0.57690000  0.71760000  0.41750000  1.0 0.0110841373
C  C266  1  0.55020000  0.66470000  0.44010000  1.0 -0.0604390553
C  C267  1  0.55560000  0.67220000  0.47740000  1.0 0.0376553932
C  C268  1  0.58770000  0.73240000  0.49210000  1.0 0.0110841373
C  C269  1  0.59350000  0.73930000  0.52940000  1.0 0.0300145123
C  C270  1  0.56700000  0.68680000  0.55230000  1.0 -0.1311563871
C  C271  1  0.53490000  0.62670000  0.53750000  1.0 -0.1206677653
C  C272  1  0.52940000  0.61920000  0.50020000  1.0 -0.0790201459
C  C273  1  0.84690000  0.00150000  0.38512000  1.0 0.6096476994
C  C274  1  0.78170000  0.96660000  0.37301000  1.0 -0.0694729585
C  C275  1  0.78830000  0.89960000  0.35493000  1.0 -0.0997335454
C  C276  1  0.72990000  0.86470000  0.34376000  1.0 -0.153808362
C  C277  1  0.66000000  0.89440000  0.34854000  1.0 0.0624399156
C  C278  1  0.65480000  0.95810000  0.36553000  1.0 -0.1700405434
C  C279  1  0.71520000  0.99550000  0.37758000  1.0 -0.1206677653
C  C280  1  0.59760000  0.85450000  0.33444000  1.0 0.0693977358
C  C281  1  0.59860000  0.82230000  0.30185000  1.0 -0.2014794622
C  C282  1  0.53980000  0.77860000  0.29037000  1.0 0.0792204657
C  C283  1  0.48100000  0.77510000  0.31211000  1.0 -0.2074029755
C  C284  1  0.47730000  0.81370000  0.34475000  1.0 0.0792204657
C  C285  1  0.53670000  0.84850000  0.35694000  1.0 -0.2636312611
C  C286  1  0.54000000  0.74200000  0.25506000  1.0 0.0693977358
C  C287  1  0.57210000  0.77450000  0.22431000  1.0 -0.1700405434
C  C288  1  0.57450000  0.73450000  0.19227000  1.0 -0.0997335454
C  C289  1  0.54320000  0.66440000  0.18939000  1.0 -0.04959228
C  C290  1  0.50890000  0.63750000  0.21816000  1.0 -0.092279151
C  C291  1  0.50980000  0.67530000  0.25161000  1.0 -0.1615555838
C  C292  1  0.54400000  0.62640000  0.15372000  1.0 0.6205793664
C  C293  1  0.41230000  0.80700000  0.36777000  1.0 0.0792204657
C  C294  1  0.34640000  0.80020000  0.35253000  1.0 -0.1311563871
C  C295  1  0.28770000  0.79620000  0.37353000  1.0 -0.092279151
C  C296  1  0.29280000  0.79430000  0.41117000  1.0 -0.0414513077
C  C297  1  0.35790000  0.79940000  0.42709000  1.0 -0.1311563871
C  C298  1  0.41770000  0.80610000  0.40556000  1.0 -0.2336863623
C  C299  1  0.22670000  0.79920000  0.43336000  1.0 0.6205793664
C  C300  1  0.04570000  0.75960000  0.46710000  1.0 0.3804718599
C  C301  1  0.98440000  0.70720000  0.48630000  1.0 -0.0694729585
C  C302  1  0.97510000  0.71560000  0.52330000  1.0 -0.0997335454
C  C303  1  0.91560000  0.68730000  0.54060000  1.0 -0.1377767987
C  C304  1  0.86510000  0.64980000  0.52050000  1.0 0.0502669444
C  C305  1  0.87390000  0.64150000  0.48340000  1.0 0.0110841373
C  C306  1  0.93330000  0.67070000  0.46620000  1.0 0.0502669444
C  C307  1  0.94250000  0.66160000  0.42900000  1.0 -0.0414513077
C  C308  1  0.89150000  0.62420000  0.40920000  1.0 -0.0205891797
C  C309  1  0.83170000  0.59590000  0.42630000  1.0 -0.092279151
C  C310  1  0.82300000  0.60410000  0.46350000  1.0 0.0300145123
C  C311  1  0.79800000  0.61830000  0.53890000  1.0 -0.0023953674
C  C312  1  0.78880000  0.62680000  0.57600000  1.0 -0.092279151
C  C313  1  0.72920000  0.59810000  0.59300000  1.0 -0.0790201459
C  C314  1  0.67870000  0.56100000  0.57290000  1.0 -0.0604390553
C  C315  1  0.68780000  0.55250000  0.53570000  1.0 0.0376553932
C  C316  1  0.74740000  0.58120000  0.51870000  1.0 0.0228648803
C  C317  1  0.75660000  0.57270000  0.48160000  1.0 0.0376553932
C  C318  1  0.70610000  0.53560000  0.46150000  1.0 -0.04959228
C  C319  1  0.64640000  0.50690000  0.47850000  1.0 0.0017770672
C  C320  1  0.63730000  0.51540000  0.51560000  1.0 -0.0414513077
C  C321  1  0.97360000  0.71330000  0.48460000  1.0 -0.0790201459
C  C322  1  0.96700000  0.70810000  0.52200000  1.0 -0.0997335454
C  C323  1  0.90690000  0.67640000  0.53710000  1.0 -0.1206677653
C  C324  1  0.85340000  0.64980000  0.51470000  1.0 0.0110841373
C  C325  1  0.86000000  0.65500000  0.47730000  1.0 0.0017770672
C  C326  1  0.92010000  0.68670000  0.46220000  1.0 0.0502669444
C  C327  1  0.92670000  0.69190000  0.42480000  1.0 -0.0290770817
C  C328  1  0.87320000  0.66530000  0.40250000  1.0 -0.0604390553
C  C329  1  0.81320000  0.63360000  0.41760000  1.0 -0.0997335454
C  C330  1  0.80660000  0.62840000  0.45500000  1.0 0.0300145123
C  C331  1  0.78580000  0.61420000  0.53050000  1.0 0.0110841373
C  C332  1  0.77820000  0.60870000  0.56780000  1.0 -0.0414513077
C  C333  1  0.71760000  0.57690000  0.58250000  1.0 0.0017770672
C  C334  1  0.66470000  0.55020000  0.55990000  1.0 -0.0604390553
C  C335  1  0.67220000  0.55560000  0.52260000  1.0 0.0376553932
C  C336  1  0.73240000  0.58770000  0.50790000  1.0 0.0110841373
C  C337  1  0.73930000  0.59350000  0.47060000  1.0 0.0300145123
C  C338  1  0.68680000  0.56700000  0.44770000  1.0 -0.1311563871
C  C339  1  0.62670000  0.53490000  0.46250000  1.0 -0.1206677653
C  C340  1  0.61920000  0.52940000  0.49980000  1.0 -0.0790201459
C  C341  1  0.15310000  0.99850000  0.38512000  1.0 0.6096476994
C  C342  1  0.21830000  0.03340000  0.37301000  1.0 -0.0694729585
C  C343  1  0.21170000  0.10040000  0.35493000  1.0 -0.0997335454
C  C344  1  0.27010000  0.13530000  0.34376000  1.0 -0.153808362
C  C345  1  0.34000000  0.10560000  0.34854000  1.0 0.0624399156
C  C346  1  0.34520000  0.04190000  0.36553000  1.0 -0.1700405434
C  C347  1  0.28480000  0.00450000  0.37758000  1.0 -0.1206677653
C  C348  1  0.40240000  0.14550000  0.33444000  1.0 0.0693977358
C  C349  1  0.40140000  0.17770000  0.30185000  1.0 -0.2014794622
C  C350  1  0.46020000  0.22140000  0.29037000  1.0 0.0792204657
C  C351  1  0.51900000  0.22490000  0.31211000  1.0 -0.2074029755
C  C352  1  0.52270000  0.18630000  0.34475000  1.0 0.0792204657
C  C353  1  0.46330000  0.15150000  0.35694000  1.0 -0.2636312611
C  C354  1  0.46000000  0.25800000  0.25506000  1.0 0.0693977358
C  C355  1  0.42790000  0.22550000  0.22431000  1.0 -0.1700405434
C  C356  1  0.42550000  0.26550000  0.19227000  1.0 -0.0997335454
C  C357  1  0.45680000  0.33560000  0.18939000  1.0 -0.04959228
C  C358  1  0.49110000  0.36250000  0.21816000  1.0 -0.092279151
C  C359  1  0.49020000  0.32470000  0.25161000  1.0 -0.1615555838
C  C360  1  0.45600000  0.37360000  0.15372000  1.0 0.6205793664
C  C361  1  0.58770000  0.19300000  0.36777000  1.0 0.0792204657
C  C362  1  0.65360000  0.19980000  0.35253000  1.0 -0.1311563871
C  C363  1  0.71230000  0.20380000  0.37353000  1.0 -0.092279151
C  C364  1  0.70720000  0.20570000  0.41117000  1.0 -0.0414513077
C  C365  1  0.64210000  0.20060000  0.42709000  1.0 -0.1311563871
C  C366  1  0.58230000  0.19390000  0.40556000  1.0 -0.2336863623
C  C367  1  0.77330000  0.20080000  0.43336000  1.0 0.6205793664
C  C368  1  0.95430000  0.24040000  0.46710000  1.0 0.3804718599
C  C369  1  0.01560000  0.29280000  0.48630000  1.0 -0.0694729585
C  C370  1  0.02490000  0.28440000  0.52330000  1.0 -0.0997335454
C  C371  1  0.08440000  0.31270000  0.54060000  1.0 -0.1377767987
C  C372  1  0.13490000  0.35020000  0.52050000  1.0 0.0502669444
C  C373  1  0.12610000  0.35850000  0.48340000  1.0 0.0110841373
C  C374  1  0.06670000  0.32930000  0.46620000  1.0 0.0502669444
C  C375  1  0.05750000  0.33840000  0.42900000  1.0 -0.0414513077
C  C376  1  0.10850000  0.37580000  0.40920000  1.0 -0.0205891797
C  C377  1  0.16830000  0.40410000  0.42630000  1.0 -0.092279151
C  C378  1  0.17700000  0.39590000  0.46350000  1.0 0.0300145123
C  C379  1  0.20200000  0.38170000  0.53890000  1.0 -0.0023953674
C  C380  1  0.21120000  0.37320000  0.57600000  1.0 -0.092279151
C  C381  1  0.27080000  0.40190000  0.59300000  1.0 -0.0790201459
C  C382  1  0.32130000  0.43900000  0.57290000  1.0 -0.0604390553
C  C383  1  0.31220000  0.44750000  0.53570000  1.0 0.0376553932
C  C384  1  0.25260000  0.41880000  0.51870000  1.0 0.0228648803
C  C385  1  0.24340000  0.42730000  0.48160000  1.0 0.0376553932
C  C386  1  0.29390000  0.46440000  0.46150000  1.0 -0.04959228
C  C387  1  0.35360000  0.49310000  0.47850000  1.0 0.0017770672
C  C388  1  0.36270000  0.48460000  0.51560000  1.0 -0.0414513077
C  C389  1  0.02640000  0.28670000  0.48460000  1.0 -0.0790201459
C  C390  1  0.03300000  0.29190000  0.52200000  1.0 -0.0997335454
C  C391  1  0.09310000  0.32360000  0.53710000  1.0 -0.1206677653
C  C392  1  0.14660000  0.35020000  0.51470000  1.0 0.0110841373
C  C393  1  0.14000000  0.34500000  0.47730000  1.0 0.0017770672
C  C394  1  0.07990000  0.31330000  0.46220000  1.0 0.0502669444
C  C395  1  0.07330000  0.30810000  0.42480000  1.0 -0.0290770817
C  C396  1  0.12680000  0.33470000  0.40250000  1.0 -0.0604390553
C  C397  1  0.18680000  0.36640000  0.41760000  1.0 -0.0997335454
C  C398  1  0.19340000  0.37160000  0.45500000  1.0 0.0300145123
C  C399  1  0.21420000  0.38580000  0.53050000  1.0 0.0110841373
C  C400  1  0.22180000  0.39130000  0.56780000  1.0 -0.0414513077
C  C401  1  0.28240000  0.42310000  0.58250000  1.0 0.0017770672
C  C402  1  0.33530000  0.44980000  0.55990000  1.0 -0.0604390553
C  C403  1  0.32780000  0.44440000  0.52260000  1.0 0.0376553932
C  C404  1  0.26760000  0.41230000  0.50790000  1.0 0.0110841373
C  C405  1  0.26070000  0.40650000  0.47060000  1.0 0.0300145123
C  C406  1  0.31320000  0.43300000  0.44770000  1.0 -0.1311563871
C  C407  1  0.37330000  0.46510000  0.46250000  1.0 -0.1206677653
C  C408  1  0.38080000  0.47060000  0.49980000  1.0 -0.0790201459
C  C409  1  0.50150000  0.65310000  0.88512000  1.0 0.6096476994
C  C410  1  0.46660000  0.71830000  0.87301000  1.0 -0.0694729585
C  C411  1  0.39960000  0.71170000  0.85493000  1.0 -0.0997335454
C  C412  1  0.36470000  0.77010000  0.84376000  1.0 -0.153808362
C  C413  1  0.39440000  0.84000000  0.84854000  1.0 0.0624399156
C  C414  1  0.45810000  0.84520000  0.86553000  1.0 -0.1700405434
C  C415  1  0.49550000  0.78480000  0.87758000  1.0 -0.1206677653
C  C416  1  0.35450000  0.90240000  0.83444000  1.0 0.0693977358
C  C417  1  0.32230000  0.90140000  0.80185000  1.0 -0.2014794622
C  C418  1  0.27860000  0.96020000  0.79037000  1.0 0.0792204657
C  C419  1  0.27510000  0.01900000  0.81211000  1.0 -0.2074029755
C  C420  1  0.31370000  0.02270000  0.84475000  1.0 0.0792204657
C  C421  1  0.34850000  0.96330000  0.85694000  1.0 -0.2636312611
C  C422  1  0.24200000  0.96000000  0.75506000  1.0 0.0693977358
C  C423  1  0.27450000  0.92790000  0.72431000  1.0 -0.1700405434
C  C424  1  0.23450000  0.92550000  0.69227000  1.0 -0.0997335454
C  C425  1  0.16440000  0.95680000  0.68939000  1.0 -0.04959228
C  C426  1  0.13750000  0.99110000  0.71816000  1.0 -0.092279151
C  C427  1  0.17530000  0.99020000  0.75161000  1.0 -0.1615555838
C  C428  1  0.12640000  0.95600000  0.65372000  1.0 0.6205793664
C  C429  1  0.30700000  0.08770000  0.86777000  1.0 0.0792204657
C  C430  1  0.30020000  0.15360000  0.85253000  1.0 -0.1311563871
C  C431  1  0.29620000  0.21230000  0.87353000  1.0 -0.092279151
C  C432  1  0.29430000  0.20720000  0.91117000  1.0 -0.0414513077
C  C433  1  0.29940000  0.14210000  0.92709000  1.0 -0.1206677653
C  C434  1  0.30610000  0.08230000  0.90556000  1.0 -0.2336863623
C  C435  1  0.29920000  0.27330000  0.93336000  1.0 0.6205793664
C  C436  1  0.25960000  0.45430000  0.96710000  1.0 0.3804718599
C  C437  1  0.20720000  0.51560000  0.98630000  1.0 -0.0694729585
C  C438  1  0.21560000  0.52490000  0.02330000  1.0 -0.0997335454
C  C439  1  0.18730000  0.58440000  0.04060000  1.0 -0.1377767987
C  C440  1  0.14980000  0.63490000  0.02050000  1.0 0.0502669444
C  C441  1  0.14150000  0.62610000  0.98340000  1.0 0.0110841373
C  C442  1  0.17070000  0.56670000  0.96620000  1.0 0.0502669444
C  C443  1  0.16160000  0.55750000  0.92900000  1.0 -0.0414513077
C  C444  1  0.12420000  0.60850000  0.90920000  1.0 -0.0205891797
C  C445  1  0.09590000  0.66830000  0.92630000  1.0 -0.092279151
C  C446  1  0.10410000  0.67700000  0.96350000  1.0 0.0300145123
C  C447  1  0.11830000  0.70200000  0.03890000  1.0 -0.0023953674
C  C448  1  0.12680000  0.71120000  0.07600000  1.0 -0.092279151
C  C449  1  0.09810000  0.77080000  0.09300000  1.0 -0.0790201459
C  C450  1  0.06100000  0.82130000  0.07290000  1.0 -0.0604390553
C  C451  1  0.05250000  0.81220000  0.03570000  1.0 0.0376553932
C  C452  1  0.08120000  0.75260000  0.01870000  1.0 0.0228648803
C  C453  1  0.07270000  0.74340000  0.98160000  1.0 0.0376553932
C  C454  1  0.03560000  0.79390000  0.96150000  1.0 -0.04959228
C  C455  1  0.00690000  0.85360000  0.97850000  1.0 0.0017770672
C  C456  1  0.01540000  0.86270000  0.01560000  1.0 -0.0414513077
C  C457  1  0.21330000  0.52640000  0.98460000  1.0 -0.0790201459
C  C458  1  0.20810000  0.53300000  0.02200000  1.0 -0.0997335454
C  C459  1  0.17640000  0.59310000  0.03710000  1.0 -0.1206677653
C  C460  1  0.14980000  0.64660000  0.01470000  1.0 0.0110841373
C  C461  1  0.15500000  0.64000000  0.97730000  1.0 0.0017770672
C  C462  1  0.18670000  0.57990000  0.96220000  1.0 0.0502669444
C  C463  1  0.19190000  0.57330000  0.92480000  1.0 -0.0290770817
C  C464  1  0.16530000  0.62680000  0.90250000  1.0 -0.0604390553
C  C465  1  0.13360000  0.68680000  0.91760000  1.0 -0.0997335454
C  C466  1  0.12840000  0.69340000  0.95500000  1.0 0.0300145123
C  C467  1  0.11420000  0.71420000  0.03050000  1.0 0.0110841373
C  C468  1  0.10870000  0.72180000  0.06780000  1.0 -0.0414513077
C  C469  1  0.07690000  0.78240000  0.08250000  1.0 0.0017770672
C  C470  1  0.05020000  0.83530000  0.05990000  1.0 -0.0604390553
C  C471  1  0.05560000  0.82780000  0.02260000  1.0 0.0376553932
C  C472  1  0.08770000  0.76760000  0.00790000  1.0 0.0110841373
C  C473  1  0.09350000  0.76070000  0.97060000  1.0 0.0300145123
C  C474  1  0.06700000  0.81320000  0.94770000  1.0 -0.1311563871
C  C475  1  0.03490000  0.87330000  0.96250000  1.0 -0.1206677653
C  C476  1  0.02940000  0.88080000  0.99980000  1.0 -0.0790201459
C  C477  1  0.49850000  0.34690000  0.88512000  1.0 0.6096476994
C  C478  1  0.53340000  0.28170000  0.87301000  1.0 -0.0694729585
C  C479  1  0.60040000  0.28830000  0.85493000  1.0 -0.0997335454
C  C480  1  0.63530000  0.22990000  0.84376000  1.0 -0.153808362
C  C481  1  0.60560000  0.16000000  0.84854000  1.0 0.0624399156
C  C482  1  0.54190000  0.15480000  0.86553000  1.0 -0.1700405434
C  C483  1  0.50450000  0.21520000  0.87758000  1.0 -0.1206677653
C  C484  1  0.64550000  0.09760000  0.83444000  1.0 0.0693977358
C  C485  1  0.67770000  0.09860000  0.80185000  1.0 -0.2014794622
C  C486  1  0.72140000  0.03980000  0.79037000  1.0 0.0792204657
C  C487  1  0.72490000  0.98100000  0.81211000  1.0 -0.2074029755
C  C488  1  0.68630000  0.97730000  0.84475000  1.0 0.0792204657
C  C489  1  0.65150000  0.03670000  0.85694000  1.0 -0.2636312611
C  C490  1  0.75800000  0.04000000  0.75506000  1.0 0.0693977358
C  C491  1  0.72550000  0.07210000  0.72431000  1.0 -0.1700405434
C  C492  1  0.76550000  0.07450000  0.69227000  1.0 -0.0997335454
C  C493  1  0.83560000  0.04320000  0.68939000  1.0 -0.04959228
C  C494  1  0.86250000  0.00890000  0.71816000  1.0 -0.092279151
C  C495  1  0.82470000  0.00980000  0.75161000  1.0 -0.1615555838
C  C496  1  0.87360000  0.04400000  0.65372000  1.0 0.6205793664
C  C497  1  0.69300000  0.91230000  0.86777000  1.0 0.0792204657
C  C498  1  0.69980000  0.84640000  0.85253000  1.0 -0.1311563871
C  C499  1  0.70380000  0.78770000  0.87353000  1.0 -0.092279151
C  C500  1  0.70570000  0.79280000  0.91117000  1.0 -0.0414513077
C  C501  1  0.70060000  0.85790000  0.92709000  1.0 -0.1206677653
C  C502  1  0.69390000  0.91770000  0.90556000  1.0 -0.2336863623
C  C503  1  0.70080000  0.72670000  0.93336000  1.0 0.6205793664
C  C504  1  0.74040000  0.54570000  0.96710000  1.0 0.3804718599
C  C505  1  0.79280000  0.48440000  0.98630000  1.0 -0.0694729585
C  C506  1  0.78440000  0.47510000  0.02330000  1.0 -0.0997335454
C  C507  1  0.81270000  0.41560000  0.04060000  1.0 -0.1377767987
C  C508  1  0.85020000  0.36510000  0.02050000  1.0 0.0502669444
C  C509  1  0.85850000  0.37390000  0.98340000  1.0 0.0110841373
C  C510  1  0.82930000  0.43330000  0.96620000  1.0 0.0502669444
C  C511  1  0.83840000  0.44250000  0.92900000  1.0 -0.0414513077
C  C512  1  0.87580000  0.39150000  0.90920000  1.0 -0.0205891797
C  C513  1  0.90410000  0.33170000  0.92630000  1.0 -0.092279151
C  C514  1  0.89590000  0.32300000  0.96350000  1.0 0.0300145123
C  C515  1  0.88170000  0.29800000  0.03890000  1.0 -0.0023953674
C  C516  1  0.87320000  0.28880000  0.07600000  1.0 -0.092279151
C  C517  1  0.90190000  0.22920000  0.09300000  1.0 -0.0790201459
C  C518  1  0.93900000  0.17870000  0.07290000  1.0 -0.0604390553
C  C519  1  0.94750000  0.18780000  0.03570000  1.0 0.0376553932
C  C520  1  0.91880000  0.24740000  0.01870000  1.0 0.0228648803
C  C521  1  0.92730000  0.25660000  0.98160000  1.0 0.0376553932
C  C522  1  0.96440000  0.20610000  0.96150000  1.0 -0.04959228
C  C523  1  0.99310000  0.14640000  0.97850000  1.0 0.0017770672
C  C524  1  0.98460000  0.13730000  0.01560000  1.0 -0.0414513077
C  C525  1  0.78670000  0.47360000  0.98460000  1.0 -0.0790201459
C  C526  1  0.79190000  0.46700000  0.02200000  1.0 -0.0997335454
C  C527  1  0.82360000  0.40690000  0.03710000  1.0 -0.1206677653
C  C528  1  0.85020000  0.35340000  0.01470000  1.0 0.0110841373
C  C529  1  0.84500000  0.36000000  0.97730000  1.0 0.0017770672
C  C530  1  0.81330000  0.42010000  0.96220000  1.0 0.0502669444
C  C531  1  0.80810000  0.42670000  0.92480000  1.0 -0.0290770817
C  C532  1  0.83470000  0.37320000  0.90250000  1.0 -0.0604390553
C  C533  1  0.86640000  0.31320000  0.91760000  1.0 -0.0997335454
C  C534  1  0.87160000  0.30660000  0.95500000  1.0 0.0300145123
C  C535  1  0.88580000  0.28580000  0.03050000  1.0 0.0110841373
C  C536  1  0.89130000  0.27820000  0.06780000  1.0 -0.0414513077
C  C537  1  0.92310000  0.21760000  0.08250000  1.0 0.0017770672
C  C538  1  0.94980000  0.16470000  0.05990000  1.0 -0.0604390553
C  C539  1  0.94440000  0.17220000  0.02260000  1.0 0.0376553932
C  C540  1  0.91230000  0.23240000  0.00790000  1.0 0.0110841373
C  C541  1  0.90650000  0.23930000  0.97060000  1.0 0.0300145123
C  C542  1  0.93300000  0.18680000  0.94770000  1.0 -0.1311563871
C  C543  1  0.96510000  0.12670000  0.96250000  1.0 -0.1206677653
C  C544  1  0.97060000  0.11920000  0.99980000  1.0 -0.0790201459
O  O1  1  0.59510000  0.46800000  0.11781000  1.0 -0.6024785746
O  O2  1  0.65861000  0.56450000  0.10281000  1.0 -0.6089008922
O  O3  1  0.26761000  0.30017000  0.03320000  1.0 -0.5637085505
O  O4  1  0.33212000  0.30080000  0.08377000  1.0 -0.6024785746
O  O5  1  0.97970000  0.06680000  0.34721000  1.0 -0.5271784432
O  O6  1  0.93220000  0.16430000  0.37328000  1.0 -0.6089008922
O  O7  1  0.47874000  0.43300000  0.08049000  1.0 -0.9777371653
O  O8  1  0.37369000  0.39639000  0.03526000  1.0 -0.9638234369
O  O9  1  0.46690000  0.29850000  0.06013000  1.0 -0.5481001429
O  O10  1  0.40461000  0.26458000  0.01166000  1.0 -0.5085566558
O  O11  1  0.40490000  0.53200000  0.11781000  1.0 -0.6024785746
O  O12  1  0.34139000  0.43550000  0.10281000  1.0 -0.6089008922
O  O13  1  0.73239000  0.69983000  0.03320000  1.0 -0.5637085505
O  O14  1  0.66788000  0.69920000  0.08377000  1.0 -0.6024785746
O  O15  1  0.02030000  0.93320000  0.34721000  1.0 -0.5271784432
O  O16  1  0.06780000  0.83570000  0.37328000  1.0 -0.6089008922
O  O17  1  0.52126000  0.56700000  0.08049000  1.0 -0.9777371653
O  O18  1  0.62631000  0.60361000  0.03526000  1.0 -0.9638234369
O  O19  1  0.53310000  0.70150000  0.06013000  1.0 -0.5481001429
O  O20  1  0.59539000  0.73542000  0.01166000  1.0 -0.5085566558
O  O21  1  0.03200000  0.09510000  0.61781000  1.0 -0.6024785746
O  O22  1  0.93550000  0.15861000  0.60281000  1.0 -0.6089008922
O  O23  1  0.19983000  0.76761000  0.53320000  1.0 -0.5637085505
O  O24  1  0.19920000  0.83212000  0.58377000  1.0 -0.6089008922
O  O25  1  0.43320000  0.47970000  0.84721000  1.0 -0.5271784432
O  O26  1  0.33570000  0.43220000  0.87328000  1.0 -0.6089008922
O  O27  1  0.06700000  0.97874000  0.58049000  1.0 -0.9777371653
O  O28  1  0.10361000  0.87369000  0.53526000  1.0 -0.9638234369
O  O29  1  0.20150000  0.96690000  0.56013000  1.0 -0.5481001429
O  O30  1  0.23542000  0.90461000  0.51166000  1.0 -0.5085566558
O  O31  1  0.96800000  0.90490000  0.61781000  1.0 -0.6024785746
O  O32  1  0.06450000  0.84139000  0.60281000  1.0 -0.6089008922
O  O33  1  0.80017000  0.23239000  0.53320000  1.0 -0.5637085505
O  O34  1  0.80080000  0.16788000  0.58377000  1.0 -0.6089008922
O  O35  1  0.56680000  0.52030000  0.84721000  1.0 -0.5271784432
O  O36  1  0.66430000  0.56780000  0.87328000  1.0 -0.6089008922
O  O37  1  0.93300000  0.02126000  0.58049000  1.0 -0.9777371653
O  O38  1  0.89639000  0.12631000  0.53526000  1.0 -0.9638234369
O  O39  1  0.79850000  0.03310000  0.56013000  1.0 -0.5481001429
O  O40  1  0.76458000  0.09539000  0.51166000  1.0 -0.5085566558
O  O41  1  0.90490000  0.96800000  0.38219000  1.0 -0.6024785746
O  O42  1  0.84139000  0.06450000  0.39719000  1.0 -0.6089008922
O  O43  1  0.23239000  0.80017000  0.46680000  1.0 -0.5637085505
O  O44  1  0.16788000  0.80080000  0.41623000  1.0 -0.6089008922
O  O45  1  0.52030000  0.56680000  0.15279000  1.0 -0.5271784432
O  O46  1  0.56780000  0.66430000  0.12672000  1.0 -0.6089008922
O  O47  1  0.02126000  0.93300000  0.41951000  1.0 -0.9777371653
O  O48  1  0.12631000  0.89639000  0.46474000  1.0 -0.9638234369
O  O49  1  0.03310000  0.79850000  0.43987000  1.0 -0.5481001429
O  O50  1  0.09539000  0.76458000  0.48834000  1.0 -0.5085566558
O  O51  1  0.09510000  0.03200000  0.38219000  1.0 -0.6024785746
O  O52  1  0.15861000  0.93550000  0.39719000  1.0 -0.6089008922
O  O53  1  0.76761000  0.19983000  0.46680000  1.0 -0.5637085505
O  O54  1  0.83212000  0.19920000  0.41623000  1.0 -0.6089008922
O  O55  1  0.47970000  0.43320000  0.15279000  1.0 -0.5271784432
O  O56  1  0.43220000  0.33570000  0.12672000  1.0 -0.6089008922
O  O57  1  0.97874000  0.06700000  0.41951000  1.0 -0.9777371653
O  O58  1  0.87369000  0.10361000  0.46474000  1.0 -0.9638234369
O  O59  1  0.96690000  0.20150000  0.43987000  1.0 -0.5481001429
O  O60  1  0.90461000  0.23542000  0.48834000  1.0 -0.5085566558
O  O61  1  0.46800000  0.59510000  0.88219000  1.0 -0.6024785746
O  O62  1  0.56450000  0.65861000  0.89719000  1.0 -0.6089008922
O  O63  1  0.30017000  0.26761000  0.96680000  1.0 -0.5637085505
O  O64  1  0.30080000  0.33212000  0.91623000  1.0 -0.6089008922
O  O65  1  0.06680000  0.97970000  0.65279000  1.0 -0.5271784432
O  O66  1  0.16430000  0.93220000  0.62672000  1.0 -0.6089008922
O  O67  1  0.43300000  0.47874000  0.91951000  1.0 -0.9777371653
O  O68  1  0.39639000  0.37369000  0.96474000  1.0 -0.9638234369
O  O69  1  0.29850000  0.46690000  0.93987000  1.0 -0.5481001429
O  O70  1  0.26458000  0.40461000  0.98834000  1.0 -0.5085566558
O  O71  1  0.53200000  0.40490000  0.88219000  1.0 -0.6024785746
O  O72  1  0.43550000  0.34139000  0.89719000  1.0 -0.6089008922
O  O73  1  0.69983000  0.73239000  0.96680000  1.0 -0.5637085505
O  O74  1  0.69920000  0.66788000  0.91623000  1.0 -0.6024785746
O  O75  1  0.93320000  0.02030000  0.65279000  1.0 -0.5271784432
O  O76  1  0.83570000  0.06780000  0.62672000  1.0 -0.6089008922
O  O77  1  0.56700000  0.52126000  0.91951000  1.0 -0.9777371653
O  O78  1  0.60361000  0.62631000  0.96474000  1.0 -0.9638234369
O  O79  1  0.70150000  0.53310000  0.93987000  1.0 -0.5481001429
O  O80  1  0.73542000  0.59539000  0.98834000  1.0 -0.5085566558
