# DDEC6 charges by PACMAN v1.1 (https://github.com/mtap-research/PACMAN-charge/)
data_GABYUG_FSR_pacman
_symmetry_space_group_name_H-M   'P 1'
_cell_length_a   20.83200000
_cell_length_b   20.83200000
_cell_length_c   20.83200000
_cell_angle_alpha   90.00000000
_cell_angle_beta   90.00000000
_cell_angle_gamma   90.00000000
_symmetry_Int_Tables_number   1
_chemical_formula_structural   Cd5H30C48N30(ClO)6
_chemical_formula_sum   'Cd20 H120 C192 N120 Cl24 O24'
_cell_volume   9040.50937037
_cell_formula_units_Z   4
loop_
 _symmetry_equiv_pos_site_id
 _symmetry_equiv_pos_as_xyz
  1  'x, y, z'
loop_
 _atom_site_type_symbol
 _atom_site_label
 _atom_site_symmetry_multiplicity
 _atom_site_fract_x
 _atom_site_fract_y
 _atom_site_fract_z
 _atom_site_occupancy
 _atom_site_charge
Cd  Cd1  1  0.04408000  0.29408000  0.12500000  1.0 0.701673106
Cd  Cd2  1  0.45592000  0.70592000  0.62500000  1.0 0.701673106
Cd  Cd3  1  0.95592000  0.79408000  0.37500000  1.0 0.701673106
Cd  Cd4  1  0.54408000  0.20592000  0.87500000  1.0 0.701673106
Cd  Cd5  1  0.12500000  0.04408000  0.29408000  1.0 0.701673106
Cd  Cd6  1  0.62500000  0.45592000  0.70592000  1.0 0.701673106
Cd  Cd7  1  0.37500000  0.95592000  0.79408000  1.0 0.701673106
Cd  Cd8  1  0.87500000  0.54408000  0.20592000  1.0 0.701673106
Cd  Cd9  1  0.29408000  0.12500000  0.04408000  1.0 0.701673106
Cd  Cd10  1  0.70592000  0.62500000  0.45592000  1.0 0.701673106
Cd  Cd11  1  0.79408000  0.37500000  0.95592000  1.0 0.701673106
Cd  Cd12  1  0.20592000  0.87500000  0.54408000  1.0 0.701673106
Cd  Cd13  1  0.93407000  0.43407000  0.06593000  1.0 0.6706571287
Cd  Cd14  1  0.56593000  0.56593000  0.56593000  1.0 0.6706571287
Cd  Cd15  1  0.06593000  0.93407000  0.43407000  1.0 0.6706571287
Cd  Cd16  1  0.43407000  0.06593000  0.93407000  1.0 0.6706571287
Cd  Cd17  1  0.18407000  0.18407000  0.18407000  1.0 0.6706571287
Cd  Cd18  1  0.31593000  0.81593000  0.68407000  1.0 0.6706571287
Cd  Cd19  1  0.68407000  0.31593000  0.81593000  1.0 0.6706571287
Cd  Cd20  1  0.81593000  0.68407000  0.31593000  1.0 0.6706571287
H  H1  1  0.16300000  0.29980000  0.88500000  1.0 0.1407981595
H  H2  1  0.33700000  0.70020000  0.38500000  1.0 0.1407981595
H  H3  1  0.83700000  0.79980000  0.61500000  1.0 0.1407981595
H  H4  1  0.66300000  0.20020000  0.11500000  1.0 0.1407981595
H  H5  1  0.88500000  0.16300000  0.29980000  1.0 0.1407981595
H  H6  1  0.38500000  0.33700000  0.70020000  1.0 0.1407981595
H  H7  1  0.61500000  0.83700000  0.79980000  1.0 0.1407981595
H  H8  1  0.11500000  0.66300000  0.20020000  1.0 0.1407981595
H  H9  1  0.29980000  0.88500000  0.16300000  1.0 0.1407981595
H  H10  1  0.70020000  0.38500000  0.33700000  1.0 0.1407981595
H  H11  1  0.79980000  0.61500000  0.83700000  1.0 0.1407981595
H  H12  1  0.20020000  0.11500000  0.66300000  1.0 0.1407981595
H  H13  1  0.04980000  0.41300000  0.36500000  1.0 0.1407981595
H  H14  1  0.45020000  0.58700000  0.86500000  1.0 0.1407981595
H  H15  1  0.54980000  0.08700000  0.63500000  1.0 0.1407981595
H  H16  1  0.95020000  0.91300000  0.13500000  1.0 0.1407981595
H  H17  1  0.91300000  0.13500000  0.95020000  1.0 0.1407981595
H  H18  1  0.08700000  0.63500000  0.54980000  1.0 0.1407981595
H  H19  1  0.58700000  0.86500000  0.45020000  1.0 0.1407981595
H  H20  1  0.41300000  0.36500000  0.04980000  1.0 0.1407981595
H  H21  1  0.63500000  0.54980000  0.08700000  1.0 0.1407981595
H  H22  1  0.13500000  0.95020000  0.91300000  1.0 0.1407981595
H  H23  1  0.36500000  0.04980000  0.41300000  1.0 0.1407981595
H  H24  1  0.86500000  0.45020000  0.58700000  1.0 0.1407981595
H  H25  1  0.10320000  0.35180000  0.80540000  1.0 0.0947023134
H  H26  1  0.39680000  0.64820000  0.30540000  1.0 0.0947023134
H  H27  1  0.89680000  0.85180000  0.69460000  1.0 0.0947023134
H  H28  1  0.60320000  0.14820000  0.19460000  1.0 0.0947023134
H  H29  1  0.80540000  0.10320000  0.35180000  1.0 0.0947023134
H  H30  1  0.30540000  0.39680000  0.64820000  1.0 0.0947023134
H  H31  1  0.69460000  0.89680000  0.85180000  1.0 0.0947023134
H  H32  1  0.19460000  0.60320000  0.14820000  1.0 0.0947023134
H  H33  1  0.35180000  0.80540000  0.10320000  1.0 0.0947023134
H  H34  1  0.64820000  0.30540000  0.39680000  1.0 0.0947023134
H  H35  1  0.85180000  0.69460000  0.89680000  1.0 0.0947023134
H  H36  1  0.14820000  0.19460000  0.60320000  1.0 0.0947023134
H  H37  1  0.10180000  0.35320000  0.44460000  1.0 0.0947023134
H  H38  1  0.39820000  0.64680000  0.94460000  1.0 0.0947023134
H  H39  1  0.60180000  0.14680000  0.55540000  1.0 0.0947023134
H  H40  1  0.89820000  0.85320000  0.05540000  1.0 0.0947023134
H  H41  1  0.85320000  0.05540000  0.89820000  1.0 0.0947023134
H  H42  1  0.14680000  0.55540000  0.60180000  1.0 0.0947023134
H  H43  1  0.64680000  0.94460000  0.39820000  1.0 0.0947023134
H  H44  1  0.35320000  0.44460000  0.10180000  1.0 0.0947023134
H  H45  1  0.55540000  0.60180000  0.14680000  1.0 0.0947023134
H  H46  1  0.05540000  0.89820000  0.85320000  1.0 0.0947023134
H  H47  1  0.44460000  0.10180000  0.35320000  1.0 0.0947023134
H  H48  1  0.94460000  0.39820000  0.64680000  1.0 0.0947023134
H  H49  1  0.93850000  0.29360000  0.89100000  1.0 0.1287444172
H  H50  1  0.56150000  0.70640000  0.39100000  1.0 0.1287444172
H  H51  1  0.06150000  0.79360000  0.60900000  1.0 0.1287444172
H  H52  1  0.43850000  0.20640000  0.10900000  1.0 0.1287444172
H  H53  1  0.89100000  0.93850000  0.29360000  1.0 0.1287444172
H  H54  1  0.39100000  0.56150000  0.70640000  1.0 0.1287444172
H  H55  1  0.60900000  0.06150000  0.79360000  1.0 0.1287444172
H  H56  1  0.10900000  0.43850000  0.20640000  1.0 0.1287444172
H  H57  1  0.29360000  0.89100000  0.93850000  1.0 0.1287444172
H  H58  1  0.70640000  0.39100000  0.56150000  1.0 0.1287444172
H  H59  1  0.79360000  0.60900000  0.06150000  1.0 0.1287444172
H  H60  1  0.20640000  0.10900000  0.43850000  1.0 0.1287444172
H  H61  1  0.04360000  0.18850000  0.35900000  1.0 0.1287444172
H  H62  1  0.45640000  0.81150000  0.85900000  1.0 0.1287444172
H  H63  1  0.54360000  0.31150000  0.64100000  1.0 0.1287444172
H  H64  1  0.95640000  0.68850000  0.14100000  1.0 0.1287444172
H  H65  1  0.68850000  0.14100000  0.95640000  1.0 0.1287444172
H  H66  1  0.31150000  0.64100000  0.54360000  1.0 0.1287444172
H  H67  1  0.81150000  0.85900000  0.45640000  1.0 0.1287444172
H  H68  1  0.18850000  0.35900000  0.04360000  1.0 0.1287444172
H  H69  1  0.64100000  0.54360000  0.31150000  1.0 0.1287444172
H  H70  1  0.14100000  0.95640000  0.68850000  1.0 0.1287444172
H  H71  1  0.35900000  0.04360000  0.18850000  1.0 0.1287444172
H  H72  1  0.85900000  0.45640000  0.81150000  1.0 0.1287444172
H  H73  1  0.99830000  0.24160000  0.97060000  1.0 0.1084141886
H  H74  1  0.50170000  0.75840000  0.47060000  1.0 0.1084141886
H  H75  1  0.00170000  0.74160000  0.52940000  1.0 0.1084141886
H  H76  1  0.49830000  0.25840000  0.02940000  1.0 0.1084141886
H  H77  1  0.97060000  0.99830000  0.24160000  1.0 0.1084141886
H  H78  1  0.47060000  0.50170000  0.75840000  1.0 0.1084141886
H  H79  1  0.52940000  0.00170000  0.74160000  1.0 0.1084141886
H  H80  1  0.02940000  0.49830000  0.25840000  1.0 0.1084141886
H  H81  1  0.24160000  0.97060000  0.99830000  1.0 0.1084141886
H  H82  1  0.75840000  0.47060000  0.50170000  1.0 0.1084141886
H  H83  1  0.74160000  0.52940000  0.00170000  1.0 0.1084141886
H  H84  1  0.25840000  0.02940000  0.49830000  1.0 0.1084141886
H  H85  1  0.99160000  0.24830000  0.27940000  1.0 0.1084141886
H  H86  1  0.50840000  0.75170000  0.77940000  1.0 0.1084141886
H  H87  1  0.49160000  0.25170000  0.72060000  1.0 0.1084141886
H  H88  1  0.00840000  0.74830000  0.22060000  1.0 0.1084141886
H  H89  1  0.74830000  0.22060000  0.00840000  1.0 0.1084141886
H  H90  1  0.25170000  0.72060000  0.49160000  1.0 0.1084141886
H  H91  1  0.75170000  0.77940000  0.50840000  1.0 0.1084141886
H  H92  1  0.24830000  0.27940000  0.99160000  1.0 0.1084141886
H  H93  1  0.72060000  0.49160000  0.25170000  1.0 0.1084141886
H  H94  1  0.22060000  0.00840000  0.74830000  1.0 0.1084141886
H  H95  1  0.27940000  0.99160000  0.24830000  1.0 0.1084141886
H  H96  1  0.77940000  0.50840000  0.75170000  1.0 0.1084141886
H  H97  1  0.04870000  0.41600000  0.75860000  1.0 0.1941916303
H  H98  1  0.45130000  0.58400000  0.25860000  1.0 0.1941916303
H  H99  1  0.95130000  0.91600000  0.74140000  1.0 0.195597448
H  H100  1  0.54870000  0.08400000  0.24140000  1.0 0.1941916303
H  H101  1  0.75860000  0.04870000  0.41600000  1.0 0.1941916303
H  H102  1  0.25860000  0.45130000  0.58400000  1.0 0.1941916303
H  H103  1  0.74140000  0.95130000  0.91600000  1.0 0.1941916303
H  H104  1  0.24140000  0.54870000  0.08400000  1.0 0.1941916303
H  H105  1  0.41600000  0.75860000  0.04870000  1.0 0.195597448
H  H106  1  0.58400000  0.25860000  0.45130000  1.0 0.1941916303
H  H107  1  0.91600000  0.74140000  0.95130000  1.0 0.195597448
H  H108  1  0.08400000  0.24140000  0.54870000  1.0 0.1941916303
H  H109  1  0.16600000  0.29870000  0.49140000  1.0 0.1941916303
H  H110  1  0.33400000  0.70130000  0.99140000  1.0 0.1941916303
H  H111  1  0.66600000  0.20130000  0.50860000  1.0 0.1941916303
H  H112  1  0.83400000  0.79870000  0.00860000  1.0 0.195597448
H  H113  1  0.79870000  0.00860000  0.83400000  1.0 0.1941916303
H  H114  1  0.20130000  0.50860000  0.66600000  1.0 0.1941916303
H  H115  1  0.70130000  0.99140000  0.33400000  1.0 0.195597448
H  H116  1  0.29870000  0.49140000  0.16600000  1.0 0.1941916303
H  H117  1  0.50860000  0.66600000  0.20130000  1.0 0.195597448
H  H118  1  0.00860000  0.83400000  0.79870000  1.0 0.1941916303
H  H119  1  0.49140000  0.16600000  0.29870000  1.0 0.1941916303
H  H120  1  0.99140000  0.33400000  0.70130000  1.0 0.1941916303
C  C1  1  0.12370000  0.23230000  0.98490000  1.0 0.2570170617
C  C2  1  0.37630000  0.76770000  0.48490000  1.0 0.2570170617
C  C3  1  0.87630000  0.73230000  0.51510000  1.0 0.2570170617
C  C4  1  0.62370000  0.26770000  0.01510000  1.0 0.2570170617
C  C5  1  0.98490000  0.12370000  0.23230000  1.0 0.2570170617
C  C6  1  0.48490000  0.37630000  0.76770000  1.0 0.2570170617
C  C7  1  0.51510000  0.87630000  0.73230000  1.0 0.2570170617
C  C8  1  0.01510000  0.62370000  0.26770000  1.0 0.2570170617
C  C9  1  0.23230000  0.98490000  0.12370000  1.0 0.2570170617
C  C10  1  0.76770000  0.48490000  0.37630000  1.0 0.2570170617
C  C11  1  0.73230000  0.51510000  0.87630000  1.0 0.2570170617
C  C12  1  0.26770000  0.01510000  0.62370000  1.0 0.2570170617
C  C13  1  0.98230000  0.37370000  0.26510000  1.0 0.2570170617
C  C14  1  0.51770000  0.62630000  0.76510000  1.0 0.2570170617
C  C15  1  0.48230000  0.12630000  0.73490000  1.0 0.2570170617
C  C16  1  0.01770000  0.87370000  0.23490000  1.0 0.2570170617
C  C17  1  0.87370000  0.23490000  0.01770000  1.0 0.2570170617
C  C18  1  0.12630000  0.73490000  0.48230000  1.0 0.2570170617
C  C19  1  0.62630000  0.76510000  0.51770000  1.0 0.2570170617
C  C20  1  0.37370000  0.26510000  0.98230000  1.0 0.2570170617
C  C21  1  0.73490000  0.48230000  0.12630000  1.0 0.2570170617
C  C22  1  0.23490000  0.01770000  0.87370000  1.0 0.2570170617
C  C23  1  0.26510000  0.98230000  0.37370000  1.0 0.2570170617
C  C24  1  0.76510000  0.51770000  0.62630000  1.0 0.2570170617
C  C25  1  0.08630000  0.26580000  0.93530000  1.0 0.0384011281
C  C26  1  0.41370000  0.73420000  0.43530000  1.0 0.0384011281
C  C27  1  0.91370000  0.76580000  0.56470000  1.0 0.0384011281
C  C28  1  0.58630000  0.23420000  0.06470000  1.0 0.0384011281
C  C29  1  0.93530000  0.08630000  0.26580000  1.0 0.0384011281
C  C30  1  0.43530000  0.41370000  0.73420000  1.0 0.0384011281
C  C31  1  0.56470000  0.91370000  0.76580000  1.0 0.0384011281
C  C32  1  0.06470000  0.58630000  0.23420000  1.0 0.0384011281
C  C33  1  0.26580000  0.93530000  0.08630000  1.0 0.0384011281
C  C34  1  0.73420000  0.43530000  0.41370000  1.0 0.0384011281
C  C35  1  0.76580000  0.56470000  0.91370000  1.0 0.0384011281
C  C36  1  0.23420000  0.06470000  0.58630000  1.0 0.0384011281
C  C37  1  0.01580000  0.33630000  0.31470000  1.0 0.0384011281
C  C38  1  0.48420000  0.66370000  0.81470000  1.0 0.0384011281
C  C39  1  0.51580000  0.16370000  0.68530000  1.0 0.0384011281
C  C40  1  0.98420000  0.83630000  0.18530000  1.0 0.0384011281
C  C41  1  0.83630000  0.18530000  0.98420000  1.0 0.0384011281
C  C42  1  0.16370000  0.68530000  0.51580000  1.0 0.0384011281
C  C43  1  0.66370000  0.81470000  0.48420000  1.0 0.0384011281
C  C44  1  0.33630000  0.31470000  0.01580000  1.0 0.0384011281
C  C45  1  0.68530000  0.51580000  0.16370000  1.0 0.0384011281
C  C46  1  0.18530000  0.98420000  0.83630000  1.0 0.0384011281
C  C47  1  0.31470000  0.01580000  0.33630000  1.0 0.0384011281
C  C48  1  0.81470000  0.48420000  0.66370000  1.0 0.0384011281
C  C49  1  0.11750000  0.29850000  0.88620000  1.0 -0.1176820384
C  C50  1  0.38250000  0.70150000  0.38620000  1.0 -0.1176820384
C  C51  1  0.88250000  0.79850000  0.61380000  1.0 -0.1176820384
C  C52  1  0.61750000  0.20150000  0.11380000  1.0 -0.1176820384
C  C53  1  0.88620000  0.11750000  0.29850000  1.0 -0.1176820384
C  C54  1  0.38620000  0.38250000  0.70150000  1.0 -0.1176820384
C  C55  1  0.61380000  0.88250000  0.79850000  1.0 -0.1176820384
C  C56  1  0.11380000  0.61750000  0.20150000  1.0 -0.1176820384
C  C57  1  0.29850000  0.88620000  0.11750000  1.0 -0.1176820384
C  C58  1  0.70150000  0.38620000  0.38250000  1.0 -0.1176820384
C  C59  1  0.79850000  0.61380000  0.88250000  1.0 -0.1176820384
C  C60  1  0.20150000  0.11380000  0.61750000  1.0 -0.1176820384
C  C61  1  0.04850000  0.36750000  0.36380000  1.0 -0.1176820384
C  C62  1  0.45150000  0.63250000  0.86380000  1.0 -0.1176820384
C  C63  1  0.54850000  0.13250000  0.63620000  1.0 -0.1176820384
C  C64  1  0.95150000  0.86750000  0.13620000  1.0 -0.1176820384
C  C65  1  0.86750000  0.13620000  0.95150000  1.0 -0.1176820384
C  C66  1  0.13250000  0.63620000  0.54850000  1.0 -0.1176820384
C  C67  1  0.63250000  0.86380000  0.45150000  1.0 -0.1176820384
C  C68  1  0.36750000  0.36380000  0.04850000  1.0 -0.1176820384
C  C69  1  0.63620000  0.54850000  0.13250000  1.0 -0.1176820384
C  C70  1  0.13620000  0.95150000  0.86750000  1.0 -0.1176820384
C  C71  1  0.36380000  0.04850000  0.36750000  1.0 -0.1176820384
C  C72  1  0.86380000  0.45150000  0.63250000  1.0 -0.1176820384
C  C73  1  0.08200000  0.32940000  0.83890000  1.0 -0.1176820384
C  C74  1  0.41800000  0.67060000  0.33890000  1.0 -0.1176820384
C  C75  1  0.91800000  0.82940000  0.66110000  1.0 -0.1176820384
C  C76  1  0.58200000  0.17060000  0.16110000  1.0 -0.1176820384
C  C77  1  0.83890000  0.08200000  0.32940000  1.0 -0.1176820384
C  C78  1  0.33890000  0.41800000  0.67060000  1.0 -0.1176820384
C  C79  1  0.66110000  0.91800000  0.82940000  1.0 -0.1176820384
C  C80  1  0.16110000  0.58200000  0.17060000  1.0 -0.1176820384
C  C81  1  0.32940000  0.83890000  0.08200000  1.0 -0.1176820384
C  C82  1  0.67060000  0.33890000  0.41800000  1.0 -0.1176820384
C  C83  1  0.82940000  0.66110000  0.91800000  1.0 -0.1176820384
C  C84  1  0.17060000  0.16110000  0.58200000  1.0 -0.1176820384
C  C85  1  0.07940000  0.33200000  0.41110000  1.0 -0.1176820384
C  C86  1  0.42060000  0.66800000  0.91110000  1.0 -0.1176820384
C  C87  1  0.57940000  0.16800000  0.58890000  1.0 -0.1176820384
C  C88  1  0.92060000  0.83200000  0.08890000  1.0 -0.1176820384
C  C89  1  0.83200000  0.08890000  0.92060000  1.0 -0.1176820384
C  C90  1  0.16800000  0.58890000  0.57940000  1.0 -0.1176820384
C  C91  1  0.66800000  0.91110000  0.42060000  1.0 -0.1176820384
C  C92  1  0.33200000  0.41110000  0.07940000  1.0 -0.1176820384
C  C93  1  0.58890000  0.57940000  0.16800000  1.0 -0.1176820384
C  C94  1  0.08890000  0.92060000  0.83200000  1.0 -0.1176820384
C  C95  1  0.41110000  0.07940000  0.33200000  1.0 -0.1176820384
C  C96  1  0.91110000  0.42060000  0.66800000  1.0 -0.1176820384
C  C97  1  0.01530000  0.32760000  0.84070000  1.0 0.0747864103
C  C98  1  0.48470000  0.67240000  0.34070000  1.0 0.0768949968
C  C99  1  0.98470000  0.82760000  0.65930000  1.0 0.0768949968
C  C100  1  0.51530000  0.17240000  0.15930000  1.0 0.0768949968
C  C101  1  0.84070000  0.01530000  0.32760000  1.0 0.0768949968
C  C102  1  0.34070000  0.48470000  0.67240000  1.0 0.0768949968
C  C103  1  0.65930000  0.98470000  0.82760000  1.0 0.0768949968
C  C104  1  0.15930000  0.51530000  0.17240000  1.0 0.0768949968
C  C105  1  0.32760000  0.84070000  0.01530000  1.0 0.0768949968
C  C106  1  0.67240000  0.34070000  0.48470000  1.0 0.0768949968
C  C107  1  0.82760000  0.65930000  0.98470000  1.0 0.0747864103
C  C108  1  0.17240000  0.15930000  0.51530000  1.0 0.0768949968
C  C109  1  0.07760000  0.26530000  0.40930000  1.0 0.0768949968
C  C110  1  0.42240000  0.73470000  0.90930000  1.0 0.0768949968
C  C111  1  0.57760000  0.23470000  0.59070000  1.0 0.0768949968
C  C112  1  0.92240000  0.76530000  0.09070000  1.0 0.0768949968
C  C113  1  0.76530000  0.09070000  0.92240000  1.0 0.0768949968
C  C114  1  0.23470000  0.59070000  0.57760000  1.0 0.0768949968
C  C115  1  0.73470000  0.90930000  0.42240000  1.0 0.0768949968
C  C116  1  0.26530000  0.40930000  0.07760000  1.0 0.0768949968
C  C117  1  0.59070000  0.57760000  0.23470000  1.0 0.0768949968
C  C118  1  0.09070000  0.92240000  0.76530000  1.0 0.0768949968
C  C119  1  0.40930000  0.07760000  0.26530000  1.0 0.0768949968
C  C120  1  0.90930000  0.42240000  0.73470000  1.0 0.0768949968
C  C121  1  0.98410000  0.29480000  0.88980000  1.0 -0.087578848
C  C122  1  0.51590000  0.70520000  0.38980000  1.0 -0.087578848
C  C123  1  0.01590000  0.79480000  0.61020000  1.0 -0.087578848
C  C124  1  0.48410000  0.20520000  0.11020000  1.0 -0.087578848
C  C125  1  0.88980000  0.98410000  0.29480000  1.0 -0.087578848
C  C126  1  0.38980000  0.51590000  0.70520000  1.0 -0.087578848
C  C127  1  0.61020000  0.01590000  0.79480000  1.0 -0.087578848
C  C128  1  0.11020000  0.48410000  0.20520000  1.0 -0.087578848
C  C129  1  0.29480000  0.88980000  0.98410000  1.0 -0.087578848
C  C130  1  0.70520000  0.38980000  0.51590000  1.0 -0.087578848
C  C131  1  0.79480000  0.61020000  0.01590000  1.0 -0.087578848
C  C132  1  0.20520000  0.11020000  0.48410000  1.0 -0.087578848
C  C133  1  0.04480000  0.23410000  0.36020000  1.0 -0.087578848
C  C134  1  0.45520000  0.76590000  0.86020000  1.0 -0.087578848
C  C135  1  0.54480000  0.26590000  0.63980000  1.0 -0.087578848
C  C136  1  0.95520000  0.73410000  0.13980000  1.0 -0.087578848
C  C137  1  0.73410000  0.13980000  0.95520000  1.0 -0.087578848
C  C138  1  0.26590000  0.63980000  0.54480000  1.0 -0.087578848
C  C139  1  0.76590000  0.86020000  0.45520000  1.0 -0.087578848
C  C140  1  0.23410000  0.36020000  0.04480000  1.0 -0.087578848
C  C141  1  0.63980000  0.54480000  0.26590000  1.0 -0.087578848
C  C142  1  0.13980000  0.95520000  0.73410000  1.0 -0.087578848
C  C143  1  0.36020000  0.04480000  0.23410000  1.0 -0.087578848
C  C144  1  0.86020000  0.45520000  0.76590000  1.0 -0.087578848
C  C145  1  0.01960000  0.26390000  0.93710000  1.0 -0.1354011142
C  C146  1  0.48040000  0.73610000  0.43710000  1.0 -0.1354011142
C  C147  1  0.98040000  0.76390000  0.56290000  1.0 -0.1349673116
C  C148  1  0.51960000  0.23610000  0.06290000  1.0 -0.1354011142
C  C149  1  0.93710000  0.01960000  0.26390000  1.0 -0.1354011142
C  C150  1  0.43710000  0.48040000  0.73610000  1.0 -0.1354011142
C  C151  1  0.56290000  0.98040000  0.76390000  1.0 -0.1354011142
C  C152  1  0.06290000  0.51960000  0.23610000  1.0 -0.1354011142
C  C153  1  0.26390000  0.93710000  0.01960000  1.0 -0.1354011142
C  C154  1  0.73610000  0.43710000  0.48040000  1.0 -0.1354011142
C  C155  1  0.76390000  0.56290000  0.98040000  1.0 -0.1354011142
C  C156  1  0.23610000  0.06290000  0.51960000  1.0 -0.1354011142
C  C157  1  0.01390000  0.26960000  0.31290000  1.0 -0.1354011142
C  C158  1  0.48610000  0.73040000  0.81290000  1.0 -0.1354011142
C  C159  1  0.51390000  0.23040000  0.68710000  1.0 -0.1354011142
C  C160  1  0.98610000  0.76960000  0.18710000  1.0 -0.1354011142
C  C161  1  0.76960000  0.18710000  0.98610000  1.0 -0.1349673116
C  C162  1  0.23040000  0.68710000  0.51390000  1.0 -0.1354011142
C  C163  1  0.73040000  0.81290000  0.48610000  1.0 -0.1354011142
C  C164  1  0.26960000  0.31290000  0.01390000  1.0 -0.1354011142
C  C165  1  0.68710000  0.51390000  0.23040000  1.0 -0.1354011142
C  C166  1  0.18710000  0.98610000  0.76960000  1.0 -0.1354011142
C  C167  1  0.31290000  0.01390000  0.26960000  1.0 -0.1354011142
C  C168  1  0.81290000  0.48610000  0.73040000  1.0 -0.1354011142
C  C169  1  0.97700000  0.36090000  0.78970000  1.0 0.2816233554
C  C170  1  0.52300000  0.63910000  0.28970000  1.0 0.2816233554
C  C171  1  0.02300000  0.86090000  0.71030000  1.0 0.2816233554
C  C172  1  0.47700000  0.13910000  0.21030000  1.0 0.2816233554
C  C173  1  0.78970000  0.97700000  0.36090000  1.0 0.2816233554
C  C174  1  0.28970000  0.52300000  0.63910000  1.0 0.2816233554
C  C175  1  0.71030000  0.02300000  0.86090000  1.0 0.2816233554
C  C176  1  0.21030000  0.47700000  0.13910000  1.0 0.2816233554
C  C177  1  0.36090000  0.78970000  0.97700000  1.0 0.2816233554
C  C178  1  0.63910000  0.28970000  0.52300000  1.0 0.2816233554
C  C179  1  0.86090000  0.71030000  0.02300000  1.0 0.2816233554
C  C180  1  0.13910000  0.21030000  0.47700000  1.0 0.2816233554
C  C181  1  0.11090000  0.22700000  0.46030000  1.0 0.2816233554
C  C182  1  0.38910000  0.77300000  0.96030000  1.0 0.2816233554
C  C183  1  0.61090000  0.27300000  0.53970000  1.0 0.2816233554
C  C184  1  0.88910000  0.72700000  0.03970000  1.0 0.2816233554
C  C185  1  0.72700000  0.03970000  0.88910000  1.0 0.2816233554
C  C186  1  0.27300000  0.53970000  0.61090000  1.0 0.2816233554
C  C187  1  0.77300000  0.96030000  0.38910000  1.0 0.2816233554
C  C188  1  0.22700000  0.46030000  0.11090000  1.0 0.2816233554
C  C189  1  0.53970000  0.61090000  0.27300000  1.0 0.2816233554
C  C190  1  0.03970000  0.88910000  0.72700000  1.0 0.2816233554
C  C191  1  0.46030000  0.11090000  0.22700000  1.0 0.2816233554
C  C192  1  0.96030000  0.38910000  0.77300000  1.0 0.2816233554
N  N1  1  0.19530000  0.17640000  0.02790000  1.0 -0.0308611584
N  N2  1  0.30470000  0.82360000  0.52790000  1.0 -0.0308611584
N  N3  1  0.80470000  0.67640000  0.47210000  1.0 -0.0308611584
N  N4  1  0.69530000  0.32360000  0.97210000  1.0 -0.0308611584
N  N5  1  0.02790000  0.19530000  0.17640000  1.0 -0.0308611584
N  N6  1  0.52790000  0.30470000  0.82360000  1.0 -0.0308611584
N  N7  1  0.47210000  0.80470000  0.67640000  1.0 -0.0308611584
N  N8  1  0.97210000  0.69530000  0.32360000  1.0 -0.0308611584
N  N9  1  0.17640000  0.02790000  0.19530000  1.0 -0.0308611584
N  N10  1  0.82360000  0.52790000  0.30470000  1.0 -0.0308611584
N  N11  1  0.67640000  0.47210000  0.80470000  1.0 -0.0308611584
N  N12  1  0.32360000  0.97210000  0.69530000  1.0 -0.0308611584
N  N13  1  0.92640000  0.44530000  0.22210000  1.0 -0.0308611584
N  N14  1  0.57360000  0.55470000  0.72210000  1.0 -0.0308611584
N  N15  1  0.42640000  0.05470000  0.77790000  1.0 -0.0308611584
N  N16  1  0.07360000  0.94530000  0.27790000  1.0 -0.0308611584
N  N17  1  0.94530000  0.27790000  0.07360000  1.0 -0.0308611584
N  N18  1  0.05470000  0.77790000  0.42640000  1.0 -0.0308611584
N  N19  1  0.55470000  0.72210000  0.57360000  1.0 -0.0308611584
N  N20  1  0.44530000  0.22210000  0.92640000  1.0 -0.0308611584
N  N21  1  0.77790000  0.42640000  0.05470000  1.0 -0.0308611584
N  N22  1  0.27790000  0.07360000  0.94530000  1.0 -0.0308611584
N  N23  1  0.22210000  0.92640000  0.44530000  1.0 -0.0308611584
N  N24  1  0.72210000  0.57360000  0.55470000  1.0 -0.0308611584
N  N25  1  0.17550000  0.19700000  0.97100000  1.0 -0.2319339657
N  N26  1  0.32450000  0.80300000  0.47100000  1.0 -0.2319339657
N  N27  1  0.82450000  0.69700000  0.52900000  1.0 -0.2319339657
N  N28  1  0.67550000  0.30300000  0.02900000  1.0 -0.2319339657
N  N29  1  0.97100000  0.17550000  0.19700000  1.0 -0.2319339657
N  N30  1  0.47100000  0.32450000  0.80300000  1.0 -0.2319339657
N  N31  1  0.52900000  0.82450000  0.69700000  1.0 -0.2319339657
N  N32  1  0.02900000  0.67550000  0.30300000  1.0 -0.2319339657
N  N33  1  0.19700000  0.97100000  0.17550000  1.0 -0.2319339657
N  N34  1  0.80300000  0.47100000  0.32450000  1.0 -0.2319339657
N  N35  1  0.69700000  0.52900000  0.82450000  1.0 -0.2319339657
N  N36  1  0.30300000  0.02900000  0.67550000  1.0 -0.2319339657
N  N37  1  0.94700000  0.42550000  0.27900000  1.0 -0.2319339657
N  N38  1  0.55300000  0.57450000  0.77900000  1.0 -0.2319339657
N  N39  1  0.44700000  0.07450000  0.72100000  1.0 -0.2319339657
N  N40  1  0.05300000  0.92550000  0.22100000  1.0 -0.2319339657
N  N41  1  0.92550000  0.22100000  0.05300000  1.0 -0.2319339657
N  N42  1  0.07450000  0.72100000  0.44700000  1.0 -0.2319339657
N  N43  1  0.57450000  0.77900000  0.55300000  1.0 -0.2319339657
N  N44  1  0.42550000  0.27900000  0.94700000  1.0 -0.2319339657
N  N45  1  0.72100000  0.44700000  0.07450000  1.0 -0.2319339657
N  N46  1  0.22100000  0.05300000  0.92550000  1.0 -0.2319339657
N  N47  1  0.27900000  0.94700000  0.42550000  1.0 -0.2319339657
N  N48  1  0.77900000  0.55300000  0.57450000  1.0 -0.2319339657
N  N49  1  0.15800000  0.19740000  0.07360000  1.0 -0.0308611584
N  N50  1  0.34200000  0.80260000  0.57360000  1.0 -0.0308611584
N  N51  1  0.84200000  0.69740000  0.42640000  1.0 -0.0308611584
N  N52  1  0.65800000  0.30260000  0.92640000  1.0 -0.0308611584
N  N53  1  0.07360000  0.15800000  0.19740000  1.0 -0.0308611584
N  N54  1  0.57360000  0.34200000  0.80260000  1.0 -0.0308611584
N  N55  1  0.42640000  0.84200000  0.69740000  1.0 -0.0308611584
N  N56  1  0.92640000  0.65800000  0.30260000  1.0 -0.0308611584
N  N57  1  0.19740000  0.07360000  0.15800000  1.0 -0.0308611584
N  N58  1  0.80260000  0.57360000  0.34200000  1.0 -0.0308611584
N  N59  1  0.69740000  0.42640000  0.84200000  1.0 -0.0308611584
N  N60  1  0.30260000  0.92640000  0.65800000  1.0 -0.0308611584
N  N61  1  0.94740000  0.40800000  0.17640000  1.0 -0.0308611584
N  N62  1  0.55260000  0.59200000  0.67640000  1.0 -0.0308611584
N  N63  1  0.44740000  0.09200000  0.82360000  1.0 -0.0308611584
N  N64  1  0.05260000  0.90800000  0.32360000  1.0 -0.0308611584
N  N65  1  0.90800000  0.32360000  0.05260000  1.0 -0.0308611584
N  N66  1  0.09200000  0.82360000  0.44740000  1.0 -0.0308611584
N  N67  1  0.59200000  0.67640000  0.55260000  1.0 -0.0308611584
N  N68  1  0.40800000  0.17640000  0.94740000  1.0 -0.0308611584
N  N69  1  0.82360000  0.44740000  0.09200000  1.0 -0.0308611584
N  N70  1  0.32360000  0.05260000  0.90800000  1.0 -0.0308611584
N  N71  1  0.17640000  0.94740000  0.40800000  1.0 -0.0308611584
N  N72  1  0.67640000  0.55260000  0.59200000  1.0 -0.0308611584
N  N73  1  0.11140000  0.23320000  0.04730000  1.0 -0.2319339657
N  N74  1  0.38860000  0.76680000  0.54730000  1.0 -0.2319339657
N  N75  1  0.88860000  0.73320000  0.45270000  1.0 -0.2319339657
N  N76  1  0.61140000  0.26680000  0.95270000  1.0 -0.2319339657
N  N77  1  0.04730000  0.11140000  0.23320000  1.0 -0.2319339657
N  N78  1  0.54730000  0.38860000  0.76680000  1.0 -0.2319339657
N  N79  1  0.45270000  0.88860000  0.73320000  1.0 -0.2319339657
N  N80  1  0.95270000  0.61140000  0.26680000  1.0 -0.2319339657
N  N81  1  0.23320000  0.04730000  0.11140000  1.0 -0.2319339657
N  N82  1  0.76680000  0.54730000  0.38860000  1.0 -0.2319339657
N  N83  1  0.73320000  0.45270000  0.88860000  1.0 -0.2319339657
N  N84  1  0.26680000  0.95270000  0.61140000  1.0 -0.2319339657
N  N85  1  0.98320000  0.36140000  0.20270000  1.0 -0.2319339657
N  N86  1  0.51680000  0.63860000  0.70270000  1.0 -0.2319339657
N  N87  1  0.48320000  0.13860000  0.79730000  1.0 -0.2319339657
N  N88  1  0.01680000  0.86140000  0.29730000  1.0 -0.2319339657
N  N89  1  0.86140000  0.29730000  0.01680000  1.0 -0.2319339657
N  N90  1  0.13860000  0.79730000  0.48320000  1.0 -0.2319339657
N  N91  1  0.63860000  0.70270000  0.51680000  1.0 -0.2319339657
N  N92  1  0.36140000  0.20270000  0.98320000  1.0 -0.2319339657
N  N93  1  0.79730000  0.48320000  0.13860000  1.0 -0.2319339657
N  N94  1  0.29730000  0.01680000  0.86140000  1.0 -0.2319339657
N  N95  1  0.20270000  0.98320000  0.36140000  1.0 -0.2319339657
N  N96  1  0.70270000  0.51680000  0.63860000  1.0 -0.2319339657
N  N97  1  0.00480000  0.40550000  0.75260000  1.0 -0.2319339657
N  N98  1  0.49520000  0.59450000  0.25260000  1.0 -0.2319339657
N  N99  1  0.99520000  0.90550000  0.74740000  1.0 -0.2319339657
N  N100  1  0.50480000  0.09450000  0.24740000  1.0 -0.2319339657
N  N101  1  0.75260000  0.00480000  0.40550000  1.0 -0.2319339657
N  N102  1  0.25260000  0.49520000  0.59450000  1.0 -0.2319339657
N  N103  1  0.74740000  0.99520000  0.90550000  1.0 -0.2319339657
N  N104  1  0.24740000  0.50480000  0.09450000  1.0 -0.2319339657
N  N105  1  0.40550000  0.75260000  0.00480000  1.0 -0.2319339657
N  N106  1  0.59450000  0.25260000  0.49520000  1.0 -0.2319339657
N  N107  1  0.90550000  0.74740000  0.99520000  1.0 -0.2319339657
N  N108  1  0.09450000  0.24740000  0.50480000  1.0 -0.2319339657
N  N109  1  0.15550000  0.25480000  0.49740000  1.0 -0.2319339657
N  N110  1  0.34450000  0.74520000  0.99740000  1.0 -0.2319339657
N  N111  1  0.65550000  0.24520000  0.50260000  1.0 -0.2319339657
N  N112  1  0.84450000  0.75480000  0.00260000  1.0 -0.2319339657
N  N113  1  0.75480000  0.00260000  0.84450000  1.0 -0.2319339657
N  N114  1  0.24520000  0.50260000  0.65550000  1.0 -0.2319339657
N  N115  1  0.74520000  0.99740000  0.34450000  1.0 -0.2319339657
N  N116  1  0.25480000  0.49740000  0.15550000  1.0 -0.2319339657
N  N117  1  0.50260000  0.65550000  0.24520000  1.0 -0.2319339657
N  N118  1  0.00260000  0.84450000  0.75480000  1.0 -0.2319339657
N  N119  1  0.49740000  0.15550000  0.25480000  1.0 -0.2319339657
N  N120  1  0.99740000  0.34450000  0.74520000  1.0 -0.2319339657
Cl  Cl1  1  0.05330000  0.39878000  0.05759000  1.0 -0.4855353975
Cl  Cl2  1  0.44670000  0.60122000  0.55759000  1.0 -0.4855353975
Cl  Cl3  1  0.94670000  0.89878000  0.44241000  1.0 -0.4855353975
Cl  Cl4  1  0.55330000  0.10122000  0.94241000  1.0 -0.4849627161
Cl  Cl5  1  0.05759000  0.05330000  0.39878000  1.0 -0.4855353975
Cl  Cl6  1  0.55759000  0.44670000  0.60122000  1.0 -0.4855353975
Cl  Cl7  1  0.44241000  0.94670000  0.89878000  1.0 -0.4855353975
Cl  Cl8  1  0.94241000  0.55330000  0.10122000  1.0 -0.4855353975
Cl  Cl9  1  0.39878000  0.05759000  0.05330000  1.0 -0.4855353975
Cl  Cl10  1  0.60122000  0.55759000  0.44670000  1.0 -0.4855353975
Cl  Cl11  1  0.89878000  0.44241000  0.94670000  1.0 -0.4855353975
Cl  Cl12  1  0.10122000  0.94241000  0.55330000  1.0 -0.4855353975
Cl  Cl13  1  0.14878000  0.30330000  0.19241000  1.0 -0.4855353975
Cl  Cl14  1  0.35122000  0.69670000  0.69241000  1.0 -0.4855353975
Cl  Cl15  1  0.64878000  0.19670000  0.80759000  1.0 -0.4849627161
Cl  Cl16  1  0.85122000  0.80330000  0.30759000  1.0 -0.4855353975
Cl  Cl17  1  0.80330000  0.30759000  0.85122000  1.0 -0.4855353975
Cl  Cl18  1  0.19670000  0.80759000  0.64878000  1.0 -0.4855353975
Cl  Cl19  1  0.69670000  0.69241000  0.35122000  1.0 -0.4855353975
Cl  Cl20  1  0.30330000  0.19241000  0.14878000  1.0 -0.4849627161
Cl  Cl21  1  0.80759000  0.64878000  0.19670000  1.0 -0.4855353975
Cl  Cl22  1  0.30759000  0.85122000  0.80330000  1.0 -0.4855353975
Cl  Cl23  1  0.19241000  0.14878000  0.30330000  1.0 -0.4855353975
Cl  Cl24  1  0.69241000  0.35122000  0.69670000  1.0 -0.4855353975
O  O1  1  0.91910000  0.34710000  0.78180000  1.0 -0.1954043203
O  O2  1  0.58090000  0.65290000  0.28180000  1.0 -0.1936065656
O  O3  1  0.08090000  0.84710000  0.71820000  1.0 -0.1936065656
O  O4  1  0.41910000  0.15290000  0.21820000  1.0 -0.1936065656
O  O5  1  0.78180000  0.91910000  0.34710000  1.0 -0.1954043203
O  O6  1  0.28180000  0.58090000  0.65290000  1.0 -0.1936065656
O  O7  1  0.71820000  0.08090000  0.84710000  1.0 -0.1936065656
O  O8  1  0.21820000  0.41910000  0.15290000  1.0 -0.1936065656
O  O9  1  0.34710000  0.78180000  0.91910000  1.0 -0.1936065656
O  O10  1  0.65290000  0.28180000  0.58090000  1.0 -0.1936065656
O  O11  1  0.84710000  0.71820000  0.08090000  1.0 -0.1954043203
O  O12  1  0.15290000  0.21820000  0.41910000  1.0 -0.1936065656
O  O13  1  0.09710000  0.16910000  0.46820000  1.0 -0.1936065656
O  O14  1  0.40290000  0.83090000  0.96820000  1.0 -0.1936065656
O  O15  1  0.59710000  0.33090000  0.53180000  1.0 -0.1936065656
O  O16  1  0.90290000  0.66910000  0.03180000  1.0 -0.1954043203
O  O17  1  0.66910000  0.03180000  0.90290000  1.0 -0.1936065656
O  O18  1  0.33090000  0.53180000  0.59710000  1.0 -0.1936065656
O  O19  1  0.83090000  0.96820000  0.40290000  1.0 -0.1954043203
O  O20  1  0.16910000  0.46820000  0.09710000  1.0 -0.1936065656
O  O21  1  0.53180000  0.59710000  0.33090000  1.0 -0.1936065656
O  O22  1  0.03180000  0.90290000  0.66910000  1.0 -0.1936065656
O  O23  1  0.46820000  0.09710000  0.16910000  1.0 -0.1936065656
O  O24  1  0.96820000  0.40290000  0.83090000  1.0 -0.1954043203
