# DDEC6 charges by PACMAN v1.1 (https://github.com/mtap-research/PACMAN-charge/)
data_GACYER_ASR_pacman
_symmetry_space_group_name_H-M   'P 1'
_cell_length_a   17.25600000
_cell_length_b   23.22700000
_cell_length_c   25.42600000
_cell_angle_alpha   90.00000000
_cell_angle_beta   90.00000000
_cell_angle_gamma   90.00000000
_symmetry_Int_Tables_number   1
_chemical_formula_structural   Zn4H36C58NO15
_chemical_formula_sum   'Zn16 H144 C232 N4 O60'
_cell_volume   10190.87077771
_cell_formula_units_Z   4
loop_
 _symmetry_equiv_pos_site_id
 _symmetry_equiv_pos_as_xyz
  1  'x, y, z'
loop_
 _atom_site_type_symbol
 _atom_site_label
 _atom_site_symmetry_multiplicity
 _atom_site_fract_x
 _atom_site_fract_y
 _atom_site_fract_z
 _atom_site_occupancy
 _atom_site_charge
Zn  Zn1  1  0.70872000  0.58348000  0.00000000  1.0 0.9298193575
Zn  Zn2  1  0.79128000  0.08348000  0.50000000  1.0 0.9298193575
Zn  Zn3  1  0.70199000  0.72083000  0.00000000  1.0 0.9361305506
Zn  Zn4  1  0.79801000  0.22083000  0.50000000  1.0 0.9361305506
Zn  Zn5  1  0.83609000  0.65747000  0.93779000  1.0 0.9361305506
Zn  Zn6  1  0.66391000  0.15747000  0.56221000  1.0 0.9361305506
Zn  Zn7  1  0.83609000  0.65747000  0.06221000  1.0 0.9361305506
Zn  Zn8  1  0.66391000  0.15747000  0.43779000  1.0 0.9361305506
Zn  Zn9  1  0.29128000  0.41652000  0.00000000  1.0 0.9298193575
Zn  Zn10  1  0.20872000  0.91652000  0.50000000  1.0 0.9298193575
Zn  Zn11  1  0.29801000  0.27917000  0.00000000  1.0 0.9361305506
Zn  Zn12  1  0.20199000  0.77917000  0.50000000  1.0 0.9361305506
Zn  Zn13  1  0.16391000  0.34253000  0.93779000  1.0 0.9361305506
Zn  Zn14  1  0.33609000  0.84253000  0.56221000  1.0 0.9361305506
Zn  Zn15  1  0.16391000  0.34253000  0.06221000  1.0 0.9361305506
Zn  Zn16  1  0.33609000  0.84253000  0.43779000  1.0 0.9361305506
H  H1  1  0.67090000  0.46140000  0.12380000  1.0 0.0688363654
H  H2  1  0.82910000  0.96140000  0.37620000  1.0 0.0688363654
H  H3  1  0.67090000  0.46140000  0.87620000  1.0 0.0688363654
H  H4  1  0.82910000  0.96140000  0.62380000  1.0 0.0688363654
H  H5  1  0.68120000  0.38800000  0.18540000  1.0 0.0814299204
H  H6  1  0.81880000  0.88800000  0.31460000  1.0 0.0814299204
H  H7  1  0.68120000  0.38800000  0.81460000  1.0 0.0814299204
H  H8  1  0.81880000  0.88800000  0.68540000  1.0 0.0814299204
H  H9  1  0.86770000  0.45750000  0.24760000  1.0 0.0889458497
H  H10  1  0.63230000  0.95750000  0.25240000  1.0 0.0889458497
H  H11  1  0.86770000  0.45750000  0.75240000  1.0 0.0889458497
H  H12  1  0.63230000  0.95750000  0.74760000  1.0 0.0889458497
H  H13  1  0.86270000  0.53460000  0.18510000  1.0 0.0814299204
H  H14  1  0.63730000  0.03460000  0.31490000  1.0 0.0814299204
H  H15  1  0.86270000  0.53460000  0.81490000  1.0 0.0814299204
H  H16  1  0.63730000  0.03460000  0.68510000  1.0 0.0814299204
H  H17  1  0.68030000  0.33110000  0.23600000  1.0 0.1035200324
H  H18  1  0.81970000  0.83110000  0.26400000  1.0 0.1035200324
H  H19  1  0.68030000  0.33110000  0.76400000  1.0 0.1035200324
H  H20  1  0.81970000  0.83110000  0.73600000  1.0 0.1035200324
H  H21  1  0.66990000  0.26100000  0.30630000  1.0 0.1197333164
H  H22  1  0.83010000  0.76100000  0.19370000  1.0 0.1197333164
H  H23  1  0.66990000  0.26100000  0.69370000  1.0 0.1197333164
H  H24  1  0.83010000  0.76100000  0.80630000  1.0 0.1197333164
H  H25  1  0.83640000  0.35270000  0.38370000  1.0 0.1197333164
H  H26  1  0.66360000  0.85270000  0.11630000  1.0 0.1197333164
H  H27  1  0.83640000  0.35270000  0.61630000  1.0 0.1197333164
H  H28  1  0.66360000  0.85270000  0.88370000  1.0 0.1197333164
H  H29  1  0.84410000  0.41410000  0.31230000  1.0 0.1035200324
H  H30  1  0.65590000  0.91410000  0.18770000  1.0 0.1035200324
H  H31  1  0.84410000  0.41410000  0.68770000  1.0 0.1035200324
H  H32  1  0.65590000  0.91410000  0.81230000  1.0 0.1035200324
H  H33  1  0.45930000  0.72850000  0.00000000  1.0 0.1197333164
H  H34  1  0.04070000  0.22850000  0.50000000  1.0 0.1197333164
H  H35  1  0.32920000  0.72740000  0.00000000  1.0 0.1310839475
H  H36  1  0.17080000  0.22740000  0.50000000  1.0 0.1310839475
H  H37  1  0.32590000  0.55900000  0.00000000  1.0 0.1310839475
H  H38  1  0.17410000  0.05900000  0.50000000  1.0 0.1310839475
H  H39  1  0.45890000  0.55660000  0.00000000  1.0 0.1197333164
H  H40  1  0.04110000  0.05660000  0.50000000  1.0 0.1197333164
H  H41  1  0.20580000  0.58740000  0.05570000  1.0 0.0889458497
H  H42  1  0.29420000  0.08740000  0.44430000  1.0 0.0889458497
H  H43  1  0.20580000  0.58740000  0.94430000  1.0 0.0889458497
H  H44  1  0.29420000  0.08740000  0.55570000  1.0 0.0889458497
H  H45  1  0.07730000  0.59330000  0.05410000  1.0 0.1060945686
H  H46  1  0.42270000  0.09330000  0.44590000  1.0 0.1060945686
H  H47  1  0.07730000  0.59330000  0.94590000  1.0 0.1060945686
H  H48  1  0.42270000  0.09330000  0.55410000  1.0 0.1060945686
H  H49  1  0.07800000  0.69340000  0.92800000  1.0 0.0889458497
H  H50  1  0.42200000  0.19340000  0.57200000  1.0 0.0889458497
H  H51  1  0.07800000  0.69340000  0.07200000  1.0 0.0889458497
H  H52  1  0.42200000  0.19340000  0.42800000  1.0 0.0889458497
H  H53  1  0.21600000  0.69120000  0.93200000  1.0 0.0814299204
H  H54  1  0.28400000  0.19120000  0.56800000  1.0 0.0814299204
H  H55  1  0.21600000  0.69120000  0.06800000  1.0 0.0814299204
H  H56  1  0.28400000  0.19120000  0.43200000  1.0 0.0814299204
H  H57  1  0.71880000  0.43580000  0.10090000  1.0 0.0688363654
H  H58  1  0.78120000  0.93580000  0.39910000  1.0 0.0688363654
H  H59  1  0.71880000  0.43580000  0.89910000  1.0 0.0688363654
H  H60  1  0.78120000  0.93580000  0.60090000  1.0 0.0688363654
H  H61  1  0.73120000  0.36230000  0.16260000  1.0 0.0814299204
H  H62  1  0.76880000  0.86230000  0.33740000  1.0 0.0814299204
H  H63  1  0.73120000  0.36230000  0.83740000  1.0 0.0814299204
H  H64  1  0.76880000  0.86230000  0.66260000  1.0 0.0814299204
H  H65  1  0.79890000  0.48770000  0.26340000  1.0 0.0889458497
H  H66  1  0.70110000  0.98770000  0.23660000  1.0 0.0889458497
H  H67  1  0.79890000  0.48770000  0.73660000  1.0 0.0889458497
H  H68  1  0.70110000  0.98770000  0.76340000  1.0 0.0889458497
H  H69  1  0.80100000  0.55300000  0.19740000  1.0 0.0814299204
H  H70  1  0.69900000  0.05300000  0.30260000  1.0 0.0814299204
H  H71  1  0.80100000  0.55300000  0.80260000  1.0 0.0814299204
H  H72  1  0.69900000  0.05300000  0.69740000  1.0 0.0814299204
H  H73  1  0.32910000  0.53860000  0.12380000  1.0 0.0688363654
H  H74  1  0.17090000  0.03860000  0.37620000  1.0 0.0688363654
H  H75  1  0.32910000  0.53860000  0.87620000  1.0 0.0688363654
H  H76  1  0.17090000  0.03860000  0.62380000  1.0 0.0688363654
H  H77  1  0.31880000  0.61200000  0.18540000  1.0 0.0814299204
H  H78  1  0.18120000  0.11200000  0.31460000  1.0 0.0814299204
H  H79  1  0.31880000  0.61200000  0.81460000  1.0 0.0814299204
H  H80  1  0.18120000  0.11200000  0.68540000  1.0 0.0814299204
H  H81  1  0.13230000  0.54250000  0.24760000  1.0 0.0889458497
H  H82  1  0.36770000  0.04250000  0.25240000  1.0 0.0889458497
H  H83  1  0.13230000  0.54250000  0.75240000  1.0 0.0889458497
H  H84  1  0.36770000  0.04250000  0.74760000  1.0 0.0889458497
H  H85  1  0.13730000  0.46540000  0.18510000  1.0 0.0814299204
H  H86  1  0.36270000  0.96540000  0.31490000  1.0 0.0814299204
H  H87  1  0.13730000  0.46540000  0.81490000  1.0 0.0814299204
H  H88  1  0.36270000  0.96540000  0.68510000  1.0 0.0814299204
H  H89  1  0.31970000  0.66890000  0.23600000  1.0 0.1035200324
H  H90  1  0.18030000  0.16890000  0.26400000  1.0 0.1035200324
H  H91  1  0.31970000  0.66890000  0.76400000  1.0 0.1035200324
H  H92  1  0.18030000  0.16890000  0.73600000  1.0 0.1035200324
H  H93  1  0.33010000  0.73900000  0.30630000  1.0 0.1197333164
H  H94  1  0.16990000  0.23900000  0.19370000  1.0 0.1197333164
H  H95  1  0.33010000  0.73900000  0.69370000  1.0 0.1197333164
H  H96  1  0.16990000  0.23900000  0.80630000  1.0 0.1197333164
H  H97  1  0.16360000  0.64730000  0.38370000  1.0 0.1197333164
H  H98  1  0.33640000  0.14730000  0.11630000  1.0 0.1197333164
H  H99  1  0.16360000  0.64730000  0.61630000  1.0 0.1197333164
H  H100  1  0.33640000  0.14730000  0.88370000  1.0 0.1197333164
H  H101  1  0.15590000  0.58590000  0.31230000  1.0 0.1035200324
H  H102  1  0.34410000  0.08590000  0.18770000  1.0 0.1035200324
H  H103  1  0.15590000  0.58590000  0.68770000  1.0 0.1035200324
H  H104  1  0.34410000  0.08590000  0.81230000  1.0 0.1060945686
H  H105  1  0.54070000  0.27150000  0.00000000  1.0 0.1197333164
H  H106  1  0.95930000  0.77150000  0.50000000  1.0 0.1197333164
H  H107  1  0.67080000  0.27260000  0.00000000  1.0 0.1310839475
H  H108  1  0.82920000  0.77260000  0.50000000  1.0 0.1310839475
H  H109  1  0.67410000  0.44100000  0.00000000  1.0 0.1310839475
H  H110  1  0.82590000  0.94100000  0.50000000  1.0 0.1310839475
H  H111  1  0.54110000  0.44340000  0.00000000  1.0 0.1197333164
H  H112  1  0.95890000  0.94340000  0.50000000  1.0 0.1197333164
H  H113  1  0.79420000  0.41260000  0.05570000  1.0 0.0889458497
H  H114  1  0.70580000  0.91260000  0.44430000  1.0 0.0889458497
H  H115  1  0.79420000  0.41260000  0.94430000  1.0 0.0889458497
H  H116  1  0.70580000  0.91260000  0.55570000  1.0 0.0889458497
H  H117  1  0.92270000  0.40670000  0.05410000  1.0 0.1060945686
H  H118  1  0.57730000  0.90670000  0.44590000  1.0 0.1060945686
H  H119  1  0.92270000  0.40670000  0.94590000  1.0 0.1060945686
H  H120  1  0.57730000  0.90670000  0.55410000  1.0 0.1060945686
H  H121  1  0.92200000  0.30660000  0.92800000  1.0 0.0889458497
H  H122  1  0.57800000  0.80660000  0.57200000  1.0 0.0889458497
H  H123  1  0.92200000  0.30660000  0.07200000  1.0 0.0889458497
H  H124  1  0.57800000  0.80660000  0.42800000  1.0 0.0889458497
H  H125  1  0.78400000  0.30880000  0.93200000  1.0 0.0814299204
H  H126  1  0.71600000  0.80880000  0.56800000  1.0 0.0814299204
H  H127  1  0.78400000  0.30880000  0.06800000  1.0 0.0814299204
H  H128  1  0.71600000  0.80880000  0.43200000  1.0 0.0814299204
H  H129  1  0.28120000  0.56420000  0.10090000  1.0 0.0688363654
H  H130  1  0.21880000  0.06420000  0.39910000  1.0 0.0688363654
H  H131  1  0.28120000  0.56420000  0.89910000  1.0 0.0688363654
H  H132  1  0.21880000  0.06420000  0.60090000  1.0 0.0688363654
H  H133  1  0.26880000  0.63770000  0.16260000  1.0 0.0814299204
H  H134  1  0.23120000  0.13770000  0.33740000  1.0 0.0814299204
H  H135  1  0.26880000  0.63770000  0.83740000  1.0 0.0814299204
H  H136  1  0.23120000  0.13770000  0.66260000  1.0 0.0814299204
H  H137  1  0.20110000  0.51230000  0.26340000  1.0 0.0889458497
H  H138  1  0.29890000  0.01230000  0.23660000  1.0 0.0889458497
H  H139  1  0.20110000  0.51230000  0.73660000  1.0 0.0889458497
H  H140  1  0.29890000  0.01230000  0.76340000  1.0 0.0889458497
H  H141  1  0.19900000  0.44700000  0.19740000  1.0 0.0814299204
H  H142  1  0.30100000  0.94700000  0.30260000  1.0 0.0814299204
H  H143  1  0.19900000  0.44700000  0.80260000  1.0 0.0814299204
H  H144  1  0.30100000  0.94700000  0.69740000  1.0 0.0814299204
C  C1  1  0.76930000  0.54250000  0.09910000  1.0 0.5315853478
C  C2  1  0.73070000  0.04250000  0.40090000  1.0 0.5315853478
C  C3  1  0.76930000  0.54250000  0.90090000  1.0 0.5315853478
C  C4  1  0.73070000  0.04250000  0.59910000  1.0 0.5315853478
C  C5  1  0.76980000  0.49990000  0.14150000  1.0 -0.0426749204
C  C6  1  0.73020000  0.99990000  0.35850000  1.0 -0.0426749204
C  C7  1  0.76980000  0.49990000  0.85850000  1.0 -0.0426749204
C  C8  1  0.73020000  0.99990000  0.64150000  1.0 -0.0426749204
C  C9  1  0.76770000  0.41980000  0.22550000  1.0 0.0094761185
C  C10  1  0.73230000  0.91980000  0.27450000  1.0 0.0094761185
C  C11  1  0.76770000  0.41980000  0.77450000  1.0 0.0094761185
C  C12  1  0.73230000  0.91980000  0.72550000  1.0 0.0094761185
C  C13  1  0.71290000  0.46060000  0.14670000  1.0 -0.0533400207
C  C14  1  0.78710000  0.96060000  0.35330000  1.0 -0.0533400207
C  C15  1  0.71290000  0.46060000  0.85330000  1.0 -0.0533400207
C  C16  1  0.78710000  0.96060000  0.64670000  1.0 -0.0533400207
C  C17  1  0.71640000  0.41830000  0.18650000  1.0 -0.0592118165
C  C18  1  0.78360000  0.91830000  0.31350000  1.0 -0.0592118165
C  C19  1  0.71640000  0.41830000  0.81350000  1.0 -0.0592118165
C  C20  1  0.78360000  0.91830000  0.68650000  1.0 -0.0592118165
C  C21  1  0.82740000  0.45960000  0.22340000  1.0 -0.0592118165
C  C22  1  0.67260000  0.95960000  0.27660000  1.0 -0.0592118165
C  C23  1  0.82740000  0.45960000  0.77660000  1.0 -0.0592118165
C  C24  1  0.67260000  0.95960000  0.72340000  1.0 -0.0592118165
C  C25  1  0.82750000  0.50430000  0.18380000  1.0 -0.0426749204
C  C26  1  0.67250000  0.00430000  0.31620000  1.0 -0.0426749204
C  C27  1  0.82750000  0.50430000  0.81620000  1.0 -0.0426749204
C  C28  1  0.67250000  0.00430000  0.68380000  1.0 -0.0426749204
C  C29  1  0.76390000  0.37950000  0.26850000  1.0 0.0588072198
C  C30  1  0.73610000  0.87950000  0.23150000  1.0 0.0588072198
C  C31  1  0.76390000  0.37950000  0.73150000  1.0 0.0588072198
C  C32  1  0.73610000  0.87950000  0.76850000  1.0 0.0588072198
C  C33  1  0.71190000  0.33440000  0.26540000  1.0 -0.1596031582
C  C34  1  0.78810000  0.83440000  0.23460000  1.0 -0.1596031582
C  C35  1  0.71190000  0.33440000  0.73460000  1.0 -0.1596031582
C  C36  1  0.78810000  0.83440000  0.76540000  1.0 -0.1596031582
C  C37  1  0.70540000  0.29110000  0.30780000  1.0 -0.1000704694
C  C38  1  0.79460000  0.79110000  0.19220000  1.0 -0.1000704694
C  C39  1  0.70540000  0.29110000  0.69220000  1.0 -0.1000704694
C  C40  1  0.79460000  0.79110000  0.80780000  1.0 -0.1000704694
C  C41  1  0.75820000  0.29830000  0.35230000  1.0 -0.0592118165
C  C42  1  0.74180000  0.79830000  0.14770000  1.0 -0.0592118165
C  C43  1  0.75820000  0.29830000  0.64770000  1.0 -0.0592118165
C  C44  1  0.74180000  0.79830000  0.85230000  1.0 -0.0592118165
C  C45  1  0.80610000  0.34580000  0.35420000  1.0 -0.0906355373
C  C46  1  0.69390000  0.84580000  0.14580000  1.0 -0.0906355373
C  C47  1  0.80610000  0.34580000  0.64580000  1.0 -0.0906355373
C  C48  1  0.69390000  0.84580000  0.85420000  1.0 -0.0906355373
C  C49  1  0.80880000  0.38400000  0.31100000  1.0 -0.1520877827
C  C50  1  0.69120000  0.88400000  0.18900000  1.0 -0.1520877827
C  C51  1  0.80880000  0.38400000  0.68900000  1.0 -0.1520877827
C  C52  1  0.69120000  0.88400000  0.81100000  1.0 -0.1520877827
C  C53  1  0.75350000  0.25640000  0.39580000  1.0 0.5920046489
C  C54  1  0.74650000  0.75640000  0.10420000  1.0 0.5920046489
C  C55  1  0.75350000  0.25640000  0.60420000  1.0 0.5920046489
C  C56  1  0.74650000  0.75640000  0.89580000  1.0 0.5920046489
C  C57  1  0.56160000  0.64450000  0.00000000  1.0 0.5920046489
C  C58  1  0.93840000  0.14450000  0.50000000  1.0 0.5920046489
C  C59  1  0.47750000  0.64160000  0.00000000  1.0 -0.0654140218
C  C60  1  0.02250000  0.14160000  0.50000000  1.0 -0.0654140218
C  C61  1  0.43360000  0.69330000  0.00000000  1.0 -0.082897748
C  C62  1  0.06640000  0.19330000  0.50000000  1.0 -0.082897748
C  C63  1  0.35570000  0.69260000  0.00000000  1.0 -0.1520877827
C  C64  1  0.14430000  0.19260000  0.50000000  1.0 -0.1520877827
C  C65  1  0.31280000  0.64100000  0.00000000  1.0 0.0688363654
C  C66  1  0.18720000  0.14100000  0.50000000  1.0 0.0688363654
C  C67  1  0.35260000  0.59380000  0.00000000  1.0 -0.1671705796
C  C68  1  0.14740000  0.09380000  0.50000000  1.0 -0.1671705796
C  C69  1  0.43390000  0.59200000  0.00000000  1.0 -0.1000704694
C  C70  1  0.06610000  0.09200000  0.50000000  1.0 -0.1000704694
C  C71  1  0.22540000  0.64300000  0.00000000  1.0 0.0452901227
C  C72  1  0.27460000  0.14300000  0.50000000  1.0 0.0452901227
C  C73  1  0.06370000  0.64650000  0.00000000  1.0 0.0094761185
C  C74  1  0.43630000  0.14650000  0.50000000  1.0 0.0094761185
C  C75  1  0.97610000  0.64410000  0.00000000  1.0 0.5617419602
C  C76  1  0.52390000  0.14410000  0.50000000  1.0 0.5617419602
C  C77  1  0.18240000  0.61210000  0.03180000  1.0 -0.0592118165
C  C78  1  0.31760000  0.11210000  0.46820000  1.0 -0.0592118165
C  C79  1  0.18240000  0.61210000  0.96820000  1.0 -0.0592118165
C  C80  1  0.31760000  0.11210000  0.53180000  1.0 -0.0592118165
C  C81  1  0.10420000  0.61600000  0.03010000  1.0 -0.0300293314
C  C82  1  0.39580000  0.11600000  0.46990000  1.0 -0.0300293314
C  C83  1  0.10420000  0.61600000  0.96990000  1.0 -0.0300293314
C  C84  1  0.39580000  0.11600000  0.53010000  1.0 -0.0300293314
C  C85  1  0.10440000  0.67540000  0.95530000  1.0 -0.1056637085
C  C86  1  0.39560000  0.17540000  0.54470000  1.0 -0.1056637085
C  C87  1  0.10440000  0.67540000  0.04470000  1.0 -0.1056637085
C  C88  1  0.39560000  0.17540000  0.45530000  1.0 -0.1056637085
C  C89  1  0.18670000  0.67310000  0.95790000  1.0 -0.1000704694
C  C90  1  0.31330000  0.17310000  0.54210000  1.0 -0.1000704694
C  C91  1  0.18670000  0.67310000  0.04210000  1.0 -0.1000704694
C  C92  1  0.31330000  0.17310000  0.45790000  1.0 -0.1000704694
C  C93  1  0.92000000  0.76480000  0.00220000  1.0 0.1618085587
C  C94  1  0.58000000  0.26480000  0.49780000  1.0 0.1618085587
C  C95  1  0.92000000  0.76480000  0.99780000  1.0 0.1618085587
C  C96  1  0.58000000  0.26480000  0.50220000  1.0 0.1618085587
C  C97  1  0.02710000  0.83800000  0.00000000  1.0 0.0281799002
C  C98  1  0.47290000  0.33800000  0.50000000  1.0 0.0281799002
C  C99  1  0.88380000  0.85430000  0.00000000  1.0 -0.2555066227
C  C100  1  0.61620000  0.35430000  0.50000000  1.0 -0.2546602963
C  C101  1  0.74100000  0.44400000  0.13330000  1.0 -0.0533400207
C  C102  1  0.75900000  0.94400000  0.36670000  1.0 -0.0533400207
C  C103  1  0.74100000  0.44400000  0.86670000  1.0 -0.0533400207
C  C104  1  0.75900000  0.94400000  0.63330000  1.0 -0.0533400207
C  C105  1  0.74340000  0.40040000  0.17050000  1.0 -0.0592118165
C  C106  1  0.75660000  0.90040000  0.32950000  1.0 -0.0592118165
C  C107  1  0.74340000  0.40040000  0.82950000  1.0 -0.0592118165
C  C108  1  0.75660000  0.90040000  0.67050000  1.0 -0.0592118165
C  C109  1  0.78590000  0.47480000  0.22990000  1.0 -0.0300293314
C  C110  1  0.71410000  0.97480000  0.27010000  1.0 -0.0300293314
C  C111  1  0.78590000  0.47480000  0.77010000  1.0 -0.0300293314
C  C112  1  0.71410000  0.97480000  0.72990000  1.0 -0.0300293314
C  C113  1  0.78750000  0.51510000  0.19010000  1.0 -0.0592118165
C  C114  1  0.71250000  0.01510000  0.30990000  1.0 -0.0592118165
C  C115  1  0.78750000  0.51510000  0.80990000  1.0 -0.0592118165
C  C116  1  0.71250000  0.01510000  0.69010000  1.0 -0.0592118165
C  C117  1  0.23070000  0.45750000  0.09910000  1.0 0.5315853478
C  C118  1  0.26930000  0.95750000  0.40090000  1.0 0.5315853478
C  C119  1  0.23070000  0.45750000  0.90090000  1.0 0.5315853478
C  C120  1  0.26930000  0.95750000  0.59910000  1.0 0.5315853478
C  C121  1  0.23020000  0.50010000  0.14150000  1.0 -0.0426749204
C  C122  1  0.26980000  0.00010000  0.35850000  1.0 -0.0426749204
C  C123  1  0.23020000  0.50010000  0.85850000  1.0 -0.0426749204
C  C124  1  0.26980000  0.00010000  0.64150000  1.0 -0.0426749204
C  C125  1  0.23230000  0.58020000  0.22550000  1.0 0.0094761185
C  C126  1  0.26770000  0.08020000  0.27450000  1.0 0.0094761185
C  C127  1  0.23230000  0.58020000  0.77450000  1.0 0.0094761185
C  C128  1  0.26770000  0.08020000  0.72550000  1.0 0.0094761185
C  C129  1  0.28710000  0.53940000  0.14670000  1.0 -0.0533400207
C  C130  1  0.21290000  0.03940000  0.35330000  1.0 -0.0533400207
C  C131  1  0.28710000  0.53940000  0.85330000  1.0 -0.0533400207
C  C132  1  0.21290000  0.03940000  0.64670000  1.0 -0.0533400207
C  C133  1  0.28360000  0.58170000  0.18650000  1.0 -0.0592118165
C  C134  1  0.21640000  0.08170000  0.31350000  1.0 -0.0592118165
C  C135  1  0.28360000  0.58170000  0.81350000  1.0 -0.0592118165
C  C136  1  0.21640000  0.08170000  0.68650000  1.0 -0.0592118165
C  C137  1  0.17260000  0.54040000  0.22340000  1.0 -0.0592118165
C  C138  1  0.32740000  0.04040000  0.27660000  1.0 -0.0592118165
C  C139  1  0.17260000  0.54040000  0.77660000  1.0 -0.0592118165
C  C140  1  0.32740000  0.04040000  0.72340000  1.0 -0.0592118165
C  C141  1  0.17250000  0.49570000  0.18380000  1.0 -0.0426749204
C  C142  1  0.32750000  0.99570000  0.31620000  1.0 -0.0426749204
C  C143  1  0.17250000  0.49570000  0.81620000  1.0 -0.0426749204
C  C144  1  0.32750000  0.99570000  0.68380000  1.0 -0.0426749204
C  C145  1  0.23610000  0.62050000  0.26850000  1.0 0.0588072198
C  C146  1  0.26390000  0.12050000  0.23150000  1.0 0.0588072198
C  C147  1  0.23610000  0.62050000  0.73150000  1.0 0.0588072198
C  C148  1  0.26390000  0.12050000  0.76850000  1.0 0.0588072198
C  C149  1  0.28810000  0.66560000  0.26540000  1.0 -0.1671705796
C  C150  1  0.21190000  0.16560000  0.23460000  1.0 -0.1671705796
C  C151  1  0.28810000  0.66560000  0.73460000  1.0 -0.1671705796
C  C152  1  0.21190000  0.16560000  0.76540000  1.0 -0.1671705796
C  C153  1  0.29460000  0.70890000  0.30780000  1.0 -0.1000704694
C  C154  1  0.20540000  0.20890000  0.19220000  1.0 -0.1000704694
C  C155  1  0.29460000  0.70890000  0.69220000  1.0 -0.1000704694
C  C156  1  0.20540000  0.20890000  0.80780000  1.0 -0.1000704694
C  C157  1  0.24180000  0.70170000  0.35230000  1.0 -0.0592118165
C  C158  1  0.25820000  0.20170000  0.14770000  1.0 -0.0592118165
C  C159  1  0.24180000  0.70170000  0.64770000  1.0 -0.0592118165
C  C160  1  0.25820000  0.20170000  0.85230000  1.0 -0.0592118165
C  C161  1  0.19390000  0.65420000  0.35420000  1.0 -0.0906355373
C  C162  1  0.30610000  0.15420000  0.14580000  1.0 -0.0906355373
C  C163  1  0.19390000  0.65420000  0.64580000  1.0 -0.0906355373
C  C164  1  0.30610000  0.15420000  0.85420000  1.0 -0.0906355373
C  C165  1  0.19120000  0.61600000  0.31100000  1.0 -0.1520877827
C  C166  1  0.30880000  0.11600000  0.18900000  1.0 -0.1520877827
C  C167  1  0.19120000  0.61600000  0.68900000  1.0 -0.1520877827
C  C168  1  0.30880000  0.11600000  0.81100000  1.0 -0.1520877827
C  C169  1  0.24650000  0.74360000  0.39580000  1.0 0.5920046489
C  C170  1  0.25350000  0.24360000  0.10420000  1.0 0.5920046489
C  C171  1  0.24650000  0.74360000  0.60420000  1.0 0.5920046489
C  C172  1  0.25350000  0.24360000  0.89580000  1.0 0.5920046489
C  C173  1  0.43840000  0.35550000  0.00000000  1.0 0.5920046489
C  C174  1  0.06160000  0.85550000  0.50000000  1.0 0.5920046489
C  C175  1  0.52250000  0.35840000  0.00000000  1.0 -0.0654140218
C  C176  1  0.97750000  0.85840000  0.50000000  1.0 -0.0654140218
C  C177  1  0.56640000  0.30670000  0.00000000  1.0 -0.082897748
C  C178  1  0.93360000  0.80670000  0.50000000  1.0 -0.082897748
C  C179  1  0.64430000  0.30740000  0.00000000  1.0 -0.1520877827
C  C180  1  0.85570000  0.80740000  0.50000000  1.0 -0.1520877827
C  C181  1  0.68720000  0.35900000  0.00000000  1.0 0.0688363654
C  C182  1  0.81280000  0.85900000  0.50000000  1.0 0.0688363654
C  C183  1  0.64740000  0.40620000  0.00000000  1.0 -0.1671705796
C  C184  1  0.85260000  0.90620000  0.50000000  1.0 -0.1671705796
C  C185  1  0.56610000  0.40800000  0.00000000  1.0 -0.1000704694
C  C186  1  0.93390000  0.90800000  0.50000000  1.0 -0.1000704694
C  C187  1  0.77460000  0.35700000  0.00000000  1.0 0.0452901227
C  C188  1  0.72540000  0.85700000  0.50000000  1.0 0.0452901227
C  C189  1  0.93630000  0.35350000  0.00000000  1.0 0.0094761185
C  C190  1  0.56370000  0.85350000  0.50000000  1.0 0.0094761185
C  C191  1  0.02390000  0.35590000  0.00000000  1.0 0.5617419602
C  C192  1  0.47610000  0.85590000  0.50000000  1.0 0.5617419602
C  C193  1  0.81760000  0.38790000  0.03180000  1.0 -0.0592118165
C  C194  1  0.68240000  0.88790000  0.46820000  1.0 -0.0592118165
C  C195  1  0.81760000  0.38790000  0.96820000  1.0 -0.0592118165
C  C196  1  0.68240000  0.88790000  0.53180000  1.0 -0.0592118165
C  C197  1  0.89580000  0.38400000  0.03010000  1.0 -0.0300293314
C  C198  1  0.60420000  0.88400000  0.46990000  1.0 -0.0300293314
C  C199  1  0.89580000  0.38400000  0.96990000  1.0 -0.0300293314
C  C200  1  0.60420000  0.88400000  0.53010000  1.0 -0.0300293314
C  C201  1  0.89560000  0.32460000  0.95530000  1.0 -0.1056637085
C  C202  1  0.60440000  0.82460000  0.54470000  1.0 -0.1056637085
C  C203  1  0.89560000  0.32460000  0.04470000  1.0 -0.1056637085
C  C204  1  0.60440000  0.82460000  0.45530000  1.0 -0.1056637085
C  C205  1  0.81330000  0.32690000  0.95790000  1.0 -0.1000704694
C  C206  1  0.68670000  0.82690000  0.54210000  1.0 -0.1000704694
C  C207  1  0.81330000  0.32690000  0.04210000  1.0 -0.1000704694
C  C208  1  0.68670000  0.82690000  0.45790000  1.0 -0.1000704694
C  C209  1  0.08000000  0.23520000  0.00220000  1.0 0.1618085587
C  C210  1  0.42000000  0.73520000  0.49780000  1.0 0.1618085587
C  C211  1  0.08000000  0.23520000  0.99780000  1.0 0.1618085587
C  C212  1  0.42000000  0.73520000  0.50220000  1.0 0.1618085587
C  C213  1  0.97290000  0.16200000  0.00000000  1.0 0.0281799002
C  C214  1  0.52710000  0.66200000  0.50000000  1.0 0.0281799002
C  C215  1  0.11620000  0.14570000  0.00000000  1.0 -0.2546602963
C  C216  1  0.38380000  0.64570000  0.50000000  1.0 -0.2555066227
C  C217  1  0.25900000  0.55600000  0.13330000  1.0 -0.0533400207
C  C218  1  0.24100000  0.05600000  0.36670000  1.0 -0.0533400207
C  C219  1  0.25900000  0.55600000  0.86670000  1.0 -0.0533400207
C  C220  1  0.24100000  0.05600000  0.63330000  1.0 -0.0533400207
C  C221  1  0.25660000  0.59960000  0.17050000  1.0 -0.0654140218
C  C222  1  0.24340000  0.09960000  0.32950000  1.0 -0.0654140218
C  C223  1  0.25660000  0.59960000  0.82950000  1.0 -0.0654140218
C  C224  1  0.24340000  0.09960000  0.67050000  1.0 -0.0654140218
C  C225  1  0.21410000  0.52520000  0.22990000  1.0 -0.0300293314
C  C226  1  0.28590000  0.02520000  0.27010000  1.0 -0.0300293314
C  C227  1  0.21410000  0.52520000  0.77010000  1.0 -0.0300293314
C  C228  1  0.28590000  0.02520000  0.72990000  1.0 -0.0300293314
C  C229  1  0.21250000  0.48490000  0.19010000  1.0 -0.0592118165
C  C230  1  0.28750000  0.98490000  0.30990000  1.0 -0.0592118165
C  C231  1  0.21250000  0.48490000  0.80990000  1.0 -0.0592118165
C  C232  1  0.28750000  0.98490000  0.69010000  1.0 -0.0592118165
N  N1  1  0.94940000  0.81670000  0.00000000  1.0 -0.1864382877
N  N2  1  0.55060000  0.31670000  0.50000000  1.0 -0.1864382877
N  N3  1  0.05060000  0.18330000  0.00000000  1.0 -0.1864382877
N  N4  1  0.44940000  0.68330000  0.50000000  1.0 -0.1864382877
O  O1  1  0.77000000  0.65296000  0.00000000  1.0 -0.9962818055
O  O2  1  0.73000000  0.15296000  0.50000000  1.0 -0.9962818055
O  O3  1  0.72580000  0.53456000  0.06099000  1.0 -0.4906127258
O  O4  1  0.77420000  0.03456000  0.43901000  1.0 -0.4906127258
O  O5  1  0.72580000  0.53456000  0.93901000  1.0 -0.4906127258
O  O6  1  0.77420000  0.03456000  0.56099000  1.0 -0.4906127258
O  O7  1  0.81500000  0.58559000  0.10325000  1.0 -0.4906127258
O  O8  1  0.68500000  0.08559000  0.39675000  1.0 -0.4906127258
O  O9  1  0.81500000  0.58559000  0.89675000  1.0 -0.4906127258
O  O10  1  0.68500000  0.08559000  0.60325000  1.0 -0.4906127258
O  O11  1  0.79440000  0.26860000  0.43780000  1.0 -0.5422722398
O  O12  1  0.70560000  0.76860000  0.06220000  1.0 -0.5422722398
O  O13  1  0.79440000  0.26860000  0.56220000  1.0 -0.5422722398
O  O14  1  0.70560000  0.76860000  0.93780000  1.0 -0.5422722398
O  O15  1  0.70810000  0.21360000  0.38970000  1.0 -0.5422722398
O  O16  1  0.79190000  0.71360000  0.11030000  1.0 -0.5422722398
O  O17  1  0.70810000  0.21360000  0.61030000  1.0 -0.5422722398
O  O18  1  0.79190000  0.71360000  0.88970000  1.0 -0.5422722398
O  O19  1  0.59650000  0.59440000  0.00000000  1.0 -0.5550408243
O  O20  1  0.90350000  0.09440000  0.50000000  1.0 -0.5550408243
O  O21  1  0.59510000  0.69270000  0.00000000  1.0 -0.5422722398
O  O22  1  0.90490000  0.19270000  0.50000000  1.0 -0.5422722398
O  O23  1  0.94330000  0.64620000  0.04210000  1.0 -0.4837164461
O  O24  1  0.55670000  0.14620000  0.45790000  1.0 -0.4837164461
O  O25  1  0.94330000  0.64620000  0.95790000  1.0 -0.4837164461
O  O26  1  0.55670000  0.14620000  0.54210000  1.0 -0.4837164461
O  O27  1  0.86690000  0.74550000  0.97500000  1.0 -0.1596031582
O  O28  1  0.63310000  0.24550000  0.52500000  1.0 -0.1596031582
O  O29  1  0.86690000  0.74550000  0.02500000  1.0 -0.1596031582
O  O30  1  0.63310000  0.24550000  0.47500000  1.0 -0.1596031582
O  O31  1  0.23000000  0.34704000  0.00000000  1.0 -0.9962818055
O  O32  1  0.27000000  0.84704000  0.50000000  1.0 -0.9962818055
O  O33  1  0.27420000  0.46544000  0.06099000  1.0 -0.4906127258
O  O34  1  0.22580000  0.96544000  0.43901000  1.0 -0.4906127258
O  O35  1  0.27420000  0.46544000  0.93901000  1.0 -0.4906127258
O  O36  1  0.22580000  0.96544000  0.56099000  1.0 -0.4906127258
O  O37  1  0.18500000  0.41441000  0.10325000  1.0 -0.4906127258
O  O38  1  0.31500000  0.91441000  0.39675000  1.0 -0.4906127258
O  O39  1  0.18500000  0.41441000  0.89675000  1.0 -0.4906127258
O  O40  1  0.31500000  0.91441000  0.60325000  1.0 -0.4906127258
O  O41  1  0.20560000  0.73140000  0.43780000  1.0 -0.5422722398
O  O42  1  0.29440000  0.23140000  0.06220000  1.0 -0.5422722398
O  O43  1  0.20560000  0.73140000  0.56220000  1.0 -0.5422722398
O  O44  1  0.29440000  0.23140000  0.93780000  1.0 -0.5422722398
O  O45  1  0.29190000  0.78640000  0.38970000  1.0 -0.5422722398
O  O46  1  0.20810000  0.28640000  0.11030000  1.0 -0.5422722398
O  O47  1  0.29190000  0.78640000  0.61030000  1.0 -0.5422722398
O  O48  1  0.20810000  0.28640000  0.88970000  1.0 -0.5422722398
O  O49  1  0.40350000  0.40560000  0.00000000  1.0 -0.5545319199
O  O50  1  0.09650000  0.90560000  0.50000000  1.0 -0.5545319199
O  O51  1  0.40490000  0.30730000  0.00000000  1.0 -0.5422722398
O  O52  1  0.09510000  0.80730000  0.50000000  1.0 -0.5422722398
O  O53  1  0.05670000  0.35380000  0.04210000  1.0 -0.4837164461
O  O54  1  0.44330000  0.85380000  0.45790000  1.0 -0.4837164461
O  O55  1  0.05670000  0.35380000  0.95790000  1.0 -0.4837164461
O  O56  1  0.44330000  0.85380000  0.54210000  1.0 -0.4837164461
O  O57  1  0.13310000  0.25450000  0.97500000  1.0 -0.1520877827
O  O58  1  0.36690000  0.75450000  0.52500000  1.0 -0.1596031582
O  O59  1  0.13310000  0.25450000  0.02500000  1.0 -0.1520877827
O  O60  1  0.36690000  0.75450000  0.47500000  1.0 -0.1520877827
