# DDEC6 charges by PACMAN v1.1 (https://github.com/mtap-research/PACMAN-charge/)
data_GADMAA01_ASR_pacman
_symmetry_space_group_name_H-M   'P 1'
_cell_length_a   14.51020000
_cell_length_b   14.51020000
_cell_length_c   15.83200000
_cell_angle_alpha   90.00000000
_cell_angle_beta   90.00000000
_cell_angle_gamma   120.00000000
_symmetry_Int_Tables_number   1
_chemical_formula_structural   Gd2Zn3H24(C4O5)6
_chemical_formula_sum   'Gd4 Zn6 H48 C48 O60'
_cell_volume   2886.77682392
_cell_formula_units_Z   2
loop_
 _symmetry_equiv_pos_site_id
 _symmetry_equiv_pos_as_xyz
  1  'x, y, z'
loop_
 _atom_site_type_symbol
 _atom_site_label
 _atom_site_symmetry_multiplicity
 _atom_site_fract_x
 _atom_site_fract_y
 _atom_site_fract_z
 _atom_site_occupancy
 _atom_site_charge
Gd  Gd1  1  0.66666667  0.33333333  0.25000000  1.0 1.8751541201
Gd  Gd2  1  0.33333333  0.66666667  0.25000000  1.0 1.8751541201
Gd  Gd3  1  0.33333333  0.66666667  0.75000000  1.0 1.8751541201
Gd  Gd4  1  0.66666667  0.33333333  0.75000000  1.0 1.8751541201
Zn  Zn1  1  0.00000000  0.50000000  0.00000000  1.0 1.0008506798
Zn  Zn2  1  0.50000000  0.50000000  0.00000000  1.0 1.0008506798
Zn  Zn3  1  0.50000000  0.00000000  0.00000000  1.0 1.0008506798
Zn  Zn4  1  0.50000000  0.00000000  0.50000000  1.0 1.0008506798
Zn  Zn5  1  0.50000000  0.50000000  0.50000000  1.0 1.0008506798
Zn  Zn6  1  0.00000000  0.50000000  0.50000000  1.0 1.0008506798
H  H1  1  0.83370000  0.19660000  0.15920000  1.0 0.1363288436
H  H2  1  0.80340000  0.63710000  0.15920000  1.0 0.1363288436
H  H3  1  0.36290000  0.16630000  0.15920000  1.0 0.1363288436
H  H4  1  0.16630000  0.80340000  0.15920000  1.0 0.1363288436
H  H5  1  0.19660000  0.36290000  0.15920000  1.0 0.1363288436
H  H6  1  0.63710000  0.83370000  0.15920000  1.0 0.1363288436
H  H7  1  0.19660000  0.83370000  0.34080000  1.0 0.1363288436
H  H8  1  0.63710000  0.80340000  0.34080000  1.0 0.1363288436
H  H9  1  0.16630000  0.36290000  0.34080000  1.0 0.1363288436
H  H10  1  0.80340000  0.16630000  0.34080000  1.0 0.1363288436
H  H11  1  0.36290000  0.19660000  0.34080000  1.0 0.1363288436
H  H12  1  0.83370000  0.63710000  0.34080000  1.0 0.1363288436
H  H13  1  0.16630000  0.80340000  0.84080000  1.0 0.1363288436
H  H14  1  0.19660000  0.36290000  0.84080000  1.0 0.1363288436
H  H15  1  0.63710000  0.83370000  0.84080000  1.0 0.1363288436
H  H16  1  0.83370000  0.19660000  0.84080000  1.0 0.1363288436
H  H17  1  0.80340000  0.63710000  0.84080000  1.0 0.1363288436
H  H18  1  0.36290000  0.16630000  0.84080000  1.0 0.1363288436
H  H19  1  0.80340000  0.16630000  0.65920000  1.0 0.1363288436
H  H20  1  0.36290000  0.19660000  0.65920000  1.0 0.1363288436
H  H21  1  0.83370000  0.63710000  0.65920000  1.0 0.1363288436
H  H22  1  0.19660000  0.83370000  0.65920000  1.0 0.1363288436
H  H23  1  0.63710000  0.80340000  0.65920000  1.0 0.1363288436
H  H24  1  0.16630000  0.36290000  0.65920000  1.0 0.1363288436
H  H25  1  0.91570000  0.27900000  0.22700000  1.0 0.1169816727
H  H26  1  0.72100000  0.63670000  0.22700000  1.0 0.1169816727
H  H27  1  0.36330000  0.08430000  0.22700000  1.0 0.1169816727
H  H28  1  0.08430000  0.72100000  0.22700000  1.0 0.1169816727
H  H29  1  0.27900000  0.36330000  0.22700000  1.0 0.1169816727
H  H30  1  0.63670000  0.91570000  0.22700000  1.0 0.1169816727
H  H31  1  0.27900000  0.91570000  0.27300000  1.0 0.1169816727
H  H32  1  0.63670000  0.72100000  0.27300000  1.0 0.1169816727
H  H33  1  0.08430000  0.36330000  0.27300000  1.0 0.1169816727
H  H34  1  0.72100000  0.08430000  0.27300000  1.0 0.1169816727
H  H35  1  0.36330000  0.27900000  0.27300000  1.0 0.1169816727
H  H36  1  0.91570000  0.63670000  0.27300000  1.0 0.1169816727
H  H37  1  0.08430000  0.72100000  0.77300000  1.0 0.1169816727
H  H38  1  0.27900000  0.36330000  0.77300000  1.0 0.1169816727
H  H39  1  0.63670000  0.91570000  0.77300000  1.0 0.1169816727
H  H40  1  0.91570000  0.27900000  0.77300000  1.0 0.1169816727
H  H41  1  0.72100000  0.63670000  0.77300000  1.0 0.1169816727
H  H42  1  0.36330000  0.08430000  0.77300000  1.0 0.1169816727
H  H43  1  0.72100000  0.08430000  0.72700000  1.0 0.1169816727
H  H44  1  0.36330000  0.27900000  0.72700000  1.0 0.1169816727
H  H45  1  0.91570000  0.63670000  0.72700000  1.0 0.1169816727
H  H46  1  0.27900000  0.91570000  0.72700000  1.0 0.1169816727
H  H47  1  0.63670000  0.72100000  0.72700000  1.0 0.1169816727
H  H48  1  0.08430000  0.36330000  0.72700000  1.0 0.1169816727
C  C1  1  0.86800000  0.35020000  0.13900000  1.0 0.6361107974
C  C2  1  0.64980000  0.51780000  0.13900000  1.0 0.6361107974
C  C3  1  0.48220000  0.13200000  0.13900000  1.0 0.6361107974
C  C4  1  0.13200000  0.64980000  0.13900000  1.0 0.6361107974
C  C5  1  0.35020000  0.48220000  0.13900000  1.0 0.6361107974
C  C6  1  0.51780000  0.86800000  0.13900000  1.0 0.6361107974
C  C7  1  0.35020000  0.86800000  0.36100000  1.0 0.6361107974
C  C8  1  0.51780000  0.64980000  0.36100000  1.0 0.6361107974
C  C9  1  0.13200000  0.48220000  0.36100000  1.0 0.6361107974
C  C10  1  0.64980000  0.13200000  0.36100000  1.0 0.6361107974
C  C11  1  0.48220000  0.35020000  0.36100000  1.0 0.6361107974
C  C12  1  0.86800000  0.51780000  0.36100000  1.0 0.6361107974
C  C13  1  0.13200000  0.64980000  0.86100000  1.0 0.6361107974
C  C14  1  0.35020000  0.48220000  0.86100000  1.0 0.6361107974
C  C15  1  0.51780000  0.86800000  0.86100000  1.0 0.6361107974
C  C16  1  0.86800000  0.35020000  0.86100000  1.0 0.6361107974
C  C17  1  0.64980000  0.51780000  0.86100000  1.0 0.6361107974
C  C18  1  0.48220000  0.13200000  0.86100000  1.0 0.6361107974
C  C19  1  0.64980000  0.13200000  0.63900000  1.0 0.6361107974
C  C20  1  0.48220000  0.35020000  0.63900000  1.0 0.6361107974
C  C21  1  0.86800000  0.51780000  0.63900000  1.0 0.6361107974
C  C22  1  0.35020000  0.86800000  0.63900000  1.0 0.6361107974
C  C23  1  0.51780000  0.64980000  0.63900000  1.0 0.6361107974
C  C24  1  0.13200000  0.48220000  0.63900000  1.0 0.6361107974
C  C25  1  0.85030000  0.25950000  0.19440000  1.0 -0.1801623039
C  C26  1  0.74050000  0.59080000  0.19440000  1.0 -0.1801623039
C  C27  1  0.40920000  0.14970000  0.19440000  1.0 -0.1801623039
C  C28  1  0.14970000  0.74050000  0.19440000  1.0 -0.1801623039
C  C29  1  0.25950000  0.40920000  0.19440000  1.0 -0.1801623039
C  C30  1  0.59080000  0.85030000  0.19440000  1.0 -0.1801623039
C  C31  1  0.25950000  0.85030000  0.30560000  1.0 -0.1801623039
C  C32  1  0.59080000  0.74050000  0.30560000  1.0 -0.1801623039
C  C33  1  0.14970000  0.40920000  0.30560000  1.0 -0.1801623039
C  C34  1  0.74050000  0.14970000  0.30560000  1.0 -0.1801623039
C  C35  1  0.40920000  0.25950000  0.30560000  1.0 -0.1801623039
C  C36  1  0.85030000  0.59080000  0.30560000  1.0 -0.1801623039
C  C37  1  0.14970000  0.74050000  0.80560000  1.0 -0.1801623039
C  C38  1  0.25950000  0.40920000  0.80560000  1.0 -0.1801623039
C  C39  1  0.59080000  0.85030000  0.80560000  1.0 -0.1801623039
C  C40  1  0.85030000  0.25950000  0.80560000  1.0 -0.1801623039
C  C41  1  0.74050000  0.59080000  0.80560000  1.0 -0.1801623039
C  C42  1  0.40920000  0.14970000  0.80560000  1.0 -0.1801623039
C  C43  1  0.74050000  0.14970000  0.69440000  1.0 -0.1801623039
C  C44  1  0.40920000  0.25950000  0.69440000  1.0 -0.1801623039
C  C45  1  0.85030000  0.59080000  0.69440000  1.0 -0.1801623039
C  C46  1  0.25950000  0.85030000  0.69440000  1.0 -0.1801623039
C  C47  1  0.59080000  0.74050000  0.69440000  1.0 -0.1801623039
C  C48  1  0.14970000  0.40920000  0.69440000  1.0 -0.1801623039
O  O1  1  0.94420000  0.38300000  0.09070000  1.0 -0.5434105323
O  O2  1  0.61700000  0.56120000  0.09070000  1.0 -0.5434105323
O  O3  1  0.43880000  0.05580000  0.09070000  1.0 -0.5434105323
O  O4  1  0.05580000  0.61700000  0.09070000  1.0 -0.5434105323
O  O5  1  0.38300000  0.43880000  0.09070000  1.0 -0.5434105323
O  O6  1  0.56120000  0.94420000  0.09070000  1.0 -0.5434105323
O  O7  1  0.38300000  0.94420000  0.40930000  1.0 -0.5434105323
O  O8  1  0.56120000  0.61700000  0.40930000  1.0 -0.5434105323
O  O9  1  0.05580000  0.43880000  0.40930000  1.0 -0.5434105323
O  O10  1  0.61700000  0.05580000  0.40930000  1.0 -0.5434105323
O  O11  1  0.43880000  0.38300000  0.40930000  1.0 -0.5434105323
O  O12  1  0.94420000  0.56120000  0.40930000  1.0 -0.5434105323
O  O13  1  0.05580000  0.61700000  0.90930000  1.0 -0.5434105323
O  O14  1  0.38300000  0.43880000  0.90930000  1.0 -0.5434105323
O  O15  1  0.56120000  0.94420000  0.90930000  1.0 -0.5434105323
O  O16  1  0.94420000  0.38300000  0.90930000  1.0 -0.5434105323
O  O17  1  0.61700000  0.56120000  0.90930000  1.0 -0.5434105323
O  O18  1  0.43880000  0.05580000  0.90930000  1.0 -0.5434105323
O  O19  1  0.61700000  0.05580000  0.59070000  1.0 -0.5434105323
O  O20  1  0.43880000  0.38300000  0.59070000  1.0 -0.5434105323
O  O21  1  0.94420000  0.56120000  0.59070000  1.0 -0.5434105323
O  O22  1  0.38300000  0.94420000  0.59070000  1.0 -0.5434105323
O  O23  1  0.56120000  0.61700000  0.59070000  1.0 -0.5434105323
O  O24  1  0.05580000  0.43880000  0.59070000  1.0 -0.5434105323
O  O25  1  0.80450000  0.38530000  0.14580000  1.0 -0.6172835108
O  O26  1  0.61470000  0.41920000  0.14580000  1.0 -0.6172835108
O  O27  1  0.58080000  0.19550000  0.14580000  1.0 -0.6172835108
O  O28  1  0.19550000  0.61470000  0.14580000  1.0 -0.6172835108
O  O29  1  0.38530000  0.58080000  0.14580000  1.0 -0.6172835108
O  O30  1  0.41920000  0.80450000  0.14580000  1.0 -0.6172835108
O  O31  1  0.38530000  0.80450000  0.35420000  1.0 -0.6172835108
O  O32  1  0.41920000  0.61470000  0.35420000  1.0 -0.6172835108
O  O33  1  0.19550000  0.58080000  0.35420000  1.0 -0.6172835108
O  O34  1  0.61470000  0.19550000  0.35420000  1.0 -0.6172835108
O  O35  1  0.58080000  0.38530000  0.35420000  1.0 -0.6172835108
O  O36  1  0.80450000  0.41920000  0.35420000  1.0 -0.6172835108
O  O37  1  0.19550000  0.61470000  0.85420000  1.0 -0.6172835108
O  O38  1  0.38530000  0.58080000  0.85420000  1.0 -0.6172835108
O  O39  1  0.41920000  0.80450000  0.85420000  1.0 -0.6172835108
O  O40  1  0.80450000  0.38530000  0.85420000  1.0 -0.6172835108
O  O41  1  0.61470000  0.41920000  0.85420000  1.0 -0.6172835108
O  O42  1  0.58080000  0.19550000  0.85420000  1.0 -0.6172835108
O  O43  1  0.61470000  0.19550000  0.64580000  1.0 -0.6172835108
O  O44  1  0.58080000  0.38530000  0.64580000  1.0 -0.6172835108
O  O45  1  0.80450000  0.41920000  0.64580000  1.0 -0.6172835108
O  O46  1  0.38530000  0.80450000  0.64580000  1.0 -0.6172835108
O  O47  1  0.41920000  0.61470000  0.64580000  1.0 -0.6172835108
O  O48  1  0.19550000  0.58080000  0.64580000  1.0 -0.6172835108
O  O49  1  0.76530000  0.23470000  0.25000000  1.0 -0.2226066466
O  O50  1  0.76530000  0.53060000  0.25000000  1.0 -0.2226066466
O  O51  1  0.46940000  0.23470000  0.25000000  1.0 -0.2226066466
O  O52  1  0.23470000  0.76530000  0.25000000  1.0 -0.2226066466
O  O53  1  0.23470000  0.46940000  0.25000000  1.0 -0.2226066466
O  O54  1  0.53060000  0.76530000  0.25000000  1.0 -0.2226066466
O  O55  1  0.23470000  0.76530000  0.75000000  1.0 -0.2226066466
O  O56  1  0.23470000  0.46940000  0.75000000  1.0 -0.2226066466
O  O57  1  0.53060000  0.76530000  0.75000000  1.0 -0.2226066466
O  O58  1  0.76530000  0.23470000  0.75000000  1.0 -0.2226066466
O  O59  1  0.76530000  0.53060000  0.75000000  1.0 -0.2226066466
O  O60  1  0.46940000  0.23470000  0.75000000  1.0 -0.2226066466
