# DDEC6 charges by PACMAN v1.1 (https://github.com/mtap-research/PACMAN-charge/)
data_GADMAA_ASR_pacman
_symmetry_space_group_name_H-M   'P 1'
_cell_length_a   14.51040000
_cell_length_b   14.51040000
_cell_length_c   15.77250000
_cell_angle_alpha   90.00000000
_cell_angle_beta   90.00000000
_cell_angle_gamma   120.00000000
_symmetry_Int_Tables_number   1
_chemical_formula_structural   Gd2Zn3H24(C4O5)6
_chemical_formula_sum   'Gd4 Zn6 H48 C48 O60'
_cell_volume   2876.00698759
_cell_formula_units_Z   2
loop_
 _symmetry_equiv_pos_site_id
 _symmetry_equiv_pos_as_xyz
  1  'x, y, z'
loop_
 _atom_site_type_symbol
 _atom_site_label
 _atom_site_symmetry_multiplicity
 _atom_site_fract_x
 _atom_site_fract_y
 _atom_site_fract_z
 _atom_site_occupancy
 _atom_site_charge
Gd  Gd1  1  0.66666667  0.33333333  0.25000000  1.0 1.8692011484
Gd  Gd2  1  0.33333333  0.66666667  0.25000000  1.0 1.8692011484
Gd  Gd3  1  0.33333333  0.66666667  0.75000000  1.0 1.8692011484
Gd  Gd4  1  0.66666667  0.33333333  0.75000000  1.0 1.8692011484
Zn  Zn1  1  0.00000000  0.50000000  0.50000000  1.0 1.0111103106
Zn  Zn2  1  0.50000000  0.50000000  0.50000000  1.0 1.0111103106
Zn  Zn3  1  0.50000000  0.00000000  0.50000000  1.0 1.0111103106
Zn  Zn4  1  0.50000000  0.00000000  0.00000000  1.0 1.0111103106
Zn  Zn5  1  0.50000000  0.50000000  0.00000000  1.0 1.0111103106
Zn  Zn6  1  0.00000000  0.50000000  0.00000000  1.0 1.0111103106
H  H1  1  0.83240000  0.63500000  0.33980000  1.0 0.1391740092
H  H2  1  0.36500000  0.19740000  0.33980000  1.0 0.1391740092
H  H3  1  0.80260000  0.16760000  0.33980000  1.0 0.1391740092
H  H4  1  0.63500000  0.80260000  0.33980000  1.0 0.1391740092
H  H5  1  0.19740000  0.83240000  0.33980000  1.0 0.1391740092
H  H6  1  0.63500000  0.83240000  0.16020000  1.0 0.1391740092
H  H7  1  0.19740000  0.36500000  0.16020000  1.0 0.1391740092
H  H8  1  0.16760000  0.80260000  0.16020000  1.0 0.1391740092
H  H9  1  0.36500000  0.16760000  0.16020000  1.0 0.1391740092
H  H10  1  0.80260000  0.63500000  0.16020000  1.0 0.1391740092
H  H11  1  0.83240000  0.19740000  0.16020000  1.0 0.1391740092
H  H12  1  0.16760000  0.36500000  0.33980000  1.0 0.1391740092
H  H13  1  0.16760000  0.36500000  0.66020000  1.0 0.1391740092
H  H14  1  0.63500000  0.80260000  0.66020000  1.0 0.1391740092
H  H15  1  0.19740000  0.83240000  0.66020000  1.0 0.1391740092
H  H16  1  0.36500000  0.19740000  0.66020000  1.0 0.1391740092
H  H17  1  0.80260000  0.16760000  0.66020000  1.0 0.1391740092
H  H18  1  0.36500000  0.16760000  0.83980000  1.0 0.1391740092
H  H19  1  0.80260000  0.63500000  0.83980000  1.0 0.1391740092
H  H20  1  0.83240000  0.19740000  0.83980000  1.0 0.1391740092
H  H21  1  0.63500000  0.83240000  0.83980000  1.0 0.1391740092
H  H22  1  0.19740000  0.36500000  0.83980000  1.0 0.1391740092
H  H23  1  0.16760000  0.80260000  0.83980000  1.0 0.1391740092
H  H24  1  0.83240000  0.63500000  0.66020000  1.0 0.1391740092
H  H25  1  0.91280000  0.63580000  0.27260000  1.0 0.1197136379
H  H26  1  0.36420000  0.27700000  0.27260000  1.0 0.1197136379
H  H27  1  0.72300000  0.08720000  0.27260000  1.0 0.1197136379
H  H28  1  0.63580000  0.72300000  0.27260000  1.0 0.1197136379
H  H29  1  0.27700000  0.91280000  0.27260000  1.0 0.1197136379
H  H30  1  0.63580000  0.91280000  0.22740000  1.0 0.1197136379
H  H31  1  0.27700000  0.36420000  0.22740000  1.0 0.1197136379
H  H32  1  0.08720000  0.72300000  0.22740000  1.0 0.1197136379
H  H33  1  0.36420000  0.08720000  0.22740000  1.0 0.1197136379
H  H34  1  0.72300000  0.63580000  0.22740000  1.0 0.1197136379
H  H35  1  0.91280000  0.27700000  0.22740000  1.0 0.1197136379
H  H36  1  0.08720000  0.36420000  0.27260000  1.0 0.1197136379
H  H37  1  0.08720000  0.36420000  0.72740000  1.0 0.1197136379
H  H38  1  0.63580000  0.72300000  0.72740000  1.0 0.1197136379
H  H39  1  0.27700000  0.91280000  0.72740000  1.0 0.1197136379
H  H40  1  0.36420000  0.27700000  0.72740000  1.0 0.1197136379
H  H41  1  0.72300000  0.08720000  0.72740000  1.0 0.1197136379
H  H42  1  0.36420000  0.08720000  0.77260000  1.0 0.1197136379
H  H43  1  0.72300000  0.63580000  0.77260000  1.0 0.1197136379
H  H44  1  0.91280000  0.27700000  0.77260000  1.0 0.1197136379
H  H45  1  0.63580000  0.91280000  0.77260000  1.0 0.1197136379
H  H46  1  0.27700000  0.36420000  0.77260000  1.0 0.1197136379
H  H47  1  0.08720000  0.72300000  0.77260000  1.0 0.1197136379
H  H48  1  0.91280000  0.63580000  0.72740000  1.0 0.1197136379
C  C1  1  0.86810000  0.51810000  0.36000000  1.0 0.6338177421
C  C2  1  0.48190000  0.35000000  0.36000000  1.0 0.6338177421
C  C3  1  0.65000000  0.13190000  0.36000000  1.0 0.6338177421
C  C4  1  0.51810000  0.65000000  0.36000000  1.0 0.6338177421
C  C5  1  0.35000000  0.86810000  0.36000000  1.0 0.6338177421
C  C6  1  0.51810000  0.86810000  0.14000000  1.0 0.6338177421
C  C7  1  0.35000000  0.48190000  0.14000000  1.0 0.6338177421
C  C8  1  0.13190000  0.65000000  0.14000000  1.0 0.6338177421
C  C9  1  0.48190000  0.13190000  0.14000000  1.0 0.6338177421
C  C10  1  0.65000000  0.51810000  0.14000000  1.0 0.6338177421
C  C11  1  0.86810000  0.35000000  0.14000000  1.0 0.6338177421
C  C12  1  0.13190000  0.48190000  0.36000000  1.0 0.6338177421
C  C13  1  0.13190000  0.48190000  0.64000000  1.0 0.6338177421
C  C14  1  0.51810000  0.65000000  0.64000000  1.0 0.6338177421
C  C15  1  0.35000000  0.86810000  0.64000000  1.0 0.6338177421
C  C16  1  0.48190000  0.35000000  0.64000000  1.0 0.6338177421
C  C17  1  0.65000000  0.13190000  0.64000000  1.0 0.6338177421
C  C18  1  0.48190000  0.13190000  0.86000000  1.0 0.6338177421
C  C19  1  0.65000000  0.51810000  0.86000000  1.0 0.6338177421
C  C20  1  0.86810000  0.35000000  0.86000000  1.0 0.6338177421
C  C21  1  0.51810000  0.86810000  0.86000000  1.0 0.6338177421
C  C22  1  0.35000000  0.48190000  0.86000000  1.0 0.6338177421
C  C23  1  0.13190000  0.65000000  0.86000000  1.0 0.6338177421
C  C24  1  0.86810000  0.51810000  0.64000000  1.0 0.6338177421
C  C25  1  0.84910000  0.59020000  0.30490000  1.0 -0.178885018
C  C26  1  0.40980000  0.25890000  0.30490000  1.0 -0.178885018
C  C27  1  0.74110000  0.15090000  0.30490000  1.0 -0.178885018
C  C28  1  0.59020000  0.74110000  0.30490000  1.0 -0.178885018
C  C29  1  0.25890000  0.84910000  0.30490000  1.0 -0.178885018
C  C30  1  0.59020000  0.84910000  0.19510000  1.0 -0.178885018
C  C31  1  0.25890000  0.40980000  0.19510000  1.0 -0.178885018
C  C32  1  0.15090000  0.74110000  0.19510000  1.0 -0.178885018
C  C33  1  0.40980000  0.15090000  0.19510000  1.0 -0.178885018
C  C34  1  0.74110000  0.59020000  0.19510000  1.0 -0.178885018
C  C35  1  0.84910000  0.25890000  0.19510000  1.0 -0.178885018
C  C36  1  0.15090000  0.40980000  0.30490000  1.0 -0.178885018
C  C37  1  0.15090000  0.40980000  0.69510000  1.0 -0.178885018
C  C38  1  0.59020000  0.74110000  0.69510000  1.0 -0.178885018
C  C39  1  0.25890000  0.84910000  0.69510000  1.0 -0.178885018
C  C40  1  0.40980000  0.25890000  0.69510000  1.0 -0.178885018
C  C41  1  0.74110000  0.15090000  0.69510000  1.0 -0.178885018
C  C42  1  0.40980000  0.15090000  0.80490000  1.0 -0.178885018
C  C43  1  0.74110000  0.59020000  0.80490000  1.0 -0.178885018
C  C44  1  0.84910000  0.25890000  0.80490000  1.0 -0.178885018
C  C45  1  0.59020000  0.84910000  0.80490000  1.0 -0.178885018
C  C46  1  0.25890000  0.40980000  0.80490000  1.0 -0.178885018
C  C47  1  0.15090000  0.74110000  0.80490000  1.0 -0.178885018
C  C48  1  0.84910000  0.59020000  0.69510000  1.0 -0.178885018
O  O1  1  0.80431000  0.41954000  0.35441000  1.0 -0.6166386457
O  O2  1  0.58046000  0.38477000  0.35441000  1.0 -0.6166386457
O  O3  1  0.61523000  0.19569000  0.35441000  1.0 -0.6166386457
O  O4  1  0.41954000  0.61523000  0.35441000  1.0 -0.6166386457
O  O5  1  0.38477000  0.80431000  0.35441000  1.0 -0.6166386457
O  O6  1  0.41954000  0.80431000  0.14559000  1.0 -0.6166386457
O  O7  1  0.38477000  0.58046000  0.14559000  1.0 -0.6166386457
O  O8  1  0.19569000  0.61523000  0.14559000  1.0 -0.6166386457
O  O9  1  0.58046000  0.19569000  0.14559000  1.0 -0.6166386457
O  O10  1  0.61523000  0.41954000  0.14559000  1.0 -0.6166386457
O  O11  1  0.80431000  0.38477000  0.14559000  1.0 -0.6166386457
O  O12  1  0.19569000  0.58046000  0.35441000  1.0 -0.6166386457
O  O13  1  0.19569000  0.58046000  0.64559000  1.0 -0.6166386457
O  O14  1  0.41954000  0.61523000  0.64559000  1.0 -0.6166386457
O  O15  1  0.38477000  0.80431000  0.64559000  1.0 -0.6166386457
O  O16  1  0.58046000  0.38477000  0.64559000  1.0 -0.6166386457
O  O17  1  0.61523000  0.19569000  0.64559000  1.0 -0.6166386457
O  O18  1  0.58046000  0.19569000  0.85441000  1.0 -0.6166386457
O  O19  1  0.61523000  0.41954000  0.85441000  1.0 -0.6166386457
O  O20  1  0.80431000  0.38477000  0.85441000  1.0 -0.6166386457
O  O21  1  0.41954000  0.80431000  0.85441000  1.0 -0.6166386457
O  O22  1  0.38477000  0.58046000  0.85441000  1.0 -0.6166386457
O  O23  1  0.19569000  0.61523000  0.85441000  1.0 -0.6166386457
O  O24  1  0.80431000  0.41954000  0.64559000  1.0 -0.6166386457
O  O25  1  0.94500000  0.56231000  0.40957000  1.0 -0.5547858593
O  O26  1  0.43769000  0.38269000  0.40957000  1.0 -0.5547858593
O  O27  1  0.61731000  0.05500000  0.40957000  1.0 -0.5547858593
O  O28  1  0.56231000  0.61731000  0.40957000  1.0 -0.5547858593
O  O29  1  0.38269000  0.94500000  0.40957000  1.0 -0.5547858593
O  O30  1  0.56231000  0.94500000  0.09043000  1.0 -0.5547858593
O  O31  1  0.38269000  0.43769000  0.09043000  1.0 -0.5547858593
O  O32  1  0.05500000  0.61731000  0.09043000  1.0 -0.5547858593
O  O33  1  0.43769000  0.05500000  0.09043000  1.0 -0.5547858593
O  O34  1  0.61731000  0.56231000  0.09043000  1.0 -0.5547858593
O  O35  1  0.94500000  0.38269000  0.09043000  1.0 -0.5547858593
O  O36  1  0.05500000  0.43769000  0.40957000  1.0 -0.5547858593
O  O37  1  0.05500000  0.43769000  0.59043000  1.0 -0.5547858593
O  O38  1  0.56231000  0.61731000  0.59043000  1.0 -0.5547858593
O  O39  1  0.38269000  0.94500000  0.59043000  1.0 -0.5547858593
O  O40  1  0.43769000  0.38269000  0.59043000  1.0 -0.5547858593
O  O41  1  0.61731000  0.05500000  0.59043000  1.0 -0.5547858593
O  O42  1  0.43769000  0.05500000  0.90957000  1.0 -0.5547858593
O  O43  1  0.61731000  0.56231000  0.90957000  1.0 -0.5547858593
O  O44  1  0.94500000  0.38269000  0.90957000  1.0 -0.5547858593
O  O45  1  0.56231000  0.94500000  0.90957000  1.0 -0.555396413
O  O46  1  0.38269000  0.43769000  0.90957000  1.0 -0.5547858593
O  O47  1  0.05500000  0.61731000  0.90957000  1.0 -0.5547858593
O  O48  1  0.94500000  0.56231000  0.59043000  1.0 -0.5547858593
O  O49  1  0.76515000  0.53030000  0.25000000  1.0 -0.2133630577
O  O50  1  0.46970000  0.23485000  0.25000000  1.0 -0.2133630577
O  O51  1  0.76515000  0.23485000  0.25000000  1.0 -0.2133630577
O  O52  1  0.53030000  0.76515000  0.25000000  1.0 -0.2133630577
O  O53  1  0.23485000  0.76515000  0.25000000  1.0 -0.2133630577
O  O54  1  0.23485000  0.46970000  0.25000000  1.0 -0.2133630577
O  O55  1  0.23485000  0.46970000  0.75000000  1.0 -0.2133630577
O  O56  1  0.53030000  0.76515000  0.75000000  1.0 -0.2133630577
O  O57  1  0.23485000  0.76515000  0.75000000  1.0 -0.2133630577
O  O58  1  0.46970000  0.23485000  0.75000000  1.0 -0.2133630577
O  O59  1  0.76515000  0.23485000  0.75000000  1.0 -0.2133630577
O  O60  1  0.76515000  0.53030000  0.75000000  1.0 -0.2133630577
