# DDEC6 charges by PACMAN v1.1 (https://github.com/mtap-research/PACMAN-charge/)
data_GADNUX_ASR_pacman
_symmetry_space_group_name_H-M   'P 1'
_cell_length_a   26.95600000
_cell_length_b   26.95600000
_cell_length_c   39.14500000
_cell_angle_alpha   90.00000000
_cell_angle_beta   90.00000000
_cell_angle_gamma   90.00000000
_symmetry_Int_Tables_number   1
_chemical_formula_structural   Cu6H22C54(N3O8)3
_chemical_formula_sum   'Cu48 H176 C432 N72 O192'
_cell_volume   28443.77226472
_cell_formula_units_Z   8
loop_
 _symmetry_equiv_pos_site_id
 _symmetry_equiv_pos_as_xyz
  1  'x, y, z'
loop_
 _atom_site_type_symbol
 _atom_site_label
 _atom_site_symmetry_multiplicity
 _atom_site_fract_x
 _atom_site_fract_y
 _atom_site_fract_z
 _atom_site_occupancy
 _atom_site_charge
Cu  Cu1  1  0.87604000  0.36836000  0.00000000  1.0 0.8700235742
Cu  Cu2  1  0.12396000  0.63164000  0.00000000  1.0 0.8700235742
Cu  Cu3  1  0.63164000  0.87604000  0.00000000  1.0 0.8700235742
Cu  Cu4  1  0.36836000  0.12396000  0.00000000  1.0 0.8700235742
Cu  Cu5  1  0.62396000  0.86836000  0.50000000  1.0 0.8700235742
Cu  Cu6  1  0.37604000  0.13164000  0.50000000  1.0 0.8700235742
Cu  Cu7  1  0.86836000  0.37604000  0.50000000  1.0 0.8700235742
Cu  Cu8  1  0.13164000  0.62396000  0.50000000  1.0 0.8700235742
Cu  Cu9  1  0.90669000  0.27444000  0.00000000  1.0 0.8437992913
Cu  Cu10  1  0.09331000  0.72556000  0.00000000  1.0 0.8437992913
Cu  Cu11  1  0.72556000  0.90669000  0.00000000  1.0 0.8437992913
Cu  Cu12  1  0.27444000  0.09331000  0.00000000  1.0 0.8437992913
Cu  Cu13  1  0.59331000  0.77444000  0.50000000  1.0 0.8437992913
Cu  Cu14  1  0.40669000  0.22556000  0.50000000  1.0 0.8437992913
Cu  Cu15  1  0.77444000  0.40669000  0.50000000  1.0 0.8437992913
Cu  Cu16  1  0.22556000  0.59331000  0.50000000  1.0 0.8437992913
Cu  Cu17  1  0.75177000  0.12243000  0.19589000  1.0 0.8620966705
Cu  Cu18  1  0.24823000  0.87757000  0.19589000  1.0 0.8620966705
Cu  Cu19  1  0.87757000  0.75177000  0.19589000  1.0 0.8620966705
Cu  Cu20  1  0.12243000  0.24823000  0.19589000  1.0 0.8620966705
Cu  Cu21  1  0.74823000  0.62243000  0.30411000  1.0 0.8620966705
Cu  Cu22  1  0.25177000  0.37757000  0.30411000  1.0 0.8620966705
Cu  Cu23  1  0.62243000  0.25177000  0.30411000  1.0 0.8620966705
Cu  Cu24  1  0.37757000  0.74823000  0.30411000  1.0 0.8620966705
Cu  Cu25  1  0.24823000  0.87757000  0.80411000  1.0 0.8620966705
Cu  Cu26  1  0.75177000  0.12243000  0.80411000  1.0 0.8620966705
Cu  Cu27  1  0.12243000  0.24823000  0.80411000  1.0 0.8620966705
Cu  Cu28  1  0.87757000  0.75177000  0.80411000  1.0 0.8620966705
Cu  Cu29  1  0.25177000  0.37757000  0.69589000  1.0 0.8620966705
Cu  Cu30  1  0.74823000  0.62243000  0.69589000  1.0 0.8620966705
Cu  Cu31  1  0.37757000  0.74823000  0.69589000  1.0 0.8620966705
Cu  Cu32  1  0.62243000  0.25177000  0.69589000  1.0 0.8620966705
Cu  Cu33  1  0.81488000  0.09169000  0.14767000  1.0 0.8437992913
Cu  Cu34  1  0.18512000  0.90831000  0.14767000  1.0 0.8437992913
Cu  Cu35  1  0.90831000  0.81488000  0.14767000  1.0 0.8437992913
Cu  Cu36  1  0.09169000  0.18512000  0.14767000  1.0 0.8437992913
Cu  Cu37  1  0.68512000  0.59169000  0.35233000  1.0 0.8437992913
Cu  Cu38  1  0.31488000  0.40831000  0.35233000  1.0 0.8437992913
Cu  Cu39  1  0.59169000  0.31488000  0.35233000  1.0 0.8437992913
Cu  Cu40  1  0.40831000  0.68512000  0.35233000  1.0 0.8437992913
Cu  Cu41  1  0.18512000  0.90831000  0.85233000  1.0 0.8437992913
Cu  Cu42  1  0.81488000  0.09169000  0.85233000  1.0 0.8437992913
Cu  Cu43  1  0.09169000  0.18512000  0.85233000  1.0 0.8437992913
Cu  Cu44  1  0.90831000  0.81488000  0.85233000  1.0 0.8437992913
Cu  Cu45  1  0.31488000  0.40831000  0.64767000  1.0 0.8437992913
Cu  Cu46  1  0.68512000  0.59169000  0.64767000  1.0 0.8437992913
Cu  Cu47  1  0.40831000  0.68512000  0.64767000  1.0 0.8437992913
Cu  Cu48  1  0.59169000  0.31488000  0.64767000  1.0 0.8437992913
H  H1  1  0.74220000  0.47450000  0.17530000  1.0 0.2599634411
H  H2  1  0.25780000  0.52550000  0.17530000  1.0 0.2599634411
H  H3  1  0.52550000  0.74220000  0.17530000  1.0 0.2599634411
H  H4  1  0.47450000  0.25780000  0.17530000  1.0 0.2599634411
H  H5  1  0.75780000  0.97450000  0.32470000  1.0 0.2599634411
H  H6  1  0.24220000  0.02550000  0.32470000  1.0 0.2599634411
H  H7  1  0.97450000  0.24220000  0.32470000  1.0 0.2599634411
H  H8  1  0.02550000  0.75780000  0.32470000  1.0 0.2599634411
H  H9  1  0.25780000  0.52550000  0.82470000  1.0 0.2599634411
H  H10  1  0.74220000  0.47450000  0.82470000  1.0 0.2599634411
H  H11  1  0.47450000  0.25780000  0.82470000  1.0 0.2599634411
H  H12  1  0.52550000  0.74220000  0.82470000  1.0 0.2599634411
H  H13  1  0.24220000  0.02550000  0.67530000  1.0 0.2599634411
H  H14  1  0.75780000  0.97450000  0.67530000  1.0 0.2599634411
H  H15  1  0.02550000  0.75780000  0.67530000  1.0 0.2599634411
H  H16  1  0.97450000  0.24220000  0.67530000  1.0 0.2599634411
H  H17  1  0.78630000  0.36530000  0.08840000  1.0 0.132349417
H  H18  1  0.21370000  0.63470000  0.08840000  1.0 0.132349417
H  H19  1  0.63470000  0.78630000  0.08840000  1.0 0.132349417
H  H20  1  0.36530000  0.21370000  0.08840000  1.0 0.132349417
H  H21  1  0.71370000  0.86530000  0.41160000  1.0 0.132349417
H  H22  1  0.28630000  0.13470000  0.41160000  1.0 0.132349417
H  H23  1  0.86530000  0.28630000  0.41160000  1.0 0.132349417
H  H24  1  0.13470000  0.71370000  0.41160000  1.0 0.132349417
H  H25  1  0.21370000  0.63470000  0.91160000  1.0 0.132349417
H  H26  1  0.78630000  0.36530000  0.91160000  1.0 0.132349417
H  H27  1  0.36530000  0.21370000  0.91160000  1.0 0.132349417
H  H28  1  0.63470000  0.78630000  0.91160000  1.0 0.132349417
H  H29  1  0.28630000  0.13470000  0.58840000  1.0 0.132349417
H  H30  1  0.71370000  0.86530000  0.58840000  1.0 0.132349417
H  H31  1  0.13470000  0.71370000  0.58840000  1.0 0.132349417
H  H32  1  0.86530000  0.28630000  0.58840000  1.0 0.132349417
H  H33  1  0.81120000  0.21830000  0.08190000  1.0 0.1390281079
H  H34  1  0.18880000  0.78170000  0.08190000  1.0 0.1390281079
H  H35  1  0.78170000  0.81120000  0.08190000  1.0 0.1390281079
H  H36  1  0.21830000  0.18880000  0.08190000  1.0 0.1390281079
H  H37  1  0.68880000  0.71830000  0.41810000  1.0 0.1390281079
H  H38  1  0.31120000  0.28170000  0.41810000  1.0 0.1390281079
H  H39  1  0.71830000  0.31120000  0.41810000  1.0 0.1390281079
H  H40  1  0.28170000  0.68880000  0.41810000  1.0 0.1390281079
H  H41  1  0.18880000  0.78170000  0.91810000  1.0 0.1390281079
H  H42  1  0.81120000  0.21830000  0.91810000  1.0 0.1390281079
H  H43  1  0.21830000  0.18880000  0.91810000  1.0 0.1390281079
H  H44  1  0.78170000  0.81120000  0.91810000  1.0 0.1390281079
H  H45  1  0.31120000  0.28170000  0.58190000  1.0 0.1390281079
H  H46  1  0.68880000  0.71830000  0.58190000  1.0 0.1390281079
H  H47  1  0.28170000  0.68880000  0.58190000  1.0 0.1390281079
H  H48  1  0.71830000  0.31120000  0.58190000  1.0 0.1390281079
H  H49  1  0.74340000  0.27440000  0.16460000  1.0 0.132349417
H  H50  1  0.25660000  0.72560000  0.16460000  1.0 0.132349417
H  H51  1  0.72560000  0.74340000  0.16460000  1.0 0.132349417
H  H52  1  0.27440000  0.25660000  0.16460000  1.0 0.132349417
H  H53  1  0.75660000  0.77440000  0.33540000  1.0 0.132349417
H  H54  1  0.24340000  0.22560000  0.33540000  1.0 0.132349417
H  H55  1  0.77440000  0.24340000  0.33540000  1.0 0.132349417
H  H56  1  0.22560000  0.75660000  0.33540000  1.0 0.132349417
H  H57  1  0.25660000  0.72560000  0.83540000  1.0 0.132349417
H  H58  1  0.74340000  0.27440000  0.83540000  1.0 0.132349417
H  H59  1  0.27440000  0.25660000  0.83540000  1.0 0.132349417
H  H60  1  0.72560000  0.74340000  0.83540000  1.0 0.132349417
H  H61  1  0.24340000  0.22560000  0.66460000  1.0 0.132349417
H  H62  1  0.75660000  0.77440000  0.66460000  1.0 0.132349417
H  H63  1  0.22560000  0.75660000  0.66460000  1.0 0.132349417
H  H64  1  0.77440000  0.24340000  0.66460000  1.0 0.132349417
H  H65  1  0.73540000  0.49690000  0.23310000  1.0 0.1218692883
H  H66  1  0.26460000  0.50310000  0.23310000  1.0 0.1218692883
H  H67  1  0.50310000  0.73540000  0.23310000  1.0 0.1218692883
H  H68  1  0.49690000  0.26460000  0.23310000  1.0 0.1218692883
H  H69  1  0.76460000  0.99690000  0.26690000  1.0 0.1218692883
H  H70  1  0.23540000  0.00310000  0.26690000  1.0 0.1218692883
H  H71  1  0.99690000  0.23540000  0.26690000  1.0 0.1218692883
H  H72  1  0.00310000  0.76460000  0.26690000  1.0 0.1218692883
H  H73  1  0.26460000  0.50310000  0.76690000  1.0 0.1218692883
H  H74  1  0.73540000  0.49690000  0.76690000  1.0 0.1218692883
H  H75  1  0.49690000  0.26460000  0.76690000  1.0 0.1218692883
H  H76  1  0.50310000  0.73540000  0.76690000  1.0 0.1218692883
H  H77  1  0.23540000  0.00310000  0.73310000  1.0 0.1218692883
H  H78  1  0.76460000  0.99690000  0.73310000  1.0 0.1218692883
H  H79  1  0.00310000  0.76460000  0.73310000  1.0 0.1218692883
H  H80  1  0.99690000  0.23540000  0.73310000  1.0 0.1218692883
H  H81  1  0.65920000  0.44600000  0.31440000  1.0 0.1462756539
H  H82  1  0.34080000  0.55400000  0.31440000  1.0 0.1462756539
H  H83  1  0.55400000  0.65920000  0.31440000  1.0 0.1462756539
H  H84  1  0.44600000  0.34080000  0.31440000  1.0 0.1462756539
H  H85  1  0.84080000  0.94600000  0.18560000  1.0 0.1462756539
H  H86  1  0.15920000  0.05400000  0.18560000  1.0 0.1462756539
H  H87  1  0.94600000  0.15920000  0.18560000  1.0 0.1462756539
H  H88  1  0.05400000  0.84080000  0.18560000  1.0 0.1462756539
H  H89  1  0.34080000  0.55400000  0.68560000  1.0 0.1462756539
H  H90  1  0.65920000  0.44600000  0.68560000  1.0 0.1462756539
H  H91  1  0.44600000  0.34080000  0.68560000  1.0 0.1462756539
H  H92  1  0.55400000  0.65920000  0.68560000  1.0 0.1462756539
H  H93  1  0.15920000  0.05400000  0.81440000  1.0 0.1462756539
H  H94  1  0.84080000  0.94600000  0.81440000  1.0 0.1462756539
H  H95  1  0.05400000  0.84080000  0.81440000  1.0 0.1462756539
H  H96  1  0.94600000  0.15920000  0.81440000  1.0 0.1462756539
H  H97  1  0.68570000  0.35800000  0.23540000  1.0 0.1390281079
H  H98  1  0.31430000  0.64200000  0.23540000  1.0 0.1390281079
H  H99  1  0.64200000  0.68570000  0.23540000  1.0 0.1390281079
H  H100  1  0.35800000  0.31430000  0.23540000  1.0 0.1390281079
H  H101  1  0.81430000  0.85800000  0.26460000  1.0 0.1390281079
H  H102  1  0.18570000  0.14200000  0.26460000  1.0 0.1390281079
H  H103  1  0.85800000  0.18570000  0.26460000  1.0 0.1390281079
H  H104  1  0.14200000  0.81430000  0.26460000  1.0 0.1390281079
H  H105  1  0.31430000  0.64200000  0.76460000  1.0 0.1390281079
H  H106  1  0.68570000  0.35800000  0.76460000  1.0 0.1390281079
H  H107  1  0.35800000  0.31430000  0.76460000  1.0 0.1390281079
H  H108  1  0.64200000  0.68570000  0.76460000  1.0 0.1390281079
H  H109  1  0.18570000  0.14200000  0.73540000  1.0 0.1390281079
H  H110  1  0.81430000  0.85800000  0.73540000  1.0 0.1390281079
H  H111  1  0.14200000  0.81430000  0.73540000  1.0 0.1390281079
H  H112  1  0.85800000  0.18570000  0.73540000  1.0 0.1390281079
H  H113  1  0.96830000  0.42610000  0.07970000  1.0 0.1390281079
H  H114  1  0.03170000  0.57390000  0.07970000  1.0 0.1390281079
H  H115  1  0.57390000  0.96830000  0.07970000  1.0 0.1390281079
H  H116  1  0.42610000  0.03170000  0.07970000  1.0 0.1390281079
H  H117  1  0.53170000  0.92610000  0.42030000  1.0 0.1390281079
H  H118  1  0.46830000  0.07390000  0.42030000  1.0 0.1390281079
H  H119  1  0.92610000  0.46830000  0.42030000  1.0 0.1390281079
H  H120  1  0.07390000  0.53170000  0.42030000  1.0 0.1390281079
H  H121  1  0.03170000  0.57390000  0.92030000  1.0 0.1390281079
H  H122  1  0.96830000  0.42610000  0.92030000  1.0 0.1390281079
H  H123  1  0.42610000  0.03170000  0.92030000  1.0 0.1390281079
H  H124  1  0.57390000  0.96830000  0.92030000  1.0 0.1390281079
H  H125  1  0.46830000  0.07390000  0.57970000  1.0 0.1390281079
H  H126  1  0.53170000  0.92610000  0.57970000  1.0 0.1390281079
H  H127  1  0.07390000  0.53170000  0.57970000  1.0 0.1390281079
H  H128  1  0.92610000  0.46830000  0.57970000  1.0 0.1390281079
H  H129  1  0.01310000  0.28540000  0.08280000  1.0 0.1390281079
H  H130  1  0.98690000  0.71460000  0.08280000  1.0 0.1390281079
H  H131  1  0.71460000  0.01310000  0.08280000  1.0 0.1390281079
H  H132  1  0.28540000  0.98690000  0.08280000  1.0 0.1390281079
H  H133  1  0.48690000  0.78540000  0.41720000  1.0 0.1390281079
H  H134  1  0.51310000  0.21460000  0.41720000  1.0 0.1390281079
H  H135  1  0.78540000  0.51310000  0.41720000  1.0 0.1390281079
H  H136  1  0.21460000  0.48690000  0.41720000  1.0 0.1390281079
H  H137  1  0.98690000  0.71460000  0.91720000  1.0 0.1390281079
H  H138  1  0.01310000  0.28540000  0.91720000  1.0 0.1390281079
H  H139  1  0.28540000  0.98690000  0.91720000  1.0 0.1390281079
H  H140  1  0.71460000  0.01310000  0.91720000  1.0 0.1390281079
H  H141  1  0.51310000  0.21460000  0.58280000  1.0 0.1390281079
H  H142  1  0.48690000  0.78540000  0.58280000  1.0 0.1390281079
H  H143  1  0.21460000  0.48690000  0.58280000  1.0 0.1390281079
H  H144  1  0.78540000  0.51310000  0.58280000  1.0 0.1390281079
H  H145  1  0.05100000  0.38490000  0.15670000  1.0 0.1218692883
H  H146  1  0.94900000  0.61510000  0.15670000  1.0 0.1218692883
H  H147  1  0.61510000  0.05100000  0.15670000  1.0 0.1218692883
H  H148  1  0.38490000  0.94900000  0.15670000  1.0 0.1218692883
H  H149  1  0.44900000  0.88490000  0.34330000  1.0 0.1218692883
H  H150  1  0.55100000  0.11510000  0.34330000  1.0 0.1218692883
H  H151  1  0.88490000  0.55100000  0.34330000  1.0 0.1218692883
H  H152  1  0.11510000  0.44900000  0.34330000  1.0 0.1218692883
H  H153  1  0.94900000  0.61510000  0.84330000  1.0 0.1218692883
H  H154  1  0.05100000  0.38490000  0.84330000  1.0 0.1218692883
H  H155  1  0.38490000  0.94900000  0.84330000  1.0 0.1218692883
H  H156  1  0.61510000  0.05100000  0.84330000  1.0 0.1218692883
H  H157  1  0.55100000  0.11510000  0.65670000  1.0 0.1218692883
H  H158  1  0.44900000  0.88490000  0.65670000  1.0 0.1218692883
H  H159  1  0.11510000  0.44900000  0.65670000  1.0 0.1218692883
H  H160  1  0.88490000  0.55100000  0.65670000  1.0 0.1218692883
H  H161  1  0.00560000  0.45640000  0.18210000  1.0 0.2599634411
H  H162  1  0.99440000  0.54360000  0.18210000  1.0 0.2599634411
H  H163  1  0.54360000  0.00560000  0.18210000  1.0 0.2599634411
H  H164  1  0.45640000  0.99440000  0.18210000  1.0 0.2599634411
H  H165  1  0.49440000  0.95640000  0.31790000  1.0 0.2599634411
H  H166  1  0.50560000  0.04360000  0.31790000  1.0 0.2599634411
H  H167  1  0.95640000  0.50560000  0.31790000  1.0 0.2599634411
H  H168  1  0.04360000  0.49440000  0.31790000  1.0 0.2599634411
H  H169  1  0.99440000  0.54360000  0.81790000  1.0 0.2599634411
H  H170  1  0.00560000  0.45640000  0.81790000  1.0 0.2599634411
H  H171  1  0.45640000  0.99440000  0.81790000  1.0 0.2599634411
H  H172  1  0.54360000  0.00560000  0.81790000  1.0 0.2599634411
H  H173  1  0.50560000  0.04360000  0.68210000  1.0 0.2599634411
H  H174  1  0.49440000  0.95640000  0.68210000  1.0 0.2599634411
H  H175  1  0.04360000  0.49440000  0.68210000  1.0 0.2599634411
H  H176  1  0.95640000  0.50560000  0.68210000  1.0 0.2599634411
C  C1  1  0.75100000  0.36890000  0.15340000  1.0 0.2757268618
C  C2  1  0.24900000  0.63110000  0.15340000  1.0 0.2757268618
C  C3  1  0.63110000  0.75100000  0.15340000  1.0 0.2757268618
C  C4  1  0.36890000  0.24900000  0.15340000  1.0 0.2757268618
C  C5  1  0.74900000  0.86890000  0.34660000  1.0 0.2757268618
C  C6  1  0.25100000  0.13110000  0.34660000  1.0 0.2757268618
C  C7  1  0.86890000  0.25100000  0.34660000  1.0 0.2757268618
C  C8  1  0.13110000  0.74900000  0.34660000  1.0 0.2757268618
C  C9  1  0.24900000  0.63110000  0.84660000  1.0 0.2757268618
C  C10  1  0.75100000  0.36890000  0.84660000  1.0 0.2757268618
C  C11  1  0.36890000  0.24900000  0.84660000  1.0 0.2757268618
C  C12  1  0.63110000  0.75100000  0.84660000  1.0 0.2757268618
C  C13  1  0.25100000  0.13110000  0.65340000  1.0 0.2757268618
C  C14  1  0.74900000  0.86890000  0.65340000  1.0 0.2757268618
C  C15  1  0.13110000  0.74900000  0.65340000  1.0 0.2757268618
C  C16  1  0.86890000  0.25100000  0.65340000  1.0 0.2757268618
C  C17  1  0.72760000  0.40820000  0.19460000  1.0 0.2599634411
C  C18  1  0.27240000  0.59180000  0.19460000  1.0 0.2599634411
C  C19  1  0.59180000  0.72760000  0.19460000  1.0 0.2599634411
C  C20  1  0.40820000  0.27240000  0.19460000  1.0 0.2599634411
C  C21  1  0.77240000  0.90820000  0.30540000  1.0 0.2599634411
C  C22  1  0.22760000  0.09180000  0.30540000  1.0 0.2599634411
C  C23  1  0.90820000  0.22760000  0.30540000  1.0 0.2599634411
C  C24  1  0.09180000  0.77240000  0.30540000  1.0 0.2599634411
C  C25  1  0.27240000  0.59180000  0.80540000  1.0 0.2599634411
C  C26  1  0.72760000  0.40820000  0.80540000  1.0 0.2599634411
C  C27  1  0.40820000  0.27240000  0.80540000  1.0 0.2599634411
C  C28  1  0.59180000  0.72760000  0.80540000  1.0 0.2599634411
C  C29  1  0.22760000  0.09180000  0.69460000  1.0 0.2599634411
C  C30  1  0.77240000  0.90820000  0.69460000  1.0 0.2599634411
C  C31  1  0.09180000  0.77240000  0.69460000  1.0 0.2599634411
C  C32  1  0.90820000  0.22760000  0.69460000  1.0 0.2599634411
C  C33  1  0.76420000  0.32840000  0.13220000  1.0 0.0086079528
C  C34  1  0.23580000  0.67160000  0.13220000  1.0 0.0086079528
C  C35  1  0.67160000  0.76420000  0.13220000  1.0 0.0086079528
C  C36  1  0.32840000  0.23580000  0.13220000  1.0 0.0086079528
C  C37  1  0.73580000  0.82840000  0.36780000  1.0 0.0086079528
C  C38  1  0.26420000  0.17160000  0.36780000  1.0 0.0086079528
C  C39  1  0.82840000  0.26420000  0.36780000  1.0 0.0086079528
C  C40  1  0.17160000  0.73580000  0.36780000  1.0 0.0086079528
C  C41  1  0.23580000  0.67160000  0.86780000  1.0 0.0086079528
C  C42  1  0.76420000  0.32840000  0.86780000  1.0 0.0086079528
C  C43  1  0.32840000  0.23580000  0.86780000  1.0 0.0086079528
C  C44  1  0.67160000  0.76420000  0.86780000  1.0 0.0086079528
C  C45  1  0.26420000  0.17160000  0.63220000  1.0 0.0086079528
C  C46  1  0.73580000  0.82840000  0.63220000  1.0 0.0086079528
C  C47  1  0.17160000  0.73580000  0.63220000  1.0 0.0086079528
C  C48  1  0.82840000  0.26420000  0.63220000  1.0 0.0086079528
C  C49  1  0.78550000  0.33400000  0.09850000  1.0 -0.118249497
C  C50  1  0.21450000  0.66600000  0.09850000  1.0 -0.118249497
C  C51  1  0.66600000  0.78550000  0.09850000  1.0 -0.118249497
C  C52  1  0.33400000  0.21450000  0.09850000  1.0 -0.118249497
C  C53  1  0.71450000  0.83400000  0.40150000  1.0 -0.118249497
C  C54  1  0.28550000  0.16600000  0.40150000  1.0 -0.118249497
C  C55  1  0.83400000  0.28550000  0.40150000  1.0 -0.118249497
C  C56  1  0.16600000  0.71450000  0.40150000  1.0 -0.118249497
C  C57  1  0.21450000  0.66600000  0.90150000  1.0 -0.118249497
C  C58  1  0.78550000  0.33400000  0.90150000  1.0 -0.118249497
C  C59  1  0.33400000  0.21450000  0.90150000  1.0 -0.118249497
C  C60  1  0.66600000  0.78550000  0.90150000  1.0 -0.118249497
C  C61  1  0.28550000  0.16600000  0.59850000  1.0 -0.118249497
C  C62  1  0.71450000  0.83400000  0.59850000  1.0 -0.118249497
C  C63  1  0.16600000  0.71450000  0.59850000  1.0 -0.118249497
C  C64  1  0.83400000  0.28550000  0.59850000  1.0 -0.118249497
C  C65  1  0.80550000  0.29180000  0.08030000  1.0 -0.0010589387
C  C66  1  0.19450000  0.70820000  0.08030000  1.0 -0.0010589387
C  C67  1  0.70820000  0.80550000  0.08030000  1.0 -0.0010589387
C  C68  1  0.29180000  0.19450000  0.08030000  1.0 -0.0010589387
C  C69  1  0.69450000  0.79180000  0.41970000  1.0 -0.0010589387
C  C70  1  0.30550000  0.20820000  0.41970000  1.0 -0.0010589387
C  C71  1  0.79180000  0.30550000  0.41970000  1.0 -0.0010589387
C  C72  1  0.20820000  0.69450000  0.41970000  1.0 -0.0010589387
C  C73  1  0.19450000  0.70820000  0.91970000  1.0 -0.0010589387
C  C74  1  0.80550000  0.29180000  0.91970000  1.0 -0.0010589387
C  C75  1  0.29180000  0.19450000  0.91970000  1.0 -0.0010589387
C  C76  1  0.70820000  0.80550000  0.91970000  1.0 -0.0010589387
C  C77  1  0.30550000  0.20820000  0.58030000  1.0 -0.0010589387
C  C78  1  0.69450000  0.79180000  0.58030000  1.0 -0.0010589387
C  C79  1  0.20820000  0.69450000  0.58030000  1.0 -0.0010589387
C  C80  1  0.79180000  0.30550000  0.58030000  1.0 -0.0010589387
C  C81  1  0.79970000  0.24540000  0.09420000  1.0 -0.0933459574
C  C82  1  0.20030000  0.75460000  0.09420000  1.0 -0.0933459574
C  C83  1  0.75460000  0.79970000  0.09420000  1.0 -0.0933459574
C  C84  1  0.24540000  0.20030000  0.09420000  1.0 -0.0933459574
C  C85  1  0.70030000  0.74540000  0.40580000  1.0 -0.0933459574
C  C86  1  0.29970000  0.25460000  0.40580000  1.0 -0.0933459574
C  C87  1  0.74540000  0.29970000  0.40580000  1.0 -0.0933459574
C  C88  1  0.25460000  0.70030000  0.40580000  1.0 -0.0933459574
C  C89  1  0.20030000  0.75460000  0.90580000  1.0 -0.0933459574
C  C90  1  0.79970000  0.24540000  0.90580000  1.0 -0.0933459574
C  C91  1  0.24540000  0.20030000  0.90580000  1.0 -0.0933459574
C  C92  1  0.75460000  0.79970000  0.90580000  1.0 -0.0933459574
C  C93  1  0.29970000  0.25460000  0.59420000  1.0 -0.0933459574
C  C94  1  0.70030000  0.74540000  0.59420000  1.0 -0.0933459574
C  C95  1  0.25460000  0.70030000  0.59420000  1.0 -0.0933459574
C  C96  1  0.74540000  0.29970000  0.59420000  1.0 -0.0933459574
C  C97  1  0.77820000  0.23700000  0.12460000  1.0 -0.0209118041
C  C98  1  0.22180000  0.76300000  0.12460000  1.0 -0.0209118041
C  C99  1  0.76300000  0.77820000  0.12460000  1.0 -0.0209118041
C  C100  1  0.23700000  0.22180000  0.12460000  1.0 -0.0209118041
C  C101  1  0.72180000  0.73700000  0.37540000  1.0 -0.0209118041
C  C102  1  0.27820000  0.26300000  0.37540000  1.0 -0.0209118041
C  C103  1  0.73700000  0.27820000  0.37540000  1.0 -0.0209118041
C  C104  1  0.26300000  0.72180000  0.37540000  1.0 -0.0209118041
C  C105  1  0.22180000  0.76300000  0.87540000  1.0 -0.0209118041
C  C106  1  0.77820000  0.23700000  0.87540000  1.0 -0.0209118041
C  C107  1  0.23700000  0.22180000  0.87540000  1.0 -0.0209118041
C  C108  1  0.76300000  0.77820000  0.87540000  1.0 -0.0209118041
C  C109  1  0.27820000  0.26300000  0.62460000  1.0 -0.0209118041
C  C110  1  0.72180000  0.73700000  0.62460000  1.0 -0.0209118041
C  C111  1  0.26300000  0.72180000  0.62460000  1.0 -0.0209118041
C  C112  1  0.73700000  0.27820000  0.62460000  1.0 -0.0209118041
C  C113  1  0.75930000  0.27990000  0.14390000  1.0 -0.101745228
C  C114  1  0.24070000  0.72010000  0.14390000  1.0 -0.101745228
C  C115  1  0.72010000  0.75930000  0.14390000  1.0 -0.1092526504
C  C116  1  0.27990000  0.24070000  0.14390000  1.0 -0.101745228
C  C117  1  0.74070000  0.77990000  0.35610000  1.0 -0.101745228
C  C118  1  0.25930000  0.22010000  0.35610000  1.0 -0.101745228
C  C119  1  0.77990000  0.25930000  0.35610000  1.0 -0.101745228
C  C120  1  0.22010000  0.74070000  0.35610000  1.0 -0.101745228
C  C121  1  0.24070000  0.72010000  0.85610000  1.0 -0.101745228
C  C122  1  0.75930000  0.27990000  0.85610000  1.0 -0.101745228
C  C123  1  0.27990000  0.24070000  0.85610000  1.0 -0.101745228
C  C124  1  0.72010000  0.75930000  0.85610000  1.0 -0.101745228
C  C125  1  0.25930000  0.22010000  0.64390000  1.0 -0.101745228
C  C126  1  0.74070000  0.77990000  0.64390000  1.0 -0.101745228
C  C127  1  0.22010000  0.74070000  0.64390000  1.0 -0.101745228
C  C128  1  0.77990000  0.25930000  0.64390000  1.0 -0.101745228
C  C129  1  0.83580000  0.30200000  0.04690000  1.0 0.572520273
C  C130  1  0.16420000  0.69800000  0.04690000  1.0 0.572520273
C  C131  1  0.69800000  0.83580000  0.04690000  1.0 0.572520273
C  C132  1  0.30200000  0.16420000  0.04690000  1.0 0.572520273
C  C133  1  0.66420000  0.80200000  0.45310000  1.0 0.572520273
C  C134  1  0.33580000  0.19800000  0.45310000  1.0 0.572520273
C  C135  1  0.80200000  0.33580000  0.45310000  1.0 0.572520273
C  C136  1  0.19800000  0.66420000  0.45310000  1.0 0.572520273
C  C137  1  0.16420000  0.69800000  0.95310000  1.0 0.572520273
C  C138  1  0.83580000  0.30200000  0.95310000  1.0 0.572520273
C  C139  1  0.30200000  0.16420000  0.95310000  1.0 0.572520273
C  C140  1  0.69800000  0.83580000  0.95310000  1.0 0.572520273
C  C141  1  0.33580000  0.19800000  0.54690000  1.0 0.572520273
C  C142  1  0.66420000  0.80200000  0.54690000  1.0 0.572520273
C  C143  1  0.19800000  0.66420000  0.54690000  1.0 0.572520273
C  C144  1  0.80200000  0.33580000  0.54690000  1.0 0.572520273
C  C145  1  0.77720000  0.18550000  0.13940000  1.0 0.5777958026
C  C146  1  0.22280000  0.81450000  0.13940000  1.0 0.572520273
C  C147  1  0.81450000  0.77720000  0.13940000  1.0 0.5777958026
C  C148  1  0.18550000  0.22280000  0.13940000  1.0 0.5777958026
C  C149  1  0.72280000  0.68550000  0.36060000  1.0 0.572520273
C  C150  1  0.27720000  0.31450000  0.36060000  1.0 0.5777958026
C  C151  1  0.68550000  0.27720000  0.36060000  1.0 0.5777958026
C  C152  1  0.31450000  0.72280000  0.36060000  1.0 0.572520273
C  C153  1  0.22280000  0.81450000  0.86060000  1.0 0.572520273
C  C154  1  0.77720000  0.18550000  0.86060000  1.0 0.5777958026
C  C155  1  0.18550000  0.22280000  0.86060000  1.0 0.5777958026
C  C156  1  0.81450000  0.77720000  0.86060000  1.0 0.572520273
C  C157  1  0.27720000  0.31450000  0.63940000  1.0 0.5777958026
C  C158  1  0.72280000  0.68550000  0.63940000  1.0 0.5777958026
C  C159  1  0.31450000  0.72280000  0.63940000  1.0 0.5777958026
C  C160  1  0.68550000  0.27720000  0.63940000  1.0 0.5777958026
C  C161  1  0.71080000  0.42490000  0.22810000  1.0 -0.0010589387
C  C162  1  0.28920000  0.57510000  0.22810000  1.0 -0.0010589387
C  C163  1  0.57510000  0.71080000  0.22810000  1.0 -0.0010589387
C  C164  1  0.42490000  0.28920000  0.22810000  1.0 -0.0010589387
C  C165  1  0.78920000  0.92490000  0.27190000  1.0 -0.0010589387
C  C166  1  0.21080000  0.07510000  0.27190000  1.0 -0.0010589387
C  C167  1  0.92490000  0.21080000  0.27190000  1.0 -0.0010589387
C  C168  1  0.07510000  0.78920000  0.27190000  1.0 -0.0010589387
C  C169  1  0.28920000  0.57510000  0.77190000  1.0 -0.0010589387
C  C170  1  0.71080000  0.42490000  0.77190000  1.0 -0.0010589387
C  C171  1  0.42490000  0.28920000  0.77190000  1.0 -0.0010589387
C  C172  1  0.57510000  0.71080000  0.77190000  1.0 -0.0010589387
C  C173  1  0.21080000  0.07510000  0.72810000  1.0 -0.0010589387
C  C174  1  0.78920000  0.92490000  0.72810000  1.0 -0.0010589387
C  C175  1  0.07510000  0.78920000  0.72810000  1.0 -0.0010589387
C  C176  1  0.92490000  0.21080000  0.72810000  1.0 -0.0010589387
C  C177  1  0.71770000  0.47190000  0.24400000  1.0 -0.1614436978
C  C178  1  0.28230000  0.52810000  0.24400000  1.0 -0.1614436978
C  C179  1  0.52810000  0.71770000  0.24400000  1.0 -0.1614436978
C  C180  1  0.47190000  0.28230000  0.24400000  1.0 -0.1614436978
C  C181  1  0.78230000  0.97190000  0.25600000  1.0 -0.1614436978
C  C182  1  0.21770000  0.02810000  0.25600000  1.0 -0.1614436978
C  C183  1  0.97190000  0.21770000  0.25600000  1.0 -0.1614436978
C  C184  1  0.02810000  0.78230000  0.25600000  1.0 -0.1614436978
C  C185  1  0.28230000  0.52810000  0.75600000  1.0 -0.1614436978
C  C186  1  0.71770000  0.47190000  0.75600000  1.0 -0.1614436978
C  C187  1  0.47190000  0.28230000  0.75600000  1.0 -0.1614436978
C  C188  1  0.52810000  0.71770000  0.75600000  1.0 -0.1614436978
C  C189  1  0.21770000  0.02810000  0.74400000  1.0 -0.1614436978
C  C190  1  0.78230000  0.97190000  0.74400000  1.0 -0.1614436978
C  C191  1  0.02810000  0.78230000  0.74400000  1.0 -0.1614436978
C  C192  1  0.97190000  0.21770000  0.74400000  1.0 -0.1614436978
C  C193  1  0.69830000  0.47960000  0.27530000  1.0 0.0086079528
C  C194  1  0.30170000  0.52040000  0.27530000  1.0 0.0086079528
C  C195  1  0.52040000  0.69830000  0.27530000  1.0 0.0086079528
C  C196  1  0.47960000  0.30170000  0.27530000  1.0 0.0086079528
C  C197  1  0.80170000  0.97960000  0.22470000  1.0 0.0086079528
C  C198  1  0.19830000  0.02040000  0.22470000  1.0 0.0086079528
C  C199  1  0.97960000  0.19830000  0.22470000  1.0 0.0086079528
C  C200  1  0.02040000  0.80170000  0.22470000  1.0 0.0086079528
C  C201  1  0.30170000  0.52040000  0.72470000  1.0 0.0086079528
C  C202  1  0.69830000  0.47960000  0.72470000  1.0 0.0086079528
C  C203  1  0.47960000  0.30170000  0.72470000  1.0 0.0086079528
C  C204  1  0.52040000  0.69830000  0.72470000  1.0 0.0086079528
C  C205  1  0.19830000  0.02040000  0.77530000  1.0 0.0086079528
C  C206  1  0.80170000  0.97960000  0.77530000  1.0 0.0086079528
C  C207  1  0.02040000  0.80170000  0.77530000  1.0 0.0086079528
C  C208  1  0.97960000  0.19830000  0.77530000  1.0 0.0086079528
C  C209  1  0.67260000  0.44050000  0.29280000  1.0 -0.1092526504
C  C210  1  0.32740000  0.55950000  0.29280000  1.0 -0.1092526504
C  C211  1  0.55950000  0.67260000  0.29280000  1.0 -0.1092526504
C  C212  1  0.44050000  0.32740000  0.29280000  1.0 -0.1092526504
C  C213  1  0.82740000  0.94050000  0.20720000  1.0 -0.1092526504
C  C214  1  0.17260000  0.05950000  0.20720000  1.0 -0.1092526504
C  C215  1  0.94050000  0.17260000  0.20720000  1.0 -0.1092526504
C  C216  1  0.05950000  0.82740000  0.20720000  1.0 -0.1092526504
C  C217  1  0.32740000  0.55950000  0.70720000  1.0 -0.1092526504
C  C218  1  0.67260000  0.44050000  0.70720000  1.0 -0.1092526504
C  C219  1  0.44050000  0.32740000  0.70720000  1.0 -0.1092526504
C  C220  1  0.55950000  0.67260000  0.70720000  1.0 -0.1092526504
C  C221  1  0.17260000  0.05950000  0.79280000  1.0 -0.1092526504
C  C222  1  0.82740000  0.94050000  0.79280000  1.0 -0.1092526504
C  C223  1  0.05950000  0.82740000  0.79280000  1.0 -0.1092526504
C  C224  1  0.94050000  0.17260000  0.79280000  1.0 -0.1092526504
C  C225  1  0.66780000  0.39490000  0.27750000  1.0 -0.0209118041
C  C226  1  0.33220000  0.60510000  0.27750000  1.0 -0.0251268787
C  C227  1  0.60510000  0.66780000  0.27750000  1.0 -0.0251268787
C  C228  1  0.39490000  0.33220000  0.27750000  1.0 -0.0251268787
C  C229  1  0.83220000  0.89490000  0.22250000  1.0 -0.0209118041
C  C230  1  0.16780000  0.10510000  0.22250000  1.0 -0.0251268787
C  C231  1  0.89490000  0.16780000  0.22250000  1.0 -0.0209118041
C  C232  1  0.10510000  0.83220000  0.22250000  1.0 -0.0251268787
C  C233  1  0.33220000  0.60510000  0.72250000  1.0 -0.0209118041
C  C234  1  0.66780000  0.39490000  0.72250000  1.0 -0.0209118041
C  C235  1  0.39490000  0.33220000  0.72250000  1.0 -0.0209118041
C  C236  1  0.60510000  0.66780000  0.72250000  1.0 -0.0209118041
C  C237  1  0.16780000  0.10510000  0.77750000  1.0 -0.0209118041
C  C238  1  0.83220000  0.89490000  0.77750000  1.0 -0.0209118041
C  C239  1  0.10510000  0.83220000  0.77750000  1.0 -0.0209118041
C  C240  1  0.89490000  0.16780000  0.77750000  1.0 -0.0209118041
C  C241  1  0.68800000  0.38910000  0.24560000  1.0 -0.0933459574
C  C242  1  0.31200000  0.61090000  0.24560000  1.0 -0.0933459574
C  C243  1  0.61090000  0.68800000  0.24560000  1.0 -0.0933459574
C  C244  1  0.38910000  0.31200000  0.24560000  1.0 -0.0933459574
C  C245  1  0.81200000  0.88910000  0.25440000  1.0 -0.0933459574
C  C246  1  0.18800000  0.11090000  0.25440000  1.0 -0.0933459574
C  C247  1  0.88910000  0.18800000  0.25440000  1.0 -0.0933459574
C  C248  1  0.11090000  0.81200000  0.25440000  1.0 -0.0933459574
C  C249  1  0.31200000  0.61090000  0.75440000  1.0 -0.0933459574
C  C250  1  0.68800000  0.38910000  0.75440000  1.0 -0.0933459574
C  C251  1  0.38910000  0.31200000  0.75440000  1.0 -0.0933459574
C  C252  1  0.61090000  0.68800000  0.75440000  1.0 -0.0933459574
C  C253  1  0.18800000  0.11090000  0.74560000  1.0 -0.0933459574
C  C254  1  0.81200000  0.88910000  0.74560000  1.0 -0.0933459574
C  C255  1  0.11090000  0.81200000  0.74560000  1.0 -0.0933459574
C  C256  1  0.88910000  0.18800000  0.74560000  1.0 -0.0933459574
C  C257  1  0.70650000  0.53110000  0.29490000  1.0 0.5777958026
C  C258  1  0.29350000  0.46890000  0.29490000  1.0 0.5777958026
C  C259  1  0.46890000  0.70650000  0.29490000  1.0 0.5777958026
C  C260  1  0.53110000  0.29350000  0.29490000  1.0 0.5777958026
C  C261  1  0.79350000  0.03110000  0.20510000  1.0 0.5777958026
C  C262  1  0.20650000  0.96890000  0.20510000  1.0 0.5777958026
C  C263  1  0.03110000  0.20650000  0.20510000  1.0 0.5777958026
C  C264  1  0.96890000  0.79350000  0.20510000  1.0 0.5777958026
C  C265  1  0.29350000  0.46890000  0.70510000  1.0 0.5777958026
C  C266  1  0.70650000  0.53110000  0.70510000  1.0 0.5777958026
C  C267  1  0.53110000  0.29350000  0.70510000  1.0 0.5777958026
C  C268  1  0.46890000  0.70650000  0.70510000  1.0 0.5777958026
C  C269  1  0.20650000  0.96890000  0.79490000  1.0 0.5777958026
C  C270  1  0.79350000  0.03110000  0.79490000  1.0 0.5777958026
C  C271  1  0.96890000  0.79350000  0.79490000  1.0 0.5777958026
C  C272  1  0.03110000  0.20650000  0.79490000  1.0 0.5777958026
C  C273  1  0.64320000  0.35400000  0.29870000  1.0 0.572520273
C  C274  1  0.35680000  0.64600000  0.29870000  1.0 0.572520273
C  C275  1  0.64600000  0.64320000  0.29870000  1.0 0.572520273
C  C276  1  0.35400000  0.35680000  0.29870000  1.0 0.572520273
C  C277  1  0.85680000  0.85400000  0.20130000  1.0 0.572520273
C  C278  1  0.14320000  0.14600000  0.20130000  1.0 0.572520273
C  C279  1  0.85400000  0.14320000  0.20130000  1.0 0.572520273
C  C280  1  0.14600000  0.85680000  0.20130000  1.0 0.572520273
C  C281  1  0.35680000  0.64600000  0.70130000  1.0 0.572520273
C  C282  1  0.64320000  0.35400000  0.70130000  1.0 0.572520273
C  C283  1  0.35400000  0.35680000  0.70130000  1.0 0.572520273
C  C284  1  0.64600000  0.64320000  0.70130000  1.0 0.572520273
C  C285  1  0.14320000  0.14600000  0.79870000  1.0 0.572520273
C  C286  1  0.85680000  0.85400000  0.79870000  1.0 0.572520273
C  C287  1  0.14600000  0.85680000  0.79870000  1.0 0.572520273
C  C288  1  0.85400000  0.14320000  0.79870000  1.0 0.572520273
C  C289  1  0.00380000  0.46100000  0.13240000  1.0 0.2599634411
C  C290  1  0.99620000  0.53900000  0.13240000  1.0 0.2599634411
C  C291  1  0.53900000  0.00380000  0.13240000  1.0 0.2599634411
C  C292  1  0.46100000  0.99620000  0.13240000  1.0 0.2599634411
C  C293  1  0.49620000  0.96100000  0.36760000  1.0 0.2599634411
C  C294  1  0.50380000  0.03900000  0.36760000  1.0 0.2599634411
C  C295  1  0.96100000  0.50380000  0.36760000  1.0 0.2599634411
C  C296  1  0.03900000  0.49620000  0.36760000  1.0 0.2599634411
C  C297  1  0.99620000  0.53900000  0.86760000  1.0 0.2599634411
C  C298  1  0.00380000  0.46100000  0.86760000  1.0 0.2599634411
C  C299  1  0.46100000  0.99620000  0.86760000  1.0 0.2599634411
C  C300  1  0.53900000  0.00380000  0.86760000  1.0 0.2599634411
C  C301  1  0.50380000  0.03900000  0.63240000  1.0 0.2599634411
C  C302  1  0.49620000  0.96100000  0.63240000  1.0 0.2599634411
C  C303  1  0.03900000  0.49620000  0.63240000  1.0 0.2599634411
C  C304  1  0.96100000  0.50380000  0.63240000  1.0 0.2599634411
C  C305  1  0.00640000  0.41160000  0.12000000  1.0 -0.0080766774
C  C306  1  0.99360000  0.58840000  0.12000000  1.0 -0.0080766774
C  C307  1  0.58840000  0.00640000  0.12000000  1.0 -0.0080766774
C  C308  1  0.41160000  0.99360000  0.12000000  1.0 -0.0080766774
C  C309  1  0.49360000  0.91160000  0.38000000  1.0 -0.0080766774
C  C310  1  0.50640000  0.08840000  0.38000000  1.0 -0.0080766774
C  C311  1  0.91160000  0.50640000  0.38000000  1.0 -0.0080766774
C  C312  1  0.08840000  0.49360000  0.38000000  1.0 -0.0080766774
C  C313  1  0.99360000  0.58840000  0.88000000  1.0 -0.0080766774
C  C314  1  0.00640000  0.41160000  0.88000000  1.0 -0.0080766774
C  C315  1  0.41160000  0.99360000  0.88000000  1.0 -0.0080766774
C  C316  1  0.58840000  0.00640000  0.88000000  1.0 -0.0080766774
C  C317  1  0.50640000  0.08840000  0.62000000  1.0 -0.0080766774
C  C318  1  0.49360000  0.91160000  0.62000000  1.0 -0.0080766774
C  C319  1  0.08840000  0.49360000  0.62000000  1.0 -0.0080766774
C  C320  1  0.91160000  0.50640000  0.62000000  1.0 -0.0080766774
C  C321  1  0.98430000  0.40070000  0.09150000  1.0 -0.101745228
C  C322  1  0.01570000  0.59930000  0.09150000  1.0 -0.101745228
C  C323  1  0.59930000  0.98430000  0.09150000  1.0 -0.101745228
C  C324  1  0.40070000  0.01570000  0.09150000  1.0 -0.101745228
C  C325  1  0.51570000  0.90070000  0.40850000  1.0 -0.101745228
C  C326  1  0.48430000  0.09930000  0.40850000  1.0 -0.101745228
C  C327  1  0.90070000  0.48430000  0.40850000  1.0 -0.101745228
C  C328  1  0.09930000  0.51570000  0.40850000  1.0 -0.101745228
C  C329  1  0.01570000  0.59930000  0.90850000  1.0 -0.101745228
C  C330  1  0.98430000  0.40070000  0.90850000  1.0 -0.101745228
C  C331  1  0.40070000  0.01570000  0.90850000  1.0 -0.101745228
C  C332  1  0.59930000  0.98430000  0.90850000  1.0 -0.101745228
C  C333  1  0.48430000  0.09930000  0.59150000  1.0 -0.101745228
C  C334  1  0.51570000  0.90070000  0.59150000  1.0 -0.101745228
C  C335  1  0.09930000  0.51570000  0.59150000  1.0 -0.101745228
C  C336  1  0.90070000  0.48430000  0.59150000  1.0 -0.101745228
C  C337  1  0.98300000  0.35280000  0.07720000  1.0 -0.0209118041
C  C338  1  0.01700000  0.64720000  0.07720000  1.0 -0.0209118041
C  C339  1  0.64720000  0.98300000  0.07720000  1.0 -0.0209118041
C  C340  1  0.35280000  0.01700000  0.07720000  1.0 -0.0209118041
C  C341  1  0.51700000  0.85280000  0.42280000  1.0 -0.0209118041
C  C342  1  0.48300000  0.14720000  0.42280000  1.0 -0.0209118041
C  C343  1  0.85280000  0.48300000  0.42280000  1.0 -0.0209118041
C  C344  1  0.14720000  0.51700000  0.42280000  1.0 -0.0209118041
C  C345  1  0.01700000  0.64720000  0.92280000  1.0 -0.0209118041
C  C346  1  0.98300000  0.35280000  0.92280000  1.0 -0.0209118041
C  C347  1  0.35280000  0.01700000  0.92280000  1.0 -0.0209118041
C  C348  1  0.64720000  0.98300000  0.92280000  1.0 -0.0209118041
C  C349  1  0.48300000  0.14720000  0.57720000  1.0 -0.0209118041
C  C350  1  0.51700000  0.85280000  0.57720000  1.0 -0.0209118041
C  C351  1  0.14720000  0.51700000  0.57720000  1.0 -0.0209118041
C  C352  1  0.85280000  0.48300000  0.57720000  1.0 -0.0209118041
C  C353  1  0.01140000  0.31660000  0.09280000  1.0 -0.1092526504
C  C354  1  0.98860000  0.68340000  0.09280000  1.0 -0.1092526504
C  C355  1  0.68340000  0.01140000  0.09280000  1.0 -0.1092526504
C  C356  1  0.31660000  0.98860000  0.09280000  1.0 -0.1092526504
C  C357  1  0.48860000  0.81660000  0.40720000  1.0 -0.1092526504
C  C358  1  0.51140000  0.18340000  0.40720000  1.0 -0.1092526504
C  C359  1  0.81660000  0.51140000  0.40720000  1.0 -0.1092526504
C  C360  1  0.18340000  0.48860000  0.40720000  1.0 -0.1092526504
C  C361  1  0.98860000  0.68340000  0.90720000  1.0 -0.1092526504
C  C362  1  0.01140000  0.31660000  0.90720000  1.0 -0.1092526504
C  C363  1  0.31660000  0.98860000  0.90720000  1.0 -0.1092526504
C  C364  1  0.68340000  0.01140000  0.90720000  1.0 -0.1092526504
C  C365  1  0.51140000  0.18340000  0.59280000  1.0 -0.1092526504
C  C366  1  0.48860000  0.81660000  0.59280000  1.0 -0.1092526504
C  C367  1  0.18340000  0.48860000  0.59280000  1.0 -0.1092526504
C  C368  1  0.81660000  0.51140000  0.59280000  1.0 -0.1092526504
C  C369  1  0.03810000  0.32510000  0.12370000  1.0 -0.0080766774
C  C370  1  0.96190000  0.67490000  0.12370000  1.0 -0.0080766774
C  C371  1  0.67490000  0.03810000  0.12370000  1.0 -0.0080766774
C  C372  1  0.32510000  0.96190000  0.12370000  1.0 -0.0080766774
C  C373  1  0.46190000  0.82510000  0.37630000  1.0 -0.0080766774
C  C374  1  0.53810000  0.17490000  0.37630000  1.0 -0.0080766774
C  C375  1  0.82510000  0.53810000  0.37630000  1.0 -0.0080766774
C  C376  1  0.17490000  0.46190000  0.37630000  1.0 -0.0080766774
C  C377  1  0.96190000  0.67490000  0.87630000  1.0 -0.0080766774
C  C378  1  0.03810000  0.32510000  0.87630000  1.0 -0.0080766774
C  C379  1  0.32510000  0.96190000  0.87630000  1.0 -0.0080766774
C  C380  1  0.67490000  0.03810000  0.87630000  1.0 -0.0080766774
C  C381  1  0.53810000  0.17490000  0.62370000  1.0 -0.0080766774
C  C382  1  0.46190000  0.82510000  0.62370000  1.0 -0.0080766774
C  C383  1  0.17490000  0.46190000  0.62370000  1.0 -0.0080766774
C  C384  1  0.82510000  0.53810000  0.62370000  1.0 -0.0080766774
C  C385  1  0.03430000  0.37630000  0.13680000  1.0 -0.1862799568
C  C386  1  0.96570000  0.62370000  0.13680000  1.0 -0.1862799568
C  C387  1  0.62370000  0.03430000  0.13680000  1.0 -0.1862799568
C  C388  1  0.37630000  0.96570000  0.13680000  1.0 -0.1862799568
C  C389  1  0.46570000  0.87630000  0.36320000  1.0 -0.1862799568
C  C390  1  0.53430000  0.12370000  0.36320000  1.0 -0.1862799568
C  C391  1  0.87630000  0.53430000  0.36320000  1.0 -0.1862799568
C  C392  1  0.12370000  0.46570000  0.36320000  1.0 -0.1862799568
C  C393  1  0.96570000  0.62370000  0.86320000  1.0 -0.1862799568
C  C394  1  0.03430000  0.37630000  0.86320000  1.0 -0.1862799568
C  C395  1  0.37630000  0.96570000  0.86320000  1.0 -0.1862799568
C  C396  1  0.62370000  0.03430000  0.86320000  1.0 -0.1862799568
C  C397  1  0.53430000  0.12370000  0.63680000  1.0 -0.1862799568
C  C398  1  0.46570000  0.87630000  0.63680000  1.0 -0.1862799568
C  C399  1  0.12370000  0.46570000  0.63680000  1.0 -0.1862799568
C  C400  1  0.87630000  0.53430000  0.63680000  1.0 -0.1862799568
C  C401  1  0.95120000  0.33910000  0.04670000  1.0 0.572520273
C  C402  1  0.04880000  0.66090000  0.04670000  1.0 0.572520273
C  C403  1  0.66090000  0.95120000  0.04670000  1.0 0.572520273
C  C404  1  0.33910000  0.04880000  0.04670000  1.0 0.572520273
C  C405  1  0.54880000  0.83910000  0.45330000  1.0 0.572520273
C  C406  1  0.45120000  0.16090000  0.45330000  1.0 0.572520273
C  C407  1  0.83910000  0.45120000  0.45330000  1.0 0.572520273
C  C408  1  0.16090000  0.54880000  0.45330000  1.0 0.572520273
C  C409  1  0.04880000  0.66090000  0.95330000  1.0 0.572520273
C  C410  1  0.95120000  0.33910000  0.95330000  1.0 0.572520273
C  C411  1  0.33910000  0.04880000  0.95330000  1.0 0.572520273
C  C412  1  0.66090000  0.95120000  0.95330000  1.0 0.572520273
C  C413  1  0.45120000  0.16090000  0.54670000  1.0 0.572520273
C  C414  1  0.54880000  0.83910000  0.54670000  1.0 0.572520273
C  C415  1  0.16090000  0.54880000  0.54670000  1.0 0.572520273
C  C416  1  0.83910000  0.45120000  0.54670000  1.0 0.572520273
C  C417  1  0.06610000  0.28320000  0.14060000  1.0 0.572520273
C  C418  1  0.93390000  0.71680000  0.14060000  1.0 0.572520273
C  C419  1  0.71680000  0.06610000  0.14060000  1.0 0.572520273
C  C420  1  0.28320000  0.93390000  0.14060000  1.0 0.572520273
C  C421  1  0.43390000  0.78320000  0.35940000  1.0 0.572520273
C  C422  1  0.56610000  0.21680000  0.35940000  1.0 0.572520273
C  C423  1  0.78320000  0.56610000  0.35940000  1.0 0.572520273
C  C424  1  0.21680000  0.43390000  0.35940000  1.0 0.572520273
C  C425  1  0.93390000  0.71680000  0.85940000  1.0 0.572520273
C  C426  1  0.06610000  0.28320000  0.85940000  1.0 0.572520273
C  C427  1  0.28320000  0.93390000  0.85940000  1.0 0.572520273
C  C428  1  0.71680000  0.06610000  0.85940000  1.0 0.572520273
C  C429  1  0.56610000  0.21680000  0.64060000  1.0 0.572520273
C  C430  1  0.43390000  0.78320000  0.64060000  1.0 0.572520273
C  C431  1  0.21680000  0.43390000  0.64060000  1.0 0.572520273
C  C432  1  0.78320000  0.56610000  0.64060000  1.0 0.572520273
N  N1  1  0.76010000  0.41620000  0.14340000  1.0 -0.2940441412
N  N2  1  0.23990000  0.58380000  0.14340000  1.0 -0.2940441412
N  N3  1  0.58380000  0.76010000  0.14340000  1.0 -0.2940441412
N  N4  1  0.41620000  0.23990000  0.14340000  1.0 -0.2940441412
N  N5  1  0.73990000  0.91620000  0.35660000  1.0 -0.2940441412
N  N6  1  0.26010000  0.08380000  0.35660000  1.0 -0.2940441412
N  N7  1  0.91620000  0.26010000  0.35660000  1.0 -0.2940441412
N  N8  1  0.08380000  0.73990000  0.35660000  1.0 -0.2940441412
N  N9  1  0.23990000  0.58380000  0.85660000  1.0 -0.2940441412
N  N10  1  0.76010000  0.41620000  0.85660000  1.0 -0.2940441412
N  N11  1  0.41620000  0.23990000  0.85660000  1.0 -0.2940441412
N  N12  1  0.58380000  0.76010000  0.85660000  1.0 -0.2940441412
N  N13  1  0.26010000  0.08380000  0.64340000  1.0 -0.2940441412
N  N14  1  0.73990000  0.91620000  0.64340000  1.0 -0.2940441412
N  N15  1  0.08380000  0.73990000  0.64340000  1.0 -0.2940441412
N  N16  1  0.91620000  0.26010000  0.64340000  1.0 -0.2940441412
N  N17  1  0.74280000  0.44290000  0.17250000  1.0 -0.1663003271
N  N18  1  0.25720000  0.55710000  0.17250000  1.0 -0.1663003271
N  N19  1  0.55710000  0.74280000  0.17250000  1.0 -0.1663003271
N  N20  1  0.44290000  0.25720000  0.17250000  1.0 -0.1663003271
N  N21  1  0.75720000  0.94290000  0.32750000  1.0 -0.1663003271
N  N22  1  0.24280000  0.05710000  0.32750000  1.0 -0.1663003271
N  N23  1  0.94290000  0.24280000  0.32750000  1.0 -0.1663003271
N  N24  1  0.05710000  0.75720000  0.32750000  1.0 -0.1663003271
N  N25  1  0.25720000  0.55710000  0.82750000  1.0 -0.1663003271
N  N26  1  0.74280000  0.44290000  0.82750000  1.0 -0.1663003271
N  N27  1  0.44290000  0.25720000  0.82750000  1.0 -0.1663003271
N  N28  1  0.55710000  0.74280000  0.82750000  1.0 -0.1663003271
N  N29  1  0.24280000  0.05710000  0.67250000  1.0 -0.1663003271
N  N30  1  0.75720000  0.94290000  0.67250000  1.0 -0.1663003271
N  N31  1  0.05710000  0.75720000  0.67250000  1.0 -0.1663003271
N  N32  1  0.94290000  0.24280000  0.67250000  1.0 -0.1663003271
N  N33  1  0.73460000  0.36490000  0.18310000  1.0 -0.359284042
N  N34  1  0.26540000  0.63510000  0.18310000  1.0 -0.359284042
N  N35  1  0.63510000  0.73460000  0.18310000  1.0 -0.359284042
N  N36  1  0.36490000  0.26540000  0.18310000  1.0 -0.359284042
N  N37  1  0.76540000  0.86490000  0.31690000  1.0 -0.359284042
N  N38  1  0.23460000  0.13510000  0.31690000  1.0 -0.359284042
N  N39  1  0.86490000  0.23460000  0.31690000  1.0 -0.359284042
N  N40  1  0.13510000  0.76540000  0.31690000  1.0 -0.359284042
N  N41  1  0.26540000  0.63510000  0.81690000  1.0 -0.359284042
N  N42  1  0.73460000  0.36490000  0.81690000  1.0 -0.359284042
N  N43  1  0.36490000  0.26540000  0.81690000  1.0 -0.359284042
N  N44  1  0.63510000  0.73460000  0.81690000  1.0 -0.359284042
N  N45  1  0.23460000  0.13510000  0.68310000  1.0 -0.359284042
N  N46  1  0.76540000  0.86490000  0.68310000  1.0 -0.359284042
N  N47  1  0.13510000  0.76540000  0.68310000  1.0 -0.359284042
N  N48  1  0.86490000  0.23460000  0.68310000  1.0 -0.359284042
N  N49  1  0.00300000  0.47520000  0.16450000  1.0 -0.2267464497
N  N50  1  0.99700000  0.52480000  0.16450000  1.0 -0.2267464497
N  N51  1  0.52480000  0.00300000  0.16450000  1.0 -0.2267464497
N  N52  1  0.47520000  0.99700000  0.16450000  1.0 -0.2267464497
N  N53  1  0.49700000  0.97520000  0.33550000  1.0 -0.2267464497
N  N54  1  0.50300000  0.02480000  0.33550000  1.0 -0.2267464497
N  N55  1  0.97520000  0.50300000  0.33550000  1.0 -0.2267464497
N  N56  1  0.02480000  0.49700000  0.33550000  1.0 -0.2267464497
N  N57  1  0.99700000  0.52480000  0.83550000  1.0 -0.2267464497
N  N58  1  0.00300000  0.47520000  0.83550000  1.0 -0.2267464497
N  N59  1  0.47520000  0.99700000  0.83550000  1.0 -0.2267464497
N  N60  1  0.52480000  0.00300000  0.83550000  1.0 -0.2267464497
N  N61  1  0.50300000  0.02480000  0.66450000  1.0 -0.2267464497
N  N62  1  0.49700000  0.97520000  0.66450000  1.0 -0.2267464497
N  N63  1  0.02480000  0.49700000  0.66450000  1.0 -0.2267464497
N  N64  1  0.97520000  0.50300000  0.66450000  1.0 -0.2267464497
N  N65  1  0.00000000  0.50000000  0.11170000  1.0 -0.3802912986
N  N66  1  0.50000000  0.00000000  0.11170000  1.0 -0.3802912986
N  N67  1  0.50000000  0.00000000  0.38830000  1.0 -0.3802912986
N  N68  1  0.00000000  0.50000000  0.38830000  1.0 -0.3802912986
N  N69  1  0.00000000  0.50000000  0.88830000  1.0 -0.3802912986
N  N70  1  0.50000000  0.00000000  0.88830000  1.0 -0.3802912986
N  N71  1  0.50000000  0.00000000  0.61170000  1.0 -0.3802912986
N  N72  1  0.00000000  0.50000000  0.61170000  1.0 -0.3802912986
O  O1  1  0.83170000  0.34640000  0.03565000  1.0 -0.5376004899
O  O2  1  0.16830000  0.65360000  0.03565000  1.0 -0.5376004899
O  O3  1  0.65360000  0.83170000  0.03565000  1.0 -0.5376004899
O  O4  1  0.34640000  0.16830000  0.03565000  1.0 -0.5376004899
O  O5  1  0.66830000  0.84640000  0.46435000  1.0 -0.5376004899
O  O6  1  0.33170000  0.15360000  0.46435000  1.0 -0.5376004899
O  O7  1  0.84640000  0.33170000  0.46435000  1.0 -0.5376004899
O  O8  1  0.15360000  0.66830000  0.46435000  1.0 -0.5376004899
O  O9  1  0.16830000  0.65360000  0.96435000  1.0 -0.5376004899
O  O10  1  0.83170000  0.34640000  0.96435000  1.0 -0.5376004899
O  O11  1  0.34640000  0.16830000  0.96435000  1.0 -0.5376004899
O  O12  1  0.65360000  0.83170000  0.96435000  1.0 -0.5376004899
O  O13  1  0.33170000  0.15360000  0.53565000  1.0 -0.5376004899
O  O14  1  0.66830000  0.84640000  0.53565000  1.0 -0.5376004899
O  O15  1  0.15360000  0.66830000  0.53565000  1.0 -0.5376004899
O  O16  1  0.84640000  0.33170000  0.53565000  1.0 -0.5376004899
O  O17  1  0.85800000  0.26710000  0.03554000  1.0 -0.4804498473
O  O18  1  0.14200000  0.73290000  0.03554000  1.0 -0.4804498473
O  O19  1  0.73290000  0.85800000  0.03554000  1.0 -0.4804498473
O  O20  1  0.26710000  0.14200000  0.03554000  1.0 -0.4804498473
O  O21  1  0.64200000  0.76710000  0.46446000  1.0 -0.4804498473
O  O22  1  0.35800000  0.23290000  0.46446000  1.0 -0.4804498473
O  O23  1  0.76710000  0.35800000  0.46446000  1.0 -0.4804498473
O  O24  1  0.23290000  0.64200000  0.46446000  1.0 -0.4804498473
O  O25  1  0.14200000  0.73290000  0.96446000  1.0 -0.4804498473
O  O26  1  0.85800000  0.26710000  0.96446000  1.0 -0.4804498473
O  O27  1  0.26710000  0.14200000  0.96446000  1.0 -0.4804498473
O  O28  1  0.73290000  0.85800000  0.96446000  1.0 -0.4804498473
O  O29  1  0.35800000  0.23290000  0.53554000  1.0 -0.4804498473
O  O30  1  0.64200000  0.76710000  0.53554000  1.0 -0.4804498473
O  O31  1  0.23290000  0.64200000  0.53554000  1.0 -0.4804498473
O  O32  1  0.76710000  0.35800000  0.53554000  1.0 -0.4804498473
O  O33  1  0.75110000  0.18248000  0.16689000  1.0 -0.5495845532
O  O34  1  0.24890000  0.81752000  0.16689000  1.0 -0.5495845532
O  O35  1  0.81752000  0.75110000  0.16689000  1.0 -0.5495845532
O  O36  1  0.18248000  0.24890000  0.16689000  1.0 -0.5495845532
O  O37  1  0.74890000  0.68248000  0.33311000  1.0 -0.5495845532
O  O38  1  0.25110000  0.31752000  0.33311000  1.0 -0.5495845532
O  O39  1  0.68248000  0.25110000  0.33311000  1.0 -0.5495845532
O  O40  1  0.31752000  0.74890000  0.33311000  1.0 -0.5495845532
O  O41  1  0.24890000  0.81752000  0.83311000  1.0 -0.5495845532
O  O42  1  0.75110000  0.18248000  0.83311000  1.0 -0.5495845532
O  O43  1  0.18248000  0.24890000  0.83311000  1.0 -0.5495845532
O  O44  1  0.81752000  0.75110000  0.83311000  1.0 -0.5495845532
O  O45  1  0.25110000  0.31752000  0.66689000  1.0 -0.5495845532
O  O46  1  0.74890000  0.68248000  0.66689000  1.0 -0.5495845532
O  O47  1  0.31752000  0.74890000  0.66689000  1.0 -0.5495845532
O  O48  1  0.68248000  0.25110000  0.66689000  1.0 -0.5495845532
O  O49  1  0.80030000  0.15430000  0.12483000  1.0 -0.4640722783
O  O50  1  0.19970000  0.84570000  0.12483000  1.0 -0.4640722783
O  O51  1  0.84570000  0.80030000  0.12483000  1.0 -0.4640722783
O  O52  1  0.15430000  0.19970000  0.12483000  1.0 -0.4640722783
O  O53  1  0.69970000  0.65430000  0.37517000  1.0 -0.4640722783
O  O54  1  0.30030000  0.34570000  0.37517000  1.0 -0.4640722783
O  O55  1  0.65430000  0.30030000  0.37517000  1.0 -0.4640722783
O  O56  1  0.34570000  0.69970000  0.37517000  1.0 -0.4640722783
O  O57  1  0.19970000  0.84570000  0.87517000  1.0 -0.4640722783
O  O58  1  0.80030000  0.15430000  0.87517000  1.0 -0.4640722783
O  O59  1  0.15430000  0.19970000  0.87517000  1.0 -0.4640722783
O  O60  1  0.84570000  0.80030000  0.87517000  1.0 -0.4640722783
O  O61  1  0.30030000  0.34570000  0.62483000  1.0 -0.4640722783
O  O62  1  0.69970000  0.65430000  0.62483000  1.0 -0.4640722783
O  O63  1  0.34570000  0.69970000  0.62483000  1.0 -0.4640722783
O  O64  1  0.65430000  0.30030000  0.62483000  1.0 -0.4640722783
O  O65  1  0.73620000  0.56080000  0.28135000  1.0 -0.5110088555
O  O66  1  0.26380000  0.43920000  0.28135000  1.0 -0.5110088555
O  O67  1  0.43920000  0.73620000  0.28135000  1.0 -0.5110088555
O  O68  1  0.56080000  0.26380000  0.28135000  1.0 -0.5110088555
O  O69  1  0.76380000  0.06080000  0.21865000  1.0 -0.5110088555
O  O70  1  0.23620000  0.93920000  0.21865000  1.0 -0.5110088555
O  O71  1  0.06080000  0.23620000  0.21865000  1.0 -0.5110088555
O  O72  1  0.93920000  0.76380000  0.21865000  1.0 -0.5110088555
O  O73  1  0.26380000  0.43920000  0.71865000  1.0 -0.5110088555
O  O74  1  0.73620000  0.56080000  0.71865000  1.0 -0.5110088555
O  O75  1  0.56080000  0.26380000  0.71865000  1.0 -0.5110088555
O  O76  1  0.43920000  0.73620000  0.71865000  1.0 -0.5110088555
O  O77  1  0.23620000  0.93920000  0.78135000  1.0 -0.5110088555
O  O78  1  0.76380000  0.06080000  0.78135000  1.0 -0.5110088555
O  O79  1  0.93920000  0.76380000  0.78135000  1.0 -0.5110088555
O  O80  1  0.06080000  0.23620000  0.78135000  1.0 -0.5110088555
O  O81  1  0.68030000  0.53560000  0.32146000  1.0 -0.5376004899
O  O82  1  0.31970000  0.46440000  0.32146000  1.0 -0.5376004899
O  O83  1  0.46440000  0.68030000  0.32146000  1.0 -0.5376004899
O  O84  1  0.53560000  0.31970000  0.32146000  1.0 -0.5376004899
O  O85  1  0.81970000  0.03560000  0.17854000  1.0 -0.5376004899
O  O86  1  0.18030000  0.96440000  0.17854000  1.0 -0.5376004899
O  O87  1  0.03560000  0.18030000  0.17854000  1.0 -0.5376004899
O  O88  1  0.96440000  0.81970000  0.17854000  1.0 -0.5376004899
O  O89  1  0.31970000  0.46440000  0.67854000  1.0 -0.5376004899
O  O90  1  0.68030000  0.53560000  0.67854000  1.0 -0.5376004899
O  O91  1  0.53560000  0.31970000  0.67854000  1.0 -0.5376004899
O  O92  1  0.46440000  0.68030000  0.67854000  1.0 -0.5376004899
O  O93  1  0.18030000  0.96440000  0.82146000  1.0 -0.5376004899
O  O94  1  0.81970000  0.03560000  0.82146000  1.0 -0.5376004899
O  O95  1  0.96440000  0.81970000  0.82146000  1.0 -0.5376004899
O  O96  1  0.03560000  0.18030000  0.82146000  1.0 -0.5376004899
O  O97  1  0.64590000  0.31290000  0.28407000  1.0 -0.5211908786
O  O98  1  0.35410000  0.68710000  0.28407000  1.0 -0.5211908786
O  O99  1  0.68710000  0.64590000  0.28407000  1.0 -0.5211908786
O  O100  1  0.31290000  0.35410000  0.28407000  1.0 -0.5211908786
O  O101  1  0.85410000  0.81290000  0.21593000  1.0 -0.5211908786
O  O102  1  0.14590000  0.18710000  0.21593000  1.0 -0.5211908786
O  O103  1  0.81290000  0.14590000  0.21593000  1.0 -0.5211908786
O  O104  1  0.18710000  0.85410000  0.21593000  1.0 -0.5211908786
O  O105  1  0.35410000  0.68710000  0.71593000  1.0 -0.5211908786
O  O106  1  0.64590000  0.31290000  0.71593000  1.0 -0.5211908786
O  O107  1  0.31290000  0.35410000  0.71593000  1.0 -0.5211908786
O  O108  1  0.68710000  0.64590000  0.71593000  1.0 -0.5211908786
O  O109  1  0.14590000  0.18710000  0.78407000  1.0 -0.5211908786
O  O110  1  0.85410000  0.81290000  0.78407000  1.0 -0.5211908786
O  O111  1  0.18710000  0.85410000  0.78407000  1.0 -0.5211908786
O  O112  1  0.81290000  0.14590000  0.78407000  1.0 -0.5211908786
O  O113  1  0.62460000  0.36480000  0.32577000  1.0 -0.4804498473
O  O114  1  0.37540000  0.63520000  0.32577000  1.0 -0.4804498473
O  O115  1  0.63520000  0.62460000  0.32577000  1.0 -0.4804498473
O  O116  1  0.36480000  0.37540000  0.32577000  1.0 -0.4804498473
O  O117  1  0.87540000  0.86480000  0.17423000  1.0 -0.4804498473
O  O118  1  0.12460000  0.13520000  0.17423000  1.0 -0.4804498473
O  O119  1  0.86480000  0.12460000  0.17423000  1.0 -0.4804498473
O  O120  1  0.13520000  0.87540000  0.17423000  1.0 -0.4804498473
O  O121  1  0.37540000  0.63520000  0.67423000  1.0 -0.4804498473
O  O122  1  0.62460000  0.36480000  0.67423000  1.0 -0.4739116771
O  O123  1  0.36480000  0.37540000  0.67423000  1.0 -0.4739116771
O  O124  1  0.63520000  0.62460000  0.67423000  1.0 -0.4804498473
O  O125  1  0.12460000  0.13520000  0.82577000  1.0 -0.4804498473
O  O126  1  0.87540000  0.86480000  0.82577000  1.0 -0.4804498473
O  O127  1  0.13520000  0.87540000  0.82577000  1.0 -0.4804498473
O  O128  1  0.86480000  0.12460000  0.82577000  1.0 -0.4804498473
O  O129  1  0.92610000  0.37680000  0.03561000  1.0 -0.5495845532
O  O130  1  0.07390000  0.62320000  0.03561000  1.0 -0.5495845532
O  O131  1  0.62320000  0.92610000  0.03561000  1.0 -0.5495845532
O  O132  1  0.37680000  0.07390000  0.03561000  1.0 -0.5495845532
O  O133  1  0.57390000  0.87680000  0.46439000  1.0 -0.5495845532
O  O134  1  0.42610000  0.12320000  0.46439000  1.0 -0.5495845532
O  O135  1  0.87680000  0.42610000  0.46439000  1.0 -0.5495845532
O  O136  1  0.12320000  0.57390000  0.46439000  1.0 -0.5495845532
O  O137  1  0.07390000  0.62320000  0.96439000  1.0 -0.5495845532
O  O138  1  0.92610000  0.37680000  0.96439000  1.0 -0.5495845532
O  O139  1  0.37680000  0.07390000  0.96439000  1.0 -0.5495845532
O  O140  1  0.62320000  0.92610000  0.96439000  1.0 -0.5495845532
O  O141  1  0.42610000  0.12320000  0.53561000  1.0 -0.5495845532
O  O142  1  0.57390000  0.87680000  0.53561000  1.0 -0.5495845532
O  O143  1  0.12320000  0.57390000  0.53561000  1.0 -0.5495845532
O  O144  1  0.87680000  0.42610000  0.53561000  1.0 -0.5495845532
O  O145  1  0.95190000  0.29540000  0.03617000  1.0 -0.5110088555
O  O146  1  0.04810000  0.70460000  0.03617000  1.0 -0.5110088555
O  O147  1  0.70460000  0.95190000  0.03617000  1.0 -0.5110088555
O  O148  1  0.29540000  0.04810000  0.03617000  1.0 -0.5110088555
O  O149  1  0.54810000  0.79540000  0.46383000  1.0 -0.5110088555
O  O150  1  0.45190000  0.20460000  0.46383000  1.0 -0.5110088555
O  O151  1  0.79540000  0.45190000  0.46383000  1.0 -0.5110088555
O  O152  1  0.20460000  0.54810000  0.46383000  1.0 -0.5110088555
O  O153  1  0.04810000  0.70460000  0.96383000  1.0 -0.5110088555
O  O154  1  0.95190000  0.29540000  0.96383000  1.0 -0.5110088555
O  O155  1  0.29540000  0.04810000  0.96383000  1.0 -0.5110088555
O  O156  1  0.70460000  0.95190000  0.96383000  1.0 -0.5110088555
O  O157  1  0.45190000  0.20460000  0.53617000  1.0 -0.5110088555
O  O158  1  0.54810000  0.79540000  0.53617000  1.0 -0.5110088555
O  O159  1  0.20460000  0.54810000  0.53617000  1.0 -0.5110088555
O  O160  1  0.79540000  0.45190000  0.53617000  1.0 -0.5110088555
O  O161  1  0.09030000  0.29720000  0.16668000  1.0 -0.5342957904
O  O162  1  0.90970000  0.70280000  0.16668000  1.0 -0.5342957904
O  O163  1  0.70280000  0.09030000  0.16668000  1.0 -0.5342957904
O  O164  1  0.29720000  0.90970000  0.16668000  1.0 -0.5342957904
O  O165  1  0.40970000  0.79720000  0.33333333  1.0 -0.5342957904
O  O166  1  0.59030000  0.20280000  0.33333333  1.0 -0.5342957904
O  O167  1  0.79720000  0.59030000  0.33333333  1.0 -0.5342957904
O  O168  1  0.20280000  0.40970000  0.33333333  1.0 -0.5342957904
O  O169  1  0.90970000  0.70280000  0.83332000  1.0 -0.5342957904
O  O170  1  0.09030000  0.29720000  0.83332000  1.0 -0.5342957904
O  O171  1  0.29720000  0.90970000  0.83332000  1.0 -0.5342957904
O  O172  1  0.70280000  0.09030000  0.83332000  1.0 -0.5342957904
O  O173  1  0.59030000  0.20280000  0.66666667  1.0 -0.5342957904
O  O174  1  0.40970000  0.79720000  0.66666667  1.0 -0.5342957904
O  O175  1  0.20280000  0.40970000  0.66666667  1.0 -0.5342957904
O  O176  1  0.79720000  0.59030000  0.66666667  1.0 -0.5342957904
O  O177  1  0.06240000  0.24220000  0.12828000  1.0 -0.4804498473
O  O178  1  0.93760000  0.75780000  0.12828000  1.0 -0.4804498473
O  O179  1  0.75780000  0.06240000  0.12828000  1.0 -0.4804498473
O  O180  1  0.24220000  0.93760000  0.12828000  1.0 -0.4804498473
O  O181  1  0.43760000  0.74220000  0.37172000  1.0 -0.4804498473
O  O182  1  0.56240000  0.25780000  0.37172000  1.0 -0.4804498473
O  O183  1  0.74220000  0.56240000  0.37172000  1.0 -0.4804498473
O  O184  1  0.25780000  0.43760000  0.37172000  1.0 -0.4804498473
O  O185  1  0.93760000  0.75780000  0.87172000  1.0 -0.4804498473
O  O186  1  0.06240000  0.24220000  0.87172000  1.0 -0.4804498473
O  O187  1  0.24220000  0.93760000  0.87172000  1.0 -0.4804498473
O  O188  1  0.75780000  0.06240000  0.87172000  1.0 -0.4804498473
O  O189  1  0.56240000  0.25780000  0.62828000  1.0 -0.4804498473
O  O190  1  0.43760000  0.74220000  0.62828000  1.0 -0.4804498473
O  O191  1  0.25780000  0.43760000  0.62828000  1.0 -0.4804498473
O  O192  1  0.74220000  0.56240000  0.62828000  1.0 -0.4804498473
