# DDEC6 charges by PACMAN v1.1 (https://github.com/mtap-research/PACMAN-charge/)
data_GAGZEV_ASR_pacman
_symmetry_space_group_name_H-M   'P 1'
_cell_length_a   42.33590000
_cell_length_b   42.33590000
_cell_length_c   42.33590000
_cell_angle_alpha   60.00000000
_cell_angle_beta   60.00000000
_cell_angle_gamma   60.00000000
_symmetry_Int_Tables_number   1
_chemical_formula_structural   CuH8(C5O)4
_chemical_formula_sum   'Cu24 H192 C480 O96'
_cell_volume   53655.14738943
_cell_formula_units_Z   24
loop_
 _symmetry_equiv_pos_site_id
 _symmetry_equiv_pos_as_xyz
  1  'x, y, z'
loop_
 _atom_site_type_symbol
 _atom_site_label
 _atom_site_symmetry_multiplicity
 _atom_site_fract_x
 _atom_site_fract_y
 _atom_site_fract_z
 _atom_site_occupancy
 _atom_site_charge
Cu  Cu1  1  0.68927000  0.50000000  0.50000000  1.0 0.9033318565
Cu  Cu2  1  0.50000000  0.68927000  0.31073000  1.0 0.9033318565
Cu  Cu3  1  0.50000000  0.31073000  0.68927000  1.0 0.9033318565
Cu  Cu4  1  0.31073000  0.50000000  0.50000000  1.0 0.9033318565
Cu  Cu5  1  0.50000000  0.68927000  0.50000000  1.0 0.9033318565
Cu  Cu6  1  0.31073000  0.50000000  0.68927000  1.0 0.9033318565
Cu  Cu7  1  0.68927000  0.50000000  0.31073000  1.0 0.9033318565
Cu  Cu8  1  0.50000000  0.31073000  0.50000000  1.0 0.9033318565
Cu  Cu9  1  0.50000000  0.50000000  0.68927000  1.0 0.9033318565
Cu  Cu10  1  0.68927000  0.31073000  0.50000000  1.0 0.9033318565
Cu  Cu11  1  0.31073000  0.68927000  0.50000000  1.0 0.9033318565
Cu  Cu12  1  0.50000000  0.50000000  0.31073000  1.0 0.9033318565
Cu  Cu13  1  0.75189000  0.50000000  0.50000000  1.0 0.8730928258
Cu  Cu14  1  0.50000000  0.75189000  0.24811000  1.0 0.8730928258
Cu  Cu15  1  0.50000000  0.24811000  0.75189000  1.0 0.8730928258
Cu  Cu16  1  0.24811000  0.50000000  0.50000000  1.0 0.8730928258
Cu  Cu17  1  0.50000000  0.75189000  0.50000000  1.0 0.8730928258
Cu  Cu18  1  0.24811000  0.50000000  0.75189000  1.0 0.8730928258
Cu  Cu19  1  0.75189000  0.50000000  0.24811000  1.0 0.8730928258
Cu  Cu20  1  0.50000000  0.24811000  0.50000000  1.0 0.8730928258
Cu  Cu21  1  0.50000000  0.50000000  0.75189000  1.0 0.8730928258
Cu  Cu22  1  0.75189000  0.24811000  0.50000000  1.0 0.8730928258
Cu  Cu23  1  0.24811000  0.75189000  0.50000000  1.0 0.8730928258
Cu  Cu24  1  0.50000000  0.50000000  0.24811000  1.0 0.8730928258
H  H1  1  0.71710000  0.62111000  0.48011000  1.0 0.1309933816
H  H2  1  0.62111000  0.71710000  0.18168000  1.0 0.1309933816
H  H3  1  0.48010000  0.18169000  0.71710000  1.0 0.1309933816
H  H4  1  0.18168000  0.48010000  0.62111000  1.0 0.1309933816
H  H5  1  0.48010000  0.71710000  0.62111000  1.0 0.1309933816
H  H6  1  0.18168000  0.62111000  0.71710000  1.0 0.1309933816
H  H7  1  0.71710000  0.48010000  0.18168000  1.0 0.1309933816
H  H8  1  0.62111000  0.18169000  0.48011000  1.0 0.1309933816
H  H9  1  0.62111000  0.48010000  0.71710000  1.0 0.1309933816
H  H10  1  0.71711000  0.18169000  0.62111000  1.0 0.1309933816
H  H11  1  0.18169000  0.71710000  0.48011000  1.0 0.1309933816
H  H12  1  0.48011000  0.62111000  0.18168000  1.0 0.1309933816
H  H13  1  0.28290000  0.37889000  0.81831000  1.0 0.1309933816
H  H14  1  0.37889000  0.28290000  0.51989000  1.0 0.1309933816
H  H15  1  0.51990000  0.81832000  0.37889000  1.0 0.1309933816
H  H16  1  0.81831000  0.51989000  0.28290000  1.0 0.1309933816
H  H17  1  0.51990000  0.28290000  0.81831000  1.0 0.1309933816
H  H18  1  0.81832000  0.37889000  0.51989000  1.0 0.1309933816
H  H19  1  0.28290000  0.51989000  0.37889000  1.0 0.1309933816
H  H20  1  0.37889000  0.81832000  0.28290000  1.0 0.1309933816
H  H21  1  0.37890000  0.51989000  0.81831000  1.0 0.1309933816
H  H22  1  0.28289000  0.81832000  0.51989000  1.0 0.1309933816
H  H23  1  0.81832000  0.28290000  0.37889000  1.0 0.1309933816
H  H24  1  0.51989000  0.37890000  0.28290000  1.0 0.1309933816
H  H25  1  0.28290000  0.37889000  0.51989000  1.0 0.1309933816
H  H26  1  0.37889000  0.28290000  0.81831000  1.0 0.1309933816
H  H27  1  0.51990000  0.81832000  0.28290000  1.0 0.1309933816
H  H28  1  0.81832000  0.51989000  0.37889000  1.0 0.1309933816
H  H29  1  0.51990000  0.28290000  0.37889000  1.0 0.1309933816
H  H30  1  0.81831000  0.37890000  0.28290000  1.0 0.1309933816
H  H31  1  0.28290000  0.51989000  0.81831000  1.0 0.1309933816
H  H32  1  0.37889000  0.81832000  0.51989000  1.0 0.1309933816
H  H33  1  0.37890000  0.51989000  0.28290000  1.0 0.1309933816
H  H34  1  0.28290000  0.81832000  0.37889000  1.0 0.1309933816
H  H35  1  0.81831000  0.28290000  0.51989000  1.0 0.1309933816
H  H36  1  0.51990000  0.37889000  0.81831000  1.0 0.1309933816
H  H37  1  0.71710000  0.62111000  0.18168000  1.0 0.1309933816
H  H38  1  0.62110000  0.71710000  0.48011000  1.0 0.1309933816
H  H39  1  0.48011000  0.18169000  0.62111000  1.0 0.1309933816
H  H40  1  0.18168000  0.48010000  0.71710000  1.0 0.1309933816
H  H41  1  0.48011000  0.71710000  0.18168000  1.0 0.1309933816
H  H42  1  0.18168000  0.62111000  0.48011000  1.0 0.1309933816
H  H43  1  0.71710000  0.48010000  0.62111000  1.0 0.1309933816
H  H44  1  0.62111000  0.18169000  0.71710000  1.0 0.1309933816
H  H45  1  0.62111000  0.48010000  0.18168000  1.0 0.1309933816
H  H46  1  0.71711000  0.18169000  0.48011000  1.0 0.1309933816
H  H47  1  0.18168000  0.71710000  0.62111000  1.0 0.1309933816
H  H48  1  0.48010000  0.62111000  0.71710000  1.0 0.1309933816
H  H49  1  0.77900000  0.68541000  0.47420000  1.0 0.1227916776
H  H50  1  0.68541000  0.77900000  0.06138000  1.0 0.1227916776
H  H51  1  0.47421000  0.06139000  0.77900000  1.0 0.1227916776
H  H52  1  0.06139000  0.47420000  0.68541000  1.0 0.1227916776
H  H53  1  0.47421000  0.77900000  0.68541000  1.0 0.1227916776
H  H54  1  0.06139000  0.68541000  0.77900000  1.0 0.1227916776
H  H55  1  0.77900000  0.47420000  0.06138000  1.0 0.1227916776
H  H56  1  0.68541000  0.06139000  0.47420000  1.0 0.1227916776
H  H57  1  0.68541000  0.47420000  0.77900000  1.0 0.1227916776
H  H58  1  0.77900000  0.06138000  0.68541000  1.0 0.1227916776
H  H59  1  0.06138000  0.77900000  0.47420000  1.0 0.1227916776
H  H60  1  0.47420000  0.68541000  0.06138000  1.0 0.1227916776
H  H61  1  0.22099000  0.31460000  0.93861000  1.0 0.1227916776
H  H62  1  0.31460000  0.22099000  0.52580000  1.0 0.1227916776
H  H63  1  0.52579000  0.93861000  0.31459000  1.0 0.1227916776
H  H64  1  0.93861000  0.52580000  0.22099000  1.0 0.1227916776
H  H65  1  0.52580000  0.22099000  0.93861000  1.0 0.1227916776
H  H66  1  0.93861000  0.31460000  0.52580000  1.0 0.1227916776
H  H67  1  0.22100000  0.52580000  0.31459000  1.0 0.1227916776
H  H68  1  0.31460000  0.93861000  0.22099000  1.0 0.1227916776
H  H69  1  0.31460000  0.52580000  0.93861000  1.0 0.1227916776
H  H70  1  0.22099000  0.93861000  0.52580000  1.0 0.1227916776
H  H71  1  0.93861000  0.22100000  0.31459000  1.0 0.1227916776
H  H72  1  0.52580000  0.31460000  0.22099000  1.0 0.1227916776
H  H73  1  0.22099000  0.31460000  0.52580000  1.0 0.1227916776
H  H74  1  0.31460000  0.22099000  0.93861000  1.0 0.1227916776
H  H75  1  0.52579000  0.93861000  0.22099000  1.0 0.1227916776
H  H76  1  0.93861000  0.52580000  0.31459000  1.0 0.1227916776
H  H77  1  0.52579000  0.22100000  0.31459000  1.0 0.1227916776
H  H78  1  0.93861000  0.31460000  0.22099000  1.0 0.1227916776
H  H79  1  0.22100000  0.52580000  0.93861000  1.0 0.1227916776
H  H80  1  0.31459000  0.93861000  0.52580000  1.0 0.1227916776
H  H81  1  0.31460000  0.52580000  0.22099000  1.0 0.1227916776
H  H82  1  0.22099000  0.93861000  0.31459000  1.0 0.1227916776
H  H83  1  0.93861000  0.22099000  0.52580000  1.0 0.1227916776
H  H84  1  0.52580000  0.31460000  0.93861000  1.0 0.1227916776
H  H85  1  0.77900000  0.68541000  0.06138000  1.0 0.1227916776
H  H86  1  0.68541000  0.77900000  0.47420000  1.0 0.1227916776
H  H87  1  0.47420000  0.06138000  0.68541000  1.0 0.1227916776
H  H88  1  0.06138000  0.47420000  0.77900000  1.0 0.1227916776
H  H89  1  0.47421000  0.77900000  0.06138000  1.0 0.1227916776
H  H90  1  0.06139000  0.68541000  0.47420000  1.0 0.1227916776
H  H91  1  0.77900000  0.47420000  0.68541000  1.0 0.1227916776
H  H92  1  0.68541000  0.06139000  0.77900000  1.0 0.1227916776
H  H93  1  0.68541000  0.47420000  0.06138000  1.0 0.1227916776
H  H94  1  0.77900000  0.06139000  0.47420000  1.0 0.1227916776
H  H95  1  0.06138000  0.77900000  0.68541000  1.0 0.1227916776
H  H96  1  0.47420000  0.68541000  0.77900000  1.0 0.1227916776
H  H97  1  0.81351000  0.71930000  0.46891000  1.0 0.1227916776
H  H98  1  0.71931000  0.81351000  0.99828000  1.0 0.1227916776
H  H99  1  0.46891000  0.99828000  0.81350000  1.0 0.1227916776
H  H100  1  0.99828000  0.46891000  0.71930000  1.0 0.1227916776
H  H101  1  0.46890000  0.81351000  0.71930000  1.0 0.1227916776
H  H102  1  0.99828000  0.71931000  0.81350000  1.0 0.1227916776
H  H103  1  0.81351000  0.46891000  0.99828000  1.0 0.1227916776
H  H104  1  0.71930000  0.99828000  0.46891000  1.0 0.1227916776
H  H105  1  0.71931000  0.46891000  0.81350000  1.0 0.1227916776
H  H106  1  0.81350000  0.99828000  0.71930000  1.0 0.1227916776
H  H107  1  0.99829000  0.81351000  0.46891000  1.0 0.1227916776
H  H108  1  0.46890000  0.71930000  0.99828000  1.0 0.1227916776
H  H109  1  0.18649000  0.28069000  0.00171000  1.0 0.1227916776
H  H110  1  0.28070000  0.18649000  0.53109000  1.0 0.1227916776
H  H111  1  0.53109000  0.00172000  0.28069000  1.0 0.1227916776
H  H112  1  0.00172000  0.53109000  0.18649000  1.0 0.1227916776
H  H113  1  0.53109000  0.18649000  0.00171000  1.0 0.1227916776
H  H114  1  0.00172000  0.28069000  0.53109000  1.0 0.1227916776
H  H115  1  0.18649000  0.53109000  0.28069000  1.0 0.1227916776
H  H116  1  0.28069000  0.00171000  0.18649000  1.0 0.1227916776
H  H117  1  0.28069000  0.53109000  0.00171000  1.0 0.1227916776
H  H118  1  0.18650000  0.00172000  0.53109000  1.0 0.1227916776
H  H119  1  0.00171000  0.18649000  0.28069000  1.0 0.1227916776
H  H120  1  0.53110000  0.28069000  0.18649000  1.0 0.1227916776
H  H121  1  0.18649000  0.28069000  0.53109000  1.0 0.1227916776
H  H122  1  0.28069000  0.18649000  0.00171000  1.0 0.1227916776
H  H123  1  0.53109000  0.00171000  0.18649000  1.0 0.1227916776
H  H124  1  0.00172000  0.53109000  0.28069000  1.0 0.1227916776
H  H125  1  0.53109000  0.18649000  0.28069000  1.0 0.1227916776
H  H126  1  0.00172000  0.28069000  0.18649000  1.0 0.1227916776
H  H127  1  0.18649000  0.53109000  0.00171000  1.0 0.1227916776
H  H128  1  0.28070000  0.00172000  0.53109000  1.0 0.1227916776
H  H129  1  0.28069000  0.53109000  0.18649000  1.0 0.1227916776
H  H130  1  0.18649000  0.00172000  0.28069000  1.0 0.1227916776
H  H131  1  0.00172000  0.18649000  0.53109000  1.0 0.1227916776
H  H132  1  0.53109000  0.28069000  0.00171000  1.0 0.1227916776
H  H133  1  0.81351000  0.71930000  0.99828000  1.0 0.1227916776
H  H134  1  0.71930000  0.81351000  0.46891000  1.0 0.1227916776
H  H135  1  0.46891000  0.99828000  0.71930000  1.0 0.1227916776
H  H136  1  0.99828000  0.46891000  0.81350000  1.0 0.1227916776
H  H137  1  0.46890000  0.81351000  0.99828000  1.0 0.1227916776
H  H138  1  0.99829000  0.71930000  0.46891000  1.0 0.1227916776
H  H139  1  0.81351000  0.46891000  0.71930000  1.0 0.1227916776
H  H140  1  0.71930000  0.99828000  0.81350000  1.0 0.1227916776
H  H141  1  0.71930000  0.46891000  0.99828000  1.0 0.1227916776
H  H142  1  0.81351000  0.99828000  0.46891000  1.0 0.1227916776
H  H143  1  0.99828000  0.81351000  0.71930000  1.0 0.1227916776
H  H144  1  0.46891000  0.71931000  0.81350000  1.0 0.1227916776
H  H145  1  0.61900000  0.61901000  0.48840000  1.0 0.1309933816
H  H146  1  0.61901000  0.61901000  0.27359000  1.0 0.1309933816
H  H147  1  0.48841000  0.27358000  0.61901000  1.0 0.1309933816
H  H148  1  0.27359000  0.48840000  0.61901000  1.0 0.1309933816
H  H149  1  0.48840000  0.61901000  0.61901000  1.0 0.1309933816
H  H150  1  0.27359000  0.61901000  0.61901000  1.0 0.1309933816
H  H151  1  0.61901000  0.48840000  0.27359000  1.0 0.1309933816
H  H152  1  0.61901000  0.27359000  0.48840000  1.0 0.1309933816
H  H153  1  0.61901000  0.48840000  0.61901000  1.0 0.1309933816
H  H154  1  0.61901000  0.27358000  0.61901000  1.0 0.1309933816
H  H155  1  0.27358000  0.61901000  0.48840000  1.0 0.1309933816
H  H156  1  0.48840000  0.61901000  0.27359000  1.0 0.1309933816
H  H157  1  0.38100000  0.38099000  0.72641000  1.0 0.1309933816
H  H158  1  0.38100000  0.38099000  0.51160000  1.0 0.1309933816
H  H159  1  0.51160000  0.72642000  0.38099000  1.0 0.1309933816
H  H160  1  0.72641000  0.51160000  0.38099000  1.0 0.1309933816
H  H161  1  0.51160000  0.38099000  0.72641000  1.0 0.1309933816
H  H162  1  0.72642000  0.38099000  0.51160000  1.0 0.1309933816
H  H163  1  0.38099000  0.51160000  0.38099000  1.0 0.1309933816
H  H164  1  0.38099000  0.72642000  0.38099000  1.0 0.1309933816
H  H165  1  0.38100000  0.51160000  0.72641000  1.0 0.1309933816
H  H166  1  0.38099000  0.72642000  0.51160000  1.0 0.1309933816
H  H167  1  0.72641000  0.38099000  0.38099000  1.0 0.1309933816
H  H168  1  0.51160000  0.38099000  0.38099000  1.0 0.1309933816
H  H169  1  0.87599000  0.78121000  0.46680000  1.0 0.1309933816
H  H170  1  0.78120000  0.87600000  0.87599000  1.0 0.1309933816
H  H171  1  0.46680000  0.87600000  0.87599000  1.0 0.1309933816
H  H172  1  0.87599000  0.46680000  0.78120000  1.0 0.1309933816
H  H173  1  0.46680000  0.87600000  0.78120000  1.0 0.1309933816
H  H174  1  0.87600000  0.78121000  0.87599000  1.0 0.1309933816
H  H175  1  0.87600000  0.46680000  0.87599000  1.0 0.1309933816
H  H176  1  0.78120000  0.87600000  0.46680000  1.0 0.1309933816
H  H177  1  0.78121000  0.46680000  0.87599000  1.0 0.1309933816
H  H178  1  0.87599000  0.87600000  0.78120000  1.0 0.1309933816
H  H179  1  0.87599000  0.87600000  0.46680000  1.0 0.1309933816
H  H180  1  0.46681000  0.78121000  0.87599000  1.0 0.1309933816
H  H181  1  0.12400000  0.21879000  0.12401000  1.0 0.1309933816
H  H182  1  0.21879000  0.12400000  0.53319000  1.0 0.1309933816
H  H183  1  0.53319000  0.12400000  0.21879000  1.0 0.1309933816
H  H184  1  0.12400000  0.53319000  0.12401000  1.0 0.1309933816
H  H185  1  0.53319000  0.12400000  0.12401000  1.0 0.1309933816
H  H186  1  0.12400000  0.21880000  0.53319000  1.0 0.1309933816
H  H187  1  0.12400000  0.53319000  0.21879000  1.0 0.1309933816
H  H188  1  0.21879000  0.12400000  0.12401000  1.0 0.1309933816
H  H189  1  0.21879000  0.53319000  0.12401000  1.0 0.1309933816
H  H190  1  0.12401000  0.12400000  0.53319000  1.0 0.1309933816
H  H191  1  0.12401000  0.12400000  0.21879000  1.0 0.1309933816
H  H192  1  0.53319000  0.21879000  0.12401000  1.0 0.1309933816
C  C1  1  0.69071000  0.57539000  0.48599000  1.0 0.535465554
C  C2  1  0.57539000  0.69071000  0.24792000  1.0 0.535465554
C  C3  1  0.48599000  0.24793000  0.69071000  1.0 0.535465554
C  C4  1  0.24792000  0.48599000  0.57539000  1.0 0.5348680174
C  C5  1  0.48599000  0.69070000  0.57539000  1.0 0.5348680174
C  C6  1  0.24793000  0.57538000  0.69071000  1.0 0.535465554
C  C7  1  0.69071000  0.48599000  0.24792000  1.0 0.535465554
C  C8  1  0.57539000  0.24792000  0.48599000  1.0 0.5348680174
C  C9  1  0.57539000  0.48598000  0.69071000  1.0 0.5348680174
C  C10  1  0.69071000  0.24792000  0.57539000  1.0 0.535465554
C  C11  1  0.24792000  0.69071000  0.48599000  1.0 0.535465554
C  C12  1  0.48599000  0.57539000  0.24792000  1.0 0.5348680174
C  C13  1  0.30929000  0.42461000  0.75208000  1.0 0.535465554
C  C14  1  0.42462000  0.30929000  0.51401000  1.0 0.535465554
C  C15  1  0.51401000  0.75208000  0.42462000  1.0 0.535465554
C  C16  1  0.75208000  0.51402000  0.30929000  1.0 0.535465554
C  C17  1  0.51401000  0.30929000  0.75208000  1.0 0.535465554
C  C18  1  0.75208000  0.42462000  0.51401000  1.0 0.535465554
C  C19  1  0.30929000  0.51402000  0.42462000  1.0 0.535465554
C  C20  1  0.42461000  0.75208000  0.30929000  1.0 0.5348680174
C  C21  1  0.42462000  0.51401000  0.75208000  1.0 0.535465554
C  C22  1  0.30929000  0.75208000  0.51401000  1.0 0.535465554
C  C23  1  0.75207000  0.30930000  0.42462000  1.0 0.535465554
C  C24  1  0.51401000  0.42462000  0.30929000  1.0 0.535465554
C  C25  1  0.30929000  0.42462000  0.51401000  1.0 0.535465554
C  C26  1  0.42462000  0.30929000  0.75208000  1.0 0.535465554
C  C27  1  0.51401000  0.75208000  0.30929000  1.0 0.535465554
C  C28  1  0.75208000  0.51402000  0.42462000  1.0 0.535465554
C  C29  1  0.51401000  0.30930000  0.42462000  1.0 0.535465554
C  C30  1  0.75207000  0.42462000  0.30929000  1.0 0.535465554
C  C31  1  0.30929000  0.51401000  0.75208000  1.0 0.535465554
C  C32  1  0.42462000  0.75208000  0.51401000  1.0 0.535465554
C  C33  1  0.42461000  0.51402000  0.30929000  1.0 0.535465554
C  C34  1  0.30929000  0.75208000  0.42462000  1.0 0.535465554
C  C35  1  0.75208000  0.30929000  0.51401000  1.0 0.535465554
C  C36  1  0.51401000  0.42461000  0.75208000  1.0 0.535465554
C  C37  1  0.69071000  0.57539000  0.24792000  1.0 0.5348680174
C  C38  1  0.57538000  0.69071000  0.48599000  1.0 0.535465554
C  C39  1  0.48599000  0.24792000  0.57539000  1.0 0.535465554
C  C40  1  0.24792000  0.48598000  0.69071000  1.0 0.5348680174
C  C41  1  0.48599000  0.69071000  0.24792000  1.0 0.535465554
C  C42  1  0.24792000  0.57539000  0.48599000  1.0 0.5348680174
C  C43  1  0.69071000  0.48599000  0.57539000  1.0 0.5348680174
C  C44  1  0.57538000  0.24793000  0.69071000  1.0 0.535465554
C  C45  1  0.57538000  0.48599000  0.24792000  1.0 0.535465554
C  C46  1  0.69071000  0.24792000  0.48599000  1.0 0.535465554
C  C47  1  0.24793000  0.69070000  0.57539000  1.0 0.535465554
C  C48  1  0.48599000  0.57538000  0.69071000  1.0 0.535465554
C  C49  1  0.67054000  0.61330000  0.48540000  1.0 -0.0843141173
C  C50  1  0.61330000  0.67054000  0.23075000  1.0 -0.0843141173
C  C51  1  0.48540000  0.23075000  0.67054000  1.0 -0.0843141173
C  C52  1  0.23074000  0.48540000  0.61330000  1.0 -0.0843141173
C  C53  1  0.48541000  0.67054000  0.61330000  1.0 -0.0843141173
C  C54  1  0.23074000  0.61330000  0.67054000  1.0 -0.0843141173
C  C55  1  0.67055000  0.48540000  0.23075000  1.0 -0.0843141173
C  C56  1  0.61330000  0.23075000  0.48540000  1.0 -0.0843141173
C  C57  1  0.61330000  0.48540000  0.67054000  1.0 -0.0843141173
C  C58  1  0.67054000  0.23074000  0.61330000  1.0 -0.0843141173
C  C59  1  0.23075000  0.67054000  0.48540000  1.0 -0.0843141173
C  C60  1  0.48541000  0.61330000  0.23075000  1.0 -0.0843141173
C  C61  1  0.32946000  0.38670000  0.76926000  1.0 -0.0843141173
C  C62  1  0.38670000  0.32945000  0.51460000  1.0 -0.0843141173
C  C63  1  0.51460000  0.76926000  0.38670000  1.0 -0.0843141173
C  C64  1  0.76926000  0.51460000  0.32945000  1.0 -0.0843141173
C  C65  1  0.51460000  0.32946000  0.76926000  1.0 -0.0843141173
C  C66  1  0.76926000  0.38670000  0.51460000  1.0 -0.0843141173
C  C67  1  0.32945000  0.51460000  0.38670000  1.0 -0.0843141173
C  C68  1  0.38670000  0.76926000  0.32945000  1.0 -0.0843141173
C  C69  1  0.38670000  0.51460000  0.76926000  1.0 -0.0843141173
C  C70  1  0.32945000  0.76926000  0.51460000  1.0 -0.0843141173
C  C71  1  0.76926000  0.32946000  0.38670000  1.0 -0.0843141173
C  C72  1  0.51459000  0.38670000  0.32945000  1.0 -0.0843141173
C  C73  1  0.32945000  0.38670000  0.51460000  1.0 -0.0843141173
C  C74  1  0.38670000  0.32946000  0.76926000  1.0 -0.0843141173
C  C75  1  0.51459000  0.76926000  0.32945000  1.0 -0.0843141173
C  C76  1  0.76926000  0.51460000  0.38670000  1.0 -0.0843141173
C  C77  1  0.51460000  0.32946000  0.38670000  1.0 -0.0843141173
C  C78  1  0.76926000  0.38670000  0.32945000  1.0 -0.0843141173
C  C79  1  0.32945000  0.51460000  0.76926000  1.0 -0.0843141173
C  C80  1  0.38670000  0.76926000  0.51460000  1.0 -0.0843141173
C  C81  1  0.38669000  0.51460000  0.32945000  1.0 -0.0843141173
C  C82  1  0.32946000  0.76926000  0.38670000  1.0 -0.0843141173
C  C83  1  0.76926000  0.32945000  0.51460000  1.0 -0.0843141173
C  C84  1  0.51460000  0.38670000  0.76926000  1.0 -0.0843141173
C  C85  1  0.67054000  0.61330000  0.23075000  1.0 -0.0843141173
C  C86  1  0.61330000  0.67054000  0.48540000  1.0 -0.0843141173
C  C87  1  0.48541000  0.23074000  0.61330000  1.0 -0.0843141173
C  C88  1  0.23075000  0.48540000  0.67054000  1.0 -0.0843141173
C  C89  1  0.48540000  0.67054000  0.23075000  1.0 -0.0843141173
C  C90  1  0.23074000  0.61330000  0.48540000  1.0 -0.0843141173
C  C91  1  0.67055000  0.48540000  0.61330000  1.0 -0.0843141173
C  C92  1  0.61330000  0.23075000  0.67054000  1.0 -0.0843141173
C  C93  1  0.61330000  0.48540000  0.23075000  1.0 -0.0843141173
C  C94  1  0.67054000  0.23075000  0.48540000  1.0 -0.0843141173
C  C95  1  0.23074000  0.67054000  0.61330000  1.0 -0.0843141173
C  C96  1  0.48541000  0.61330000  0.67054000  1.0 -0.0843141173
C  C97  1  0.69093000  0.63384000  0.48082000  1.0 -0.0986678215
C  C98  1  0.63384000  0.69093000  0.19440000  1.0 -0.0986678215
C  C99  1  0.48082000  0.19440000  0.69093000  1.0 -0.0986678215
C  C100  1  0.19440000  0.48083000  0.63384000  1.0 -0.0986678215
C  C101  1  0.48083000  0.69092000  0.63384000  1.0 -0.0986678215
C  C102  1  0.19440000  0.63384000  0.69093000  1.0 -0.0986678215
C  C103  1  0.69092000  0.48083000  0.19440000  1.0 -0.0986678215
C  C104  1  0.63385000  0.19440000  0.48082000  1.0 -0.0986678215
C  C105  1  0.63384000  0.48083000  0.69093000  1.0 -0.0986678215
C  C106  1  0.69093000  0.19440000  0.63384000  1.0 -0.0986678215
C  C107  1  0.19440000  0.69093000  0.48082000  1.0 -0.0986678215
C  C108  1  0.48083000  0.63384000  0.19440000  1.0 -0.0986678215
C  C109  1  0.30908000  0.36616000  0.80559000  1.0 -0.0986678215
C  C110  1  0.36615000  0.30908000  0.51918000  1.0 -0.0986678215
C  C111  1  0.51918000  0.80560000  0.36616000  1.0 -0.0986678215
C  C112  1  0.80560000  0.51918000  0.30907000  1.0 -0.0986678215
C  C113  1  0.51918000  0.30908000  0.80559000  1.0 -0.0986678215
C  C114  1  0.80559000  0.36616000  0.51918000  1.0 -0.0986678215
C  C115  1  0.30907000  0.51918000  0.36616000  1.0 -0.0986678215
C  C116  1  0.36616000  0.80560000  0.30907000  1.0 -0.0986678215
C  C117  1  0.36616000  0.51918000  0.80559000  1.0 -0.0986678215
C  C118  1  0.30907000  0.80560000  0.51918000  1.0 -0.0986678215
C  C119  1  0.80559000  0.30907000  0.36616000  1.0 -0.0986678215
C  C120  1  0.51918000  0.36616000  0.30907000  1.0 -0.0986678215
C  C121  1  0.30907000  0.36616000  0.51918000  1.0 -0.0986678215
C  C122  1  0.36616000  0.30908000  0.80559000  1.0 -0.0986678215
C  C123  1  0.51918000  0.80560000  0.30907000  1.0 -0.0986678215
C  C124  1  0.80559000  0.51918000  0.36616000  1.0 -0.0986678215
C  C125  1  0.51917000  0.30907000  0.36616000  1.0 -0.0986678215
C  C126  1  0.80559000  0.36616000  0.30907000  1.0 -0.0986678215
C  C127  1  0.30908000  0.51918000  0.80559000  1.0 -0.0986678215
C  C128  1  0.36616000  0.80560000  0.51918000  1.0 -0.0986678215
C  C129  1  0.36616000  0.51918000  0.30907000  1.0 -0.0986678215
C  C130  1  0.30907000  0.80560000  0.36616000  1.0 -0.0986678215
C  C131  1  0.80559000  0.30908000  0.51918000  1.0 -0.0986678215
C  C132  1  0.51918000  0.36616000  0.80559000  1.0 -0.0986678215
C  C133  1  0.69093000  0.63384000  0.19440000  1.0 -0.0986678215
C  C134  1  0.63384000  0.69093000  0.48082000  1.0 -0.0986678215
C  C135  1  0.48083000  0.19440000  0.63384000  1.0 -0.0986678215
C  C136  1  0.19440000  0.48083000  0.69093000  1.0 -0.0986678215
C  C137  1  0.48082000  0.69093000  0.19440000  1.0 -0.0986678215
C  C138  1  0.19441000  0.63384000  0.48082000  1.0 -0.0986678215
C  C139  1  0.69092000  0.48083000  0.63384000  1.0 -0.0986678215
C  C140  1  0.63384000  0.19440000  0.69093000  1.0 -0.0986678215
C  C141  1  0.63384000  0.48083000  0.19440000  1.0 -0.0986678215
C  C142  1  0.69093000  0.19440000  0.48082000  1.0 -0.0986678215
C  C143  1  0.19441000  0.69092000  0.63384000  1.0 -0.0986678215
C  C144  1  0.48082000  0.63384000  0.69093000  1.0 -0.0986678215
C  C145  1  0.76740000  0.71200000  0.47160000  1.0 -0.1276172069
C  C146  1  0.71200000  0.76741000  0.04899000  1.0 -0.1276172069
C  C147  1  0.47161000  0.04899000  0.76740000  1.0 -0.1234350646
C  C148  1  0.04899000  0.47160000  0.71200000  1.0 -0.1276172069
C  C149  1  0.47161000  0.76741000  0.71200000  1.0 -0.1276172069
C  C150  1  0.04899000  0.71200000  0.76740000  1.0 -0.1276172069
C  C151  1  0.76740000  0.47160000  0.04899000  1.0 -0.1276172069
C  C152  1  0.71200000  0.04898000  0.47160000  1.0 -0.1276172069
C  C153  1  0.71201000  0.47161000  0.76740000  1.0 -0.1276172069
C  C154  1  0.76740000  0.04899000  0.71200000  1.0 -0.1276172069
C  C155  1  0.04899000  0.76740000  0.47160000  1.0 -0.1276172069
C  C156  1  0.47160000  0.71200000  0.04899000  1.0 -0.1276172069
C  C157  1  0.23260000  0.28800000  0.95101000  1.0 -0.1276172069
C  C158  1  0.28800000  0.23259000  0.52839000  1.0 -0.1276172069
C  C159  1  0.52839000  0.95102000  0.28800000  1.0 -0.1276172069
C  C160  1  0.95101000  0.52839000  0.23259000  1.0 -0.1276172069
C  C161  1  0.52840000  0.23259000  0.95101000  1.0 -0.1276172069
C  C162  1  0.95101000  0.28800000  0.52839000  1.0 -0.1276172069
C  C163  1  0.23259000  0.52839000  0.28800000  1.0 -0.1276172069
C  C164  1  0.28799000  0.95102000  0.23259000  1.0 -0.1276172069
C  C165  1  0.28800000  0.52839000  0.95101000  1.0 -0.1276172069
C  C166  1  0.23259000  0.95102000  0.52839000  1.0 -0.1276172069
C  C167  1  0.95101000  0.23259000  0.28800000  1.0 -0.1276172069
C  C168  1  0.52839000  0.28800000  0.23259000  1.0 -0.1276172069
C  C169  1  0.23259000  0.28800000  0.52839000  1.0 -0.1276172069
C  C170  1  0.28800000  0.23259000  0.95101000  1.0 -0.1276172069
C  C171  1  0.52839000  0.95102000  0.23259000  1.0 -0.1276172069
C  C172  1  0.95101000  0.52839000  0.28800000  1.0 -0.1276172069
C  C173  1  0.52839000  0.23259000  0.28800000  1.0 -0.1276172069
C  C174  1  0.95101000  0.28800000  0.23259000  1.0 -0.1276172069
C  C175  1  0.23260000  0.52839000  0.95101000  1.0 -0.1276172069
C  C176  1  0.28799000  0.95102000  0.52839000  1.0 -0.1276172069
C  C177  1  0.28800000  0.52839000  0.23259000  1.0 -0.1276172069
C  C178  1  0.23259000  0.95102000  0.28800000  1.0 -0.1276172069
C  C179  1  0.95101000  0.23259000  0.52839000  1.0 -0.1276172069
C  C180  1  0.52840000  0.28800000  0.95101000  1.0 -0.1276172069
C  C181  1  0.76740000  0.71200000  0.04899000  1.0 -0.1276172069
C  C182  1  0.71200000  0.76740000  0.47160000  1.0 -0.1276172069
C  C183  1  0.47161000  0.04899000  0.71200000  1.0 -0.1276172069
C  C184  1  0.04899000  0.47161000  0.76740000  1.0 -0.1276172069
C  C185  1  0.47160000  0.76741000  0.04899000  1.0 -0.1276172069
C  C186  1  0.04899000  0.71200000  0.47160000  1.0 -0.1276172069
C  C187  1  0.76741000  0.47160000  0.71200000  1.0 -0.1276172069
C  C188  1  0.71201000  0.04899000  0.76740000  1.0 -0.1276172069
C  C189  1  0.71200000  0.47160000  0.04899000  1.0 -0.1234350646
C  C190  1  0.76740000  0.04898000  0.47160000  1.0 -0.1276172069
C  C191  1  0.04899000  0.76741000  0.71200000  1.0 -0.1276172069
C  C192  1  0.47161000  0.71200000  0.76740000  1.0 -0.1276172069
C  C193  1  0.78760000  0.73220000  0.46860000  1.0 -0.1276172069
C  C194  1  0.73220000  0.78760000  0.01158000  1.0 -0.1234350646
C  C195  1  0.46860000  0.01158000  0.78760000  1.0 -0.1276172069
C  C196  1  0.01159000  0.46861000  0.73220000  1.0 -0.1276172069
C  C197  1  0.46860000  0.78761000  0.73220000  1.0 -0.1276172069
C  C198  1  0.01158000  0.73220000  0.78760000  1.0 -0.1276172069
C  C199  1  0.78760000  0.46860000  0.01158000  1.0 -0.1234350646
C  C200  1  0.73220000  0.01158000  0.46860000  1.0 -0.1276172069
C  C201  1  0.73220000  0.46861000  0.78760000  1.0 -0.1276172069
C  C202  1  0.78761000  0.01159000  0.73220000  1.0 -0.1276172069
C  C203  1  0.01159000  0.78760000  0.46860000  1.0 -0.1276172069
C  C204  1  0.46860000  0.73220000  0.01158000  1.0 -0.1276172069
C  C205  1  0.21239000  0.26780000  0.98842000  1.0 -0.1276172069
C  C206  1  0.26779000  0.21239000  0.53139000  1.0 -0.1276172069
C  C207  1  0.53139000  0.98842000  0.26780000  1.0 -0.1276172069
C  C208  1  0.98842000  0.53139000  0.21240000  1.0 -0.1234350646
C  C209  1  0.53139000  0.21239000  0.98842000  1.0 -0.1276172069
C  C210  1  0.98841000  0.26780000  0.53139000  1.0 -0.1276172069
C  C211  1  0.21240000  0.53139000  0.26780000  1.0 -0.1276172069
C  C212  1  0.26779000  0.98842000  0.21240000  1.0 -0.1276172069
C  C213  1  0.26779000  0.53139000  0.98842000  1.0 -0.1276172069
C  C214  1  0.21239000  0.98842000  0.53139000  1.0 -0.1276172069
C  C215  1  0.98842000  0.21240000  0.26780000  1.0 -0.1234350646
C  C216  1  0.53140000  0.26780000  0.21240000  1.0 -0.1276172069
C  C217  1  0.21240000  0.26780000  0.53139000  1.0 -0.1276172069
C  C218  1  0.26779000  0.21239000  0.98842000  1.0 -0.1276172069
C  C219  1  0.53139000  0.98842000  0.21240000  1.0 -0.1276172069
C  C220  1  0.98842000  0.53139000  0.26780000  1.0 -0.1276172069
C  C221  1  0.53140000  0.21240000  0.26780000  1.0 -0.1234350646
C  C222  1  0.98842000  0.26780000  0.21240000  1.0 -0.1276172069
C  C223  1  0.21240000  0.53139000  0.98842000  1.0 -0.1276172069
C  C224  1  0.26779000  0.98842000  0.53139000  1.0 -0.1234350646
C  C225  1  0.26779000  0.53139000  0.21240000  1.0 -0.1276172069
C  C226  1  0.21240000  0.98842000  0.26780000  1.0 -0.1276172069
C  C227  1  0.98842000  0.21239000  0.53139000  1.0 -0.1276172069
C  C228  1  0.53139000  0.26780000  0.98842000  1.0 -0.1276172069
C  C229  1  0.78760000  0.73220000  0.01158000  1.0 -0.1234350646
C  C230  1  0.73220000  0.78760000  0.46860000  1.0 -0.1276172069
C  C231  1  0.46861000  0.01159000  0.73220000  1.0 -0.1276172069
C  C232  1  0.01158000  0.46861000  0.78760000  1.0 -0.1276172069
C  C233  1  0.46860000  0.78760000  0.01158000  1.0 -0.1234350646
C  C234  1  0.01159000  0.73220000  0.46860000  1.0 -0.1276172069
C  C235  1  0.78761000  0.46861000  0.73220000  1.0 -0.1276172069
C  C236  1  0.73220000  0.01158000  0.78760000  1.0 -0.1276172069
C  C237  1  0.73220000  0.46860000  0.01158000  1.0 -0.1234350646
C  C238  1  0.78760000  0.01158000  0.46860000  1.0 -0.1276172069
C  C239  1  0.01159000  0.78761000  0.73220000  1.0 -0.1276172069
C  C240  1  0.46860000  0.73220000  0.78760000  1.0 -0.1276172069
C  C241  1  0.63253000  0.63253000  0.48661000  1.0 -0.0277850341
C  C242  1  0.63253000  0.63253000  0.24832000  1.0 -0.0277850341
C  C243  1  0.48662000  0.24832000  0.63253000  1.0 -0.0277850341
C  C244  1  0.24832000  0.48662000  0.63253000  1.0 -0.0277850341
C  C245  1  0.48662000  0.63253000  0.63253000  1.0 -0.0277850341
C  C246  1  0.24832000  0.63253000  0.63253000  1.0 -0.0277850341
C  C247  1  0.63254000  0.48662000  0.24832000  1.0 -0.0277850341
C  C248  1  0.63254000  0.24832000  0.48661000  1.0 -0.0277850341
C  C249  1  0.63254000  0.48662000  0.63253000  1.0 -0.0277850341
C  C250  1  0.63253000  0.24832000  0.63253000  1.0 -0.0277850341
C  C251  1  0.24832000  0.63253000  0.48661000  1.0 -0.0277850341
C  C252  1  0.48662000  0.63253000  0.24832000  1.0 -0.0277850341
C  C253  1  0.36746000  0.36746000  0.75169000  1.0 -0.0277850341
C  C254  1  0.36747000  0.36746000  0.51338000  1.0 -0.0277850341
C  C255  1  0.51338000  0.75168000  0.36746000  1.0 -0.0277850341
C  C256  1  0.75168000  0.51339000  0.36746000  1.0 -0.0277850341
C  C257  1  0.51338000  0.36746000  0.75169000  1.0 -0.0277850341
C  C258  1  0.75169000  0.36746000  0.51338000  1.0 -0.0277850341
C  C259  1  0.36746000  0.51339000  0.36746000  1.0 -0.0277850341
C  C260  1  0.36747000  0.75168000  0.36746000  1.0 -0.0277850341
C  C261  1  0.36747000  0.51338000  0.75169000  1.0 -0.0277850341
C  C262  1  0.36747000  0.75169000  0.51338000  1.0 -0.0277850341
C  C263  1  0.75169000  0.36747000  0.36746000  1.0 -0.0277850341
C  C264  1  0.51338000  0.36747000  0.36746000  1.0 -0.0277850341
C  C265  1  0.67304000  0.67304000  0.47739000  1.0 0.1227916776
C  C266  1  0.67304000  0.67304000  0.17653000  1.0 0.1309933816
C  C267  1  0.47740000  0.17653000  0.67304000  1.0 0.1309933816
C  C268  1  0.17654000  0.47740000  0.67304000  1.0 0.1227916776
C  C269  1  0.47739000  0.67304000  0.67304000  1.0 0.1309933816
C  C270  1  0.17654000  0.67304000  0.67304000  1.0 0.1309933816
C  C271  1  0.67303000  0.47740000  0.17653000  1.0 0.1309933816
C  C272  1  0.67304000  0.17654000  0.47739000  1.0 0.1227916776
C  C273  1  0.67303000  0.47740000  0.67304000  1.0 0.1227916776
C  C274  1  0.67304000  0.17653000  0.67304000  1.0 0.1309933816
C  C275  1  0.17654000  0.67304000  0.47739000  1.0 0.1227916776
C  C276  1  0.47739000  0.67304000  0.17653000  1.0 0.1309933816
C  C277  1  0.32697000  0.32697000  0.82347000  1.0 0.1227916776
C  C278  1  0.32697000  0.32697000  0.52260000  1.0 0.1227916776
C  C279  1  0.52261000  0.82347000  0.32696000  1.0 0.1227916776
C  C280  1  0.82347000  0.52260000  0.32696000  1.0 0.1227916776
C  C281  1  0.52261000  0.32697000  0.82347000  1.0 0.1227916776
C  C282  1  0.82347000  0.32697000  0.52260000  1.0 0.1227916776
C  C283  1  0.32697000  0.52260000  0.32696000  1.0 0.1227916776
C  C284  1  0.32697000  0.82347000  0.32696000  1.0 0.1227916776
C  C285  1  0.32697000  0.52260000  0.82347000  1.0 0.1227916776
C  C286  1  0.32697000  0.82346000  0.52260000  1.0 0.1227916776
C  C287  1  0.82347000  0.32697000  0.32696000  1.0 0.1227916776
C  C288  1  0.52260000  0.32697000  0.32696000  1.0 0.1227916776
C  C289  1  0.69361000  0.69361000  0.47497000  1.0 -0.0986678215
C  C290  1  0.69361000  0.69361000  0.13783000  1.0 -0.0986678215
C  C291  1  0.47496000  0.13782000  0.69361000  1.0 -0.0986678215
C  C292  1  0.13783000  0.47496000  0.69361000  1.0 -0.0986678215
C  C293  1  0.47496000  0.69361000  0.69361000  1.0 -0.0986678215
C  C294  1  0.13782000  0.69361000  0.69361000  1.0 -0.0986678215
C  C295  1  0.69361000  0.47496000  0.13783000  1.0 -0.0986678215
C  C296  1  0.69360000  0.13782000  0.47497000  1.0 -0.0986678215
C  C297  1  0.69361000  0.47496000  0.69361000  1.0 -0.0986678215
C  C298  1  0.69360000  0.13782000  0.69361000  1.0 -0.0986678215
C  C299  1  0.13783000  0.69361000  0.47497000  1.0 -0.0986678215
C  C300  1  0.47496000  0.69361000  0.13783000  1.0 -0.0986678215
C  C301  1  0.30640000  0.30640000  0.86217000  1.0 -0.0986678215
C  C302  1  0.30639000  0.30639000  0.52504000  1.0 -0.0986678215
C  C303  1  0.52504000  0.86218000  0.30639000  1.0 -0.0986678215
C  C304  1  0.86218000  0.52504000  0.30639000  1.0 -0.0986678215
C  C305  1  0.52504000  0.30640000  0.86217000  1.0 -0.0986678215
C  C306  1  0.86218000  0.30639000  0.52504000  1.0 -0.0986678215
C  C307  1  0.30639000  0.52504000  0.30639000  1.0 -0.0986678215
C  C308  1  0.30640000  0.86218000  0.30639000  1.0 -0.0986678215
C  C309  1  0.30640000  0.52504000  0.86217000  1.0 -0.0986678215
C  C310  1  0.30640000  0.86218000  0.52504000  1.0 -0.0986678215
C  C311  1  0.86218000  0.30639000  0.30639000  1.0 -0.0986678215
C  C312  1  0.52504000  0.30639000  0.30639000  1.0 -0.0986678215
C  C313  1  0.70980000  0.70981000  0.47302000  1.0 -0.0463821087
C  C314  1  0.70980000  0.70981000  0.10737000  1.0 -0.0463821087
C  C315  1  0.47303000  0.10737000  0.70981000  1.0 -0.0463821087
C  C316  1  0.10737000  0.47302000  0.70981000  1.0 -0.0463821087
C  C317  1  0.47303000  0.70980000  0.70981000  1.0 -0.0463821087
C  C318  1  0.10737000  0.70980000  0.70981000  1.0 -0.0463821087
C  C319  1  0.70980000  0.47302000  0.10737000  1.0 -0.0463821087
C  C320  1  0.70981000  0.10737000  0.47302000  1.0 -0.0443963515
C  C321  1  0.70981000  0.47302000  0.70981000  1.0 -0.0463821087
C  C322  1  0.70981000  0.10737000  0.70981000  1.0 -0.0463821087
C  C323  1  0.10737000  0.70981000  0.47302000  1.0 -0.0463821087
C  C324  1  0.47302000  0.70981000  0.10737000  1.0 -0.0463821087
C  C325  1  0.29019000  0.29020000  0.89263000  1.0 -0.0463821087
C  C326  1  0.29019000  0.29020000  0.52697000  1.0 -0.0463821087
C  C327  1  0.52697000  0.89263000  0.29019000  1.0 -0.0463821087
C  C328  1  0.89263000  0.52697000  0.29019000  1.0 -0.0463821087
C  C329  1  0.52697000  0.29020000  0.89263000  1.0 -0.0463821087
C  C330  1  0.89263000  0.29020000  0.52697000  1.0 -0.0463821087
C  C331  1  0.29019000  0.52697000  0.29019000  1.0 -0.0463821087
C  C332  1  0.29019000  0.89263000  0.29019000  1.0 -0.0463821087
C  C333  1  0.29019000  0.52697000  0.89263000  1.0 -0.0463821087
C  C334  1  0.29019000  0.89263000  0.52697000  1.0 -0.0463821087
C  C335  1  0.89263000  0.29019000  0.29019000  1.0 -0.0463821087
C  C336  1  0.52697000  0.29019000  0.29019000  1.0 -0.0463821087
C  C337  1  0.73181000  0.73181000  0.47035000  1.0 0.1041547239
C  C338  1  0.73181000  0.73181000  0.06605000  1.0 0.1057199047
C  C339  1  0.47035000  0.06605000  0.73181000  1.0 0.1041547239
C  C340  1  0.06605000  0.47035000  0.73181000  1.0 0.1057199047
C  C341  1  0.47035000  0.73181000  0.73181000  1.0 0.1057199047
C  C342  1  0.06605000  0.73181000  0.73181000  1.0 0.1057199047
C  C343  1  0.73181000  0.47035000  0.06605000  1.0 0.1041547239
C  C344  1  0.73180000  0.06605000  0.47035000  1.0 0.1041547239
C  C345  1  0.73181000  0.47035000  0.73181000  1.0 0.1057199047
C  C346  1  0.73181000  0.06605000  0.73181000  1.0 0.1057199047
C  C347  1  0.06605000  0.73181000  0.47035000  1.0 0.1057199047
C  C348  1  0.47035000  0.73181000  0.06605000  1.0 0.1057199047
C  C349  1  0.26820000  0.26820000  0.93395000  1.0 0.1057199047
C  C350  1  0.26819000  0.26820000  0.52965000  1.0 0.1057199047
C  C351  1  0.52965000  0.93395000  0.26820000  1.0 0.1057199047
C  C352  1  0.93395000  0.52965000  0.26820000  1.0 0.1041547239
C  C353  1  0.52965000  0.26820000  0.93395000  1.0 0.1057199047
C  C354  1  0.93395000  0.26820000  0.52965000  1.0 0.1041547239
C  C355  1  0.26819000  0.52965000  0.26820000  1.0 0.1057199047
C  C356  1  0.26819000  0.93395000  0.26820000  1.0 0.1057199047
C  C357  1  0.26819000  0.52965000  0.93395000  1.0 0.1057199047
C  C358  1  0.26819000  0.93395000  0.52965000  1.0 0.1057199047
C  C359  1  0.93395000  0.26820000  0.26820000  1.0 0.1057199047
C  C360  1  0.52965000  0.26820000  0.26820000  1.0 0.1057199047
C  C361  1  0.77000000  0.77001000  0.46548000  1.0 0.1309933816
C  C362  1  0.77000000  0.77001000  0.99450000  1.0 0.1309933816
C  C363  1  0.46549000  0.99450000  0.77001000  1.0 0.1309933816
C  C364  1  0.99450000  0.46548000  0.77001000  1.0 0.1309933816
C  C365  1  0.46549000  0.77000000  0.77001000  1.0 0.1309933816
C  C366  1  0.99450000  0.77000000  0.77001000  1.0 0.1309933816
C  C367  1  0.77001000  0.46548000  0.99450000  1.0 0.1309933816
C  C368  1  0.77001000  0.99450000  0.46548000  1.0 0.1309933816
C  C369  1  0.77001000  0.46548000  0.77001000  1.0 0.1309933816
C  C370  1  0.77000000  0.99450000  0.77001000  1.0 0.1309933816
C  C371  1  0.99450000  0.77001000  0.46548000  1.0 0.1309933816
C  C372  1  0.46548000  0.77001000  0.99450000  1.0 0.1309933816
C  C373  1  0.23000000  0.23000000  0.00549000  1.0 0.1309933816
C  C374  1  0.23000000  0.23000000  0.53451000  1.0 0.1309933816
C  C375  1  0.53451000  0.00550000  0.23000000  1.0 0.1309933816
C  C376  1  0.00550000  0.53451000  0.23000000  1.0 0.1309933816
C  C377  1  0.53451000  0.23000000  0.00549000  1.0 0.1309933816
C  C378  1  0.00549000  0.23000000  0.53451000  1.0 0.1309933816
C  C379  1  0.23000000  0.53451000  0.23000000  1.0 0.1309933816
C  C380  1  0.23000000  0.00550000  0.23000000  1.0 0.1309933816
C  C381  1  0.23000000  0.53451000  0.00549000  1.0 0.1309933816
C  C382  1  0.22999000  0.00550000  0.53451000  1.0 0.1309933816
C  C383  1  0.00549000  0.23000000  0.23000000  1.0 0.1309933816
C  C384  1  0.53451000  0.23000000  0.23000000  1.0 0.1309933816
C  C385  1  0.79060000  0.79060000  0.46425000  1.0 -0.112143064
C  C386  1  0.79060000  0.79061000  0.95454000  1.0 -0.112143064
C  C387  1  0.46425000  0.95455000  0.79060000  1.0 -0.112143064
C  C388  1  0.95454000  0.46425000  0.79060000  1.0 -0.112143064
C  C389  1  0.46424000  0.79061000  0.79060000  1.0 -0.112143064
C  C390  1  0.95454000  0.79061000  0.79060000  1.0 -0.112143064
C  C391  1  0.79061000  0.46424000  0.95454000  1.0 -0.112143064
C  C392  1  0.79060000  0.95455000  0.46425000  1.0 -0.112143064
C  C393  1  0.79061000  0.46425000  0.79060000  1.0 -0.112143064
C  C394  1  0.79060000  0.95455000  0.79060000  1.0 -0.112143064
C  C395  1  0.95455000  0.79060000  0.46425000  1.0 -0.112143064
C  C396  1  0.46424000  0.79061000  0.95454000  1.0 -0.112143064
C  C397  1  0.20939000  0.20940000  0.04546000  1.0 -0.112143064
C  C398  1  0.20939000  0.20939000  0.53575000  1.0 -0.112143064
C  C399  1  0.53575000  0.04546000  0.20939000  1.0 -0.112143064
C  C400  1  0.04546000  0.53575000  0.20939000  1.0 -0.112143064
C  C401  1  0.53575000  0.20940000  0.04546000  1.0 -0.112143064
C  C402  1  0.04546000  0.20939000  0.53575000  1.0 -0.112143064
C  C403  1  0.20939000  0.53575000  0.20939000  1.0 -0.112143064
C  C404  1  0.20939000  0.04546000  0.20939000  1.0 -0.112143064
C  C405  1  0.20939000  0.53575000  0.04546000  1.0 -0.112143064
C  C406  1  0.20939000  0.04546000  0.53575000  1.0 -0.112143064
C  C407  1  0.04546000  0.20940000  0.20939000  1.0 -0.112143064
C  C408  1  0.53575000  0.20940000  0.20939000  1.0 -0.112143064
C  C409  1  0.80810000  0.80811000  0.46322000  1.0 -0.0986678215
C  C410  1  0.80810000  0.80811000  0.92056000  1.0 -0.0932798487
C  C411  1  0.46322000  0.92057000  0.80810000  1.0 -0.0932798487
C  C412  1  0.92056000  0.46323000  0.80810000  1.0 -0.0932798487
C  C413  1  0.46322000  0.80811000  0.80810000  1.0 -0.0932798487
C  C414  1  0.92057000  0.80811000  0.80810000  1.0 -0.0932798487
C  C415  1  0.80810000  0.46323000  0.92056000  1.0 -0.0932798487
C  C416  1  0.80810000  0.92056000  0.46322000  1.0 -0.0932798487
C  C417  1  0.80810000  0.46323000  0.80810000  1.0 -0.0932798487
C  C418  1  0.80810000  0.92057000  0.80810000  1.0 -0.0932798487
C  C419  1  0.92056000  0.80811000  0.46322000  1.0 -0.0932798487
C  C420  1  0.46323000  0.80811000  0.92056000  1.0 -0.0932798487
C  C421  1  0.19190000  0.19190000  0.07944000  1.0 -0.0932798487
C  C422  1  0.19190000  0.19190000  0.53678000  1.0 -0.0932798487
C  C423  1  0.53678000  0.07944000  0.19189000  1.0 -0.0932798487
C  C424  1  0.07943000  0.53678000  0.19189000  1.0 -0.0932798487
C  C425  1  0.53678000  0.19190000  0.07944000  1.0 -0.0932798487
C  C426  1  0.07943000  0.19190000  0.53678000  1.0 -0.0932798487
C  C427  1  0.19190000  0.53678000  0.19189000  1.0 -0.0932798487
C  C428  1  0.19190000  0.07944000  0.19189000  1.0 -0.0932798487
C  C429  1  0.19190000  0.53678000  0.07944000  1.0 -0.0932798487
C  C430  1  0.19190000  0.07943000  0.53678000  1.0 -0.0932798487
C  C431  1  0.07943000  0.19190000  0.19189000  1.0 -0.0932798487
C  C432  1  0.53677000  0.19190000  0.19189000  1.0 -0.0932798487
C  C433  1  0.82750000  0.82751000  0.46200000  1.0 0.1309933816
C  C434  1  0.82751000  0.82751000  0.88298000  1.0 0.1309933816
C  C435  1  0.46200000  0.88299000  0.82751000  1.0 0.1309933816
C  C436  1  0.88298000  0.46200000  0.82751000  1.0 0.1309933816
C  C437  1  0.46200000  0.82751000  0.82751000  1.0 0.1309933816
C  C438  1  0.88298000  0.82751000  0.82751000  1.0 0.1309933816
C  C439  1  0.82751000  0.46201000  0.88298000  1.0 0.1309933816
C  C440  1  0.82750000  0.88299000  0.46200000  1.0 0.1309933816
C  C441  1  0.82750000  0.46200000  0.82751000  1.0 0.1309933816
C  C442  1  0.82750000  0.88299000  0.82751000  1.0 0.1309933816
C  C443  1  0.88298000  0.82751000  0.46200000  1.0 0.1309933816
C  C444  1  0.46201000  0.82751000  0.88298000  1.0 0.1309933816
C  C445  1  0.17249000  0.17250000  0.11701000  1.0 0.1309933816
C  C446  1  0.17249000  0.17250000  0.53800000  1.0 0.1309933816
C  C447  1  0.53800000  0.11702000  0.17249000  1.0 0.1309933816
C  C448  1  0.11702000  0.53800000  0.17249000  1.0 0.1309933816
C  C449  1  0.53800000  0.17250000  0.11701000  1.0 0.1309933816
C  C450  1  0.11701000  0.17250000  0.53800000  1.0 0.1309933816
C  C451  1  0.17249000  0.53800000  0.17249000  1.0 0.1309933816
C  C452  1  0.17250000  0.11702000  0.17249000  1.0 0.1309933816
C  C453  1  0.17249000  0.53800000  0.11701000  1.0 0.1309933816
C  C454  1  0.17249000  0.11701000  0.53800000  1.0 0.1309933816
C  C455  1  0.11701000  0.17250000  0.17249000  1.0 0.1309933816
C  C456  1  0.53799000  0.17250000  0.17249000  1.0 0.1309933816
C  C457  1  0.86399000  0.80797000  0.46404000  1.0 -0.1682240963
C  C458  1  0.80797000  0.86399000  0.86399000  1.0 -0.1682240963
C  C459  1  0.46405000  0.86399000  0.86399000  1.0 -0.1682240963
C  C460  1  0.86399000  0.46405000  0.80797000  1.0 -0.1682240963
C  C461  1  0.46404000  0.86400000  0.80797000  1.0 -0.1682240963
C  C462  1  0.86400000  0.80797000  0.86399000  1.0 -0.1682240963
C  C463  1  0.86399000  0.46405000  0.86399000  1.0 -0.1682240963
C  C464  1  0.80797000  0.86399000  0.46404000  1.0 -0.1682240963
C  C465  1  0.80796000  0.46405000  0.86399000  1.0 -0.1682240963
C  C466  1  0.86400000  0.86400000  0.80797000  1.0 -0.1682240963
C  C467  1  0.86399000  0.86399000  0.46404000  1.0 -0.1682240963
C  C468  1  0.46405000  0.80797000  0.86399000  1.0 -0.1682240963
C  C469  1  0.13601000  0.19204000  0.13600000  1.0 -0.1682240963
C  C470  1  0.19204000  0.13600000  0.53595000  1.0 -0.1682240963
C  C471  1  0.53595000  0.13600000  0.19204000  1.0 -0.1682240963
C  C472  1  0.13600000  0.53595000  0.13600000  1.0 -0.1682240963
C  C473  1  0.53595000  0.13601000  0.13600000  1.0 -0.1682240963
C  C474  1  0.13600000  0.19203000  0.53595000  1.0 -0.1682240963
C  C475  1  0.13600000  0.53595000  0.19204000  1.0 -0.1682240963
C  C476  1  0.19204000  0.13601000  0.13600000  1.0 -0.1682240963
C  C477  1  0.19203000  0.53595000  0.13600000  1.0 -0.1682240963
C  C478  1  0.13600000  0.13600000  0.53595000  1.0 -0.1682240963
C  C479  1  0.13600000  0.13600000  0.19204000  1.0 -0.1682240963
C  C480  1  0.53595000  0.19204000  0.13600000  1.0 -0.1682240963
O  O1  1  0.67109000  0.55563000  0.49110000  1.0 -0.5338086915
O  O2  1  0.55563000  0.67109000  0.28218000  1.0 -0.5338086915
O  O3  1  0.49109000  0.28218000  0.67109000  1.0 -0.5338086915
O  O4  1  0.28217000  0.49110000  0.55563000  1.0 -0.5338086915
O  O5  1  0.49109000  0.67109000  0.55563000  1.0 -0.5338086915
O  O6  1  0.28217000  0.55563000  0.67109000  1.0 -0.5338086915
O  O7  1  0.67109000  0.49110000  0.28218000  1.0 -0.5338086915
O  O8  1  0.55563000  0.28217000  0.49110000  1.0 -0.5338086915
O  O9  1  0.55563000  0.49109000  0.67109000  1.0 -0.5338086915
O  O10  1  0.67109000  0.28218000  0.55563000  1.0 -0.5338086915
O  O11  1  0.28217000  0.67109000  0.49110000  1.0 -0.5338086915
O  O12  1  0.49110000  0.55563000  0.28218000  1.0 -0.5338086915
O  O13  1  0.32891000  0.44436000  0.71783000  1.0 -0.5338086915
O  O14  1  0.44436000  0.32890000  0.50891000  1.0 -0.5338086915
O  O15  1  0.50891000  0.71783000  0.44437000  1.0 -0.5338086915
O  O16  1  0.71783000  0.50891000  0.32891000  1.0 -0.5338086915
O  O17  1  0.50891000  0.32890000  0.71783000  1.0 -0.5338086915
O  O18  1  0.71783000  0.44436000  0.50891000  1.0 -0.5338086915
O  O19  1  0.32890000  0.50891000  0.44437000  1.0 -0.5338086915
O  O20  1  0.44437000  0.71783000  0.32891000  1.0 -0.5338086915
O  O21  1  0.44437000  0.50890000  0.71783000  1.0 -0.5338086915
O  O22  1  0.32891000  0.71782000  0.50891000  1.0 -0.5338086915
O  O23  1  0.71783000  0.32891000  0.44437000  1.0 -0.5338086915
O  O24  1  0.50891000  0.44437000  0.32891000  1.0 -0.5338086915
O  O25  1  0.32891000  0.44436000  0.50891000  1.0 -0.5338086915
O  O26  1  0.44437000  0.32890000  0.71783000  1.0 -0.5338086915
O  O27  1  0.50891000  0.71783000  0.32891000  1.0 -0.5338086915
O  O28  1  0.71783000  0.50891000  0.44437000  1.0 -0.5338086915
O  O29  1  0.50891000  0.32891000  0.44437000  1.0 -0.5338086915
O  O30  1  0.71783000  0.44437000  0.32891000  1.0 -0.5338086915
O  O31  1  0.32891000  0.50890000  0.71783000  1.0 -0.5338086915
O  O32  1  0.44437000  0.71782000  0.50891000  1.0 -0.5338086915
O  O33  1  0.44437000  0.50891000  0.32891000  1.0 -0.5338086915
O  O34  1  0.32891000  0.71783000  0.44437000  1.0 -0.5338086915
O  O35  1  0.71783000  0.32890000  0.50891000  1.0 -0.5338086915
O  O36  1  0.50891000  0.44436000  0.71783000  1.0 -0.5338086915
O  O37  1  0.67109000  0.55563000  0.28218000  1.0 -0.5338086915
O  O38  1  0.55563000  0.67109000  0.49110000  1.0 -0.5338086915
O  O39  1  0.49109000  0.28218000  0.55563000  1.0 -0.5338086915
O  O40  1  0.28218000  0.49109000  0.67109000  1.0 -0.5338086915
O  O41  1  0.49109000  0.67109000  0.28218000  1.0 -0.5338086915
O  O42  1  0.28217000  0.55563000  0.49110000  1.0 -0.5338086915
O  O43  1  0.67109000  0.49110000  0.55563000  1.0 -0.5338086915
O  O44  1  0.55563000  0.28218000  0.67109000  1.0 -0.5338086915
O  O45  1  0.55563000  0.49110000  0.28218000  1.0 -0.5338086915
O  O46  1  0.67110000  0.28217000  0.49110000  1.0 -0.5338086915
O  O47  1  0.28217000  0.67109000  0.55563000  1.0 -0.5338086915
O  O48  1  0.49109000  0.55563000  0.67109000  1.0 -0.5338086915
O  O49  1  0.72331000  0.55622000  0.49042000  1.0 -0.4888884606
O  O50  1  0.55623000  0.72330000  0.23004000  1.0 -0.4888884606
O  O51  1  0.49042000  0.23005000  0.72330000  1.0 -0.4888884606
O  O52  1  0.23005000  0.49043000  0.55622000  1.0 -0.4888884606
O  O53  1  0.49042000  0.72331000  0.55622000  1.0 -0.4888884606
O  O54  1  0.23005000  0.55623000  0.72330000  1.0 -0.4888884606
O  O55  1  0.72330000  0.49042000  0.23004000  1.0 -0.4888884606
O  O56  1  0.55623000  0.23005000  0.49042000  1.0 -0.4888884606
O  O57  1  0.55623000  0.49042000  0.72330000  1.0 -0.4888884606
O  O58  1  0.72331000  0.23005000  0.55622000  1.0 -0.4888884606
O  O59  1  0.23005000  0.72331000  0.49042000  1.0 -0.4888884606
O  O60  1  0.49042000  0.55622000  0.23004000  1.0 -0.4888884606
O  O61  1  0.27670000  0.44377000  0.76995000  1.0 -0.4888884606
O  O62  1  0.44377000  0.27670000  0.50958000  1.0 -0.4888884606
O  O63  1  0.50958000  0.76995000  0.44377000  1.0 -0.4888884606
O  O64  1  0.76995000  0.50958000  0.27669000  1.0 -0.4888884606
O  O65  1  0.50958000  0.27670000  0.76995000  1.0 -0.4888884606
O  O66  1  0.76995000  0.44377000  0.50958000  1.0 -0.4888884606
O  O67  1  0.27670000  0.50958000  0.44377000  1.0 -0.4888884606
O  O68  1  0.44377000  0.76996000  0.27669000  1.0 -0.4888884606
O  O69  1  0.44377000  0.50958000  0.76995000  1.0 -0.4888884606
O  O70  1  0.27670000  0.76995000  0.50958000  1.0 -0.4888884606
O  O71  1  0.76995000  0.27670000  0.44377000  1.0 -0.4888884606
O  O72  1  0.50958000  0.44377000  0.27669000  1.0 -0.4888884606
O  O73  1  0.27670000  0.44377000  0.50958000  1.0 -0.4888884606
O  O74  1  0.44377000  0.27670000  0.76995000  1.0 -0.4888884606
O  O75  1  0.50958000  0.76996000  0.27669000  1.0 -0.4888884606
O  O76  1  0.76995000  0.50958000  0.44377000  1.0 -0.4888884606
O  O77  1  0.50958000  0.27670000  0.44377000  1.0 -0.4888884606
O  O78  1  0.76995000  0.44377000  0.27669000  1.0 -0.4888884606
O  O79  1  0.27670000  0.50958000  0.76995000  1.0 -0.4888884606
O  O80  1  0.44377000  0.76995000  0.50958000  1.0 -0.4888884606
O  O81  1  0.44377000  0.50958000  0.27669000  1.0 -0.4888884606
O  O82  1  0.27670000  0.76995000  0.44377000  1.0 -0.4888884606
O  O83  1  0.76995000  0.27670000  0.50958000  1.0 -0.4888884606
O  O84  1  0.50958000  0.44377000  0.76995000  1.0 -0.4888884606
O  O85  1  0.72330000  0.55622000  0.23004000  1.0 -0.4888884606
O  O86  1  0.55622000  0.72331000  0.49042000  1.0 -0.4888884606
O  O87  1  0.49042000  0.23005000  0.55622000  1.0 -0.4888884606
O  O88  1  0.23005000  0.49042000  0.72330000  1.0 -0.4888884606
O  O89  1  0.49042000  0.72330000  0.23004000  1.0 -0.4888884606
O  O90  1  0.23004000  0.55622000  0.49042000  1.0 -0.4888884606
O  O91  1  0.72330000  0.49043000  0.55622000  1.0 -0.4888884606
O  O92  1  0.55623000  0.23005000  0.72330000  1.0 -0.4888884606
O  O93  1  0.55623000  0.49042000  0.23004000  1.0 -0.4888884606
O  O94  1  0.72331000  0.23005000  0.49042000  1.0 -0.4888884606
O  O95  1  0.23005000  0.72331000  0.55622000  1.0 -0.4888884606
O  O96  1  0.49042000  0.55623000  0.72330000  1.0 -0.4888884606
