# DDEC6 charges by PACMAN v1.1 (https://github.com/mtap-research/PACMAN-charge/)
data_GAHWIX_FSR_pacman
_symmetry_space_group_name_H-M   'P 1'
_cell_length_a   34.29100000
_cell_length_b   27.03300000
_cell_length_c   36.13000000
_cell_angle_alpha   90.00000000
_cell_angle_beta   108.81000000
_cell_angle_gamma   90.00000000
_symmetry_Int_Tables_number   1
_chemical_formula_structural   Zn8H72C123N13O41
_chemical_formula_sum   'Zn32 H288 C492 N52 O164'
_cell_volume   31703.38572714
_cell_formula_units_Z   4
loop_
 _symmetry_equiv_pos_site_id
 _symmetry_equiv_pos_as_xyz
  1  'x, y, z'
loop_
 _atom_site_type_symbol
 _atom_site_label
 _atom_site_symmetry_multiplicity
 _atom_site_fract_x
 _atom_site_fract_y
 _atom_site_fract_z
 _atom_site_occupancy
 _atom_site_charge
Zn  Zn1  1  0.69683000  0.03312000  0.40083000  1.0 0.9466765939
Zn  Zn2  1  0.19683000  0.46688000  0.40083000  1.0 0.9466765939
Zn  Zn3  1  0.78309000  0.00176000  0.39514000  1.0 0.9394227175
Zn  Zn4  1  0.28309000  0.49824000  0.39514000  1.0 0.9394227175
Zn  Zn5  1  0.20895000  0.48690000  0.31881000  1.0 0.9466765939
Zn  Zn6  1  0.70895000  0.01310000  0.31881000  1.0 0.9466765939
Zn  Zn7  1  0.71028000  0.92368000  0.37651000  1.0 0.9394227175
Zn  Zn8  1  0.21028000  0.57632000  0.37651000  1.0 0.9394227175
Zn  Zn9  1  0.13566000  0.49568000  0.87274000  1.0 0.9394227175
Zn  Zn10  1  0.63566000  0.00432000  0.87274000  1.0 0.9394227175
Zn  Zn11  1  0.20908000  0.51122000  0.95015000  1.0 1.0531819649
Zn  Zn12  1  0.70908000  0.98878000  0.95015000  1.0 1.0531819649
Zn  Zn13  1  0.72009000  0.96836000  0.86612000  1.0 0.9466765939
Zn  Zn14  1  0.22009000  0.53164000  0.86612000  1.0 0.9394227175
Zn  Zn15  1  0.21162000  0.42285000  0.89425000  1.0 0.9394227175
Zn  Zn16  1  0.71162000  0.07715000  0.89425000  1.0 0.9466765939
Zn  Zn17  1  0.80317000  0.53312000  0.59917000  1.0 0.9466765939
Zn  Zn18  1  0.30317000  0.96688000  0.59917000  1.0 0.9466765939
Zn  Zn19  1  0.71691000  0.50176000  0.60486000  1.0 0.9394227175
Zn  Zn20  1  0.21691000  0.99824000  0.60486000  1.0 0.9394227175
Zn  Zn21  1  0.29105000  0.98690000  0.68119000  1.0 0.9466765939
Zn  Zn22  1  0.79105000  0.51310000  0.68119000  1.0 0.9394227175
Zn  Zn23  1  0.78972000  0.42368000  0.62349000  1.0 0.9394227175
Zn  Zn24  1  0.28972000  0.07632000  0.62349000  1.0 0.9394227175
Zn  Zn25  1  0.36434000  0.99568000  0.12726000  1.0 0.9394227175
Zn  Zn26  1  0.86434000  0.50432000  0.12726000  1.0 0.9394227175
Zn  Zn27  1  0.29092000  0.01122000  0.04985000  1.0 1.0591605492
Zn  Zn28  1  0.79092000  0.48878000  0.04985000  1.0 1.0591605492
Zn  Zn29  1  0.77991000  0.46836000  0.13388000  1.0 0.9466765939
Zn  Zn30  1  0.27991000  0.03164000  0.13388000  1.0 0.9466765939
Zn  Zn31  1  0.28838000  0.92285000  0.10575000  1.0 0.9466765939
Zn  Zn32  1  0.78838000  0.57715000  0.10575000  1.0 0.9466765939
H  H1  1  0.84480000  0.14400000  0.62370000  1.0 0.2781868881
H  H2  1  0.34480000  0.35600000  0.62370000  1.0 0.2781868881
H  H3  1  0.01710000  0.21850000  0.77870000  1.0 0.2882106863
H  H4  1  0.51710000  0.28150000  0.77870000  1.0 0.2882106863
H  H5  1  0.86090000  0.09930000  0.73440000  1.0 0.2781868881
H  H6  1  0.36090000  0.40070000  0.73440000  1.0 0.2781868881
H  H7  1  0.38070000  0.36970000  0.22190000  1.0 0.2781868881
H  H8  1  0.88070000  0.13030000  0.22190000  1.0 0.2781868881
H  H9  1  0.52180000  0.24000000  0.26660000  1.0 0.2726608404
H  H10  1  0.02180000  0.26000000  0.26660000  1.0 0.2726608404
H  H11  1  0.40400000  0.39430000  0.12050000  1.0 0.2781868881
H  H12  1  0.90400000  0.10570000  0.12050000  1.0 0.2781868881
H  H13  1  0.02980000  0.62450000  0.14430000  1.0 0.2882106863
H  H14  1  0.52980000  0.87550000  0.14430000  1.0 0.2882106863
H  H15  1  0.04880000  0.65480000  0.04080000  1.0 0.2726608404
H  H16  1  0.54880000  0.84520000  0.04080000  1.0 0.2726608404
H  H17  1  0.91630000  0.79110000  0.00620000  1.0 0.2781868881
H  H18  1  0.41630000  0.70890000  0.00620000  1.0 0.2781868881
H  H19  1  0.54800000  0.90410000  0.52470000  1.0 0.2781868881
H  H20  1  0.04800000  0.59590000  0.52470000  1.0 0.2781868881
H  H21  1  0.57320000  0.85510000  0.64550000  1.0 0.2882106863
H  H22  1  0.07320000  0.64490000  0.64550000  1.0 0.2781868881
H  H23  1  0.44260000  0.71750000  0.51280000  1.0 0.2781868881
H  H24  1  0.94260000  0.78250000  0.51280000  1.0 0.2781868881
H  H25  1  0.85150000  0.07810000  0.49120000  1.0 0.1298980938
H  H26  1  0.35150000  0.42190000  0.49120000  1.0 0.1298980938
H  H27  1  0.88890000  0.09920000  0.55270000  1.0 0.1394307845
H  H28  1  0.38890000  0.40080000  0.55270000  1.0 0.1394307845
H  H29  1  0.78340000  0.13330000  0.57370000  1.0 0.1225803167
H  H30  1  0.28340000  0.36670000  0.57370000  1.0 0.1225803167
H  H31  1  0.74710000  0.10790000  0.51060000  1.0 0.1298980938
H  H32  1  0.24710000  0.39210000  0.51060000  1.0 0.1298980938
H  H33  1  0.96040000  0.20220000  0.66100000  1.0 0.1394307845
H  H34  1  0.46040000  0.29780000  0.66100000  1.0 0.1394307845
H  H35  1  0.94550000  0.21390000  0.76760000  1.0 0.1298980938
H  H36  1  0.44550000  0.28610000  0.76760000  1.0 0.1298980938
H  H37  1  0.86990000  0.12680000  0.68470000  1.0 0.0983692287
H  H38  1  0.36990000  0.37320000  0.68470000  1.0 0.0983692287
H  H39  1  0.01720000  0.34360000  0.75720000  1.0 0.1394307845
H  H40  1  0.51720000  0.15640000  0.75720000  1.0 0.1394307845
H  H41  1  0.06250000  0.39960000  0.79350000  1.0 0.1225803167
H  H42  1  0.56250000  0.10040000  0.79350000  1.0 0.1225803167
H  H43  1  0.13070000  0.29340000  0.86070000  1.0 0.1394307845
H  H44  1  0.63070000  0.20660000  0.86070000  1.0 0.1394307845
H  H45  1  0.08580000  0.23360000  0.82590000  1.0 0.1394307845
H  H46  1  0.58580000  0.26640000  0.82590000  1.0 0.1394307845
H  H47  1  0.81720000  0.17240000  0.78850000  1.0 0.1298980938
H  H48  1  0.31720000  0.32760000  0.78850000  1.0 0.1298980938
H  H49  1  0.77690000  0.14090000  0.82650000  1.0 0.1298980938
H  H50  1  0.27690000  0.35910000  0.82650000  1.0 0.1298980938
H  H51  1  0.79560000  0.00730000  0.80090000  1.0 0.1298980938
H  H52  1  0.29560000  0.49270000  0.80090000  1.0 0.1298980938
H  H53  1  0.83630000  0.02960000  0.76230000  1.0 0.1298980938
H  H54  1  0.33630000  0.47040000  0.76230000  1.0 0.1298980938
H  H55  1  0.37510000  0.44410000  0.34960000  1.0 0.1298980938
H  H56  1  0.87510000  0.05590000  0.34960000  1.0 0.1298980938
H  H57  1  0.41740000  0.41340000  0.31820000  1.0 0.1394307845
H  H58  1  0.91740000  0.08660000  0.31820000  1.0 0.1394307845
H  H59  1  0.31920000  0.38660000  0.22400000  1.0 0.1298980938
H  H60  1  0.81920000  0.11340000  0.22400000  1.0 0.1298980938
H  H61  1  0.27620000  0.42640000  0.25440000  1.0 0.1298980938
H  H62  1  0.77620000  0.07360000  0.25440000  1.0 0.1298980938
H  H63  1  0.49870000  0.31120000  0.26250000  1.0 0.1225803167
H  H64  1  0.99870000  0.18880000  0.26250000  1.0 0.1225803167
H  H65  1  0.48500000  0.27850000  0.14980000  1.0 0.1394307845
H  H66  1  0.98500000  0.22150000  0.14980000  1.0 0.1394307845
H  H67  1  0.40310000  0.36760000  0.17500000  1.0 0.0872795024
H  H68  1  0.90310000  0.13240000  0.17500000  1.0 0.0872795024
H  H69  1  0.60660000  0.20350000  0.23800000  1.0 0.1394307845
H  H70  1  0.10660000  0.29650000  0.23800000  1.0 0.1394307845
H  H71  1  0.65780000  0.14710000  0.27440000  1.0 0.1298980938
H  H72  1  0.15780000  0.35290000  0.27440000  1.0 0.1298980938
H  H73  1  0.59380000  0.12930000  0.34940000  1.0 0.1298980938
H  H74  1  0.09380000  0.37070000  0.34940000  1.0 0.1298980938
H  H75  1  0.54300000  0.17850000  0.31280000  1.0 0.1225803167
H  H76  1  0.04300000  0.32150000  0.31280000  1.0 0.1225803167
H  H77  1  0.37110000  0.45260000  0.08070000  1.0 0.1225803167
H  H78  1  0.87110000  0.04740000  0.08070000  1.0 0.1225803167
H  H79  1  0.32030000  0.47920000  0.02180000  1.0 0.1298980938
H  H80  1  0.82030000  0.02080000  0.02180000  1.0 0.1298980938
H  H81  1  0.30490000  0.33950000  0.98610000  1.0 0.1298980938
H  H82  1  0.80490000  0.16050000  0.98610000  1.0 0.1298980938
H  H83  1  0.35700000  0.31450000  0.04280000  1.0 0.1394307845
H  H84  1  0.85700000  0.18550000  0.04280000  1.0 0.1394307845
H  H85  1  0.12350000  0.53040000  0.22530000  1.0 0.1225803167
H  H86  1  0.62350000  0.96960000  0.22530000  1.0 0.1225803167
H  H87  1  0.07220000  0.56610000  0.17130000  1.0 0.1394307845
H  H88  1  0.57220000  0.93390000  0.17130000  1.0 0.1394307845
H  H89  1  0.06960000  0.68990000  0.23410000  1.0 0.1298980938
H  H90  1  0.56960000  0.81010000  0.23410000  1.0 0.1298980938
H  H91  1  0.11700000  0.65210000  0.28640000  1.0 0.1225803167
H  H92  1  0.61700000  0.84790000  0.28640000  1.0 0.1225803167
H  H93  1  0.02980000  0.65160000  0.08840000  1.0 0.0983692287
H  H94  1  0.52980000  0.84840000  0.08840000  1.0 0.0983692287
H  H95  1  0.93450000  0.71700000  0.00740000  1.0 0.1225803167
H  H96  1  0.43450000  0.78300000  0.00740000  1.0 0.1225803167
H  H97  1  0.95840000  0.74940000  0.12150000  1.0 0.1225803167
H  H98  1  0.45840000  0.75060000  0.12150000  1.0 0.1225803167
H  H99  1  0.10910000  0.62240000  0.03440000  1.0 0.1225803167
H  H100  1  0.60910000  0.87760000  0.03440000  1.0 0.1225803167
H  H101  1  0.14230000  0.60630000  0.98740000  1.0 0.1394307845
H  H102  1  0.64230000  0.89370000  0.98740000  1.0 0.1394307845
H  H103  1  0.03790000  0.55690000  0.91470000  1.0 0.1298980938
H  H104  1  0.53790000  0.94310000  0.91470000  1.0 0.1298980938
H  H105  1  0.00240000  0.60110000  0.95060000  1.0 0.1298980938
H  H106  1  0.50240000  0.89890000  0.95060000  1.0 0.1298980938
H  H107  1  0.88320000  0.82860000  0.94850000  1.0 0.1298980938
H  H108  1  0.38320000  0.67140000  0.94850000  1.0 0.1298980938
H  H109  1  0.82680000  0.87600000  0.91150000  1.0 0.1225803167
H  H110  1  0.32680000  0.62400000  0.91150000  1.0 0.1225803167
H  H111  1  0.78260000  0.88200000  0.00230000  1.0 0.1298980938
H  H112  1  0.28260000  0.61800000  0.00230000  1.0 0.1298980938
H  H113  1  0.83440000  0.82790000  0.03800000  1.0 0.1298980938
H  H114  1  0.33440000  0.67210000  0.03800000  1.0 0.1298980938
H  H115  1  0.61420000  0.99880000  0.46480000  1.0 0.1394307845
H  H116  1  0.11420000  0.50120000  0.46480000  1.0 0.1394307845
H  H117  1  0.57420000  0.96920000  0.49890000  1.0 0.1298980938
H  H118  1  0.07420000  0.53080000  0.49890000  1.0 0.1298980938
H  H119  1  0.58980000  0.83120000  0.46920000  1.0 0.1298980938
H  H120  1  0.08980000  0.66880000  0.46920000  1.0 0.1298980938
H  H121  1  0.63310000  0.86070000  0.43700000  1.0 0.1225803167
H  H122  1  0.13310000  0.63930000  0.43700000  1.0 0.1225803167
H  H123  1  0.54940000  0.87150000  0.58100000  1.0 0.1066254489
H  H124  1  0.04940000  0.62850000  0.58100000  1.0 0.1066254489
H  H125  1  0.45220000  0.80710000  0.60440000  1.0 0.1394307845
H  H126  1  0.95220000  0.69290000  0.60440000  1.0 0.1394307845
H  H127  1  0.46720000  0.78690000  0.49900000  1.0 0.1225803167
H  H128  1  0.96720000  0.71310000  0.49900000  1.0 0.1225803167
H  H129  1  0.63020000  0.85180000  0.70090000  1.0 0.1298980938
H  H130  1  0.13020000  0.64820000  0.70090000  1.0 0.1298980938
H  H131  1  0.66666667  0.88310000  0.76240000  1.0 0.1298980938
H  H132  1  0.16660000  0.61690000  0.76240000  1.0 0.1298980938
H  H133  1  0.56680000  0.96020000  0.76260000  1.0 0.1298980938
H  H134  1  0.06680000  0.53980000  0.76260000  1.0 0.1298980938
H  H135  1  0.52870000  0.92470000  0.70090000  1.0 0.1394307845
H  H136  1  0.02870000  0.57530000  0.70090000  1.0 0.1394307845
H  H137  1  0.42590000  0.65280000  0.47330000  1.0 0.1298980938
H  H138  1  0.92590000  0.84720000  0.47330000  1.0 0.1298980938
H  H139  1  0.37780000  0.58890000  0.44890000  1.0 0.1225803167
H  H140  1  0.87780000  0.91110000  0.44890000  1.0 0.1225803167
H  H141  1  0.28800000  0.67160000  0.46890000  1.0 0.1225803167
H  H142  1  0.78800000  0.82840000  0.46890000  1.0 0.1225803167
H  H143  1  0.34110000  0.72440000  0.50620000  1.0 0.1298980938
H  H144  1  0.84110000  0.77560000  0.50620000  1.0 0.1298980938
H  H145  1  0.65520000  0.64400000  0.37630000  1.0 0.2882106863
H  H146  1  0.15520000  0.85600000  0.37630000  1.0 0.2781868881
H  H147  1  0.48290000  0.71850000  0.22130000  1.0 0.2882106863
H  H148  1  0.98290000  0.78150000  0.22130000  1.0 0.2882106863
H  H149  1  0.63910000  0.59930000  0.26560000  1.0 0.2781868881
H  H150  1  0.13910000  0.90070000  0.26560000  1.0 0.2781868881
H  H151  1  0.11930000  0.86970000  0.77810000  1.0 0.2781868881
H  H152  1  0.61930000  0.63030000  0.77810000  1.0 0.2781868881
H  H153  1  0.97820000  0.74000000  0.73340000  1.0 0.2726608404
H  H154  1  0.47820000  0.76000000  0.73340000  1.0 0.2726608404
H  H155  1  0.09600000  0.89430000  0.87950000  1.0 0.2781868881
H  H156  1  0.59600000  0.60570000  0.87950000  1.0 0.2781868881
H  H157  1  0.47020000  0.12450000  0.85570000  1.0 0.2882106863
H  H158  1  0.97020000  0.37550000  0.85570000  1.0 0.2882106863
H  H159  1  0.45120000  0.15480000  0.95920000  1.0 0.2726608404
H  H160  1  0.95120000  0.34520000  0.95920000  1.0 0.2726608404
H  H161  1  0.58370000  0.29110000  0.99380000  1.0 0.2781868881
H  H162  1  0.08370000  0.20890000  0.99380000  1.0 0.2781868881
H  H163  1  0.95200000  0.40410000  0.47530000  1.0 0.2781868881
H  H164  1  0.45200000  0.09590000  0.47530000  1.0 0.2781868881
H  H165  1  0.92680000  0.35510000  0.35450000  1.0 0.2882106863
H  H166  1  0.42680000  0.14490000  0.35450000  1.0 0.2882106863
H  H167  1  0.05740000  0.21750000  0.48720000  1.0 0.2726608404
H  H168  1  0.55740000  0.28250000  0.48720000  1.0 0.2781868881
H  H169  1  0.64850000  0.57810000  0.50880000  1.0 0.1298980938
H  H170  1  0.14850000  0.92190000  0.50880000  1.0 0.1298980938
H  H171  1  0.61110000  0.59920000  0.44730000  1.0 0.1394307845
H  H172  1  0.11110000  0.90080000  0.44730000  1.0 0.1394307845
H  H173  1  0.71660000  0.63330000  0.42630000  1.0 0.1225803167
H  H174  1  0.21660000  0.86670000  0.42630000  1.0 0.1225803167
H  H175  1  0.75290000  0.60790000  0.48940000  1.0 0.1298980938
H  H176  1  0.25290000  0.89210000  0.48940000  1.0 0.1298980938
H  H177  1  0.53960000  0.70220000  0.33900000  1.0 0.1394307845
H  H178  1  0.03960000  0.79780000  0.33900000  1.0 0.1394307845
H  H179  1  0.55450000  0.71390000  0.23240000  1.0 0.1298980938
H  H180  1  0.05450000  0.78610000  0.23240000  1.0 0.1298980938
H  H181  1  0.63010000  0.62680000  0.31530000  1.0 0.0983692287
H  H182  1  0.13010000  0.87320000  0.31530000  1.0 0.0983692287
H  H183  1  0.48280000  0.84360000  0.24280000  1.0 0.1394307845
H  H184  1  0.98280000  0.65640000  0.24280000  1.0 0.1394307845
H  H185  1  0.43750000  0.89960000  0.20650000  1.0 0.1225803167
H  H186  1  0.93750000  0.60040000  0.20650000  1.0 0.1225803167
H  H187  1  0.36930000  0.79340000  0.13930000  1.0 0.1394307845
H  H188  1  0.86930000  0.70660000  0.13930000  1.0 0.1394307845
H  H189  1  0.41420000  0.73360000  0.17410000  1.0 0.1394307845
H  H190  1  0.91420000  0.76640000  0.17410000  1.0 0.1394307845
H  H191  1  0.68280000  0.67240000  0.21150000  1.0 0.1298980938
H  H192  1  0.18280000  0.82760000  0.21150000  1.0 0.1298980938
H  H193  1  0.72310000  0.64090000  0.17350000  1.0 0.1298980938
H  H194  1  0.22310000  0.85910000  0.17350000  1.0 0.1298980938
H  H195  1  0.70440000  0.50730000  0.19910000  1.0 0.1298980938
H  H196  1  0.20440000  0.99270000  0.19910000  1.0 0.1298980938
H  H197  1  0.66370000  0.52960000  0.23770000  1.0 0.1298980938
H  H198  1  0.16370000  0.97040000  0.23770000  1.0 0.1298980938
H  H199  1  0.12490000  0.94410000  0.65040000  1.0 0.1298980938
H  H200  1  0.62490000  0.55590000  0.65040000  1.0 0.1298980938
H  H201  1  0.08260000  0.91340000  0.68180000  1.0 0.1394307845
H  H202  1  0.58260000  0.58660000  0.68180000  1.0 0.1394307845
H  H203  1  0.18080000  0.88660000  0.77600000  1.0 0.1298980938
H  H204  1  0.68080000  0.61340000  0.77600000  1.0 0.1298980938
H  H205  1  0.22380000  0.92640000  0.74560000  1.0 0.1298980938
H  H206  1  0.72380000  0.57360000  0.74560000  1.0 0.1298980938
H  H207  1  0.00130000  0.81120000  0.73750000  1.0 0.1225803167
H  H208  1  0.50130000  0.68880000  0.73750000  1.0 0.1225803167
H  H209  1  0.01500000  0.77850000  0.85020000  1.0 0.1394307845
H  H210  1  0.51500000  0.72150000  0.85020000  1.0 0.1394307845
H  H211  1  0.09690000  0.86760000  0.82500000  1.0 0.0872795024
H  H212  1  0.59690000  0.63240000  0.82500000  1.0 0.0872795024
H  H213  1  0.89340000  0.70350000  0.76200000  1.0 0.1394307845
H  H214  1  0.39340000  0.79650000  0.76200000  1.0 0.1394307845
H  H215  1  0.84220000  0.64710000  0.72560000  1.0 0.1298980938
H  H216  1  0.34220000  0.85290000  0.72560000  1.0 0.1298980938
H  H217  1  0.90620000  0.62930000  0.65060000  1.0 0.1298980938
H  H218  1  0.40620000  0.87070000  0.65060000  1.0 0.1298980938
H  H219  1  0.95700000  0.67850000  0.68720000  1.0 0.1225803167
H  H220  1  0.45700000  0.82150000  0.68720000  1.0 0.1225803167
H  H221  1  0.12890000  0.95260000  0.91930000  1.0 0.1225803167
H  H222  1  0.62890000  0.54740000  0.91930000  1.0 0.1225803167
H  H223  1  0.17970000  0.97920000  0.97820000  1.0 0.1298980938
H  H224  1  0.67970000  0.52080000  0.97820000  1.0 0.1298980938
H  H225  1  0.19510000  0.83950000  0.01390000  1.0 0.1298980938
H  H226  1  0.69510000  0.66050000  0.01390000  1.0 0.1298980938
H  H227  1  0.14300000  0.81450000  0.95720000  1.0 0.1394307845
H  H228  1  0.64300000  0.68550000  0.95720000  1.0 0.1394307845
H  H229  1  0.37650000  0.03040000  0.77470000  1.0 0.1225803167
H  H230  1  0.87650000  0.46960000  0.77470000  1.0 0.1225803167
H  H231  1  0.42780000  0.06610000  0.82870000  1.0 0.1394307845
H  H232  1  0.92780000  0.43390000  0.82870000  1.0 0.1394307845
H  H233  1  0.43040000  0.18990000  0.76590000  1.0 0.1298980938
H  H234  1  0.93040000  0.31010000  0.76590000  1.0 0.1298980938
H  H235  1  0.38300000  0.15210000  0.71360000  1.0 0.1225803167
H  H236  1  0.88300000  0.34790000  0.71360000  1.0 0.1225803167
H  H237  1  0.47020000  0.15160000  0.91160000  1.0 0.0983692287
H  H238  1  0.97020000  0.34840000  0.91160000  1.0 0.0983692287
H  H239  1  0.56550000  0.21700000  0.99260000  1.0 0.1225803167
H  H240  1  0.06550000  0.28300000  0.99260000  1.0 0.1225803167
H  H241  1  0.54160000  0.24940000  0.87850000  1.0 0.1225803167
H  H242  1  0.04160000  0.25060000  0.87850000  1.0 0.1225803167
H  H243  1  0.39090000  0.12240000  0.96560000  1.0 0.1225803167
H  H244  1  0.89090000  0.37760000  0.96560000  1.0 0.1225803167
H  H245  1  0.35770000  0.10630000  0.01260000  1.0 0.1394307845
H  H246  1  0.85770000  0.39370000  0.01260000  1.0 0.1394307845
H  H247  1  0.46210000  0.05690000  0.08530000  1.0 0.1298980938
H  H248  1  0.96210000  0.44310000  0.08530000  1.0 0.1298980938
H  H249  1  0.49760000  0.10110000  0.04940000  1.0 0.1298980938
H  H250  1  0.99760000  0.39890000  0.04940000  1.0 0.1298980938
H  H251  1  0.61680000  0.32860000  0.05150000  1.0 0.1298980938
H  H252  1  0.11680000  0.17140000  0.05150000  1.0 0.1298980938
H  H253  1  0.67320000  0.37600000  0.08850000  1.0 0.1225803167
H  H254  1  0.17320000  0.12400000  0.08850000  1.0 0.1225803167
H  H255  1  0.71740000  0.38200000  0.99770000  1.0 0.1298980938
H  H256  1  0.21740000  0.11800000  0.99770000  1.0 0.1298980938
H  H257  1  0.66560000  0.32790000  0.96200000  1.0 0.1298980938
H  H258  1  0.16560000  0.17210000  0.96200000  1.0 0.1298980938
H  H259  1  0.88580000  0.49880000  0.53520000  1.0 0.1394307845
H  H260  1  0.38580000  0.00120000  0.53520000  1.0 0.1394307845
H  H261  1  0.92580000  0.46920000  0.50110000  1.0 0.1298980938
H  H262  1  0.42580000  0.03080000  0.50110000  1.0 0.1298980938
H  H263  1  0.91020000  0.33120000  0.53080000  1.0 0.1298980938
H  H264  1  0.41020000  0.16880000  0.53080000  1.0 0.1298980938
H  H265  1  0.86690000  0.36070000  0.56300000  1.0 0.1225803167
H  H266  1  0.36690000  0.13930000  0.56300000  1.0 0.1225803167
H  H267  1  0.95060000  0.37150000  0.41900000  1.0 0.1066254489
H  H268  1  0.45060000  0.12850000  0.41900000  1.0 0.1066254489
H  H269  1  0.04780000  0.30710000  0.39560000  1.0 0.1394307845
H  H270  1  0.54780000  0.19290000  0.39560000  1.0 0.1394307845
H  H271  1  0.03280000  0.28690000  0.50100000  1.0 0.1225803167
H  H272  1  0.53280000  0.21310000  0.50100000  1.0 0.1225803167
H  H273  1  0.86980000  0.35180000  0.29910000  1.0 0.1298980938
H  H274  1  0.36980000  0.14820000  0.29910000  1.0 0.1298980938
H  H275  1  0.83340000  0.38310000  0.23760000  1.0 0.1298980938
H  H276  1  0.33340000  0.11690000  0.23760000  1.0 0.1298980938
H  H277  1  0.93320000  0.46020000  0.23740000  1.0 0.1298980938
H  H278  1  0.43320000  0.03980000  0.23740000  1.0 0.1298980938
H  H279  1  0.97130000  0.42470000  0.29910000  1.0 0.1394307845
H  H280  1  0.47130000  0.07530000  0.29910000  1.0 0.1394307845
H  H281  1  0.07410000  0.15280000  0.52670000  1.0 0.1298980938
H  H282  1  0.57410000  0.34720000  0.52670000  1.0 0.1298980938
H  H283  1  0.12220000  0.08890000  0.55110000  1.0 0.1225803167
H  H284  1  0.62220000  0.41110000  0.55110000  1.0 0.1225803167
H  H285  1  0.21200000  0.17160000  0.53110000  1.0 0.1225803167
H  H286  1  0.71200000  0.32840000  0.53110000  1.0 0.1225803167
H  H287  1  0.15890000  0.22440000  0.49380000  1.0 0.1298980938
H  H288  1  0.65890000  0.27560000  0.49380000  1.0 0.1298980938
C  C1  1  0.77300000  0.06740000  0.45710000  1.0 0.5907860052
C  C2  1  0.27300000  0.43260000  0.45710000  1.0 0.5907860052
C  C3  1  0.79590000  0.08750000  0.49557000  1.0 -0.0605170588
C  C4  1  0.29590000  0.41250000  0.49557000  1.0 -0.0605170588
C  C5  1  0.83740000  0.08810000  0.50870000  1.0 -0.0802406406
C  C6  1  0.33740000  0.41190000  0.50870000  1.0 -0.0802406406
C  C7  1  0.85970000  0.10150000  0.54450000  1.0 -0.1491403125
C  C8  1  0.35970000  0.39850000  0.54450000  1.0 -0.1593906767
C  C9  1  0.83990000  0.11920000  0.57002000  1.0 0.2209214352
C  C10  1  0.33990000  0.38080000  0.57002000  1.0 0.2209214352
C  C11  1  0.79780000  0.12130000  0.55707000  1.0 -0.1990344851
C  C12  1  0.29780000  0.37870000  0.55707000  1.0 -0.1990344851
C  C13  1  0.77630000  0.10570000  0.51960000  1.0 -0.0802406406
C  C14  1  0.27630000  0.39430000  0.51960000  1.0 -0.0802406406
C  C15  1  0.90140000  0.14440000  0.62586000  1.0 0.4656942872
C  C16  1  0.40140000  0.35560000  0.62586000  1.0 0.4656942872
C  C17  1  0.91340000  0.16180000  0.66744000  1.0 -0.0094022651
C  C18  1  0.41340000  0.33820000  0.66744000  1.0 -0.0094022651
C  C19  1  0.94650000  0.19320000  0.67883000  1.0 -0.1023789541
C  C20  1  0.44650000  0.30680000  0.67883000  1.0 -0.1023789541
C  C21  1  0.95990000  0.21220000  0.71779000  1.0 -0.0482203909
C  C22  1  0.45990000  0.28780000  0.71779000  1.0 -0.0482203909
C  C23  1  0.93790000  0.20040000  0.74200000  1.0 -0.1200368543
C  C24  1  0.43790000  0.29960000  0.74200000  1.0 -0.1200368543
C  C25  1  0.90471000  0.16890000  0.72927000  1.0 -0.0094022651
C  C26  1  0.40471000  0.33110000  0.72927000  1.0 -0.0094022651
C  C27  1  0.89254000  0.14910000  0.69262000  1.0 -0.1705854372
C  C28  1  0.39254000  0.35090000  0.69262000  1.0 -0.1705854372
C  C29  1  0.99310000  0.24790000  0.72880000  1.0 0.4511415304
C  C30  1  0.49310000  0.25210000  0.72880000  1.0 0.4511415304
C  C31  1  0.04720000  0.28070000  0.78625000  1.0 0.247371043
C  C32  1  0.54720000  0.21930000  0.78625000  1.0 0.247371043
C  C33  1  0.04050000  0.33280000  0.77803000  1.0 -0.1705854372
C  C34  1  0.54050000  0.16720000  0.77803000  1.0 -0.1705854372
C  C35  1  0.06683000  0.36540000  0.79950000  1.0 -0.0802406406
C  C36  1  0.56683000  0.13460000  0.79950000  1.0 -0.0802406406
C  C37  1  0.10090000  0.35100000  0.83089000  1.0 -0.0605170588
C  C38  1  0.60090000  0.14900000  0.83089000  1.0 -0.0605170588
C  C39  1  0.10730000  0.30300000  0.83950000  1.0 -0.0708548502
C  C40  1  0.60730000  0.19700000  0.83950000  1.0 -0.0708548502
C  C41  1  0.08100000  0.26740000  0.81856000  1.0 -0.1990344851
C  C42  1  0.58100000  0.23260000  0.81856000  1.0 -0.1990344851
C  C43  1  0.12940000  0.38950000  0.85340000  1.0 0.5977359213
C  C44  1  0.62940000  0.11050000  0.85340000  1.0 0.5977359213
C  C45  1  0.88050000  0.15910000  0.75686000  1.0 0.4592515559
C  C46  1  0.38050000  0.34090000  0.75686000  1.0 0.4592515559
C  C47  1  0.83360000  0.10170000  0.77489000  1.0 0.2209214352
C  C48  1  0.33360000  0.39830000  0.77489000  1.0 0.2107644963
C  C49  1  0.81380000  0.13790000  0.79140000  1.0 -0.1804441154
C  C50  1  0.31380000  0.36210000  0.79140000  1.0 -0.1804441154
C  C51  1  0.78830000  0.11810000  0.81283000  1.0 -0.0802406406
C  C52  1  0.28830000  0.38190000  0.81283000  1.0 -0.0802406406
C  C53  1  0.77990000  0.07220000  0.81483000  1.0 -0.0605170588
C  C54  1  0.27990000  0.42780000  0.81483000  1.0 -0.0605170588
C  C55  1  0.79950000  0.04160000  0.79780000  1.0 -0.0708548502
C  C56  1  0.29950000  0.45840000  0.79780000  1.0 -0.0708548502
C  C57  1  0.82550000  0.05370000  0.77560000  1.0 -0.2122678264
C  C58  1  0.32550000  0.44630000  0.77560000  1.0 -0.2122678264
C  C59  1  0.75536000  0.05360000  0.83769000  1.0 0.5907860052
C  C60  1  0.25536000  0.44640000  0.83769000  1.0 0.5907860052
C  C61  1  0.29528000  0.45940000  0.32570000  1.0 0.5907860052
C  C62  1  0.79528000  0.04060000  0.32570000  1.0 0.5907860052
C  C63  1  0.32249000  0.43990000  0.30520000  1.0 -0.0802406406
C  C64  1  0.82249000  0.06010000  0.30520000  1.0 -0.0802406406
C  C65  1  0.36360000  0.43420000  0.32310000  1.0 -0.0802406406
C  C66  1  0.86360000  0.06580000  0.32310000  1.0 -0.0708548502
C  C67  1  0.38860000  0.41510000  0.30490000  1.0 -0.1593906767
C  C68  1  0.88860000  0.08490000  0.30490000  1.0 -0.1705854372
C  C69  1  0.37300000  0.39830000  0.26760000  1.0 0.227508355
C  C70  1  0.87300000  0.10170000  0.26760000  1.0 0.227508355
C  C71  1  0.33080000  0.40050000  0.24940000  1.0 -0.2196560306
C  C72  1  0.83080000  0.09950000  0.24940000  1.0 -0.2122678264
C  C73  1  0.30490000  0.42300000  0.26760000  1.0 -0.0708548502
C  C74  1  0.80490000  0.07700000  0.26760000  1.0 -0.0708548502
C  C75  1  0.43480000  0.36730000  0.25420000  1.0 0.4592515559
C  C76  1  0.93480000  0.13270000  0.25420000  1.0 0.4592515559
C  C77  1  0.45110000  0.34540000  0.22400000  1.0 -0.0094022651
C  C78  1  0.95110000  0.15460000  0.22400000  1.0 -0.0094022651
C  C79  1  0.48410000  0.31510000  0.23539000  1.0 -0.1491403125
C  C80  1  0.98410000  0.18490000  0.23539000  1.0 -0.1491403125
C  C81  1  0.49720000  0.28950000  0.20841000  1.0 -0.0390535862
C  C82  1  0.99720000  0.21050000  0.20841000  1.0 -0.0333750175
C  C83  1  0.47600000  0.29580000  0.16849000  1.0 -0.0895603274
C  C84  1  0.97600000  0.20420000  0.16849000  1.0 -0.0895603274
C  C85  1  0.44310000  0.32590000  0.15610000  1.0 -0.0390535862
C  C86  1  0.94310000  0.17410000  0.15610000  1.0 -0.0390535862
C  C87  1  0.42810000  0.34940000  0.18340000  1.0 -0.1904045165
C  C88  1  0.92810000  0.15060000  0.18340000  1.0 -0.1904045165
C  C89  1  0.53480000  0.25820000  0.21920000  1.0 0.4511415304
C  C90  1  0.03480000  0.24180000  0.21920000  1.0 0.4511415304
C  C91  1  0.57090000  0.19940000  0.27324000  1.0 0.2436716445
C  C92  1  0.07090000  0.30060000  0.27324000  1.0 0.2436716445
C  C93  1  0.60410000  0.18820000  0.26080000  1.0 -0.1804441154
C  C94  1  0.10410000  0.31180000  0.26080000  1.0 -0.1804441154
C  C95  1  0.63430000  0.15380000  0.28207000  1.0 -0.0895603274
C  C96  1  0.13430000  0.34620000  0.28207000  1.0 -0.0895603274
C  C97  1  0.62910000  0.13050000  0.31385000  1.0 -0.0390535862
C  C98  1  0.12910000  0.36950000  0.31385000  1.0 -0.0390535862
C  C99  1  0.59590000  0.14310000  0.32590000  1.0 -0.0605170588
C  C100  1  0.09590000  0.35690000  0.32590000  1.0 -0.0605170588
C  C101  1  0.56700000  0.17380000  0.30542000  1.0 -0.1904045165
C  C102  1  0.06700000  0.32620000  0.30542000  1.0 -0.1904045165
C  C103  1  0.66220000  0.09470000  0.33610000  1.0 0.5907860052
C  C104  1  0.16220000  0.40530000  0.33610000  1.0 0.5907860052
C  C105  1  0.41870000  0.33160000  0.11630000  1.0 0.4317878969
C  C106  1  0.91870000  0.16840000  0.11630000  1.0 0.4317878969
C  C107  1  0.36830000  0.38100000  0.06650000  1.0 0.2046142258
C  C108  1  0.86830000  0.11900000  0.06650000  1.0 0.2046142258
C  C109  1  0.35760000  0.42910000  0.06120000  1.0 -0.2196560306
C  C110  1  0.85760000  0.07090000  0.06120000  1.0 -0.2196560306
C  C111  1  0.32630000  0.44500000  0.02670000  1.0 -0.0708548502
C  C112  1  0.82630000  0.05500000  0.02670000  1.0 -0.0708548502
C  C113  1  0.30470000  0.40940000  0.00050000  1.0 -0.0605170588
C  C114  1  0.80470000  0.09060000  0.00050000  1.0 -0.0605170588
C  C115  1  0.31750000  0.36330000  0.00566000  1.0 -0.0708548502
C  C116  1  0.81750000  0.13670000  0.00566000  1.0 -0.0708548502
C  C117  1  0.34920000  0.34840000  0.03940000  1.0 -0.1705854372
C  C118  1  0.84920000  0.15160000  0.03940000  1.0 -0.1705854372
C  C119  1  0.27230000  0.42770000  0.96550000  1.0 0.5977359213
C  C120  1  0.77230000  0.07230000  0.96550000  1.0 0.5977359213
C  C121  1  0.15930000  0.57090000  0.29090000  1.0 0.5427523889
C  C122  1  0.65930000  0.92910000  0.29090000  1.0 0.5427523889
C  C123  1  0.12570000  0.59230000  0.26070000  1.0 -0.0605170588
C  C124  1  0.62570000  0.90770000  0.26070000  1.0 -0.0605170588
C  C125  1  0.11260000  0.56240000  0.22670000  1.0 -0.0708548502
C  C126  1  0.61260000  0.93760000  0.22670000  1.0 -0.0708548502
C  C127  1  0.08190000  0.58410000  0.19510000  1.0 -0.2497473396
C  C128  1  0.58190000  0.91590000  0.19510000  1.0 -0.2497473396
C  C129  1  0.06510000  0.62980000  0.19650000  1.0 0.247371043
C  C130  1  0.56510000  0.87020000  0.19650000  1.0 0.247371043
C  C131  1  0.07950000  0.65760000  0.23182000  1.0 -0.1904045165
C  C132  1  0.57950000  0.84240000  0.23182000  1.0 -0.1904045165
C  C133  1  0.10850000  0.63510000  0.26206000  1.0 -0.0605170588
C  C134  1  0.60850000  0.86490000  0.26206000  1.0 -0.0605170588
C  C135  1  0.02190000  0.69080000  0.15322000  1.0 0.4592515559
C  C136  1  0.52190000  0.80920000  0.15322000  1.0 0.4592515559
C  C137  1  0.99697000  0.69730000  0.11112000  1.0 -0.0170945724
C  C138  1  0.49697000  0.80270000  0.11112000  1.0 -0.0170945724
C  C139  1  0.00671000  0.67320000  0.08207000  1.0 -0.1705854372
C  C140  1  0.50671000  0.82680000  0.08207000  1.0 -0.1705854372
C  C141  1  0.98230000  0.68030000  0.04228000  1.0 -0.0170945724
C  C142  1  0.48230000  0.81970000  0.04228000  1.0 -0.0170945724
C  C143  1  0.95067000  0.71240000  0.03396000  1.0 -0.1115072034
C  C144  1  0.45067000  0.78760000  0.03396000  1.0 -0.1115072034
C  C145  1  0.94079000  0.73870000  0.06196000  1.0 -0.0482203909
C  C146  1  0.44079000  0.76130000  0.06196000  1.0 -0.0482203909
C  C147  1  0.96448000  0.73130000  0.10151000  1.0 -0.1023789541
C  C148  1  0.46448000  0.76870000  0.10151000  1.0 -0.1023789541
C  C149  1  0.99120000  0.65530000  0.00990000  1.0 0.4511415304
C  C150  1  0.49120000  0.84470000  0.00990000  1.0 0.4511415304
C  C151  1  0.05150000  0.62060000  0.99500000  1.0 0.2209214352
C  C152  1  0.55150000  0.87940000  0.99500000  1.0 0.2209214352
C  C153  1  0.09380000  0.61500000  0.00800000  1.0 -0.2122678264
C  C154  1  0.59380000  0.88500000  0.00800000  1.0 -0.2122678264
C  C155  1  0.11410000  0.59850000  0.98240000  1.0 -0.0895603274
C  C156  1  0.61410000  0.90150000  0.98240000  1.0 -0.0895603274
C  C157  1  0.09400000  0.57180000  0.95100000  1.0 -0.0333750175
C  C158  1  0.59400000  0.92820000  0.95100000  1.0 -0.0333750175
C  C159  1  0.05290000  0.57310000  0.93840000  1.0 -0.0895603274
C  C160  1  0.55290000  0.92690000  0.93840000  1.0 -0.0895603274
C  C161  1  0.03160000  0.59910000  0.96054000  1.0 -0.1904045165
C  C162  1  0.53160000  0.90090000  0.96054000  1.0 -0.1904045165
C  C163  1  0.11960000  0.54440000  0.92960000  1.0 0.5824538537
C  C164  1  0.61960000  0.95560000  0.92960000  1.0 0.5824538537
C  C165  1  0.90610000  0.77170000  0.05306000  1.0 0.4511415304
C  C166  1  0.40610000  0.72830000  0.05306000  1.0 0.4511415304
C  C167  1  0.86430000  0.82380000  0.99700000  1.0 0.247371043
C  C168  1  0.36430000  0.67620000  0.99700000  1.0 0.247371043
C  C169  1  0.86230000  0.83820000  0.95910000  1.0 -0.2122678264
C  C170  1  0.36230000  0.66180000  0.95910000  1.0 -0.2196560306
C  C171  1  0.82890000  0.86690000  0.93750000  1.0 -0.0802406406
C  C172  1  0.32890000  0.63310000  0.93750000  1.0 -0.0802406406
C  C173  1  0.79980000  0.88180000  0.95210000  1.0 -0.0605170588
C  C174  1  0.29980000  0.61820000  0.95210000  1.0 -0.0605170588
C  C175  1  0.80220000  0.86940000  0.99130000  1.0 -0.0708548502
C  C176  1  0.30220000  0.63060000  0.99130000  1.0 -0.0708548502
C  C177  1  0.83360000  0.83880000  0.01270000  1.0 -0.1904045165
C  C178  1  0.33360000  0.66120000  0.01270000  1.0 -0.1904045165
C  C179  1  0.76490000  0.91160000  0.92760000  1.0 0.5907860052
C  C180  1  0.26490000  0.58840000  0.92760000  1.0 0.5824538537
C  C181  1  0.65597000  0.95220000  0.42495000  1.0 0.5977359213
C  C182  1  0.15597000  0.54780000  0.42495000  1.0 0.5977359213
C  C183  1  0.63003000  0.93180000  0.44751000  1.0 -0.0708548502
C  C184  1  0.13003000  0.56820000  0.44751000  1.0 -0.0708548502
C  C185  1  0.61030000  0.96420000  0.46597000  1.0 -0.0802406406
C  C186  1  0.11030000  0.53580000  0.46597000  1.0 -0.0802406406
C  C187  1  0.58593000  0.94650000  0.48535000  1.0 -0.1804441154
C  C188  1  0.08593000  0.55350000  0.48535000  1.0 -0.1804441154
C  C189  1  0.57740000  0.89900000  0.48653000  1.0 0.2107644963
C  C190  1  0.07740000  0.60100000  0.48653000  1.0 0.2107644963
C  C191  1  0.59510000  0.86560000  0.46860000  1.0 -0.1804441154
C  C192  1  0.09510000  0.63440000  0.46860000  1.0 -0.1804441154
C  C193  1  0.62080000  0.88380000  0.44960000  1.0 -0.0895603274
C  C194  1  0.12080000  0.61620000  0.44960000  1.0 -0.0895603274
C  C195  1  0.53281000  0.83990000  0.50522000  1.0 0.4592515559
C  C196  1  0.03281000  0.66010000  0.50522000  1.0 0.4511415304
C  C197  1  0.51212000  0.83210000  0.53549000  1.0 -0.0031638707
C  C198  1  0.01212000  0.66790000  0.53549000  1.0 -0.0031638707
C  C199  1  0.52536000  0.85150000  0.57257000  1.0 -0.1990344851
C  C200  1  0.02536000  0.64850000  0.57257000  1.0 -0.1990344851
C  C201  1  0.50210000  0.84080000  0.59849000  1.0 -0.0094022651
C  C202  1  0.00210000  0.65920000  0.59849000  1.0 -0.0094022651
C  C203  1  0.46778000  0.81250000  0.58727000  1.0 -0.1200368543
C  C204  1  0.96778000  0.68750000  0.58727000  1.0 -0.1200368543
C  C205  1  0.45599000  0.79190000  0.55110000  1.0 -0.0170945724
C  C206  1  0.95599000  0.70810000  0.55110000  1.0 -0.0170945724
C  C207  1  0.47670000  0.80110000  0.52440000  1.0 -0.1593906767
C  C208  1  0.97670000  0.69890000  0.52440000  1.0 -0.1593906767
C  C209  1  0.51600000  0.86440000  0.63829000  1.0 0.4592515559
C  C210  1  0.01600000  0.63560000  0.63829000  1.0 0.4592515559
C  C211  1  0.57600000  0.88640000  0.69491000  1.0 0.227508355
C  C212  1  0.07600000  0.61360000  0.69491000  1.0 0.2209214352
C  C213  1  0.61690000  0.87360000  0.71360000  1.0 -0.2122678264
C  C214  1  0.11690000  0.62640000  0.71360000  1.0 -0.2122678264
C  C215  1  0.63850000  0.89170000  0.75012000  1.0 -0.0802406406
C  C216  1  0.13850000  0.60830000  0.75012000  1.0 -0.0802406406
C  C217  1  0.61900000  0.92180000  0.76807000  1.0 -0.0333750175
C  C218  1  0.11900000  0.57820000  0.76807000  1.0 -0.0333750175
C  C219  1  0.57931000  0.93680000  0.75031000  1.0 -0.0802406406
C  C220  1  0.07931000  0.56320000  0.75031000  1.0 -0.0802406406
C  C221  1  0.55693000  0.91670000  0.71292000  1.0 -0.1990344851
C  C222  1  0.05693000  0.58330000  0.71292000  1.0 -0.1990344851
C  C223  1  0.64180000  0.94170000  0.80890000  1.0 0.5977359213
C  C224  1  0.14180000  0.55830000  0.80890000  1.0 0.5977359213
C  C225  1  0.41650000  0.76250000  0.53930000  1.0 0.4592515559
C  C226  1  0.91650000  0.73750000  0.53930000  1.0 0.4592515559
C  C227  1  0.38610000  0.69280000  0.49410000  1.0 0.2209214352
C  C228  1  0.88610000  0.80720000  0.49410000  1.0 0.2209214352
C  C229  1  0.39850000  0.65470000  0.47420000  1.0 -0.2122678264
C  C230  1  0.89850000  0.84530000  0.47420000  1.0 -0.2122678264
C  C231  1  0.36960000  0.62010000  0.45600000  1.0 -0.0708548502
C  C232  1  0.86960000  0.87990000  0.45600000  1.0 -0.0708548502
C  C233  1  0.32590000  0.63160000  0.44770000  1.0 -0.0895603274
C  C234  1  0.82590000  0.86840000  0.44770000  1.0 -0.0895603274
C  C235  1  0.31550000  0.66740000  0.46910000  1.0 -0.0802406406
C  C236  1  0.81550000  0.83260000  0.46910000  1.0 -0.0802406406
C  C237  1  0.34790000  0.69820000  0.49180000  1.0 -0.1804441154
C  C238  1  0.84790000  0.80180000  0.49180000  1.0 -0.1804441154
C  C239  1  0.29680000  0.59550000  0.42340000  1.0 0.5977359213
C  C240  1  0.79680000  0.90450000  0.42340000  1.0 0.5977359213
C  C241  1  0.15390000  0.43760000  0.97200000  1.0 0.2726608404
C  C242  1  0.65390000  0.06240000  0.97200000  1.0 0.2726608404
C  C243  1  0.09270000  0.39700000  0.93730000  1.0 -0.2196560306
C  C244  1  0.59270000  0.10300000  0.93730000  1.0 -0.2196560306
C  C245  1  0.08830000  0.44060000  0.98970000  1.0 -0.2394505999
C  C246  1  0.58830000  0.05940000  0.98970000  1.0 -0.2196560306
C  C247  1  0.72700000  0.56740000  0.54290000  1.0 0.5907860052
C  C248  1  0.22700000  0.93260000  0.54290000  1.0 0.5907860052
C  C249  1  0.70410000  0.58750000  0.50443000  1.0 -0.0605170588
C  C250  1  0.20410000  0.91250000  0.50443000  1.0 -0.0605170588
C  C251  1  0.66260000  0.58810000  0.49130000  1.0 -0.0802406406
C  C252  1  0.16260000  0.91190000  0.49130000  1.0 -0.0802406406
C  C253  1  0.64030000  0.60150000  0.45550000  1.0 -0.1593906767
C  C254  1  0.14030000  0.89850000  0.45550000  1.0 -0.1593906767
C  C255  1  0.66010000  0.61920000  0.42998000  1.0 0.2209214352
C  C256  1  0.16010000  0.88080000  0.42998000  1.0 0.2209214352
C  C257  1  0.70220000  0.62130000  0.44293000  1.0 -0.1990344851
C  C258  1  0.20220000  0.87870000  0.44293000  1.0 -0.1990344851
C  C259  1  0.72370000  0.60570000  0.48040000  1.0 -0.0802406406
C  C260  1  0.22370000  0.89430000  0.48040000  1.0 -0.0802406406
C  C261  1  0.59860000  0.64440000  0.37414000  1.0 0.4656942872
C  C262  1  0.09860000  0.85560000  0.37414000  1.0 0.4656942872
C  C263  1  0.58660000  0.66180000  0.33256000  1.0 -0.0094022651
C  C264  1  0.08660000  0.83820000  0.33256000  1.0 -0.0094022651
C  C265  1  0.55350000  0.69320000  0.32117000  1.0 -0.1023789541
C  C266  1  0.05350000  0.80680000  0.32117000  1.0 -0.1023789541
C  C267  1  0.54010000  0.71220000  0.28221000  1.0 -0.0482203909
C  C268  1  0.04010000  0.78780000  0.28221000  1.0 -0.0482203909
C  C269  1  0.56210000  0.70040000  0.25800000  1.0 -0.1200368543
C  C270  1  0.06210000  0.79960000  0.25800000  1.0 -0.1200368543
C  C271  1  0.59529000  0.66890000  0.27073000  1.0 -0.0094022651
C  C272  1  0.09529000  0.83110000  0.27073000  1.0 -0.0094022651
C  C273  1  0.60746000  0.64910000  0.30738000  1.0 -0.1705854372
C  C274  1  0.10746000  0.85090000  0.30738000  1.0 -0.1705854372
C  C275  1  0.50690000  0.74790000  0.27120000  1.0 0.4511415304
C  C276  1  0.00690000  0.75210000  0.27120000  1.0 0.4511415304
C  C277  1  0.45280000  0.78070000  0.21375000  1.0 0.247371043
C  C278  1  0.95280000  0.71930000  0.21375000  1.0 0.247371043
C  C279  1  0.45950000  0.83280000  0.22197000  1.0 -0.1705854372
C  C280  1  0.95950000  0.66720000  0.22197000  1.0 -0.1705854372
C  C281  1  0.43317000  0.86540000  0.20050000  1.0 -0.0802406406
C  C282  1  0.93317000  0.63460000  0.20050000  1.0 -0.0802406406
C  C283  1  0.39910000  0.85100000  0.16911000  1.0 -0.0605170588
C  C284  1  0.89910000  0.64900000  0.16911000  1.0 -0.0605170588
C  C285  1  0.39270000  0.80300000  0.16050000  1.0 -0.0708548502
C  C286  1  0.89270000  0.69700000  0.16050000  1.0 -0.0708548502
C  C287  1  0.41900000  0.76740000  0.18144000  1.0 -0.1990344851
C  C288  1  0.91900000  0.73260000  0.18144000  1.0 -0.1990344851
C  C289  1  0.37060000  0.88950000  0.14660000  1.0 0.5977359213
C  C290  1  0.87060000  0.61050000  0.14660000  1.0 0.5977359213
C  C291  1  0.61950000  0.65910000  0.24314000  1.0 0.4592515559
C  C292  1  0.11950000  0.84090000  0.24314000  1.0 0.4592515559
C  C293  1  0.66640000  0.60170000  0.22511000  1.0 0.2209214352
C  C294  1  0.16640000  0.89830000  0.22511000  1.0 0.2107644963
C  C295  1  0.68620000  0.63790000  0.20860000  1.0 -0.1804441154
C  C296  1  0.18620000  0.86210000  0.20860000  1.0 -0.1804441154
C  C297  1  0.71170000  0.61810000  0.18717000  1.0 -0.0802406406
C  C298  1  0.21170000  0.88190000  0.18717000  1.0 -0.0802406406
C  C299  1  0.72010000  0.57220000  0.18517000  1.0 -0.0708548502
C  C300  1  0.22010000  0.92780000  0.18517000  1.0 -0.0605170588
C  C301  1  0.70050000  0.54160000  0.20220000  1.0 -0.0708548502
C  C302  1  0.20050000  0.95840000  0.20220000  1.0 -0.0708548502
C  C303  1  0.67450000  0.55370000  0.22440000  1.0 -0.2122678264
C  C304  1  0.17450000  0.94630000  0.22440000  1.0 -0.2122678264
C  C305  1  0.74464000  0.55360000  0.16231000  1.0 0.5907860052
C  C306  1  0.24464000  0.94640000  0.16231000  1.0 0.5907860052
C  C307  1  0.20472000  0.95940000  0.67430000  1.0 0.5907860052
C  C308  1  0.70472000  0.54060000  0.67430000  1.0 0.5907860052
C  C309  1  0.17751000  0.93990000  0.69480000  1.0 -0.0802406406
C  C310  1  0.67751000  0.56010000  0.69480000  1.0 -0.0802406406
C  C311  1  0.13640000  0.93420000  0.67690000  1.0 -0.0708548502
C  C312  1  0.63640000  0.56580000  0.67690000  1.0 -0.0708548502
C  C313  1  0.11140000  0.91510000  0.69510000  1.0 -0.1705854372
C  C314  1  0.61140000  0.58490000  0.69510000  1.0 -0.1705854372
C  C315  1  0.12700000  0.89830000  0.73240000  1.0 0.227508355
C  C316  1  0.62700000  0.60170000  0.73240000  1.0 0.227508355
C  C317  1  0.16920000  0.90050000  0.75060000  1.0 -0.2196560306
C  C318  1  0.66920000  0.59950000  0.75060000  1.0 -0.2196560306
C  C319  1  0.19510000  0.92300000  0.73240000  1.0 -0.0708548502
C  C320  1  0.69510000  0.57700000  0.73240000  1.0 -0.0708548502
C  C321  1  0.06520000  0.86730000  0.74580000  1.0 0.4656942872
C  C322  1  0.56520000  0.63270000  0.74580000  1.0 0.4656942872
C  C323  1  0.04890000  0.84540000  0.77600000  1.0 -0.0094022651
C  C324  1  0.54890000  0.65460000  0.77600000  1.0 -0.0094022651
C  C325  1  0.01590000  0.81510000  0.76461000  1.0 -0.1491403125
C  C326  1  0.51590000  0.68490000  0.76461000  1.0 -0.1491403125
C  C327  1  0.00280000  0.78950000  0.79159000  1.0 -0.0333750175
C  C328  1  0.50280000  0.71050000  0.79159000  1.0 -0.0333750175
C  C329  1  0.02400000  0.79580000  0.83151000  1.0 -0.0895603274
C  C330  1  0.52400000  0.70420000  0.83151000  1.0 -0.0895603274
C  C331  1  0.05690000  0.82590000  0.84390000  1.0 -0.0390535862
C  C332  1  0.55690000  0.67410000  0.84390000  1.0 -0.0390535862
C  C333  1  0.07190000  0.84940000  0.81660000  1.0 -0.1904045165
C  C334  1  0.57190000  0.65060000  0.81660000  1.0 -0.1904045165
C  C335  1  0.96520000  0.75820000  0.78080000  1.0 0.4511415304
C  C336  1  0.46520000  0.74180000  0.78080000  1.0 0.4511415304
C  C337  1  0.92910000  0.69940000  0.72676000  1.0 0.247371043
C  C338  1  0.42910000  0.80060000  0.72676000  1.0 0.247371043
C  C339  1  0.89590000  0.68820000  0.73920000  1.0 -0.1804441154
C  C340  1  0.39590000  0.81180000  0.73920000  1.0 -0.1804441154
C  C341  1  0.86570000  0.65380000  0.71793000  1.0 -0.0895603274
C  C342  1  0.36570000  0.84620000  0.71793000  1.0 -0.0895603274
C  C343  1  0.87090000  0.63050000  0.68615000  1.0 -0.0390535862
C  C344  1  0.37090000  0.86950000  0.68615000  1.0 -0.0390535862
C  C345  1  0.90410000  0.64310000  0.67410000  1.0 -0.0605170588
C  C346  1  0.40410000  0.85690000  0.67410000  1.0 -0.0605170588
C  C347  1  0.93300000  0.67380000  0.69458000  1.0 -0.1904045165
C  C348  1  0.43300000  0.82620000  0.69458000  1.0 -0.1904045165
C  C349  1  0.83780000  0.59470000  0.66390000  1.0 0.5907860052
C  C350  1  0.33780000  0.90530000  0.66390000  1.0 0.5907860052
C  C351  1  0.08130000  0.83160000  0.88370000  1.0 0.4317878969
C  C352  1  0.58130000  0.66840000  0.88370000  1.0 0.4317878969
C  C353  1  0.13170000  0.88100000  0.93350000  1.0 0.2046142258
C  C354  1  0.63170000  0.61900000  0.93350000  1.0 0.2046142258
C  C355  1  0.14240000  0.92910000  0.93880000  1.0 -0.2196560306
C  C356  1  0.64240000  0.57090000  0.93880000  1.0 -0.2196560306
C  C357  1  0.17370000  0.94500000  0.97330000  1.0 -0.0708548502
C  C358  1  0.67370000  0.55500000  0.97330000  1.0 -0.0708548502
C  C359  1  0.19530000  0.90940000  0.99950000  1.0 -0.0605170588
C  C360  1  0.69530000  0.59060000  0.99950000  1.0 -0.0605170588
C  C361  1  0.18250000  0.86330000  0.99434000  1.0 -0.0708548502
C  C362  1  0.68250000  0.63670000  0.99434000  1.0 -0.0708548502
C  C363  1  0.15080000  0.84840000  0.96060000  1.0 -0.1705854372
C  C364  1  0.65080000  0.65160000  0.96060000  1.0 -0.1705854372
C  C365  1  0.22770000  0.92770000  0.03450000  1.0 0.5977359213
C  C366  1  0.72770000  0.57230000  0.03450000  1.0 0.5977359213
C  C367  1  0.34070000  0.07090000  0.70910000  1.0 0.5427523889
C  C368  1  0.84070000  0.42910000  0.70910000  1.0 0.5427523889
C  C369  1  0.37430000  0.09230000  0.73930000  1.0 -0.0605170588
C  C370  1  0.87430000  0.40770000  0.73930000  1.0 -0.0605170588
C  C371  1  0.38740000  0.06240000  0.77330000  1.0 -0.0708548502
C  C372  1  0.88740000  0.43760000  0.77330000  1.0 -0.0708548502
C  C373  1  0.41810000  0.08410000  0.80490000  1.0 -0.2497473396
C  C374  1  0.91810000  0.41590000  0.80490000  1.0 -0.2497473396
C  C375  1  0.43490000  0.12980000  0.80350000  1.0 0.247371043
C  C376  1  0.93490000  0.37020000  0.80350000  1.0 0.247371043
C  C377  1  0.42050000  0.15760000  0.76818000  1.0 -0.1904045165
C  C378  1  0.92050000  0.34240000  0.76818000  1.0 -0.1904045165
C  C379  1  0.39150000  0.13510000  0.73794000  1.0 -0.0605170588
C  C380  1  0.89150000  0.36490000  0.73794000  1.0 -0.0605170588
C  C381  1  0.47810000  0.19080000  0.84678000  1.0 0.4592515559
C  C382  1  0.97810000  0.30920000  0.84678000  1.0 0.4592515559
C  C383  1  0.50303000  0.19730000  0.88888000  1.0 -0.0170945724
C  C384  1  0.00303000  0.30270000  0.88888000  1.0 -0.0170945724
C  C385  1  0.49329000  0.17320000  0.91793000  1.0 -0.1705854372
C  C386  1  0.99329000  0.32680000  0.91793000  1.0 -0.1705854372
C  C387  1  0.51770000  0.18030000  0.95772000  1.0 -0.0170945724
C  C388  1  0.01770000  0.31970000  0.95772000  1.0 -0.0170945724
C  C389  1  0.54933000  0.21240000  0.96604000  1.0 -0.1115072034
C  C390  1  0.04933000  0.28760000  0.96604000  1.0 -0.1115072034
C  C391  1  0.55921000  0.23870000  0.93804000  1.0 -0.0482203909
C  C392  1  0.05921000  0.26130000  0.93804000  1.0 -0.0482203909
C  C393  1  0.53552000  0.23130000  0.89849000  1.0 -0.1023789541
C  C394  1  0.03552000  0.26870000  0.89849000  1.0 -0.1023789541
C  C395  1  0.50880000  0.15530000  0.99010000  1.0 0.4511415304
C  C396  1  0.00880000  0.34470000  0.99010000  1.0 0.4511415304
C  C397  1  0.44850000  0.12060000  0.00500000  1.0 0.2209214352
C  C398  1  0.94850000  0.37940000  0.00500000  1.0 0.2209214352
C  C399  1  0.40620000  0.11500000  0.99200000  1.0 -0.2122678264
C  C400  1  0.90620000  0.38500000  0.99200000  1.0 -0.2122678264
C  C401  1  0.38590000  0.09850000  0.01760000  1.0 -0.0895603274
C  C402  1  0.88590000  0.40150000  0.01760000  1.0 -0.0895603274
C  C403  1  0.40600000  0.07180000  0.04900000  1.0 -0.0333750175
C  C404  1  0.90600000  0.42820000  0.04900000  1.0 -0.0333750175
C  C405  1  0.44710000  0.07310000  0.06160000  1.0 -0.0895603274
C  C406  1  0.94710000  0.42690000  0.06160000  1.0 -0.0895603274
C  C407  1  0.46840000  0.09910000  0.03946000  1.0 -0.1990344851
C  C408  1  0.96840000  0.40090000  0.03946000  1.0 -0.1990344851
C  C409  1  0.38040000  0.04440000  0.07040000  1.0 0.5824538537
C  C410  1  0.88040000  0.45560000  0.07040000  1.0 0.5824538537
C  C411  1  0.59390000  0.27170000  0.94694000  1.0 0.4511415304
C  C412  1  0.09390000  0.22830000  0.94694000  1.0 0.4511415304
C  C413  1  0.63570000  0.32380000  0.00300000  1.0 0.247371043
C  C414  1  0.13570000  0.17620000  0.00300000  1.0 0.247371043
C  C415  1  0.63770000  0.33820000  0.04090000  1.0 -0.2196560306
C  C416  1  0.13770000  0.16180000  0.04090000  1.0 -0.2196560306
C  C417  1  0.67110000  0.36690000  0.06250000  1.0 -0.0802406406
C  C418  1  0.17110000  0.13310000  0.06250000  1.0 -0.0802406406
C  C419  1  0.70020000  0.38180000  0.04790000  1.0 -0.0605170588
C  C420  1  0.20020000  0.11820000  0.04790000  1.0 -0.0605170588
C  C421  1  0.69780000  0.36940000  0.00870000  1.0 -0.0708548502
C  C422  1  0.19780000  0.13060000  0.00870000  1.0 -0.0802406406
C  C423  1  0.66640000  0.33880000  0.98730000  1.0 -0.1904045165
C  C424  1  0.16640000  0.16120000  0.98730000  1.0 -0.1904045165
C  C425  1  0.73510000  0.41160000  0.07240000  1.0 0.5907860052
C  C426  1  0.23510000  0.08840000  0.07240000  1.0 0.5907860052
C  C427  1  0.84403000  0.45220000  0.57505000  1.0 0.5977359213
C  C428  1  0.34403000  0.04780000  0.57505000  1.0 0.5977359213
C  C429  1  0.86997000  0.43180000  0.55249000  1.0 -0.0708548502
C  C430  1  0.36997000  0.06820000  0.55249000  1.0 -0.0708548502
C  C431  1  0.88970000  0.46420000  0.53403000  1.0 -0.0802406406
C  C432  1  0.38970000  0.03580000  0.53403000  1.0 -0.0802406406
C  C433  1  0.91407000  0.44650000  0.51465000  1.0 -0.1804441154
C  C434  1  0.41407000  0.05350000  0.51465000  1.0 -0.1804441154
C  C435  1  0.92260000  0.39900000  0.51347000  1.0 0.2107644963
C  C436  1  0.42260000  0.10100000  0.51347000  1.0 0.2107644963
C  C437  1  0.90490000  0.36560000  0.53140000  1.0 -0.1804441154
C  C438  1  0.40490000  0.13440000  0.53140000  1.0 -0.1804441154
C  C439  1  0.87920000  0.38380000  0.55040000  1.0 -0.0895603274
C  C440  1  0.37920000  0.11620000  0.55040000  1.0 -0.0895603274
C  C441  1  0.96719000  0.33990000  0.49478000  1.0 0.4592515559
C  C442  1  0.46719000  0.16010000  0.49478000  1.0 0.4592515559
C  C443  1  0.98788000  0.33210000  0.46451000  1.0 -0.0031638707
C  C444  1  0.48788000  0.16790000  0.46451000  1.0 -0.0031638707
C  C445  1  0.97464000  0.35150000  0.42743000  1.0 -0.1990344851
C  C446  1  0.47464000  0.14850000  0.42743000  1.0 -0.1990344851
C  C447  1  0.99790000  0.34080000  0.40151000  1.0 -0.0094022651
C  C448  1  0.49790000  0.15920000  0.40151000  1.0 -0.0094022651
C  C449  1  0.03222000  0.31250000  0.41273000  1.0 -0.1200368543
C  C450  1  0.53222000  0.18750000  0.41273000  1.0 -0.1200368543
C  C451  1  0.04401000  0.29190000  0.44890000  1.0 -0.0170945724
C  C452  1  0.54401000  0.20810000  0.44890000  1.0 -0.0170945724
C  C453  1  0.02330000  0.30110000  0.47560000  1.0 -0.1593906767
C  C454  1  0.52330000  0.19890000  0.47560000  1.0 -0.1593906767
C  C455  1  0.98400000  0.36440000  0.36171000  1.0 0.4592515559
C  C456  1  0.48400000  0.13560000  0.36171000  1.0 0.4592515559
C  C457  1  0.92400000  0.38640000  0.30509000  1.0 0.2209214352
C  C458  1  0.42400000  0.11360000  0.30509000  1.0 0.2209214352
C  C459  1  0.88310000  0.37360000  0.28640000  1.0 -0.2122678264
C  C460  1  0.38310000  0.12640000  0.28640000  1.0 -0.2122678264
C  C461  1  0.86150000  0.39170000  0.24988000  1.0 -0.0802406406
C  C462  1  0.36150000  0.10830000  0.24988000  1.0 -0.0802406406
C  C463  1  0.88100000  0.42180000  0.23193000  1.0 -0.0333750175
C  C464  1  0.38100000  0.07820000  0.23193000  1.0 -0.0333750175
C  C465  1  0.92069000  0.43680000  0.24969000  1.0 -0.0802406406
C  C466  1  0.42069000  0.06320000  0.24969000  1.0 -0.0802406406
C  C467  1  0.94307000  0.41670000  0.28708000  1.0 -0.1990344851
C  C468  1  0.44307000  0.08330000  0.28708000  1.0 -0.1990344851
C  C469  1  0.85820000  0.44170000  0.19110000  1.0 0.5977359213
C  C470  1  0.35820000  0.05830000  0.19110000  1.0 0.5977359213
C  C471  1  0.08350000  0.26250000  0.46070000  1.0 0.4592515559
C  C472  1  0.58350000  0.23750000  0.46070000  1.0 0.4592515559
C  C473  1  0.11390000  0.19280000  0.50590000  1.0 0.2209214352
C  C474  1  0.61390000  0.30720000  0.50590000  1.0 0.2209214352
C  C475  1  0.10150000  0.15470000  0.52580000  1.0 -0.2122678264
C  C476  1  0.60150000  0.34530000  0.52580000  1.0 -0.2122678264
C  C477  1  0.13040000  0.12010000  0.54400000  1.0 -0.0708548502
C  C478  1  0.63040000  0.37990000  0.54400000  1.0 -0.0708548502
C  C479  1  0.17410000  0.13160000  0.55230000  1.0 -0.0895603274
C  C480  1  0.67410000  0.36840000  0.55230000  1.0 -0.0895603274
C  C481  1  0.18450000  0.16740000  0.53090000  1.0 -0.0802406406
C  C482  1  0.68450000  0.33260000  0.53090000  1.0 -0.0802406406
C  C483  1  0.15210000  0.19820000  0.50820000  1.0 -0.1804441154
C  C484  1  0.65210000  0.30180000  0.50820000  1.0 -0.1804441154
C  C485  1  0.20320000  0.09550000  0.57660000  1.0 0.5977359213
C  C486  1  0.70320000  0.40450000  0.57660000  1.0 0.5977359213
C  C487  1  0.34610000  0.93760000  0.02800000  1.0 0.2781868881
C  C488  1  0.84610000  0.56240000  0.02800000  1.0 0.2726608404
C  C489  1  0.40730000  0.89700000  0.06270000  1.0 -0.2394505999
C  C490  1  0.90730000  0.60300000  0.06270000  1.0 -0.2394505999
C  C491  1  0.41170000  0.94060000  0.01030000  1.0 -0.2196560306
C  C492  1  0.91170000  0.55940000  0.01030000  1.0 -0.2196560306
N  N1  1  0.86049000  0.13710000  0.60927000  1.0 -0.3691451475
N  N2  1  0.36049000  0.36290000  0.60927000  1.0 -0.3691451475
N  N3  1  0.01862000  0.24560000  0.76577000  1.0 -0.3399051614
N  N4  1  0.51862000  0.25440000  0.76577000  1.0 -0.3399051614
N  N5  1  0.85934000  0.11910000  0.75322000  1.0 -0.3613652475
N  N6  1  0.35934000  0.38090000  0.75322000  1.0 -0.3613652475
N  N7  1  0.39559000  0.37750000  0.24591000  1.0 -0.3613652475
N  N8  1  0.89559000  0.12250000  0.24591000  1.0 -0.3613652475
N  N9  1  0.53994000  0.23340000  0.25476000  1.0 -0.3502135065
N  N10  1  0.03994000  0.26660000  0.25476000  1.0 -0.3502135065
N  N11  1  0.39870000  0.36970000  0.10366000  1.0 -0.3502135065
N  N12  1  0.89870000  0.13030000  0.10366000  1.0 -0.3502135065
N  N13  1  0.03810000  0.64680000  0.16296000  1.0 -0.3266239948
N  N14  1  0.53810000  0.85320000  0.16296000  1.0 -0.3266239948
N  N15  1  0.03248000  0.64470000  0.01791000  1.0 -0.3399051614
N  N16  1  0.53248000  0.85530000  0.01791000  1.0 -0.3399051614
N  N17  1  0.89750000  0.79510000  0.01768000  1.0 -0.3399051614
N  N18  1  0.39750000  0.70490000  0.01768000  1.0 -0.3399051614
N  N19  1  0.55185000  0.88290000  0.50766000  1.0 -0.3613652475
N  N20  1  0.05185000  0.61710000  0.50766000  1.0 -0.3613652475
N  N21  1  0.55680000  0.86698000  0.65768000  1.0 -0.3502135065
N  N22  1  0.05680000  0.63302000  0.65768000  1.0 -0.3502135065
N  N23  1  0.41835000  0.72360000  0.51520000  1.0 -0.3691451475
N  N24  1  0.91835000  0.77640000  0.51520000  1.0 -0.3691451475
N  N25  1  0.12060000  0.41570000  0.97650000  1.0 -0.0094022651
N  N26  1  0.62060000  0.08430000  0.97650000  1.0 -0.0094022651
N  N27  1  0.63951000  0.63710000  0.39073000  1.0 -0.3691451475
N  N28  1  0.13951000  0.86290000  0.39073000  1.0 -0.3691451475
N  N29  1  0.48138000  0.74560000  0.23423000  1.0 -0.3399051614
N  N30  1  0.98138000  0.75440000  0.23423000  1.0 -0.3399051614
N  N31  1  0.64066000  0.61910000  0.24678000  1.0 -0.3613652475
N  N32  1  0.14066000  0.88090000  0.24678000  1.0 -0.3613652475
N  N33  1  0.10441000  0.87750000  0.75409000  1.0 -0.3613652475
N  N34  1  0.60441000  0.62250000  0.75409000  1.0 -0.3613652475
N  N35  1  0.96006000  0.73340000  0.74524000  1.0 -0.3502135065
N  N36  1  0.46006000  0.76660000  0.74524000  1.0 -0.3502135065
N  N37  1  0.10130000  0.86970000  0.89634000  1.0 -0.3502135065
N  N38  1  0.60130000  0.63030000  0.89634000  1.0 -0.3502135065
N  N39  1  0.46190000  0.14680000  0.83704000  1.0 -0.3266239948
N  N40  1  0.96190000  0.35320000  0.83704000  1.0 -0.3266239948
N  N41  1  0.46752000  0.14470000  0.98209000  1.0 -0.3399051614
N  N42  1  0.96752000  0.35530000  0.98209000  1.0 -0.3399051614
N  N43  1  0.60250000  0.29510000  0.98232000  1.0 -0.3399051614
N  N44  1  0.10250000  0.20490000  0.98232000  1.0 -0.3399051614
N  N45  1  0.94815000  0.38290000  0.49234000  1.0 -0.3613652475
N  N46  1  0.44815000  0.11710000  0.49234000  1.0 -0.3613652475
N  N47  1  0.94320000  0.36698000  0.34232000  1.0 -0.3502135065
N  N48  1  0.44320000  0.13302000  0.34232000  1.0 -0.3502135065
N  N49  1  0.08165000  0.22360000  0.48480000  1.0 -0.3691451475
N  N50  1  0.58165000  0.27640000  0.48480000  1.0 -0.3691451475
N  N51  1  0.37940000  0.91570000  0.02350000  1.0 -0.0094022651
N  N52  1  0.87940000  0.58430000  0.02350000  1.0 -0.0094022651
O  O1  1  0.73338000  0.06716000  0.44569000  1.0 -0.5318524889
O  O2  1  0.23338000  0.43284000  0.44569000  1.0 -0.5318524889
O  O3  1  0.79415000  0.04910000  0.43637000  1.0 -0.5490090809
O  O4  1  0.29415000  0.45090000  0.43637000  1.0 -0.5490090809
O  O5  1  0.11446000  0.43190000  0.85121000  1.0 -0.5184460691
O  O6  1  0.61446000  0.06810000  0.85121000  1.0 -0.5184460691
O  O7  1  0.16644000  0.37593000  0.87482000  1.0 -0.5318524889
O  O8  1  0.66644000  0.12407000  0.87482000  1.0 -0.5318524889
O  O9  1  0.74935000  0.00613000  0.83824000  1.0 -0.5399061098
O  O10  1  0.24935000  0.49387000  0.83824000  1.0 -0.5399061098
O  O11  1  0.73987000  0.08480000  0.85466000  1.0 -0.5184460691
O  O12  1  0.23987000  0.41520000  0.85466000  1.0 -0.5184460691
O  O13  1  0.92703000  0.13950000  0.60976000  1.0 -0.4483768783
O  O14  1  0.42703000  0.36050000  0.60976000  1.0 -0.4483768783
O  O15  1  0.99756000  0.27950000  0.70634000  1.0 -0.4307975374
O  O16  1  0.49756000  0.22050000  0.70634000  1.0 -0.4307975374
O  O17  1  0.87992000  0.19100000  0.78082000  1.0 -0.4483768783
O  O18  1  0.37992000  0.30900000  0.78082000  1.0 -0.4483768783
O  O19  1  0.25754000  0.46945000  0.30539000  1.0 -0.5490090809
O  O20  1  0.75754000  0.03055000  0.30539000  1.0 -0.5490090809
O  O21  1  0.31109000  0.47113000  0.36094000  1.0 -0.508863639
O  O22  1  0.81109000  0.02887000  0.36094000  1.0 -0.508863639
O  O23  1  0.68756000  0.07935000  0.32080000  1.0 -0.5399061098
O  O24  1  0.18756000  0.42065000  0.32080000  1.0 -0.5399061098
O  O25  1  0.65873000  0.07919000  0.36820000  1.0 -0.5399061098
O  O26  1  0.15873000  0.42081000  0.36820000  1.0 -0.5318524889
O  O27  1  0.25312000  0.39630000  0.94074000  1.0 -0.508863639
O  O28  1  0.75312000  0.10370000  0.94074000  1.0 -0.508863639
O  O29  1  0.26441000  0.47400000  0.96333000  1.0 -0.5399061098
O  O30  1  0.76441000  0.02600000  0.96333000  1.0 -0.5399061098
O  O31  1  0.46020000  0.37770000  0.28669000  1.0 -0.4596779593
O  O32  1  0.96020000  0.12230000  0.28669000  1.0 -0.4596779593
O  O33  1  0.55611000  0.25070000  0.19939000  1.0 -0.4307975374
O  O34  1  0.05611000  0.24930000  0.19939000  1.0 -0.4307975374
O  O35  1  0.41750000  0.29530000  0.09393000  1.0 -0.4483768783
O  O36  1  0.91750000  0.20470000  0.09393000  1.0 -0.4483768783
O  O37  1  0.17900000  0.53320000  0.28777000  1.0 -0.4914123937
O  O38  1  0.67900000  0.96680000  0.28777000  1.0 -0.4914123937
O  O39  1  0.17168000  0.59650000  0.32701000  1.0 -0.6071532629
O  O40  1  0.67168000  0.90350000  0.32701000  1.0 -0.6071532629
O  O41  1  0.09991000  0.52218000  0.89937000  1.0 -0.4775477685
O  O42  1  0.59991000  0.97782000  0.89937000  1.0 -0.4775477685
O  O43  1  0.15670000  0.55270000  0.94140000  1.0 -0.4775477685
O  O44  1  0.65670000  0.94730000  0.94140000  1.0 -0.4775477685
O  O45  1  0.73799000  0.92420000  0.94389000  1.0 -0.5318524889
O  O46  1  0.23799000  0.57580000  0.94389000  1.0 -0.5318524889
O  O47  1  0.76264000  0.92487000  0.89472000  1.0 -0.4914123937
O  O48  1  0.26264000  0.57513000  0.89472000  1.0 -0.4914123937
O  O49  1  0.02739000  0.72528000  0.17702000  1.0 -0.4483768783
O  O50  1  0.52739000  0.77472000  0.17702000  1.0 -0.4483768783
O  O51  1  0.96601000  0.64370000  0.98006000  1.0 -0.3873430453
O  O52  1  0.46601000  0.85630000  0.98006000  1.0 -0.3873430453
O  O53  1  0.88589000  0.78055000  0.07552000  1.0 -0.4596779593
O  O54  1  0.38589000  0.71945000  0.07552000  1.0 -0.4596779593
O  O55  1  0.66160000  0.99756000  0.42417000  1.0 -0.508863639
O  O56  1  0.16160000  0.50244000  0.42417000  1.0 -0.508863639
O  O57  1  0.67272000  0.92000000  0.40968000  1.0 -0.5318524889
O  O58  1  0.17272000  0.58000000  0.40968000  1.0 -0.5318524889
O  O59  1  0.67990000  0.93407000  0.82174000  1.0 -0.5318524889
O  O60  1  0.17990000  0.56593000  0.82174000  1.0 -0.5318524889
O  O61  1  0.61994000  0.96494000  0.82534000  1.0 -0.5399061098
O  O62  1  0.11994000  0.53506000  0.82534000  1.0 -0.5399061098
O  O63  1  0.31110000  0.55520000  0.41380000  1.0 -0.5318524889
O  O64  1  0.81110000  0.94480000  0.41380000  1.0 -0.5318524889
O  O65  1  0.26080000  0.60510000  0.41570000  1.0 -0.5184460691
O  O66  1  0.76080000  0.89490000  0.41570000  1.0 -0.5184460691
O  O67  1  0.53388000  0.80833000  0.48253000  1.0 -0.4483768783
O  O68  1  0.03388000  0.69167000  0.48253000  1.0 -0.4421489903
O  O69  1  0.48982000  0.88118000  0.65150000  1.0 -0.4483768783
O  O70  1  0.98982000  0.61882000  0.65150000  1.0 -0.4421489903
O  O71  1  0.38722000  0.77160000  0.54905000  1.0 -0.4307975374
O  O72  1  0.88722000  0.72840000  0.54905000  1.0 -0.4421489903
O  O73  1  0.72431000  0.99343000  0.37346000  1.0 -1.0189733319
O  O74  1  0.22431000  0.50657000  0.37346000  1.0 -1.0189733319
O  O75  1  0.19408000  0.48961000  0.89368000  1.0 -1.0189733319
O  O76  1  0.69408000  0.01039000  0.89368000  1.0 -1.0189733319
O  O77  1  0.70590000  0.84260000  0.38750000  1.0 0.351496879
O  O78  1  0.20590000  0.65740000  0.38750000  1.0 0.351496879
O  O79  1  0.22160000  0.53300000  0.00920000  1.0 -0.3161457889
O  O80  1  0.72160000  0.96700000  0.00920000  1.0 -0.3122024946
O  O81  1  0.17610000  0.45010000  0.95610000  1.0 -0.4596779593
O  O82  1  0.67610000  0.04990000  0.95610000  1.0 -0.4596779593
O  O83  1  0.76662000  0.56716000  0.55431000  1.0 -0.5318524889
O  O84  1  0.26662000  0.93284000  0.55431000  1.0 -0.5318524889
O  O85  1  0.70585000  0.54910000  0.56363000  1.0 -0.5490090809
O  O86  1  0.20585000  0.95090000  0.56363000  1.0 -0.5490090809
O  O87  1  0.38554000  0.93190000  0.14879000  1.0 -0.5184460691
O  O88  1  0.88554000  0.56810000  0.14879000  1.0 -0.5184460691
O  O89  1  0.33356000  0.87593000  0.12518000  1.0 -0.5318524889
O  O90  1  0.83356000  0.62407000  0.12518000  1.0 -0.5318524889
O  O91  1  0.75065000  0.50613000  0.16176000  1.0 -0.5399061098
O  O92  1  0.25065000  0.99387000  0.16176000  1.0 -0.5399061098
O  O93  1  0.76013000  0.58480000  0.14534000  1.0 -0.5184460691
O  O94  1  0.26013000  0.91520000  0.14534000  1.0 -0.5184460691
O  O95  1  0.57297000  0.63950000  0.39024000  1.0 -0.4483768783
O  O96  1  0.07297000  0.86050000  0.39024000  1.0 -0.4421489903
O  O97  1  0.50244000  0.77950000  0.29366000  1.0 -0.4307975374
O  O98  1  0.00244000  0.72050000  0.29366000  1.0 -0.4307975374
O  O99  1  0.62008000  0.69100000  0.21918000  1.0 -0.4483768783
O  O100  1  0.12008000  0.80900000  0.21918000  1.0 -0.4421489903
O  O101  1  0.24246000  0.96945000  0.69461000  1.0 -0.5490090809
O  O102  1  0.74246000  0.53055000  0.69461000  1.0 -0.5490090809
O  O103  1  0.18891000  0.97113000  0.63906000  1.0 -0.508863639
O  O104  1  0.68891000  0.52887000  0.63906000  1.0 -0.508863639
O  O105  1  0.81244000  0.57935000  0.67920000  1.0 -0.5399061098
O  O106  1  0.31244000  0.92065000  0.67920000  1.0 -0.5399061098
O  O107  1  0.84127000  0.57919000  0.63180000  1.0 -0.5399061098
O  O108  1  0.34127000  0.92081000  0.63180000  1.0 -0.5399061098
O  O109  1  0.24688000  0.89630000  0.05926000  1.0 -0.508863639
O  O110  1  0.74688000  0.60370000  0.05926000  1.0 -0.508863639
O  O111  1  0.23559000  0.97400000  0.03667000  1.0 -0.5399061098
O  O112  1  0.73559000  0.52600000  0.03667000  1.0 -0.5399061098
O  O113  1  0.03980000  0.87770000  0.71331000  1.0 -0.4596779593
O  O114  1  0.53980000  0.62230000  0.71331000  1.0 -0.4596779593
O  O115  1  0.94389000  0.75070000  0.80061000  1.0 -0.4307975374
O  O116  1  0.44389000  0.74930000  0.80061000  1.0 -0.4307975374
O  O117  1  0.08250000  0.79530000  0.90607000  1.0 -0.4483768783
O  O118  1  0.58250000  0.70470000  0.90607000  1.0 -0.4483768783
O  O119  1  0.32100000  0.03320000  0.71223000  1.0 -0.4914123937
O  O120  1  0.82100000  0.46680000  0.71223000  1.0 -0.4914123937
O  O121  1  0.32832000  0.09650000  0.67299000  1.0 -0.6071532629
O  O122  1  0.82832000  0.40350000  0.67299000  1.0 -0.6071532629
O  O123  1  0.40009000  0.02218000  0.10063000  1.0 -0.4775477685
O  O124  1  0.90009000  0.47782000  0.10063000  1.0 -0.4775477685
O  O125  1  0.34330000  0.05270000  0.05860000  1.0 -0.4775477685
O  O126  1  0.84330000  0.44730000  0.05860000  1.0 -0.4775477685
O  O127  1  0.76201000  0.42420000  0.05611000  1.0 -0.5318524889
O  O128  1  0.26201000  0.07580000  0.05611000  1.0 -0.5318524889
O  O129  1  0.73736000  0.42487000  0.10528000  1.0 -0.4914123937
O  O130  1  0.23736000  0.07513000  0.10528000  1.0 -0.4914123937
O  O131  1  0.47261000  0.22528000  0.82298000  1.0 -0.4483768783
O  O132  1  0.97261000  0.27472000  0.82298000  1.0 -0.4483768783
O  O133  1  0.53399000  0.14370000  0.01994000  1.0 -0.3873430453
O  O134  1  0.03399000  0.35630000  0.01994000  1.0 -0.3873430453
O  O135  1  0.61411000  0.28055000  0.92448000  1.0 -0.4596779593
O  O136  1  0.11411000  0.21945000  0.92448000  1.0 -0.4596779593
O  O137  1  0.83840000  0.49756000  0.57583000  1.0 -0.508863639
O  O138  1  0.33840000  0.00244000  0.57583000  1.0 -0.508863639
O  O139  1  0.82728000  0.42000000  0.59032000  1.0 -0.5318524889
O  O140  1  0.32728000  0.08000000  0.59032000  1.0 -0.5318524889
O  O141  1  0.82010000  0.43407000  0.17826000  1.0 -0.5318524889
O  O142  1  0.32010000  0.06593000  0.17826000  1.0 -0.5318524889
O  O143  1  0.88006000  0.46494000  0.17466000  1.0 -0.5399061098
O  O144  1  0.38006000  0.03506000  0.17466000  1.0 -0.5399061098
O  O145  1  0.18890000  0.05520000  0.58620000  1.0 -0.5318524889
O  O146  1  0.68890000  0.44480000  0.58620000  1.0 -0.5318524889
O  O147  1  0.23920000  0.10510000  0.58430000  1.0 -0.5184460691
O  O148  1  0.73920000  0.39490000  0.58430000  1.0 -0.5184460691
O  O149  1  0.96612000  0.30833000  0.51747000  1.0 -0.4421489903
O  O150  1  0.46612000  0.19167000  0.51747000  1.0 -0.4483768783
O  O151  1  0.01018000  0.38118000  0.34850000  1.0 -0.4483768783
O  O152  1  0.51018000  0.11882000  0.34850000  1.0 -0.4483768783
O  O153  1  0.11278000  0.27160000  0.45095000  1.0 -0.4307975374
O  O154  1  0.61278000  0.22840000  0.45095000  1.0 -0.4421489903
O  O155  1  0.77569000  0.49343000  0.62654000  1.0 -1.0189733319
O  O156  1  0.27569000  0.00657000  0.62654000  1.0 -1.0189733319
O  O157  1  0.30592000  0.98961000  0.10632000  1.0 -1.0189733319
O  O158  1  0.80592000  0.51039000  0.10632000  1.0 -1.0189733319
O  O159  1  0.79410000  0.34260000  0.61250000  1.0 0.3442294486
O  O160  1  0.29410000  0.15740000  0.61250000  1.0 0.3561942466
O  O161  1  0.27840000  0.03300000  0.99080000  1.0 -0.3161457889
O  O162  1  0.77840000  0.46700000  0.99080000  1.0 -0.3122024946
O  O163  1  0.32390000  0.95010000  0.04390000  1.0 -0.4596779593
O  O164  1  0.82390000  0.54990000  0.04390000  1.0 -0.4483768783
