# DDEC6 charges by PACMAN v1.1 (https://github.com/mtap-research/PACMAN-charge/)
data_GAHXUL_ion_pacman
_symmetry_space_group_name_H-M   'P 1'
_cell_length_a   10.20890000
_cell_length_b   11.47900000
_cell_length_c   11.66750000
_cell_angle_alpha   112.68500000
_cell_angle_beta   103.95200000
_cell_angle_gamma   94.64400000
_symmetry_Int_Tables_number   1
_chemical_formula_structural   AgBH22C16N2(OF2)2
_chemical_formula_sum   'Ag2 B2 H44 C32 N4 O4 F8'
_cell_volume   1200.97376651
_cell_formula_units_Z   2
loop_
 _symmetry_equiv_pos_site_id
 _symmetry_equiv_pos_as_xyz
  1  'x, y, z'
loop_
 _atom_site_type_symbol
 _atom_site_label
 _atom_site_symmetry_multiplicity
 _atom_site_fract_x
 _atom_site_fract_y
 _atom_site_fract_z
 _atom_site_occupancy
 _atom_site_charge
Ag  Ag1  1  0.22681000  0.96111000  0.91920000  1.0 0.4573224985
Ag  Ag2  1  0.77319000  0.03889000  0.08080000  1.0 0.4573224985
B  B1  1  0.89710000  0.24320000  0.55750000  1.0 0.9861560666
B  B2  1  0.10290000  0.75680000  0.44250000  1.0 0.9861560666
H  H1  1  0.59650000  0.20210000  0.20700000  1.0 0.1441372239
H  H2  1  0.40350000  0.79790000  0.79300000  1.0 0.1441372239
H  H3  1  0.43780000  0.15570000  0.17400000  1.0 0.1502616756
H  H4  1  0.56220000  0.84430000  0.82600000  1.0 0.1502616756
H  H5  1  0.49490000  0.29360000  0.18960000  1.0 0.1580690235
H  H6  1  0.50510000  0.70640000  0.81040000  1.0 0.1580690235
H  H7  1  0.21690000  0.11280000  0.62960000  1.0 0.1580690235
H  H8  1  0.78310000  0.88720000  0.37040000  1.0 0.1580690235
H  H9  1  0.21050000  0.22830000  0.75460000  1.0 0.1580690235
H  H10  1  0.78950000  0.77170000  0.24540000  1.0 0.1580690235
H  H11  1  0.13720000  0.08860000  0.72010000  1.0 0.1502616756
H  H12  1  0.86280000  0.91140000  0.27990000  1.0 0.1502616756
H  H13  1  0.57100000  0.91230000  0.60540000  1.0 0.1225924768
H  H14  1  0.42900000  0.08770000  0.39460000  1.0 0.1225924768
H  H15  1  0.41800000  0.83970000  0.55880000  1.0 0.1304193825
H  H16  1  0.58200000  0.16030000  0.44120000  1.0 0.1304193825
H  H17  1  0.48700000  0.21720000  0.61660000  1.0 0.1304193825
H  H18  1  0.51300000  0.78280000  0.38340000  1.0 0.1304193825
H  H19  1  0.61550000  0.15440000  0.64340000  1.0 0.1304193825
H  H20  1  0.38450000  0.84560000  0.35660000  1.0 0.1304193825
H  H21  1  0.81930000  0.04120000  0.83280000  1.0 0.1502616756
H  H22  1  0.18070000  0.95880000  0.16720000  1.0 0.1502616756
H  H23  1  0.84080000  0.95820000  0.69850000  1.0 0.1697831058
H  H24  1  0.15920000  0.04180000  0.30150000  1.0 0.1697831058
H  H25  1  0.96390000  0.06030000  0.81130000  1.0 0.1580690235
H  H26  1  0.03610000  0.93970000  0.18870000  1.0 0.1580690235
H  H27  1  0.12820000  0.55390000  0.75590000  1.0 0.1502616756
H  H28  1  0.87180000  0.44610000  0.24410000  1.0 0.1502616756
H  H29  1  0.21050000  0.67160000  0.74980000  1.0 0.1502616756
H  H30  1  0.78950000  0.32840000  0.25020000  1.0 0.1502616756
H  H31  1  0.07320000  0.59230000  0.64040000  1.0 0.1697831058
H  H32  1  0.92680000  0.40770000  0.35960000  1.0 0.1697831058
H  H33  1  0.20720000  0.63210000  0.03090000  1.0 0.1304193825
H  H34  1  0.79280000  0.36790000  0.96910000  1.0 0.1304193825
H  H35  1  0.10280000  0.67150000  0.11190000  1.0 0.1304193825
H  H36  1  0.89720000  0.32850000  0.88810000  1.0 0.1304193825
H  H37  1  0.84260000  0.58120000  0.99430000  1.0 0.1225924768
H  H38  1  0.15740000  0.41880000  0.00570000  1.0 0.1225924768
H  H39  1  0.79570000  0.48960000  0.84530000  1.0 0.1304193825
H  H40  1  0.20430000  0.51040000  0.15470000  1.0 0.1304193825
H  H41  1  0.51110000  0.06510000  0.78890000  1.0 0.2901297463
H  H42  1  0.48890000  0.93490000  0.21110000  1.0 0.2901297463
H  H43  1  0.93910000  0.72910000  0.92500000  1.0 0.2901297463
H  H44  1  0.06090000  0.27090000  0.07500000  1.0 0.2901297463
C  C1  1  0.50690000  0.20580000  0.15980000  1.0 -0.4999540097
C  C2  1  0.49310000  0.79420000  0.84020000  1.0 -0.4999540097
C  C3  1  0.49370000  0.15220000  0.01570000  1.0 0.4691324138
C  C4  1  0.50630000  0.84780000  0.98430000  1.0 0.4691324138
C  C5  1  0.36650000  0.15040000  0.93090000  1.0 -0.4816860415
C  C6  1  0.63350000  0.84960000  0.06910000  1.0 -0.4816860415
C  C7  1  0.34550000  0.11820000  0.79600000  1.0 0.3809478187
C  C8  1  0.65450000  0.88180000  0.20400000  1.0 0.3809478187
C  C9  1  0.21570000  0.13890000  0.71800000  1.0 -0.4999540097
C  C10  1  0.78430000  0.86110000  0.28200000  1.0 -0.4999540097
C  C11  1  0.43250000  0.03370000  0.60340000  1.0 0.2957516664
C  C12  1  0.56750000  0.96630000  0.39660000  1.0 0.2957516664
C  C13  1  0.47890000  0.90460000  0.55220000  1.0 -0.2483592893
C  C14  1  0.52110000  0.09540000  0.44780000  1.0 -0.2483592893
C  C15  1  0.52190000  0.13790000  0.58860000  1.0 -0.2483592893
C  C16  1  0.47810000  0.86210000  0.41140000  1.0 -0.2483592893
C  C17  1  0.88300000  0.99850000  0.79100000  1.0 -0.5147682525
C  C18  1  0.11700000  0.00150000  0.20900000  1.0 -0.5147682525
C  C19  1  0.92240000  0.89800000  0.83840000  1.0 0.4573224985
C  C20  1  0.07760000  0.10200000  0.16160000  1.0 0.4573224985
C  C21  1  0.01570000  0.82420000  0.78800000  1.0 -0.4486112243
C  C22  1  0.98430000  0.17580000  0.21200000  1.0 -0.4486112243
C  C23  1  0.04030000  0.71270000  0.80840000  1.0 0.3809478187
C  C24  1  0.95970000  0.28730000  0.19160000  1.0 0.3809478187
C  C25  1  0.12030000  0.62460000  0.73160000  1.0 -0.4867116309
C  C26  1  0.87970000  0.37540000  0.26840000  1.0 -0.4867116309
C  C27  1  0.00420000  0.56630000  0.91480000  1.0 0.2901297463
C  C28  1  0.99580000  0.43370000  0.08520000  1.0 0.2901297463
C  C29  1  0.12090000  0.60220000  0.04100000  1.0 -0.2483592893
C  C30  1  0.87910000  0.39780000  0.95900000  1.0 -0.2483592893
C  C31  1  0.86750000  0.51430000  0.92650000  1.0 -0.2483592893
C  C32  1  0.13250000  0.48570000  0.07350000  1.0 -0.2483592893
N  N1  1  0.43790000  0.07290000  0.73960000  1.0 -0.302182006
N  N2  1  0.56210000  0.92710000  0.26040000  1.0 -0.302182006
N  N3  1  0.98820000  0.67920000  0.88630000  1.0 -0.302182006
N  N4  1  0.01180000  0.32080000  0.11370000  1.0 -0.302182006
O  O1  1  0.59180000  0.11140000  0.97580000  1.0 -0.4816860415
O  O2  1  0.40820000  0.88860000  0.02420000  1.0 -0.4867116309
O  O3  1  0.86750000  0.88140000  0.91800000  1.0 -0.4816860415
O  O4  1  0.13250000  0.11860000  0.08200000  1.0 -0.4816860415
F  F1  1  0.82210000  0.18660000  0.43050000  1.0 -0.4241376019
F  F2  1  0.02820000  0.29710000  0.58260000  1.0 -0.4241376019
F  F3  1  0.83620000  0.34590000  0.60730000  1.0 -0.4007015325
F  F4  1  0.88190000  0.16480000  0.61720000  1.0 -0.4486112243
F  F5  1  0.17790000  0.81340000  0.56950000  1.0 -0.4241376019
F  F6  1  0.97180000  0.70290000  0.41740000  1.0 -0.4241376019
F  F7  1  0.16380000  0.65410000  0.39270000  1.0 -0.4007015325
F  F8  1  0.11810000  0.83520000  0.38280000  1.0 -0.4486112243
