# DDEC6 charges by PACMAN v1.1 (https://github.com/mtap-research/PACMAN-charge/)
data_GAKTET_ion_pacman
_symmetry_space_group_name_H-M   'P 1'
_cell_length_a   15.81400000
_cell_length_b   15.90370000
_cell_length_c   18.49740000
_cell_angle_alpha   90.00000000
_cell_angle_beta   90.00000000
_cell_angle_gamma   90.00000000
_symmetry_Int_Tables_number   1
_chemical_formula_structural   Cu2H40C46N10O11
_chemical_formula_sum   'Cu8 H160 C184 N40 O44'
_cell_volume   4652.11666541
_cell_formula_units_Z   4
loop_
 _symmetry_equiv_pos_site_id
 _symmetry_equiv_pos_as_xyz
  1  'x, y, z'
loop_
 _atom_site_type_symbol
 _atom_site_label
 _atom_site_symmetry_multiplicity
 _atom_site_fract_x
 _atom_site_fract_y
 _atom_site_fract_z
 _atom_site_occupancy
 _atom_site_charge
Cu  Cu1  1  0.54696000  0.11334000  0.23956000  1.0 0.7141621605
Cu  Cu2  1  0.04696000  0.61334000  0.26044000  1.0 0.7141621605
Cu  Cu3  1  0.95304000  0.11334000  0.73956000  1.0 0.7141621605
Cu  Cu4  1  0.45304000  0.61334000  0.76044000  1.0 0.7156043942
Cu  Cu5  1  0.75001000  0.09919000  0.49020000  1.0 0.6484704907
Cu  Cu6  1  0.25001000  0.59919000  0.00980000  1.0 0.6484704907
Cu  Cu7  1  0.74999000  0.09919000  0.99020000  1.0 0.6484704907
Cu  Cu8  1  0.24999000  0.59919000  0.50980000  1.0 0.6484704907
H  H1  1  0.73380000  0.22080000  0.24230000  1.0 0.0896167828
H  H2  1  0.23380000  0.72080000  0.25770000  1.0 0.0896167828
H  H3  1  0.76620000  0.22080000  0.74230000  1.0 0.0896167828
H  H4  1  0.26620000  0.72080000  0.75770000  1.0 0.0896167828
H  H5  1  0.86900000  0.16260000  0.19580000  1.0 0.0896167828
H  H6  1  0.36900000  0.66260000  0.30420000  1.0 0.0801309553
H  H7  1  0.63100000  0.16260000  0.69580000  1.0 0.0896167828
H  H8  1  0.13100000  0.66260000  0.80420000  1.0 0.0801309553
H  H9  1  0.85710000  0.08480000  0.24690000  1.0 0.1011438451
H  H10  1  0.35710000  0.58480000  0.25310000  1.0 0.1011438451
H  H11  1  0.64290000  0.08480000  0.74690000  1.0 0.1011438451
H  H12  1  0.14290000  0.58480000  0.75310000  1.0 0.1011438451
H  H13  1  0.87270000  0.17430000  0.27990000  1.0 0.0896167828
H  H14  1  0.37270000  0.67430000  0.22010000  1.0 0.0896167828
H  H15  1  0.62730000  0.17430000  0.77990000  1.0 0.0896167828
H  H16  1  0.12730000  0.67430000  0.72010000  1.0 0.0896167828
H  H17  1  0.39130000  0.01220000  0.21240000  1.0 0.1103352723
H  H18  1  0.89130000  0.51220000  0.28760000  1.0 0.1103352723
H  H19  1  0.10870000  0.01220000  0.71240000  1.0 0.1103352723
H  H20  1  0.60870000  0.51220000  0.78760000  1.0 0.1103352723
H  H21  1  0.30940000  0.96780000  0.11760000  1.0 0.1372056872
H  H22  1  0.80940000  0.46780000  0.38240000  1.0 0.1372056872
H  H23  1  0.19060000  0.96780000  0.61760000  1.0 0.1372056872
H  H24  1  0.69060000  0.46780000  0.88240000  1.0 0.1372056872
H  H25  1  0.42650000  0.13670000  0.99210000  1.0 0.131196031
H  H26  1  0.92650000  0.63670000  0.50790000  1.0 0.131196031
H  H27  1  0.07350000  0.13670000  0.49210000  1.0 0.131196031
H  H28  1  0.57350000  0.63670000  0.00790000  1.0 0.131196031
H  H29  1  0.50990000  0.17120000  0.08980000  1.0 0.1103352723
H  H30  1  0.00990000  0.67120000  0.41020000  1.0 0.1103352723
H  H31  1  0.99010000  0.17120000  0.58980000  1.0 0.1103352723
H  H32  1  0.49010000  0.67120000  0.91020000  1.0 0.1103352723
H  H33  1  0.21850000  0.95160000  0.03380000  1.0 0.131196031
H  H34  1  0.71850000  0.45160000  0.46620000  1.0 0.131196031
H  H35  1  0.28150000  0.95160000  0.53380000  1.0 0.131196031
H  H36  1  0.78150000  0.45160000  0.96620000  1.0 0.131196031
H  H37  1  0.14550000  0.90680000  0.93890000  1.0 0.1103352723
H  H38  1  0.64550000  0.40680000  0.56110000  1.0 0.1103352723
H  H39  1  0.35450000  0.90680000  0.43890000  1.0 0.1103352723
H  H40  1  0.85450000  0.40680000  0.06110000  1.0 0.1103352723
H  H41  1  0.29520000  0.01810000  0.80730000  1.0 0.1011438451
H  H42  1  0.79520000  0.51810000  0.69270000  1.0 0.1011438451
H  H43  1  0.20480000  0.01810000  0.30730000  1.0 0.1011438451
H  H44  1  0.70480000  0.51810000  0.19270000  1.0 0.1011438451
H  H45  1  0.37590000  0.06710000  0.89950000  1.0 0.131196031
H  H46  1  0.87590000  0.56710000  0.60050000  1.0 0.131196031
H  H47  1  0.12410000  0.06710000  0.39950000  1.0 0.131196031
H  H48  1  0.62410000  0.56710000  0.10050000  1.0 0.131196031
H  H49  1  0.51350000  0.05520000  0.38620000  1.0 0.1011438451
H  H50  1  0.01350000  0.55520000  0.11380000  1.0 0.1011438451
H  H51  1  0.98650000  0.05520000  0.88620000  1.0 0.1011438451
H  H52  1  0.48650000  0.55520000  0.61380000  1.0 0.1011438451
H  H53  1  0.42980000  0.08540000  0.48500000  1.0 0.1188856076
H  H54  1  0.92980000  0.58540000  0.01500000  1.0 0.1188856076
H  H55  1  0.07020000  0.08540000  0.98500000  1.0 0.1188856076
H  H56  1  0.57020000  0.58540000  0.51500000  1.0 0.1188856076
H  H57  1  0.29950000  0.24390000  0.35850000  1.0 0.131196031
H  H58  1  0.79950000  0.74390000  0.14150000  1.0 0.131196031
H  H59  1  0.20050000  0.24390000  0.85850000  1.0 0.131196031
H  H60  1  0.70050000  0.74390000  0.64150000  1.0 0.131196031
H  H61  1  0.38560000  0.20530000  0.26460000  1.0 0.1103352723
H  H62  1  0.88560000  0.70530000  0.23540000  1.0 0.1103352723
H  H63  1  0.11440000  0.20530000  0.76460000  1.0 0.1103352723
H  H64  1  0.61440000  0.70530000  0.73540000  1.0 0.1103352723
H  H65  1  0.36090000  0.12410000  0.57200000  1.0 0.1188856076
H  H66  1  0.86090000  0.62410000  0.92800000  1.0 0.1188856076
H  H67  1  0.13910000  0.12410000  0.07200000  1.0 0.1188856076
H  H68  1  0.63910000  0.62410000  0.42800000  1.0 0.1188856076
H  H69  1  0.28620000  0.17350000  0.66940000  1.0 0.0896167828
H  H70  1  0.78620000  0.67350000  0.83060000  1.0 0.0896167828
H  H71  1  0.21380000  0.17350000  0.16940000  1.0 0.0896167828
H  H72  1  0.71380000  0.67350000  0.33060000  1.0 0.0896167828
H  H73  1  0.16720000  0.33270000  0.54860000  1.0 0.1011438451
H  H74  1  0.66720000  0.83270000  0.95140000  1.0 0.1011438451
H  H75  1  0.33280000  0.33270000  0.04860000  1.0 0.1011438451
H  H76  1  0.83280000  0.83270000  0.45140000  1.0 0.1011438451
H  H77  1  0.23050000  0.28270000  0.44830000  1.0 0.131196031
H  H78  1  0.73050000  0.78270000  0.05170000  1.0 0.131196031
H  H79  1  0.26950000  0.28270000  0.94830000  1.0 0.131196031
H  H80  1  0.76950000  0.78270000  0.55170000  1.0 0.131196031
H  H81  1  0.83810000  0.98860000  0.58970000  1.0 0.1103352723
H  H82  1  0.33810000  0.48860000  0.91030000  1.0 0.1103352723
H  H83  1  0.66190000  0.98860000  0.08970000  1.0 0.1103352723
H  H84  1  0.16190000  0.48860000  0.41030000  1.0 0.1103352723
H  H85  1  0.94840000  0.89510000  0.60010000  1.0 0.1372056872
H  H86  1  0.44840000  0.39510000  0.89990000  1.0 0.1372056872
H  H87  1  0.55160000  0.89510000  0.10010000  1.0 0.131196031
H  H88  1  0.05160000  0.39510000  0.39990000  1.0 0.131196031
H  H89  1  0.99620000  0.93100000  0.38940000  1.0 0.1372056872
H  H90  1  0.49620000  0.43100000  0.11060000  1.0 0.1372056872
H  H91  1  0.50380000  0.93100000  0.88940000  1.0 0.1372056872
H  H92  1  0.00380000  0.43100000  0.61060000  1.0 0.1372056872
H  H93  1  0.88590000  0.02460000  0.38620000  1.0 0.1103352723
H  H94  1  0.38590000  0.52460000  0.11380000  1.0 0.1103352723
H  H95  1  0.61410000  0.02460000  0.88620000  1.0 0.1103352723
H  H96  1  0.11410000  0.52460000  0.61380000  1.0 0.1103352723
H  H97  1  0.11520000  0.85880000  0.40880000  1.0 0.131196031
H  H98  1  0.61520000  0.35880000  0.09120000  1.0 0.131196031
H  H99  1  0.38480000  0.85880000  0.90880000  1.0 0.131196031
H  H100  1  0.88480000  0.35880000  0.59120000  1.0 0.131196031
H  H101  1  0.10750000  0.67310000  0.59640000  1.0 0.1103352723
H  H102  1  0.60750000  0.17310000  0.90360000  1.0 0.1103352723
H  H103  1  0.39250000  0.67310000  0.09640000  1.0 0.1103352723
H  H104  1  0.89250000  0.17310000  0.40360000  1.0 0.1103352723
H  H105  1  0.21160000  0.75150000  0.41730000  1.0 0.1188856076
H  H106  1  0.71160000  0.25150000  0.08270000  1.0 0.1188856076
H  H107  1  0.28840000  0.75150000  0.91730000  1.0 0.1188856076
H  H108  1  0.78840000  0.25150000  0.58270000  1.0 0.1188856076
H  H109  1  0.01160000  0.78050000  0.59390000  1.0 0.131196031
H  H110  1  0.51160000  0.28050000  0.90610000  1.0 0.131196031
H  H111  1  0.48840000  0.78050000  0.09390000  1.0 0.131196031
H  H112  1  0.98840000  0.28050000  0.40610000  1.0 0.131196031
H  H113  1  0.65310000  0.99500000  0.59990000  1.0 0.1103352723
H  H114  1  0.15310000  0.49500000  0.90010000  1.0 0.1103352723
H  H115  1  0.84690000  0.99500000  0.09990000  1.0 0.1103352723
H  H116  1  0.34690000  0.49500000  0.40010000  1.0 0.1103352723
H  H117  1  0.55590000  0.88810000  0.60420000  1.0 0.131196031
H  H118  1  0.05590000  0.38810000  0.89580000  1.0 0.131196031
H  H119  1  0.94410000  0.88810000  0.10420000  1.0 0.131196031
H  H120  1  0.44410000  0.38810000  0.39580000  1.0 0.131196031
H  H121  1  0.57080000  0.86880000  0.38920000  1.0 0.1372056872
H  H122  1  0.07080000  0.36880000  0.11080000  1.0 0.1372056872
H  H123  1  0.92920000  0.86880000  0.88920000  1.0 0.1372056872
H  H124  1  0.42920000  0.36880000  0.61080000  1.0 0.1372056872
H  H125  1  0.66960000  0.97380000  0.39030000  1.0 0.1103352723
H  H126  1  0.16960000  0.47380000  0.10970000  1.0 0.1103352723
H  H127  1  0.83040000  0.97380000  0.89030000  1.0 0.1103352723
H  H128  1  0.33040000  0.47380000  0.60970000  1.0 0.1103352723
H  H129  1  0.42700000  0.83980000  0.59190000  1.0 0.131196031
H  H130  1  0.92700000  0.33980000  0.90810000  1.0 0.131196031
H  H131  1  0.07300000  0.83980000  0.09190000  1.0 0.131196031
H  H132  1  0.57300000  0.33980000  0.40810000  1.0 0.131196031
H  H133  1  0.32040000  0.74260000  0.59370000  1.0 0.1188856076
H  H134  1  0.82040000  0.24260000  0.90630000  1.0 0.1188856076
H  H135  1  0.17960000  0.74260000  0.09370000  1.0 0.1188856076
H  H136  1  0.67960000  0.24260000  0.40630000  1.0 0.1188856076
H  H137  1  0.40340000  0.64280000  0.41480000  1.0 0.1103352723
H  H138  1  0.90340000  0.14280000  0.08520000  1.0 0.1103352723
H  H139  1  0.09660000  0.64280000  0.91480000  1.0 0.1103352723
H  H140  1  0.59660000  0.14280000  0.58520000  1.0 0.1103352723
H  H141  1  0.50860000  0.74230000  0.40650000  1.0 0.1372056872
H  H142  1  0.00860000  0.24230000  0.09350000  1.0 0.1372056872
H  H143  1  0.99140000  0.74230000  0.90650000  1.0 0.1372056872
H  H144  1  0.49140000  0.24230000  0.59350000  1.0 0.1372056872
H  H145  1  0.80210000  0.08580000  0.24270000  1.0 0.0801309553
H  H146  1  0.30210000  0.58580000  0.25730000  1.0 0.0801309553
H  H147  1  0.69790000  0.08580000  0.74270000  1.0 0.0801309553
H  H148  1  0.19790000  0.58580000  0.75730000  1.0 0.0801309553
H  H149  1  0.82230000  0.22340000  0.19410000  1.0 0.0896167828
H  H150  1  0.32230000  0.72340000  0.30590000  1.0 0.0896167828
H  H151  1  0.67770000  0.22340000  0.69410000  1.0 0.0896167828
H  H152  1  0.17770000  0.72340000  0.80590000  1.0 0.0896167828
H  H153  1  0.84500000  0.21260000  0.27610000  1.0 0.0801309553
H  H154  1  0.34500000  0.71260000  0.22390000  1.0 0.0801309553
H  H155  1  0.65500000  0.21260000  0.77610000  1.0 0.0801309553
H  H156  1  0.15500000  0.71260000  0.72390000  1.0 0.0801309553
H  H157  1  0.75960000  0.25540000  0.25370000  1.0 0.1011438451
H  H158  1  0.25960000  0.75540000  0.24630000  1.0 0.1011438451
H  H159  1  0.74040000  0.25540000  0.75370000  1.0 0.1011438451
H  H160  1  0.24040000  0.75540000  0.74630000  1.0 0.1011438451
C  C1  1  0.71150000  0.11650000  0.17180000  1.0 0.4674692224
C  C2  1  0.21150000  0.61650000  0.32820000  1.0 0.4674692224
C  C3  1  0.78850000  0.11650000  0.67180000  1.0 0.4674692224
C  C4  1  0.28850000  0.61650000  0.82820000  1.0 0.4674692224
C  C5  1  0.70980000  0.11820000  0.31140000  1.0 0.4674692224
C  C6  1  0.20980000  0.61820000  0.18860000  1.0 0.4674692224
C  C7  1  0.79020000  0.11820000  0.81140000  1.0 0.4674692224
C  C8  1  0.29020000  0.61820000  0.68860000  1.0 0.4674692224
C  C9  1  0.74610000  0.16040000  0.24270000  1.0 -0.029822296
C  C10  1  0.24610000  0.66040000  0.25730000  1.0 -0.029822296
C  C11  1  0.75390000  0.16040000  0.74270000  1.0 -0.029822296
C  C12  1  0.25390000  0.66040000  0.75730000  1.0 -0.029822296
C  C13  1  0.84630000  0.14390000  0.24120000  1.0 -0.1882967667
C  C14  1  0.34630000  0.64390000  0.25880000  1.0 -0.1882967667
C  C15  1  0.65370000  0.14390000  0.74120000  1.0 -0.1882967667
C  C16  1  0.15370000  0.64390000  0.75880000  1.0 -0.1882967667
C  C17  1  0.39940000  0.03630000  0.16720000  1.0 0.0603508764
C  C18  1  0.89940000  0.53630000  0.33280000  1.0 0.0603508764
C  C19  1  0.10060000  0.03630000  0.66720000  1.0 0.0603508764
C  C20  1  0.60060000  0.53630000  0.83280000  1.0 0.0603508764
C  C21  1  0.34940000  0.01000000  0.11060000  1.0 -0.1811668644
C  C22  1  0.84940000  0.51000000  0.38940000  1.0 -0.1811668644
C  C23  1  0.15060000  0.01000000  0.61060000  1.0 -0.1811668644
C  C24  1  0.65060000  0.51000000  0.88940000  1.0 -0.1811668644
C  C25  1  0.35930000  0.04710000  0.04280000  1.0 0.1103352723
C  C26  1  0.85930000  0.54710000  0.45720000  1.0 0.1103352723
C  C27  1  0.14070000  0.04710000  0.54280000  1.0 0.1103352723
C  C28  1  0.64070000  0.54710000  0.95720000  1.0 0.1103352723
C  C29  1  0.41910000  0.10910000  0.03600000  1.0 -0.1811668644
C  C30  1  0.91910000  0.60910000  0.46400000  1.0 -0.1811668644
C  C31  1  0.08090000  0.10910000  0.53600000  1.0 -0.1811668644
C  C32  1  0.58090000  0.60910000  0.96400000  1.0 -0.1811668644
C  C33  1  0.46850000  0.13030000  0.09570000  1.0 0.1188856076
C  C34  1  0.96850000  0.63030000  0.40430000  1.0 0.1188856076
C  C35  1  0.03150000  0.13030000  0.59570000  1.0 0.1188856076
C  C36  1  0.53150000  0.63030000  0.90430000  1.0 0.1188856076
C  C37  1  0.30760000  0.01720000  0.97960000  1.0 0.0896167828
C  C38  1  0.80760000  0.51720000  0.52040000  1.0 0.0896167828
C  C39  1  0.19240000  0.01720000  0.47960000  1.0 0.0896167828
C  C40  1  0.69240000  0.51720000  0.02040000  1.0 0.0896167828
C  C41  1  0.23630000  0.96670000  0.98760000  1.0 -0.211382736
C  C42  1  0.73630000  0.46670000  0.51240000  1.0 -0.211382736
C  C43  1  0.26370000  0.96670000  0.48760000  1.0 -0.211382736
C  C44  1  0.76370000  0.46670000  0.01240000  1.0 -0.211382736
C  C45  1  0.19320000  0.93960000  0.93050000  1.0 0.0460791583
C  C46  1  0.69320000  0.43960000  0.56950000  1.0 0.0460791583
C  C47  1  0.30680000  0.93960000  0.43050000  1.0 0.0460791583
C  C48  1  0.80680000  0.43960000  0.06950000  1.0 0.0460791583
C  C49  1  0.27990000  0.00390000  0.85430000  1.0 0.0801309553
C  C50  1  0.77990000  0.50390000  0.64570000  1.0 0.0801309553
C  C51  1  0.22010000  0.00390000  0.35430000  1.0 0.0801309553
C  C52  1  0.72010000  0.50390000  0.14570000  1.0 0.0801309553
C  C53  1  0.32860000  0.03450000  0.90960000  1.0 -0.1981996178
C  C54  1  0.82860000  0.53450000  0.59040000  1.0 -0.1981996178
C  C55  1  0.17140000  0.03450000  0.40960000  1.0 -0.1981996178
C  C56  1  0.67140000  0.53450000  0.09040000  1.0 -0.1981996178
C  C57  1  0.46990000  0.09390000  0.38070000  1.0 0.1011438451
C  C58  1  0.96990000  0.59390000  0.11930000  1.0 0.1011438451
C  C59  1  0.03010000  0.09390000  0.88070000  1.0 0.1011438451
C  C60  1  0.53010000  0.59390000  0.61930000  1.0 0.1011438451
C  C61  1  0.41990000  0.11230000  0.44120000  1.0 -0.1882967667
C  C62  1  0.91990000  0.61230000  0.05880000  1.0 -0.1882967667
C  C63  1  0.08010000  0.11230000  0.94120000  1.0 -0.1882967667
C  C64  1  0.58010000  0.61230000  0.55880000  1.0 -0.1882967667
C  C65  1  0.35520000  0.17100000  0.43510000  1.0 0.1103352723
C  C66  1  0.85520000  0.67100000  0.06490000  1.0 0.1103352723
C  C67  1  0.14480000  0.17100000  0.93510000  1.0 0.1103352723
C  C68  1  0.64480000  0.67100000  0.56490000  1.0 0.1103352723
C  C69  1  0.34280000  0.20540000  0.36630000  1.0 -0.1811668644
C  C70  1  0.84280000  0.70540000  0.13370000  1.0 -0.1811668644
C  C71  1  0.15720000  0.20540000  0.86630000  1.0 -0.1811668644
C  C72  1  0.65720000  0.70540000  0.63370000  1.0 -0.1811668644
C  C73  1  0.39550000  0.18190000  0.30990000  1.0 0.0801309553
C  C74  1  0.89550000  0.68190000  0.19010000  1.0 0.0801309553
C  C75  1  0.10450000  0.18190000  0.80990000  1.0 0.0801309553
C  C76  1  0.60450000  0.68190000  0.69010000  1.0 0.0801309553
C  C77  1  0.30680000  0.19860000  0.49830000  1.0 0.0896167828
C  C78  1  0.80680000  0.69860000  0.00170000  1.0 0.0896167828
C  C79  1  0.19320000  0.19860000  0.99830000  1.0 0.0896167828
C  C80  1  0.69320000  0.69860000  0.50170000  1.0 0.0896167828
C  C81  1  0.32120000  0.16650000  0.56550000  1.0 -0.1981996178
C  C82  1  0.82120000  0.66650000  0.93450000  1.0 -0.1981996178
C  C83  1  0.17880000  0.16650000  0.06550000  1.0 -0.1981996178
C  C84  1  0.67880000  0.66650000  0.43450000  1.0 -0.1981996178
C  C85  1  0.27610000  0.19750000  0.62440000  1.0 0.0801309553
C  C86  1  0.77610000  0.69750000  0.87560000  1.0 0.0801309553
C  C87  1  0.22390000  0.19750000  0.12440000  1.0 0.0801309553
C  C88  1  0.72390000  0.69750000  0.37560000  1.0 0.0801309553
C  C89  1  0.20610000  0.28920000  0.55370000  1.0 0.0603508764
C  C90  1  0.70610000  0.78920000  0.94630000  1.0 0.0603508764
C  C91  1  0.29390000  0.28920000  0.05370000  1.0 0.0603508764
C  C92  1  0.79390000  0.78920000  0.44630000  1.0 0.0603508764
C  C93  1  0.24500000  0.26080000  0.49320000  1.0 -0.1811668644
C  C94  1  0.74500000  0.76080000  0.00680000  1.0 -0.1811668644
C  C95  1  0.25500000  0.26080000  0.99320000  1.0 -0.1811668644
C  C96  1  0.75500000  0.76080000  0.50680000  1.0 -0.1811668644
C  C97  1  0.87060000  0.97730000  0.54900000  1.0 0.1011438451
C  C98  1  0.37060000  0.47730000  0.95100000  1.0 0.1011438451
C  C99  1  0.62940000  0.97730000  0.04900000  1.0 0.1011438451
C  C100  1  0.12940000  0.47730000  0.45100000  1.0 0.1011438451
C  C101  1  0.93630000  0.91970000  0.55560000  1.0 -0.1882967667
C  C102  1  0.43630000  0.41970000  0.94440000  1.0 -0.1882967667
C  C103  1  0.56370000  0.91970000  0.05560000  1.0 -0.1882967667
C  C104  1  0.06370000  0.41970000  0.44440000  1.0 -0.1882967667
C  C105  1  0.98440000  0.89900000  0.49400000  1.0 0.1011438451
C  C106  1  0.48440000  0.39900000  0.00600000  1.0 0.1011438451
C  C107  1  0.51560000  0.89900000  0.99400000  1.0 0.1011438451
C  C108  1  0.01560000  0.39900000  0.50600000  1.0 0.1011438451
C  C109  1  0.96490000  0.94100000  0.43110000  1.0 -0.1882967667
C  C110  1  0.46490000  0.44100000  0.06890000  1.0 -0.1882967667
C  C111  1  0.53510000  0.94100000  0.93110000  1.0 -0.1882967667
C  C112  1  0.03510000  0.44100000  0.56890000  1.0 -0.1882967667
C  C113  1  0.89860000  0.99810000  0.42970000  1.0 0.0679647247
C  C114  1  0.39860000  0.49810000  0.07030000  1.0 0.0679647247
C  C115  1  0.60140000  0.99810000  0.92970000  1.0 0.0679647247
C  C116  1  0.10140000  0.49810000  0.57030000  1.0 0.0679647247
C  C117  1  0.05010000  0.83170000  0.49910000  1.0 0.1011438451
C  C118  1  0.55010000  0.33170000  0.00090000  1.0 0.1011438451
C  C119  1  0.44990000  0.83170000  0.99910000  1.0 0.1011438451
C  C120  1  0.94990000  0.33170000  0.50090000  1.0 0.1011438451
C  C121  1  0.11230000  0.82160000  0.44760000  1.0 -0.1722736326
C  C122  1  0.61230000  0.32160000  0.05240000  1.0 -0.1722736326
C  C123  1  0.38770000  0.82160000  0.94760000  1.0 -0.1722736326
C  C124  1  0.88770000  0.32160000  0.55240000  1.0 -0.1722736326
C  C125  1  0.10930000  0.71130000  0.55830000  1.0 0.0603508764
C  C126  1  0.60930000  0.21130000  0.94170000  1.0 0.0603508764
C  C127  1  0.39070000  0.71130000  0.05830000  1.0 0.0603508764
C  C128  1  0.89070000  0.21130000  0.44170000  1.0 0.0603508764
C  C129  1  0.17030000  0.75700000  0.45280000  1.0 0.0603508764
C  C130  1  0.67030000  0.25700000  0.04720000  1.0 0.0603508764
C  C131  1  0.32970000  0.75700000  0.95280000  1.0 0.0603508764
C  C132  1  0.82970000  0.25700000  0.54720000  1.0 0.0603508764
C  C133  1  0.05070000  0.77510000  0.55670000  1.0 -0.1882967667
C  C134  1  0.55070000  0.27510000  0.94330000  1.0 -0.1882967667
C  C135  1  0.44930000  0.77510000  0.05670000  1.0 -0.1882967667
C  C136  1  0.94930000  0.27510000  0.44330000  1.0 -0.1882967667
C  C137  1  0.63590000  0.96980000  0.55690000  1.0 0.044282015
C  C138  1  0.13590000  0.46980000  0.94310000  1.0 0.044282015
C  C139  1  0.86410000  0.96980000  0.05690000  1.0 0.044282015
C  C140  1  0.36410000  0.46980000  0.44310000  1.0 0.044282015
C  C141  1  0.57680000  0.90580000  0.55980000  1.0 -0.1882967667
C  C142  1  0.07680000  0.40580000  0.94020000  1.0 -0.1811668644
C  C143  1  0.92320000  0.90580000  0.05980000  1.0 -0.1811668644
C  C144  1  0.42320000  0.40580000  0.44020000  1.0 -0.1811668644
C  C145  1  0.54850000  0.86780000  0.49670000  1.0 0.1011438451
C  C146  1  0.04850000  0.36780000  0.00330000  1.0 0.1011438451
C  C147  1  0.95150000  0.86780000  0.99670000  1.0 0.1011438451
C  C148  1  0.45150000  0.36780000  0.50330000  1.0 0.1011438451
C  C149  1  0.58570000  0.89400000  0.43270000  1.0 -0.1811668644
C  C150  1  0.08570000  0.39400000  0.06730000  1.0 -0.1811668644
C  C151  1  0.91430000  0.89400000  0.93270000  1.0 -0.1811668644
C  C152  1  0.41430000  0.39400000  0.56730000  1.0 -0.1811668644
C  C153  1  0.64530000  0.95790000  0.43400000  1.0 0.1011438451
C  C154  1  0.14530000  0.45790000  0.06600000  1.0 0.1011438451
C  C155  1  0.85470000  0.95790000  0.93400000  1.0 0.1011438451
C  C156  1  0.35470000  0.45790000  0.56600000  1.0 0.1011438451
C  C157  1  0.48050000  0.80290000  0.49850000  1.0 0.1011438451
C  C158  1  0.98050000  0.30290000  0.00150000  1.0 0.1011438451
C  C159  1  0.01950000  0.80290000  0.99850000  1.0 0.1011438451
C  C160  1  0.51950000  0.30290000  0.50150000  1.0 0.1011438451
C  C161  1  0.42280000  0.80080000  0.55460000  1.0 -0.1882967667
C  C162  1  0.92280000  0.30080000  0.94540000  1.0 -0.1882967667
C  C163  1  0.07720000  0.80080000  0.05460000  1.0 -0.1882967667
C  C164  1  0.57720000  0.30080000  0.44540000  1.0 -0.1882967667
C  C165  1  0.35910000  0.74170000  0.55590000  1.0 0.0603508764
C  C166  1  0.85910000  0.24170000  0.94410000  1.0 0.0603508764
C  C167  1  0.14090000  0.74170000  0.05590000  1.0 0.0603508764
C  C168  1  0.64090000  0.24170000  0.44410000  1.0 0.0603508764
C  C169  1  0.40740000  0.68370000  0.45060000  1.0 0.0679647247
C  C170  1  0.90740000  0.18370000  0.04940000  1.0 0.0679647247
C  C171  1  0.09260000  0.68370000  0.95060000  1.0 0.0679647247
C  C172  1  0.59260000  0.18370000  0.54940000  1.0 0.0679647247
C  C173  1  0.47170000  0.74310000  0.44570000  1.0 -0.1981996178
C  C174  1  0.97170000  0.24310000  0.05430000  1.0 -0.1981996178
C  C175  1  0.02830000  0.74310000  0.94570000  1.0 -0.1981996178
C  C176  1  0.52830000  0.24310000  0.55430000  1.0 -0.1981996178
C  C177  1  0.75680000  0.12790000  0.24190000  1.0 -0.0191676808
C  C178  1  0.25680000  0.62790000  0.25810000  1.0 -0.0191676808
C  C179  1  0.74320000  0.12790000  0.74190000  1.0 -0.0191676808
C  C180  1  0.24320000  0.62790000  0.75810000  1.0 -0.0191676808
C  C181  1  0.79980000  0.21250000  0.24140000  1.0 -0.1604881291
C  C182  1  0.29980000  0.71250000  0.25860000  1.0 -0.1604881291
C  C183  1  0.70020000  0.21250000  0.74140000  1.0 -0.1604881291
C  C184  1  0.20020000  0.71250000  0.75860000  1.0 -0.1604881291
N  N1  1  0.45990000  0.09590000  0.15960000  1.0 -0.2281886336
N  N2  1  0.95990000  0.59590000  0.34040000  1.0 -0.2281886336
N  N3  1  0.04010000  0.09590000  0.65960000  1.0 -0.2281886336
N  N4  1  0.54010000  0.59590000  0.84040000  1.0 -0.2281886336
N  N5  1  0.21340000  0.95610000  0.86270000  1.0 -0.238805667
N  N6  1  0.71340000  0.45610000  0.63730000  1.0 -0.238805667
N  N7  1  0.28660000  0.95610000  0.36270000  1.0 -0.238805667
N  N8  1  0.78660000  0.45610000  0.13730000  1.0 -0.238805667
N  N9  1  0.45880000  0.12810000  0.31650000  1.0 -0.2281886336
N  N10  1  0.95880000  0.62810000  0.18350000  1.0 -0.2281886336
N  N11  1  0.04120000  0.12810000  0.81650000  1.0 -0.2281886336
N  N12  1  0.54120000  0.62810000  0.68350000  1.0 -0.2281886336
N  N13  1  0.21960000  0.25920000  0.62050000  1.0 -0.2474492197
N  N14  1  0.71960000  0.75920000  0.87950000  1.0 -0.2474492197
N  N15  1  0.28040000  0.25920000  0.12050000  1.0 -0.2474492197
N  N16  1  0.78040000  0.75920000  0.37950000  1.0 -0.2474492197
N  N17  1  0.85180000  0.01680000  0.48830000  1.0 -0.2281886336
N  N18  1  0.35180000  0.51680000  0.01170000  1.0 -0.2281886336
N  N19  1  0.64820000  0.01680000  0.98830000  1.0 -0.2281886336
N  N20  1  0.14820000  0.51680000  0.51170000  1.0 -0.2281886336
N  N21  1  0.35120000  0.68280000  0.50430000  1.0 -0.2281886336
N  N22  1  0.85120000  0.18280000  0.99570000  1.0 -0.2281886336
N  N23  1  0.14880000  0.68280000  0.00430000  1.0 -0.2281886336
N  N24  1  0.64880000  0.18280000  0.49570000  1.0 -0.2281886336
N  N25  1  0.67000000  0.99760000  0.49290000  1.0 -0.223248661
N  N26  1  0.17000000  0.49760000  0.00710000  1.0 -0.223248661
N  N27  1  0.83000000  0.99760000  0.99290000  1.0 -0.223248661
N  N28  1  0.33000000  0.49760000  0.50710000  1.0 -0.223248661
N  N29  1  0.16850000  0.70180000  0.50790000  1.0 -0.2281886336
N  N30  1  0.66850000  0.20180000  0.99210000  1.0 -0.2281886336
N  N31  1  0.33150000  0.70180000  0.00790000  1.0 -0.2281886336
N  N32  1  0.83150000  0.20180000  0.49210000  1.0 -0.2281886336
N  N33  1  0.57060000  0.70470000  0.21810000  1.0 0.5369775191
N  N34  1  0.07060000  0.20470000  0.28190000  1.0 0.5369775191
N  N35  1  0.92940000  0.70470000  0.71810000  1.0 0.533424526
N  N36  1  0.42940000  0.20470000  0.78190000  1.0 0.5369775191
N  N37  1  0.45100000  0.83190000  0.75750000  1.0 0.581169734
N  N38  1  0.95100000  0.33190000  0.74250000  1.0 0.581169734
N  N39  1  0.04900000  0.83190000  0.25750000  1.0 0.581169734
N  N40  1  0.54900000  0.33190000  0.24250000  1.0 0.5894874628
O  O1  1  0.75820000  0.10520000  0.11935000  1.0 -0.4976017807
O  O2  1  0.25820000  0.60520000  0.38065000  1.0 -0.4976017807
O  O3  1  0.74180000  0.10520000  0.61935000  1.0 -0.4976017807
O  O4  1  0.24180000  0.60520000  0.88065000  1.0 -0.4976017807
O  O5  1  0.63190000  0.11290000  0.16630000  1.0 -0.4976017807
O  O6  1  0.13190000  0.61290000  0.33370000  1.0 -0.4976017807
O  O7  1  0.86810000  0.11290000  0.66630000  1.0 -0.4976017807
O  O8  1  0.36810000  0.61290000  0.83370000  1.0 -0.4976017807
O  O9  1  0.75620000  0.10550000  0.36448000  1.0 -0.5061293398
O  O10  1  0.25620000  0.60550000  0.13552000  1.0 -0.5061293398
O  O11  1  0.74380000  0.10550000  0.86448000  1.0 -0.5061293398
O  O12  1  0.24380000  0.60550000  0.63552000  1.0 -0.5061293398
O  O13  1  0.63070000  0.11730000  0.31602000  1.0 -0.4945802991
O  O14  1  0.13070000  0.61730000  0.18398000  1.0 -0.4976017807
O  O15  1  0.86930000  0.11730000  0.81602000  1.0 -0.4945802991
O  O16  1  0.36930000  0.61730000  0.68398000  1.0 -0.4976017807
O  O17  1  0.55560000  0.96400000  0.25650000  1.0 -0.3717986723
O  O18  1  0.05560000  0.46400000  0.24350000  1.0 -0.3717986723
O  O19  1  0.94440000  0.96400000  0.75650000  1.0 -0.3717986723
O  O20  1  0.44440000  0.46400000  0.74350000  1.0 -0.3717986723
O  O21  1  0.54570000  0.73140000  0.27080000  1.0 -0.319128931
O  O22  1  0.53310000  0.64550000  0.19230000  1.0 -0.3455555443
O  O23  1  0.61980000  0.73540000  0.16700000  1.0 -0.4494065945
O  O24  1  0.04570000  0.23140000  0.22920000  1.0 -0.319128931
O  O25  1  0.03310000  0.14550000  0.30770000  1.0 -0.3455555443
O  O26  1  0.11980000  0.23540000  0.33300000  1.0 -0.4494065945
O  O27  1  0.95430000  0.73140000  0.77080000  1.0 -0.319128931
O  O28  1  0.96690000  0.64550000  0.69230000  1.0 -0.3455555443
O  O29  1  0.88020000  0.73540000  0.66700000  1.0 -0.4494065945
O  O30  1  0.45430000  0.23140000  0.72920000  1.0 -0.319128931
O  O31  1  0.46690000  0.14550000  0.80770000  1.0 -0.344819576
O  O32  1  0.38020000  0.23540000  0.83300000  1.0 -0.4494065945
O  O33  1  0.47750000  0.77650000  0.79230000  1.0 -0.3924895716
O  O34  1  0.37430000  0.84440000  0.73960000  1.0 -0.4396566306
O  O35  1  0.49830000  0.88620000  0.73100000  1.0 -0.3924895716
O  O36  1  0.97750000  0.27650000  0.70770000  1.0 -0.3924895716
O  O37  1  0.87430000  0.34440000  0.76040000  1.0 -0.4396566306
O  O38  1  0.99830000  0.38620000  0.76900000  1.0 -0.3924895716
O  O39  1  0.02250000  0.77650000  0.29230000  1.0 -0.3924895716
O  O40  1  0.12570000  0.84440000  0.23960000  1.0 -0.4396566306
O  O41  1  0.00170000  0.88620000  0.23100000  1.0 -0.3924895716
O  O42  1  0.52250000  0.27650000  0.20770000  1.0 -0.3924895716
O  O43  1  0.62570000  0.34440000  0.26040000  1.0 -0.4396566306
O  O44  1  0.50170000  0.38620000  0.26900000  1.0 -0.3924895716
