# DDEC6 charges by PACMAN v1.1 (https://github.com/mtap-research/PACMAN-charge/)
data_GALBUU_FSR_pacman
_symmetry_space_group_name_H-M   'P 1'
_cell_length_a   27.57360000
_cell_length_b   27.57360000
_cell_length_c   27.57360000
_cell_angle_alpha   60.00000000
_cell_angle_beta   60.00000000
_cell_angle_gamma   60.00000000
_symmetry_Int_Tables_number   1
_chemical_formula_structural   Zr3H90(C6O)20
_chemical_formula_sum   'Zr12 H360 C480 O80'
_cell_volume   14824.00031768
_cell_formula_units_Z   4
loop_
 _symmetry_equiv_pos_site_id
 _symmetry_equiv_pos_as_xyz
  1  'x, y, z'
loop_
 _atom_site_type_symbol
 _atom_site_label
 _atom_site_symmetry_multiplicity
 _atom_site_fract_x
 _atom_site_fract_y
 _atom_site_fract_z
 _atom_site_occupancy
 _atom_site_charge
Zr  Zr1  1  0.06360000  0.06360000  0.93640000  1.0 2.0882501032
Zr  Zr2  1  0.93640000  0.93640000  0.06360000  1.0 2.0828001406
Zr  Zr3  1  0.93640000  0.06360000  0.06360000  1.0 2.0882501032
Zr  Zr4  1  0.06360000  0.93640000  0.93640000  1.0 2.0882501032
Zr  Zr5  1  0.06360000  0.93640000  0.06360000  1.0 2.0882501032
Zr  Zr6  1  0.93640000  0.06360000  0.93640000  1.0 2.0882501032
Zr  Zr7  1  0.18640000  0.18640000  0.31360000  1.0 2.0976643071
Zr  Zr8  1  0.31360000  0.31360000  0.18640000  1.0 2.0976643071
Zr  Zr9  1  0.31360000  0.18640000  0.18640000  1.0 2.0976643071
Zr  Zr10  1  0.18640000  0.31360000  0.31360000  1.0 2.0976643071
Zr  Zr11  1  0.18640000  0.31360000  0.18640000  1.0 2.0976643071
Zr  Zr12  1  0.31360000  0.18640000  0.31360000  1.0 2.0976643071
H  H1  1  0.21567000  0.93563000  0.08051000  1.0 0.1319483514
H  H2  1  0.30085000  0.93529000  0.07977000  1.0 0.1319483514
H  H3  1  0.31935000  0.07319000  0.04353000  1.0 0.09991776
H  H4  1  0.40231000  0.07317000  0.04723000  1.0 0.09991776
H  H5  1  0.50420000  0.92824000  0.99492000  1.0 0.09991776
H  H6  1  0.47798000  0.89300000  0.95708000  1.0 0.0821802311
H  H7  1  0.41469000  0.92369000  0.94831000  1.0 0.0821802311
H  H8  1  0.42257000  0.87331000  0.00977000  1.0 0.1319483514
H  H9  1  0.93563000  0.21567000  0.76819000  1.0 0.1319483514
H  H10  1  0.93529000  0.30085000  0.68409000  1.0 0.1319483514
H  H11  1  0.07319000  0.31935000  0.56393000  1.0 0.09991776
H  H12  1  0.07317000  0.40231000  0.47729000  1.0 0.09991776
H  H13  1  0.92824000  0.50420000  0.57264000  1.0 0.09991776
H  H14  1  0.89300000  0.47798000  0.67194000  1.0 0.0821802311
H  H15  1  0.92369000  0.41469000  0.71331000  1.0 0.0821802311
H  H16  1  0.87331000  0.42257000  0.69435000  1.0 0.1319483514
H  H17  1  0.08051000  0.76819000  0.21567000  1.0 0.1319483514
H  H18  1  0.07977000  0.68409000  0.30085000  1.0 0.1319483514
H  H19  1  0.04353000  0.56393000  0.31935000  1.0 0.09991776
H  H20  1  0.04723000  0.47729000  0.40231000  1.0 0.09991776
H  H21  1  0.99492000  0.57264000  0.50420000  1.0 0.09991776
H  H22  1  0.95708000  0.67194000  0.47798000  1.0 0.0821802311
H  H23  1  0.94831000  0.71331000  0.41469000  1.0 0.0821802311
H  H24  1  0.00977000  0.69435000  0.42257000  1.0 0.1319483514
H  H25  1  0.76819000  0.08051000  0.93563000  1.0 0.1319483514
H  H26  1  0.68409000  0.07977000  0.93529000  1.0 0.1319483514
H  H27  1  0.56393000  0.04353000  0.07319000  1.0 0.09991776
H  H28  1  0.47729000  0.04723000  0.07317000  1.0 0.09991776
H  H29  1  0.57264000  0.99492000  0.92824000  1.0 0.09991776
H  H30  1  0.67194000  0.95708000  0.89300000  1.0 0.0821802311
H  H31  1  0.71331000  0.94831000  0.92369000  1.0 0.0821802311
H  H32  1  0.69435000  0.00977000  0.87331000  1.0 0.1319483514
H  H33  1  0.08051000  0.21567000  0.93563000  1.0 0.1319483514
H  H34  1  0.07977000  0.30085000  0.93529000  1.0 0.1319483514
H  H35  1  0.04353000  0.31935000  0.07319000  1.0 0.09991776
H  H36  1  0.04723000  0.40231000  0.07317000  1.0 0.09991776
H  H37  1  0.99492000  0.50420000  0.92824000  1.0 0.09991776
H  H38  1  0.95708000  0.47798000  0.89300000  1.0 0.0821802311
H  H39  1  0.94831000  0.41469000  0.92369000  1.0 0.0821802311
H  H40  1  0.00977000  0.42257000  0.87331000  1.0 0.1319483514
H  H41  1  0.76819000  0.93563000  0.21567000  1.0 0.1319483514
H  H42  1  0.68409000  0.93529000  0.30085000  1.0 0.1319483514
H  H43  1  0.56393000  0.07319000  0.31935000  1.0 0.09991776
H  H44  1  0.47729000  0.07317000  0.40231000  1.0 0.09991776
H  H45  1  0.57264000  0.92824000  0.50420000  1.0 0.09991776
H  H46  1  0.67194000  0.89300000  0.47798000  1.0 0.0821802311
H  H47  1  0.71331000  0.92369000  0.41469000  1.0 0.0821802311
H  H48  1  0.69435000  0.87331000  0.42257000  1.0 0.1319483514
H  H49  1  0.21567000  0.08051000  0.76819000  1.0 0.1319483514
H  H50  1  0.30085000  0.07977000  0.68409000  1.0 0.1319483514
H  H51  1  0.31935000  0.04353000  0.56393000  1.0 0.09991776
H  H52  1  0.40231000  0.04723000  0.47729000  1.0 0.09991776
H  H53  1  0.50420000  0.99492000  0.57264000  1.0 0.09991776
H  H54  1  0.47798000  0.95708000  0.67194000  1.0 0.0821802311
H  H55  1  0.41469000  0.94831000  0.71331000  1.0 0.0821802311
H  H56  1  0.42257000  0.00977000  0.69435000  1.0 0.1319483514
H  H57  1  0.93563000  0.76819000  0.08051000  1.0 0.1319483514
H  H58  1  0.93529000  0.68409000  0.07977000  1.0 0.1319483514
H  H59  1  0.07319000  0.56393000  0.04353000  1.0 0.09991776
H  H60  1  0.07317000  0.47729000  0.04723000  1.0 0.09991776
H  H61  1  0.92824000  0.57264000  0.99492000  1.0 0.09991776
H  H62  1  0.89300000  0.67194000  0.95708000  1.0 0.0821802311
H  H63  1  0.92369000  0.71331000  0.94831000  1.0 0.0821802311
H  H64  1  0.87331000  0.69435000  0.00977000  1.0 0.1319483514
H  H65  1  0.93563000  0.08051000  0.21567000  1.0 0.1319483514
H  H66  1  0.93529000  0.07977000  0.30085000  1.0 0.1319483514
H  H67  1  0.07319000  0.04353000  0.31935000  1.0 0.09991776
H  H68  1  0.07317000  0.04723000  0.40231000  1.0 0.09991776
H  H69  1  0.92824000  0.99492000  0.50420000  1.0 0.09991776
H  H70  1  0.89300000  0.95708000  0.47798000  1.0 0.0821802311
H  H71  1  0.92369000  0.94831000  0.41469000  1.0 0.0821802311
H  H72  1  0.87331000  0.00977000  0.42257000  1.0 0.1319483514
H  H73  1  0.21567000  0.76819000  0.93563000  1.0 0.1319483514
H  H74  1  0.30085000  0.68409000  0.93529000  1.0 0.1319483514
H  H75  1  0.31935000  0.56393000  0.07319000  1.0 0.09991776
H  H76  1  0.40231000  0.47729000  0.07317000  1.0 0.09991776
H  H77  1  0.50420000  0.57264000  0.92824000  1.0 0.09991776
H  H78  1  0.47798000  0.67194000  0.89300000  1.0 0.0821802311
H  H79  1  0.41469000  0.71331000  0.92369000  1.0 0.0821802311
H  H80  1  0.42257000  0.69435000  0.87331000  1.0 0.1319483514
H  H81  1  0.76819000  0.21567000  0.08051000  1.0 0.1319483514
H  H82  1  0.68409000  0.30085000  0.07977000  1.0 0.1319483514
H  H83  1  0.56393000  0.31935000  0.04353000  1.0 0.09991776
H  H84  1  0.47729000  0.40231000  0.04723000  1.0 0.09991776
H  H85  1  0.57264000  0.50420000  0.99492000  1.0 0.09991776
H  H86  1  0.67194000  0.47798000  0.95708000  1.0 0.0821802311
H  H87  1  0.71331000  0.41469000  0.94831000  1.0 0.0821802311
H  H88  1  0.69435000  0.42257000  0.00977000  1.0 0.1319483514
H  H89  1  0.08051000  0.93563000  0.76819000  1.0 0.1319483514
H  H90  1  0.07977000  0.93529000  0.68409000  1.0 0.1319483514
H  H91  1  0.04353000  0.07319000  0.56393000  1.0 0.09991776
H  H92  1  0.04723000  0.07317000  0.47729000  1.0 0.09991776
H  H93  1  0.99492000  0.92824000  0.57264000  1.0 0.09991776
H  H94  1  0.95708000  0.89300000  0.67194000  1.0 0.0821802311
H  H95  1  0.94831000  0.92369000  0.71331000  1.0 0.0821802311
H  H96  1  0.00977000  0.87331000  0.69435000  1.0 0.1319483514
H  H97  1  0.93563000  0.21567000  0.08051000  1.0 0.1319483514
H  H98  1  0.93529000  0.30085000  0.07977000  1.0 0.1319483514
H  H99  1  0.07319000  0.31935000  0.04353000  1.0 0.09991776
H  H100  1  0.07317000  0.40231000  0.04723000  1.0 0.09991776
H  H101  1  0.92824000  0.50420000  0.99492000  1.0 0.09991776
H  H102  1  0.89300000  0.47798000  0.95708000  1.0 0.0821802311
H  H103  1  0.92369000  0.41469000  0.94831000  1.0 0.0821802311
H  H104  1  0.87331000  0.42257000  0.00977000  1.0 0.1319483514
H  H105  1  0.21567000  0.93563000  0.76819000  1.0 0.1319483514
H  H106  1  0.30085000  0.93529000  0.68409000  1.0 0.1319483514
H  H107  1  0.31935000  0.07319000  0.56393000  1.0 0.09991776
H  H108  1  0.40231000  0.07317000  0.47729000  1.0 0.09991776
H  H109  1  0.50420000  0.92824000  0.57264000  1.0 0.09991776
H  H110  1  0.47798000  0.89300000  0.67194000  1.0 0.0821802311
H  H111  1  0.41469000  0.92369000  0.71331000  1.0 0.0821802311
H  H112  1  0.42257000  0.87331000  0.69435000  1.0 0.1319483514
H  H113  1  0.76819000  0.08051000  0.21567000  1.0 0.1319483514
H  H114  1  0.68409000  0.07977000  0.30085000  1.0 0.1319483514
H  H115  1  0.56393000  0.04353000  0.31935000  1.0 0.09991776
H  H116  1  0.47729000  0.04723000  0.40231000  1.0 0.09991776
H  H117  1  0.57264000  0.99492000  0.50420000  1.0 0.09991776
H  H118  1  0.67194000  0.95708000  0.47798000  1.0 0.0821802311
H  H119  1  0.71331000  0.94831000  0.41469000  1.0 0.0821802311
H  H120  1  0.69435000  0.00977000  0.42257000  1.0 0.1319483514
H  H121  1  0.08051000  0.76819000  0.93563000  1.0 0.1319483514
H  H122  1  0.07977000  0.68409000  0.93529000  1.0 0.1319483514
H  H123  1  0.04353000  0.56393000  0.07319000  1.0 0.09991776
H  H124  1  0.04723000  0.47729000  0.07317000  1.0 0.09991776
H  H125  1  0.99492000  0.57264000  0.92824000  1.0 0.09991776
H  H126  1  0.95708000  0.67194000  0.89300000  1.0 0.0821802311
H  H127  1  0.94831000  0.71331000  0.92369000  1.0 0.0821802311
H  H128  1  0.00977000  0.69435000  0.87331000  1.0 0.1319483514
H  H129  1  0.21567000  0.08051000  0.93563000  1.0 0.1319483514
H  H130  1  0.30085000  0.07977000  0.93529000  1.0 0.1319483514
H  H131  1  0.31935000  0.04353000  0.07319000  1.0 0.09991776
H  H132  1  0.40231000  0.04723000  0.07317000  1.0 0.09991776
H  H133  1  0.50420000  0.99492000  0.92824000  1.0 0.09991776
H  H134  1  0.47798000  0.95708000  0.89300000  1.0 0.0821802311
H  H135  1  0.41469000  0.94831000  0.92369000  1.0 0.0821802311
H  H136  1  0.42257000  0.00977000  0.87331000  1.0 0.1319483514
H  H137  1  0.93563000  0.76819000  0.21567000  1.0 0.1319483514
H  H138  1  0.93529000  0.68409000  0.30085000  1.0 0.1319483514
H  H139  1  0.07319000  0.56393000  0.31935000  1.0 0.09991776
H  H140  1  0.07317000  0.47729000  0.40231000  1.0 0.09991776
H  H141  1  0.92824000  0.57264000  0.50420000  1.0 0.09991776
H  H142  1  0.89300000  0.67194000  0.47798000  1.0 0.0821802311
H  H143  1  0.92369000  0.71331000  0.41469000  1.0 0.0821802311
H  H144  1  0.87331000  0.69435000  0.42257000  1.0 0.1319483514
H  H145  1  0.08051000  0.21567000  0.76819000  1.0 0.1319483514
H  H146  1  0.07977000  0.30085000  0.68409000  1.0 0.1319483514
H  H147  1  0.04353000  0.31935000  0.56393000  1.0 0.09991776
H  H148  1  0.04723000  0.40231000  0.47729000  1.0 0.09991776
H  H149  1  0.99492000  0.50420000  0.57264000  1.0 0.09991776
H  H150  1  0.95708000  0.47798000  0.67194000  1.0 0.0821802311
H  H151  1  0.94831000  0.41469000  0.71331000  1.0 0.0821802311
H  H152  1  0.00977000  0.42257000  0.69435000  1.0 0.1319483514
H  H153  1  0.76819000  0.93563000  0.08051000  1.0 0.1319483514
H  H154  1  0.68409000  0.93529000  0.07977000  1.0 0.1319483514
H  H155  1  0.56393000  0.07319000  0.04353000  1.0 0.09991776
H  H156  1  0.47729000  0.07317000  0.04723000  1.0 0.09991776
H  H157  1  0.57264000  0.92824000  0.99492000  1.0 0.09991776
H  H158  1  0.67194000  0.89300000  0.95708000  1.0 0.0821802311
H  H159  1  0.71331000  0.92369000  0.94831000  1.0 0.0821802311
H  H160  1  0.69435000  0.87331000  0.00977000  1.0 0.1319483514
H  H161  1  0.08051000  0.93563000  0.21567000  1.0 0.1319483514
H  H162  1  0.07977000  0.93529000  0.30085000  1.0 0.1319483514
H  H163  1  0.04353000  0.07319000  0.31935000  1.0 0.09991776
H  H164  1  0.04723000  0.07317000  0.40231000  1.0 0.09991776
H  H165  1  0.99492000  0.92824000  0.50420000  1.0 0.09991776
H  H166  1  0.95708000  0.89300000  0.47798000  1.0 0.0821802311
H  H167  1  0.94831000  0.92369000  0.41469000  1.0 0.0821802311
H  H168  1  0.00977000  0.87331000  0.42257000  1.0 0.1319483514
H  H169  1  0.76819000  0.21567000  0.93563000  1.0 0.1319483514
H  H170  1  0.68409000  0.30085000  0.93529000  1.0 0.1319483514
H  H171  1  0.56393000  0.31935000  0.07319000  1.0 0.09991776
H  H172  1  0.47729000  0.40231000  0.07317000  1.0 0.09991776
H  H173  1  0.57264000  0.50420000  0.92824000  1.0 0.09991776
H  H174  1  0.67194000  0.47798000  0.89300000  1.0 0.0821802311
H  H175  1  0.71331000  0.41469000  0.92369000  1.0 0.0821802311
H  H176  1  0.69435000  0.42257000  0.87331000  1.0 0.1319483514
H  H177  1  0.21567000  0.76819000  0.08051000  1.0 0.1319483514
H  H178  1  0.30085000  0.68409000  0.07977000  1.0 0.1319483514
H  H179  1  0.31935000  0.56393000  0.04353000  1.0 0.09991776
H  H180  1  0.40231000  0.47729000  0.04723000  1.0 0.09991776
H  H181  1  0.50420000  0.57264000  0.99492000  1.0 0.09991776
H  H182  1  0.47798000  0.67194000  0.95708000  1.0 0.0821802311
H  H183  1  0.41469000  0.71331000  0.94831000  1.0 0.0821802311
H  H184  1  0.42257000  0.69435000  0.00977000  1.0 0.1319483514
H  H185  1  0.93563000  0.08051000  0.76819000  1.0 0.1319483514
H  H186  1  0.93529000  0.07977000  0.68409000  1.0 0.1319483514
H  H187  1  0.07319000  0.04353000  0.56393000  1.0 0.09991776
H  H188  1  0.07317000  0.04723000  0.47729000  1.0 0.09991776
H  H189  1  0.92824000  0.99492000  0.57264000  1.0 0.09991776
H  H190  1  0.89300000  0.95708000  0.67194000  1.0 0.0821802311
H  H191  1  0.92369000  0.94831000  0.71331000  1.0 0.0821802311
H  H192  1  0.87331000  0.00977000  0.69435000  1.0 0.1319483514
H  H193  1  0.18118000  0.02308000  0.32548000  1.0 0.1202392261
H  H194  1  0.16561000  0.94941000  0.32189000  1.0 0.1319483514
H  H195  1  0.25925000  0.82263000  0.32575000  1.0 0.109073696
H  H196  1  0.21250000  0.92806000  0.17770000  1.0 0.09991776
H  H197  1  0.20601000  0.84755000  0.17597000  1.0 0.09991776
H  H198  1  0.22614000  0.75456000  0.24914000  1.0 0.070350298
H  H199  1  0.25275000  0.74211000  0.32403000  1.0 0.09991776
H  H200  1  0.02308000  0.18118000  0.47026000  1.0 0.1202392261
H  H201  1  0.94941000  0.16561000  0.56309000  1.0 0.1319483514
H  H202  1  0.82263000  0.25925000  0.59237000  1.0 0.109073696
H  H203  1  0.92806000  0.21250000  0.68174000  1.0 0.09991776
H  H204  1  0.84755000  0.20601000  0.77047000  1.0 0.09991776
H  H205  1  0.75456000  0.22614000  0.77016000  1.0 0.070350298
H  H206  1  0.74211000  0.25275000  0.68111000  1.0 0.09991776
H  H207  1  0.32548000  0.47026000  0.18118000  1.0 0.1202392261
H  H208  1  0.32189000  0.56309000  0.16561000  1.0 0.1319483514
H  H209  1  0.32575000  0.59237000  0.25925000  1.0 0.109073696
H  H210  1  0.17770000  0.68174000  0.21250000  1.0 0.09991776
H  H211  1  0.17597000  0.77047000  0.20601000  1.0 0.09991776
H  H212  1  0.24914000  0.77016000  0.22614000  1.0 0.070350298
H  H213  1  0.32403000  0.68111000  0.25275000  1.0 0.09991776
H  H214  1  0.47026000  0.32548000  0.02308000  1.0 0.1202392261
H  H215  1  0.56309000  0.32189000  0.94941000  1.0 0.1319483514
H  H216  1  0.59237000  0.32575000  0.82263000  1.0 0.109073696
H  H217  1  0.68174000  0.17770000  0.92806000  1.0 0.09991776
H  H218  1  0.77047000  0.17597000  0.84755000  1.0 0.09991776
H  H219  1  0.77016000  0.24914000  0.75456000  1.0 0.070350298
H  H220  1  0.68111000  0.32403000  0.74211000  1.0 0.09991776
H  H221  1  0.32548000  0.18118000  0.02308000  1.0 0.1202392261
H  H222  1  0.32189000  0.16561000  0.94941000  1.0 0.1319483514
H  H223  1  0.32575000  0.25925000  0.82263000  1.0 0.109073696
H  H224  1  0.17770000  0.21250000  0.92806000  1.0 0.09991776
H  H225  1  0.17597000  0.20601000  0.84755000  1.0 0.09991776
H  H226  1  0.24914000  0.22614000  0.75456000  1.0 0.070350298
H  H227  1  0.32403000  0.25275000  0.74211000  1.0 0.09991776
H  H228  1  0.47026000  0.02308000  0.18118000  1.0 0.1202392261
H  H229  1  0.56309000  0.94941000  0.16561000  1.0 0.1319483514
H  H230  1  0.59237000  0.82263000  0.25925000  1.0 0.109073696
H  H231  1  0.68174000  0.92806000  0.21250000  1.0 0.09991776
H  H232  1  0.77047000  0.84755000  0.20601000  1.0 0.09991776
H  H233  1  0.77016000  0.75456000  0.22614000  1.0 0.070350298
H  H234  1  0.68111000  0.74211000  0.25275000  1.0 0.09991776
H  H235  1  0.18118000  0.32548000  0.47026000  1.0 0.1202392261
H  H236  1  0.16561000  0.32189000  0.56309000  1.0 0.1319483514
H  H237  1  0.25925000  0.32575000  0.59237000  1.0 0.109073696
H  H238  1  0.21250000  0.17770000  0.68174000  1.0 0.09991776
H  H239  1  0.20601000  0.17597000  0.77047000  1.0 0.09991776
H  H240  1  0.22614000  0.24914000  0.77016000  1.0 0.070350298
H  H241  1  0.25275000  0.32403000  0.68111000  1.0 0.09991776
H  H242  1  0.02308000  0.47026000  0.32548000  1.0 0.1202392261
H  H243  1  0.94941000  0.56309000  0.32189000  1.0 0.1319483514
H  H244  1  0.82263000  0.59237000  0.32575000  1.0 0.109073696
H  H245  1  0.92806000  0.68174000  0.17770000  1.0 0.09991776
H  H246  1  0.84755000  0.77047000  0.17597000  1.0 0.09991776
H  H247  1  0.75456000  0.77016000  0.24914000  1.0 0.070350298
H  H248  1  0.74211000  0.68111000  0.32403000  1.0 0.09991776
H  H249  1  0.02308000  0.32548000  0.18118000  1.0 0.1202392261
H  H250  1  0.94941000  0.32189000  0.16561000  1.0 0.1319483514
H  H251  1  0.82263000  0.32575000  0.25925000  1.0 0.109073696
H  H252  1  0.92806000  0.17770000  0.21250000  1.0 0.09991776
H  H253  1  0.84755000  0.17597000  0.20601000  1.0 0.09991776
H  H254  1  0.75456000  0.24914000  0.22614000  1.0 0.070350298
H  H255  1  0.74211000  0.32403000  0.25275000  1.0 0.09991776
H  H256  1  0.18118000  0.47026000  0.02308000  1.0 0.1202392261
H  H257  1  0.16561000  0.56309000  0.94941000  1.0 0.1319483514
H  H258  1  0.25925000  0.59237000  0.82263000  1.0 0.109073696
H  H259  1  0.21250000  0.68174000  0.92806000  1.0 0.09991776
H  H260  1  0.20601000  0.77047000  0.84755000  1.0 0.09991776
H  H261  1  0.22614000  0.77016000  0.75456000  1.0 0.070350298
H  H262  1  0.25275000  0.68111000  0.74211000  1.0 0.09991776
H  H263  1  0.47026000  0.18118000  0.32548000  1.0 0.1202392261
H  H264  1  0.56309000  0.16561000  0.32189000  1.0 0.1319483514
H  H265  1  0.59237000  0.25925000  0.32575000  1.0 0.109073696
H  H266  1  0.68174000  0.21250000  0.17770000  1.0 0.09991776
H  H267  1  0.77047000  0.20601000  0.17597000  1.0 0.09991776
H  H268  1  0.77016000  0.22614000  0.24914000  1.0 0.070350298
H  H269  1  0.68111000  0.25275000  0.32403000  1.0 0.09991776
H  H270  1  0.32548000  0.02308000  0.47026000  1.0 0.1202392261
H  H271  1  0.32189000  0.94941000  0.56309000  1.0 0.1319483514
H  H272  1  0.32575000  0.82263000  0.59237000  1.0 0.109073696
H  H273  1  0.17770000  0.92806000  0.68174000  1.0 0.09991776
H  H274  1  0.17597000  0.84755000  0.77047000  1.0 0.09991776
H  H275  1  0.24914000  0.75456000  0.77016000  1.0 0.070350298
H  H276  1  0.32403000  0.74211000  0.68111000  1.0 0.09991776
H  H277  1  0.02308000  0.18118000  0.32548000  1.0 0.1202392261
H  H278  1  0.94941000  0.16561000  0.32189000  1.0 0.1319483514
H  H279  1  0.82263000  0.25925000  0.32575000  1.0 0.109073696
H  H280  1  0.92806000  0.21250000  0.17770000  1.0 0.09991776
H  H281  1  0.84755000  0.20601000  0.17597000  1.0 0.09991776
H  H282  1  0.75456000  0.22614000  0.24914000  1.0 0.070350298
H  H283  1  0.74211000  0.25275000  0.32403000  1.0 0.09991776
H  H284  1  0.18118000  0.02308000  0.47026000  1.0 0.1202392261
H  H285  1  0.16561000  0.94941000  0.56309000  1.0 0.1319483514
H  H286  1  0.25925000  0.82263000  0.59237000  1.0 0.109073696
H  H287  1  0.21250000  0.92806000  0.68174000  1.0 0.09991776
H  H288  1  0.20601000  0.84755000  0.77047000  1.0 0.09991776
H  H289  1  0.22614000  0.75456000  0.77016000  1.0 0.070350298
H  H290  1  0.25275000  0.74211000  0.68111000  1.0 0.09991776
H  H291  1  0.47026000  0.32548000  0.18118000  1.0 0.1202392261
H  H292  1  0.56309000  0.32189000  0.16561000  1.0 0.1319483514
H  H293  1  0.59237000  0.32575000  0.25925000  1.0 0.109073696
H  H294  1  0.68174000  0.17770000  0.21250000  1.0 0.09991776
H  H295  1  0.77047000  0.17597000  0.20601000  1.0 0.09991776
H  H296  1  0.77016000  0.24914000  0.22614000  1.0 0.070350298
H  H297  1  0.68111000  0.32403000  0.25275000  1.0 0.09991776
H  H298  1  0.32548000  0.47026000  0.02308000  1.0 0.1202392261
H  H299  1  0.32189000  0.56309000  0.94941000  1.0 0.1319483514
H  H300  1  0.32575000  0.59237000  0.82263000  1.0 0.109073696
H  H301  1  0.17770000  0.68174000  0.92806000  1.0 0.09991776
H  H302  1  0.17597000  0.77047000  0.84755000  1.0 0.09991776
H  H303  1  0.24914000  0.77016000  0.75456000  1.0 0.070350298
H  H304  1  0.32403000  0.68111000  0.74211000  1.0 0.09991776
H  H305  1  0.18118000  0.32548000  0.02308000  1.0 0.1202392261
H  H306  1  0.16561000  0.32189000  0.94941000  1.0 0.1319483514
H  H307  1  0.25925000  0.32575000  0.82263000  1.0 0.109073696
H  H308  1  0.21250000  0.17770000  0.92806000  1.0 0.09991776
H  H309  1  0.20601000  0.17597000  0.84755000  1.0 0.09991776
H  H310  1  0.22614000  0.24914000  0.75456000  1.0 0.070350298
H  H311  1  0.25275000  0.32403000  0.74211000  1.0 0.09991776
H  H312  1  0.02308000  0.47026000  0.18118000  1.0 0.1202392261
H  H313  1  0.94941000  0.56309000  0.16561000  1.0 0.1319483514
H  H314  1  0.82263000  0.59237000  0.25925000  1.0 0.109073696
H  H315  1  0.92806000  0.68174000  0.21250000  1.0 0.09991776
H  H316  1  0.84755000  0.77047000  0.20601000  1.0 0.09991776
H  H317  1  0.75456000  0.77016000  0.22614000  1.0 0.070350298
H  H318  1  0.74211000  0.68111000  0.25275000  1.0 0.09991776
H  H319  1  0.32548000  0.18118000  0.47026000  1.0 0.1202392261
H  H320  1  0.32189000  0.16561000  0.56309000  1.0 0.1319483514
H  H321  1  0.32575000  0.25925000  0.59237000  1.0 0.109073696
H  H322  1  0.17770000  0.21250000  0.68174000  1.0 0.09991776
H  H323  1  0.17597000  0.20601000  0.77047000  1.0 0.09991776
H  H324  1  0.24914000  0.22614000  0.77016000  1.0 0.070350298
H  H325  1  0.32403000  0.25275000  0.68111000  1.0 0.09991776
H  H326  1  0.47026000  0.02308000  0.32548000  1.0 0.1202392261
H  H327  1  0.56309000  0.94941000  0.32189000  1.0 0.1319483514
H  H328  1  0.59237000  0.82263000  0.32575000  1.0 0.109073696
H  H329  1  0.68174000  0.92806000  0.17770000  1.0 0.09991776
H  H330  1  0.77047000  0.84755000  0.17597000  1.0 0.09991776
H  H331  1  0.77016000  0.75456000  0.24914000  1.0 0.070350298
H  H332  1  0.68111000  0.74211000  0.32403000  1.0 0.09991776
H  H333  1  0.32548000  0.02308000  0.18118000  1.0 0.1202392261
H  H334  1  0.32189000  0.94941000  0.16561000  1.0 0.1319483514
H  H335  1  0.32575000  0.82263000  0.25925000  1.0 0.109073696
H  H336  1  0.17770000  0.92806000  0.21250000  1.0 0.09991776
H  H337  1  0.17597000  0.84755000  0.20601000  1.0 0.09991776
H  H338  1  0.24914000  0.75456000  0.22614000  1.0 0.070350298
H  H339  1  0.32403000  0.74211000  0.25275000  1.0 0.09991776
H  H340  1  0.47026000  0.18118000  0.02308000  1.0 0.1202392261
H  H341  1  0.56309000  0.16561000  0.94941000  1.0 0.1319483514
H  H342  1  0.59237000  0.25925000  0.82263000  1.0 0.109073696
H  H343  1  0.68174000  0.21250000  0.92806000  1.0 0.09991776
H  H344  1  0.77047000  0.20601000  0.84755000  1.0 0.09991776
H  H345  1  0.77016000  0.22614000  0.75456000  1.0 0.070350298
H  H346  1  0.68111000  0.25275000  0.74211000  1.0 0.09991776
H  H347  1  0.18118000  0.47026000  0.32548000  1.0 0.1202392261
H  H348  1  0.16561000  0.56309000  0.32189000  1.0 0.1319483514
H  H349  1  0.25925000  0.59237000  0.32575000  1.0 0.109073696
H  H350  1  0.21250000  0.68174000  0.17770000  1.0 0.09991776
H  H351  1  0.20601000  0.77047000  0.17597000  1.0 0.09991776
H  H352  1  0.22614000  0.77016000  0.24914000  1.0 0.070350298
H  H353  1  0.25275000  0.68111000  0.32403000  1.0 0.09991776
H  H354  1  0.02308000  0.32548000  0.47026000  1.0 0.1202392261
H  H355  1  0.94941000  0.32189000  0.56309000  1.0 0.1319483514
H  H356  1  0.82263000  0.32575000  0.59237000  1.0 0.109073696
H  H357  1  0.92806000  0.17770000  0.68174000  1.0 0.09991776
H  H358  1  0.84755000  0.17597000  0.77047000  1.0 0.09991776
H  H359  1  0.75456000  0.24914000  0.77016000  1.0 0.070350298
H  H360  1  0.74211000  0.32403000  0.68111000  1.0 0.09991776
C  C1  1  0.23388000  0.96438000  0.04950000  1.0 -0.1277279792
C  C2  1  0.28366000  0.96540000  0.04998000  1.0 -0.2145073855
C  C3  1  0.36252000  0.00068000  0.01708000  1.0 0.0591679271
C  C4  1  0.35689000  0.04371000  0.03371000  1.0 -0.1385283439
C  C5  1  0.40619000  0.04381000  0.03581000  1.0 -0.1640947207
C  C6  1  0.46103000  0.00077000  0.02137000  1.0 0.0821802311
C  C7  1  0.46667000  0.95767000  0.00479000  1.0 -0.0801755317
C  C8  1  0.41740000  0.95768000  0.00258000  1.0 0.0167115747
C  C9  1  0.43500000  0.90680000  0.97680000  1.0 -0.3281296883
C  C10  1  0.96438000  0.23388000  0.75224000  1.0 -0.1277279792
C  C11  1  0.96540000  0.28366000  0.70096000  1.0 -0.2145073855
C  C12  1  0.00068000  0.36252000  0.61972000  1.0 0.0591679271
C  C13  1  0.04371000  0.35689000  0.56569000  1.0 -0.1385283439
C  C14  1  0.04381000  0.40619000  0.51419000  1.0 -0.1640947207
C  C15  1  0.00077000  0.46103000  0.51683000  1.0 0.0821802311
C  C16  1  0.95767000  0.46667000  0.57087000  1.0 -0.0801755317
C  C17  1  0.95768000  0.41740000  0.62234000  1.0 0.0167115747
C  C18  1  0.90680000  0.43500000  0.68140000  1.0 -0.3281296883
C  C19  1  0.04950000  0.75224000  0.23388000  1.0 -0.1277279792
C  C20  1  0.04998000  0.70096000  0.28366000  1.0 -0.2145073855
C  C21  1  0.01708000  0.61972000  0.36252000  1.0 0.0591679271
C  C22  1  0.03371000  0.56569000  0.35689000  1.0 -0.1385283439
C  C23  1  0.03581000  0.51419000  0.40619000  1.0 -0.1640947207
C  C24  1  0.02137000  0.51683000  0.46103000  1.0 0.0821802311
C  C25  1  0.00479000  0.57087000  0.46667000  1.0 -0.0801755317
C  C26  1  0.00258000  0.62234000  0.41740000  1.0 0.0167115747
C  C27  1  0.97680000  0.68140000  0.43500000  1.0 -0.3281296883
C  C28  1  0.75224000  0.04950000  0.96438000  1.0 -0.1277279792
C  C29  1  0.70096000  0.04998000  0.96540000  1.0 -0.2145073855
C  C30  1  0.61972000  0.01708000  0.00068000  1.0 0.0591679271
C  C31  1  0.56569000  0.03371000  0.04371000  1.0 -0.1385283439
C  C32  1  0.51419000  0.03581000  0.04381000  1.0 -0.1640947207
C  C33  1  0.51683000  0.02137000  0.00077000  1.0 0.0821802311
C  C34  1  0.57087000  0.00479000  0.95767000  1.0 -0.0801755317
C  C35  1  0.62234000  0.00258000  0.95768000  1.0 0.0167115747
C  C36  1  0.68140000  0.97680000  0.90680000  1.0 -0.3281296883
C  C37  1  0.04950000  0.23388000  0.96438000  1.0 -0.1277279792
C  C38  1  0.04998000  0.28366000  0.96540000  1.0 -0.2163828704
C  C39  1  0.01708000  0.36252000  0.00068000  1.0 0.0591679271
C  C40  1  0.03371000  0.35689000  0.04371000  1.0 -0.1385283439
C  C41  1  0.03581000  0.40619000  0.04381000  1.0 -0.1640947207
C  C42  1  0.02137000  0.46103000  0.00077000  1.0 0.0821802311
C  C43  1  0.00479000  0.46667000  0.95767000  1.0 -0.0801755317
C  C44  1  0.00258000  0.41740000  0.95768000  1.0 0.0167115747
C  C45  1  0.97680000  0.43500000  0.90680000  1.0 -0.3281296883
C  C46  1  0.75224000  0.96438000  0.23388000  1.0 -0.1277279792
C  C47  1  0.70096000  0.96540000  0.28366000  1.0 -0.2145073855
C  C48  1  0.61972000  0.00068000  0.36252000  1.0 0.0591679271
C  C49  1  0.56569000  0.04371000  0.35689000  1.0 -0.1385283439
C  C50  1  0.51419000  0.04381000  0.40619000  1.0 -0.1640947207
C  C51  1  0.51683000  0.00077000  0.46103000  1.0 0.0821802311
C  C52  1  0.57087000  0.95767000  0.46667000  1.0 -0.0801755317
C  C53  1  0.62234000  0.95768000  0.41740000  1.0 0.0167115747
C  C54  1  0.68140000  0.90680000  0.43500000  1.0 -0.3281296883
C  C55  1  0.23388000  0.04950000  0.75224000  1.0 -0.1277279792
C  C56  1  0.28366000  0.04998000  0.70096000  1.0 -0.2145073855
C  C57  1  0.36252000  0.01708000  0.61972000  1.0 0.0591679271
C  C58  1  0.35689000  0.03371000  0.56569000  1.0 -0.1385283439
C  C59  1  0.40619000  0.03581000  0.51419000  1.0 -0.1640947207
C  C60  1  0.46103000  0.02137000  0.51683000  1.0 0.0821802311
C  C61  1  0.46667000  0.00479000  0.57087000  1.0 -0.0801755317
C  C62  1  0.41740000  0.00258000  0.62234000  1.0 0.0167115747
C  C63  1  0.43500000  0.97680000  0.68140000  1.0 -0.3281296883
C  C64  1  0.96438000  0.75224000  0.04950000  1.0 -0.1277279792
C  C65  1  0.96540000  0.70096000  0.04998000  1.0 -0.2163828704
C  C66  1  0.00068000  0.61972000  0.01708000  1.0 0.0591679271
C  C67  1  0.04371000  0.56569000  0.03371000  1.0 -0.1385283439
C  C68  1  0.04381000  0.51419000  0.03581000  1.0 -0.1640947207
C  C69  1  0.00077000  0.51683000  0.02137000  1.0 0.0821802311
C  C70  1  0.95767000  0.57087000  0.00479000  1.0 -0.0801755317
C  C71  1  0.95768000  0.62234000  0.00258000  1.0 0.0167115747
C  C72  1  0.90680000  0.68140000  0.97680000  1.0 -0.3281296883
C  C73  1  0.96438000  0.04950000  0.23388000  1.0 -0.1277279792
C  C74  1  0.96540000  0.04998000  0.28366000  1.0 -0.2145073855
C  C75  1  0.00068000  0.01708000  0.36252000  1.0 0.0591679271
C  C76  1  0.04371000  0.03371000  0.35689000  1.0 -0.1385283439
C  C77  1  0.04381000  0.03581000  0.40619000  1.0 -0.1640947207
C  C78  1  0.00077000  0.02137000  0.46103000  1.0 0.0821802311
C  C79  1  0.95767000  0.00479000  0.46667000  1.0 -0.0801755317
C  C80  1  0.95768000  0.00258000  0.41740000  1.0 0.0167115747
C  C81  1  0.90680000  0.97680000  0.43500000  1.0 -0.3281296883
C  C82  1  0.23388000  0.75224000  0.96438000  1.0 -0.1277279792
C  C83  1  0.28366000  0.70096000  0.96540000  1.0 -0.2145073855
C  C84  1  0.36252000  0.61972000  0.00068000  1.0 0.0591679271
C  C85  1  0.35689000  0.56569000  0.04371000  1.0 -0.1385283439
C  C86  1  0.40619000  0.51419000  0.04381000  1.0 -0.1640947207
C  C87  1  0.46103000  0.51683000  0.00077000  1.0 0.0821802311
C  C88  1  0.46667000  0.57087000  0.95767000  1.0 -0.0801755317
C  C89  1  0.41740000  0.62234000  0.95768000  1.0 0.0167115747
C  C90  1  0.43500000  0.68140000  0.90680000  1.0 -0.3281296883
C  C91  1  0.75224000  0.23388000  0.04950000  1.0 -0.1277279792
C  C92  1  0.70096000  0.28366000  0.04998000  1.0 -0.2163828704
C  C93  1  0.61972000  0.36252000  0.01708000  1.0 0.0591679271
C  C94  1  0.56569000  0.35689000  0.03371000  1.0 -0.1385283439
C  C95  1  0.51419000  0.40619000  0.03581000  1.0 -0.1640947207
C  C96  1  0.51683000  0.46103000  0.02137000  1.0 0.0821802311
C  C97  1  0.57087000  0.46667000  0.00479000  1.0 -0.0801755317
C  C98  1  0.62234000  0.41740000  0.00258000  1.0 0.0167115747
C  C99  1  0.68140000  0.43500000  0.97680000  1.0 -0.3281296883
C  C100  1  0.04950000  0.96438000  0.75224000  1.0 -0.1277279792
C  C101  1  0.04998000  0.96540000  0.70096000  1.0 -0.2145073855
C  C102  1  0.01708000  0.00068000  0.61972000  1.0 0.0591679271
C  C103  1  0.03371000  0.04371000  0.56569000  1.0 -0.1385283439
C  C104  1  0.03581000  0.04381000  0.51419000  1.0 -0.1640947207
C  C105  1  0.02137000  0.00077000  0.51683000  1.0 0.0821802311
C  C106  1  0.00479000  0.95767000  0.57087000  1.0 -0.0801755317
C  C107  1  0.00258000  0.95768000  0.62234000  1.0 0.0167115747
C  C108  1  0.97680000  0.90680000  0.68140000  1.0 -0.3281296883
C  C109  1  0.96438000  0.23388000  0.04950000  1.0 -0.1277279792
C  C110  1  0.96540000  0.28366000  0.04998000  1.0 -0.2163828704
C  C111  1  0.00068000  0.36252000  0.01708000  1.0 0.0591679271
C  C112  1  0.04371000  0.35689000  0.03371000  1.0 -0.1385283439
C  C113  1  0.04381000  0.40619000  0.03581000  1.0 -0.1640947207
C  C114  1  0.00077000  0.46103000  0.02137000  1.0 0.0821802311
C  C115  1  0.95767000  0.46667000  0.00479000  1.0 -0.0801755317
C  C116  1  0.95768000  0.41740000  0.00258000  1.0 0.0167115747
C  C117  1  0.90680000  0.43500000  0.97680000  1.0 -0.3281296883
C  C118  1  0.23388000  0.96438000  0.75224000  1.0 -0.1277279792
C  C119  1  0.28366000  0.96540000  0.70096000  1.0 -0.2145073855
C  C120  1  0.36252000  0.00068000  0.61972000  1.0 0.0591679271
C  C121  1  0.35689000  0.04371000  0.56569000  1.0 -0.1385283439
C  C122  1  0.40619000  0.04381000  0.51419000  1.0 -0.1640947207
C  C123  1  0.46103000  0.00077000  0.51683000  1.0 0.0821802311
C  C124  1  0.46667000  0.95767000  0.57087000  1.0 -0.0801755317
C  C125  1  0.41740000  0.95768000  0.62234000  1.0 0.0167115747
C  C126  1  0.43500000  0.90680000  0.68140000  1.0 -0.3281296883
C  C127  1  0.75224000  0.04950000  0.23388000  1.0 -0.1277279792
C  C128  1  0.70096000  0.04998000  0.28366000  1.0 -0.2145073855
C  C129  1  0.61972000  0.01708000  0.36252000  1.0 0.0591679271
C  C130  1  0.56569000  0.03371000  0.35689000  1.0 -0.1385283439
C  C131  1  0.51419000  0.03581000  0.40619000  1.0 -0.1640947207
C  C132  1  0.51683000  0.02137000  0.46103000  1.0 0.0821802311
C  C133  1  0.57087000  0.00479000  0.46667000  1.0 -0.0801755317
C  C134  1  0.62234000  0.00258000  0.41740000  1.0 0.0167115747
C  C135  1  0.68140000  0.97680000  0.43500000  1.0 -0.3281296883
C  C136  1  0.04950000  0.75224000  0.96438000  1.0 -0.1277279792
C  C137  1  0.04998000  0.70096000  0.96540000  1.0 -0.2145073855
C  C138  1  0.01708000  0.61972000  0.00068000  1.0 0.0591679271
C  C139  1  0.03371000  0.56569000  0.04371000  1.0 -0.1385283439
C  C140  1  0.03581000  0.51419000  0.04381000  1.0 -0.1640947207
C  C141  1  0.02137000  0.51683000  0.00077000  1.0 0.0821802311
C  C142  1  0.00479000  0.57087000  0.95767000  1.0 -0.0801755317
C  C143  1  0.00258000  0.62234000  0.95768000  1.0 0.0167115747
C  C144  1  0.97680000  0.68140000  0.90680000  1.0 -0.3281296883
C  C145  1  0.23388000  0.04950000  0.96438000  1.0 -0.1277279792
C  C146  1  0.28366000  0.04998000  0.96540000  1.0 -0.2145073855
C  C147  1  0.36252000  0.01708000  0.00068000  1.0 0.0591679271
C  C148  1  0.35689000  0.03371000  0.04371000  1.0 -0.1385283439
C  C149  1  0.40619000  0.03581000  0.04381000  1.0 -0.1640947207
C  C150  1  0.46103000  0.02137000  0.00077000  1.0 0.0821802311
C  C151  1  0.46667000  0.00479000  0.95767000  1.0 -0.0801755317
C  C152  1  0.41740000  0.00258000  0.95768000  1.0 0.0167115747
C  C153  1  0.43500000  0.97680000  0.90680000  1.0 -0.3281296883
C  C154  1  0.96438000  0.75224000  0.23388000  1.0 -0.1277279792
C  C155  1  0.96540000  0.70096000  0.28366000  1.0 -0.2145073855
C  C156  1  0.00068000  0.61972000  0.36252000  1.0 0.0591679271
C  C157  1  0.04371000  0.56569000  0.35689000  1.0 -0.1385283439
C  C158  1  0.04381000  0.51419000  0.40619000  1.0 -0.1640947207
C  C159  1  0.00077000  0.51683000  0.46103000  1.0 0.0821802311
C  C160  1  0.95767000  0.57087000  0.46667000  1.0 -0.0801755317
C  C161  1  0.95768000  0.62234000  0.41740000  1.0 0.0167115747
C  C162  1  0.90680000  0.68140000  0.43500000  1.0 -0.3281296883
C  C163  1  0.04950000  0.23388000  0.75224000  1.0 -0.1277279792
C  C164  1  0.04998000  0.28366000  0.70096000  1.0 -0.2145073855
C  C165  1  0.01708000  0.36252000  0.61972000  1.0 0.0591679271
C  C166  1  0.03371000  0.35689000  0.56569000  1.0 -0.1385283439
C  C167  1  0.03581000  0.40619000  0.51419000  1.0 -0.1640947207
C  C168  1  0.02137000  0.46103000  0.51683000  1.0 0.0821802311
C  C169  1  0.00479000  0.46667000  0.57087000  1.0 -0.0801755317
C  C170  1  0.00258000  0.41740000  0.62234000  1.0 0.0167115747
C  C171  1  0.97680000  0.43500000  0.68140000  1.0 -0.3281296883
C  C172  1  0.75224000  0.96438000  0.04950000  1.0 -0.1277279792
C  C173  1  0.70096000  0.96540000  0.04998000  1.0 -0.2145073855
C  C174  1  0.61972000  0.00068000  0.01708000  1.0 0.0591679271
C  C175  1  0.56569000  0.04371000  0.03371000  1.0 -0.1385283439
C  C176  1  0.51419000  0.04381000  0.03581000  1.0 -0.1640947207
C  C177  1  0.51683000  0.00077000  0.02137000  1.0 0.0821802311
C  C178  1  0.57087000  0.95767000  0.00479000  1.0 -0.0801755317
C  C179  1  0.62234000  0.95768000  0.00258000  1.0 0.0167115747
C  C180  1  0.68140000  0.90680000  0.97680000  1.0 -0.3281296883
C  C181  1  0.04950000  0.96438000  0.23388000  1.0 -0.1277279792
C  C182  1  0.04998000  0.96540000  0.28366000  1.0 -0.2145073855
C  C183  1  0.01708000  0.00068000  0.36252000  1.0 0.0591679271
C  C184  1  0.03371000  0.04371000  0.35689000  1.0 -0.1385283439
C  C185  1  0.03581000  0.04381000  0.40619000  1.0 -0.1640947207
C  C186  1  0.02137000  0.00077000  0.46103000  1.0 0.0821802311
C  C187  1  0.00479000  0.95767000  0.46667000  1.0 -0.0801755317
C  C188  1  0.00258000  0.95768000  0.41740000  1.0 0.0167115747
C  C189  1  0.97680000  0.90680000  0.43500000  1.0 -0.3281296883
C  C190  1  0.75224000  0.23388000  0.96438000  1.0 -0.1277279792
C  C191  1  0.70096000  0.28366000  0.96540000  1.0 -0.2163828704
C  C192  1  0.61972000  0.36252000  0.00068000  1.0 0.0591679271
C  C193  1  0.56569000  0.35689000  0.04371000  1.0 -0.1385283439
C  C194  1  0.51419000  0.40619000  0.04381000  1.0 -0.1640947207
C  C195  1  0.51683000  0.46103000  0.00077000  1.0 0.0821802311
C  C196  1  0.57087000  0.46667000  0.95767000  1.0 -0.0801755317
C  C197  1  0.62234000  0.41740000  0.95768000  1.0 0.0167115747
C  C198  1  0.68140000  0.43500000  0.90680000  1.0 -0.3281296883
C  C199  1  0.23388000  0.75224000  0.04950000  1.0 -0.1277279792
C  C200  1  0.28366000  0.70096000  0.04998000  1.0 -0.2163828704
C  C201  1  0.36252000  0.61972000  0.01708000  1.0 0.0591679271
C  C202  1  0.35689000  0.56569000  0.03371000  1.0 -0.1385283439
C  C203  1  0.40619000  0.51419000  0.03581000  1.0 -0.1640947207
C  C204  1  0.46103000  0.51683000  0.02137000  1.0 0.0821802311
C  C205  1  0.46667000  0.57087000  0.00479000  1.0 -0.0801755317
C  C206  1  0.41740000  0.62234000  0.00258000  1.0 0.0167115747
C  C207  1  0.43500000  0.68140000  0.97680000  1.0 -0.3281296883
C  C208  1  0.96438000  0.04950000  0.75224000  1.0 -0.1277279792
C  C209  1  0.96540000  0.04998000  0.70096000  1.0 -0.2145073855
C  C210  1  0.00068000  0.01708000  0.61972000  1.0 0.0591679271
C  C211  1  0.04371000  0.03371000  0.56569000  1.0 -0.1385283439
C  C212  1  0.04381000  0.03581000  0.51419000  1.0 -0.1640947207
C  C213  1  0.00077000  0.02137000  0.51683000  1.0 0.0821802311
C  C214  1  0.95767000  0.00479000  0.57087000  1.0 -0.0801755317
C  C215  1  0.95768000  0.00258000  0.62234000  1.0 0.0167115747
C  C216  1  0.90680000  0.97680000  0.68140000  1.0 -0.3281296883
C  C217  1  0.16015000  0.00145000  0.00145000  1.0 0.6388940519
C  C218  1  0.21126000  0.00460000  0.00460000  1.0 -0.0020379597
C  C219  1  0.30818000  0.00864000  0.00864000  1.0 0.070350298
C  C220  1  0.00145000  0.16015000  0.83695000  1.0 0.6388940519
C  C221  1  0.00460000  0.21126000  0.77954000  1.0 -0.0020379597
C  C222  1  0.00864000  0.30818000  0.67454000  1.0 0.070350298
C  C223  1  0.00145000  0.83695000  0.16015000  1.0 0.6388940519
C  C224  1  0.00460000  0.77954000  0.21126000  1.0 -0.0020379597
C  C225  1  0.00864000  0.67454000  0.30818000  1.0 0.070350298
C  C226  1  0.83695000  0.00145000  0.00145000  1.0 0.6388940519
C  C227  1  0.77954000  0.00460000  0.00460000  1.0 -0.0020379597
C  C228  1  0.67454000  0.00864000  0.00864000  1.0 0.070350298
C  C229  1  0.00145000  0.16015000  0.00145000  1.0 0.6388940519
C  C230  1  0.00460000  0.21126000  0.00460000  1.0 -0.0020379597
C  C231  1  0.00864000  0.30818000  0.00864000  1.0 0.070350298
C  C232  1  0.83695000  0.00145000  0.16015000  1.0 0.6388940519
C  C233  1  0.77954000  0.00460000  0.21126000  1.0 -0.0020379597
C  C234  1  0.67454000  0.00864000  0.30818000  1.0 0.070350298
C  C235  1  0.16015000  0.00145000  0.83695000  1.0 0.6388940519
C  C236  1  0.21126000  0.00460000  0.77954000  1.0 -0.0020379597
C  C237  1  0.30818000  0.00864000  0.67454000  1.0 0.070350298
C  C238  1  0.00145000  0.83695000  0.00145000  1.0 0.6388940519
C  C239  1  0.00460000  0.77954000  0.00460000  1.0 -0.0020379597
C  C240  1  0.00864000  0.67454000  0.00864000  1.0 0.070350298
C  C241  1  0.00145000  0.00145000  0.16015000  1.0 0.6388940519
C  C242  1  0.00460000  0.00460000  0.21126000  1.0 -0.0020379597
C  C243  1  0.00864000  0.00864000  0.30818000  1.0 0.070350298
C  C244  1  0.16015000  0.83695000  0.00145000  1.0 0.6388940519
C  C245  1  0.21126000  0.77954000  0.00460000  1.0 -0.0020379597
C  C246  1  0.30818000  0.67454000  0.00864000  1.0 0.070350298
C  C247  1  0.83695000  0.16015000  0.00145000  1.0 0.6388940519
C  C248  1  0.77954000  0.21126000  0.00460000  1.0 -0.0020379597
C  C249  1  0.67454000  0.30818000  0.00864000  1.0 0.070350298
C  C250  1  0.00145000  0.00145000  0.83695000  1.0 0.6388940519
C  C251  1  0.00460000  0.00460000  0.77954000  1.0 -0.0020379597
C  C252  1  0.00864000  0.00864000  0.67454000  1.0 0.070350298
C  C253  1  0.20737000  0.00779000  0.29363000  1.0 -0.0960737163
C  C254  1  0.19927000  0.96181000  0.29513000  1.0 -0.2352703228
C  C255  1  0.24850000  0.82770000  0.29530000  1.0 -0.0801755317
C  C256  1  0.23649000  0.88291000  0.25189000  1.0 0.0508802657
C  C257  1  0.22064000  0.89036000  0.20744000  1.0 -0.1099253204
C  C258  1  0.21690000  0.84250000  0.20630000  1.0 -0.186438753
C  C259  1  0.22881000  0.78719000  0.24981000  1.0 -0.0223167969
C  C260  1  0.24456000  0.77984000  0.29436000  1.0 -0.0960737163
C  C261  1  0.00779000  0.20737000  0.49121000  1.0 -0.0960737163
C  C262  1  0.96181000  0.19927000  0.54379000  1.0 -0.2338015956
C  C263  1  0.82770000  0.24850000  0.62850000  1.0 -0.0801755317
C  C264  1  0.88291000  0.23649000  0.62871000  1.0 0.0508802657
C  C265  1  0.89036000  0.22064000  0.68156000  1.0 -0.1099253204
C  C266  1  0.84250000  0.21690000  0.73430000  1.0 -0.186438753
C  C267  1  0.78719000  0.22881000  0.73419000  1.0 -0.0223167969
C  C268  1  0.77984000  0.24456000  0.68124000  1.0 -0.0960737163
C  C269  1  0.29363000  0.49121000  0.20737000  1.0 -0.0960737163
C  C270  1  0.29513000  0.54379000  0.19927000  1.0 -0.2352703228
C  C271  1  0.29530000  0.62850000  0.24850000  1.0 -0.0801755317
C  C272  1  0.25189000  0.62871000  0.23649000  1.0 0.0508802657
C  C273  1  0.20744000  0.68156000  0.22064000  1.0 -0.1099253204
C  C274  1  0.20630000  0.73430000  0.21690000  1.0 -0.186438753
C  C275  1  0.24981000  0.73419000  0.22881000  1.0 -0.0223167969
C  C276  1  0.29436000  0.68124000  0.24456000  1.0 -0.0921487147
C  C277  1  0.49121000  0.29363000  0.00779000  1.0 -0.0960737163
C  C278  1  0.54379000  0.29513000  0.96181000  1.0 -0.2352703228
C  C279  1  0.62850000  0.29530000  0.82770000  1.0 -0.0801755317
C  C280  1  0.62871000  0.25189000  0.88291000  1.0 0.0508802657
C  C281  1  0.68156000  0.20744000  0.89036000  1.0 -0.1099253204
C  C282  1  0.73430000  0.20630000  0.84250000  1.0 -0.186438753
C  C283  1  0.73419000  0.24981000  0.78719000  1.0 -0.0223167969
C  C284  1  0.68124000  0.29436000  0.77984000  1.0 -0.0960737163
C  C285  1  0.29363000  0.20737000  0.00779000  1.0 -0.0960737163
C  C286  1  0.29513000  0.19927000  0.96181000  1.0 -0.2352703228
C  C287  1  0.29530000  0.24850000  0.82770000  1.0 -0.0801755317
C  C288  1  0.25189000  0.23649000  0.88291000  1.0 0.0508802657
C  C289  1  0.20744000  0.22064000  0.89036000  1.0 -0.1099253204
C  C290  1  0.20630000  0.21690000  0.84250000  1.0 -0.186438753
C  C291  1  0.24981000  0.22881000  0.78719000  1.0 -0.0223167969
C  C292  1  0.29436000  0.24456000  0.77984000  1.0 -0.0960737163
C  C293  1  0.49121000  0.00779000  0.20737000  1.0 -0.0960737163
C  C294  1  0.54379000  0.96181000  0.19927000  1.0 -0.2352703228
C  C295  1  0.62850000  0.82770000  0.24850000  1.0 -0.0801755317
C  C296  1  0.62871000  0.88291000  0.23649000  1.0 0.0508802657
C  C297  1  0.68156000  0.89036000  0.22064000  1.0 -0.1099253204
C  C298  1  0.73430000  0.84250000  0.21690000  1.0 -0.186438753
C  C299  1  0.73419000  0.78719000  0.22881000  1.0 -0.0223167969
C  C300  1  0.68124000  0.77984000  0.24456000  1.0 -0.0960737163
C  C301  1  0.20737000  0.29363000  0.49121000  1.0 -0.0960737163
C  C302  1  0.19927000  0.29513000  0.54379000  1.0 -0.2352703228
C  C303  1  0.24850000  0.29530000  0.62850000  1.0 -0.0801755317
C  C304  1  0.23649000  0.25189000  0.62871000  1.0 0.0508802657
C  C305  1  0.22064000  0.20744000  0.68156000  1.0 -0.1099253204
C  C306  1  0.21690000  0.20630000  0.73430000  1.0 -0.186438753
C  C307  1  0.22881000  0.24981000  0.73419000  1.0 -0.0223167969
C  C308  1  0.24456000  0.29436000  0.68124000  1.0 -0.0921487147
C  C309  1  0.00779000  0.49121000  0.29363000  1.0 -0.0960737163
C  C310  1  0.96181000  0.54379000  0.29513000  1.0 -0.2338015956
C  C311  1  0.82770000  0.62850000  0.29530000  1.0 -0.0801755317
C  C312  1  0.88291000  0.62871000  0.25189000  1.0 0.0508802657
C  C313  1  0.89036000  0.68156000  0.20744000  1.0 -0.1099253204
C  C314  1  0.84250000  0.73430000  0.20630000  1.0 -0.186438753
C  C315  1  0.78719000  0.73419000  0.24981000  1.0 -0.0223167969
C  C316  1  0.77984000  0.68124000  0.29436000  1.0 -0.0960737163
C  C317  1  0.00779000  0.29363000  0.20737000  1.0 -0.0960737163
C  C318  1  0.96181000  0.29513000  0.19927000  1.0 -0.2338015956
C  C319  1  0.82770000  0.29530000  0.24850000  1.0 -0.0801755317
C  C320  1  0.88291000  0.25189000  0.23649000  1.0 0.0508802657
C  C321  1  0.89036000  0.20744000  0.22064000  1.0 -0.1099253204
C  C322  1  0.84250000  0.20630000  0.21690000  1.0 -0.186438753
C  C323  1  0.78719000  0.24981000  0.22881000  1.0 -0.0223167969
C  C324  1  0.77984000  0.29436000  0.24456000  1.0 -0.0960737163
C  C325  1  0.20737000  0.49121000  0.00779000  1.0 -0.0960737163
C  C326  1  0.19927000  0.54379000  0.96181000  1.0 -0.2352703228
C  C327  1  0.24850000  0.62850000  0.82770000  1.0 -0.0801755317
C  C328  1  0.23649000  0.62871000  0.88291000  1.0 0.0508802657
C  C329  1  0.22064000  0.68156000  0.89036000  1.0 -0.1099253204
C  C330  1  0.21690000  0.73430000  0.84250000  1.0 -0.186438753
C  C331  1  0.22881000  0.73419000  0.78719000  1.0 -0.0223167969
C  C332  1  0.24456000  0.68124000  0.77984000  1.0 -0.0960737163
C  C333  1  0.49121000  0.20737000  0.29363000  1.0 -0.0960737163
C  C334  1  0.54379000  0.19927000  0.29513000  1.0 -0.2352703228
C  C335  1  0.62850000  0.24850000  0.29530000  1.0 -0.0801755317
C  C336  1  0.62871000  0.23649000  0.25189000  1.0 0.0508802657
C  C337  1  0.68156000  0.22064000  0.20744000  1.0 -0.1099253204
C  C338  1  0.73430000  0.21690000  0.20630000  1.0 -0.186438753
C  C339  1  0.73419000  0.22881000  0.24981000  1.0 -0.0223167969
C  C340  1  0.68124000  0.24456000  0.29436000  1.0 -0.0921487147
C  C341  1  0.29363000  0.00779000  0.49121000  1.0 -0.0960737163
C  C342  1  0.29513000  0.96181000  0.54379000  1.0 -0.2352703228
C  C343  1  0.29530000  0.82770000  0.62850000  1.0 -0.0801755317
C  C344  1  0.25189000  0.88291000  0.62871000  1.0 0.0508802657
C  C345  1  0.20744000  0.89036000  0.68156000  1.0 -0.1099253204
C  C346  1  0.20630000  0.84250000  0.73430000  1.0 -0.186438753
C  C347  1  0.24981000  0.78719000  0.73419000  1.0 -0.0223167969
C  C348  1  0.29436000  0.77984000  0.68124000  1.0 -0.0960737163
C  C349  1  0.00779000  0.20737000  0.29363000  1.0 -0.0960737163
C  C350  1  0.96181000  0.19927000  0.29513000  1.0 -0.2338015956
C  C351  1  0.82770000  0.24850000  0.29530000  1.0 -0.0801755317
C  C352  1  0.88291000  0.23649000  0.25189000  1.0 0.0508802657
C  C353  1  0.89036000  0.22064000  0.20744000  1.0 -0.1099253204
C  C354  1  0.84250000  0.21690000  0.20630000  1.0 -0.186438753
C  C355  1  0.78719000  0.22881000  0.24981000  1.0 -0.0223167969
C  C356  1  0.77984000  0.24456000  0.29436000  1.0 -0.0921487147
C  C357  1  0.20737000  0.00779000  0.49121000  1.0 -0.0960737163
C  C358  1  0.19927000  0.96181000  0.54379000  1.0 -0.2352703228
C  C359  1  0.24850000  0.82770000  0.62850000  1.0 -0.0801755317
C  C360  1  0.23649000  0.88291000  0.62871000  1.0 0.0508802657
C  C361  1  0.22064000  0.89036000  0.68156000  1.0 -0.1099253204
C  C362  1  0.21690000  0.84250000  0.73430000  1.0 -0.186438753
C  C363  1  0.22881000  0.78719000  0.73419000  1.0 -0.0223167969
C  C364  1  0.24456000  0.77984000  0.68124000  1.0 -0.0960737163
C  C365  1  0.49121000  0.29363000  0.20737000  1.0 -0.0960737163
C  C366  1  0.54379000  0.29513000  0.19927000  1.0 -0.2338015956
C  C367  1  0.62850000  0.29530000  0.24850000  1.0 -0.0801755317
C  C368  1  0.62871000  0.25189000  0.23649000  1.0 0.0508802657
C  C369  1  0.68156000  0.20744000  0.22064000  1.0 -0.1099253204
C  C370  1  0.73430000  0.20630000  0.21690000  1.0 -0.186438753
C  C371  1  0.73419000  0.24981000  0.22881000  1.0 -0.0223167969
C  C372  1  0.68124000  0.29436000  0.24456000  1.0 -0.0921487147
C  C373  1  0.29363000  0.49121000  0.00779000  1.0 -0.0960737163
C  C374  1  0.29513000  0.54379000  0.96181000  1.0 -0.2352703228
C  C375  1  0.29530000  0.62850000  0.82770000  1.0 -0.0801755317
C  C376  1  0.25189000  0.62871000  0.88291000  1.0 0.0508802657
C  C377  1  0.20744000  0.68156000  0.89036000  1.0 -0.1099253204
C  C378  1  0.20630000  0.73430000  0.84250000  1.0 -0.186438753
C  C379  1  0.24981000  0.73419000  0.78719000  1.0 -0.0223167969
C  C380  1  0.29436000  0.68124000  0.77984000  1.0 -0.0960737163
C  C381  1  0.20737000  0.29363000  0.00779000  1.0 -0.0960737163
C  C382  1  0.19927000  0.29513000  0.96181000  1.0 -0.2352703228
C  C383  1  0.24850000  0.29530000  0.82770000  1.0 -0.0801755317
C  C384  1  0.23649000  0.25189000  0.88291000  1.0 0.0508802657
C  C385  1  0.22064000  0.20744000  0.89036000  1.0 -0.1099253204
C  C386  1  0.21690000  0.20630000  0.84250000  1.0 -0.186438753
C  C387  1  0.22881000  0.24981000  0.78719000  1.0 -0.0223167969
C  C388  1  0.24456000  0.29436000  0.77984000  1.0 -0.0960737163
C  C389  1  0.00779000  0.49121000  0.20737000  1.0 -0.0960737163
C  C390  1  0.96181000  0.54379000  0.19927000  1.0 -0.2338015956
C  C391  1  0.82770000  0.62850000  0.24850000  1.0 -0.0801755317
C  C392  1  0.88291000  0.62871000  0.23649000  1.0 0.0508802657
C  C393  1  0.89036000  0.68156000  0.22064000  1.0 -0.1099253204
C  C394  1  0.84250000  0.73430000  0.21690000  1.0 -0.186438753
C  C395  1  0.78719000  0.73419000  0.22881000  1.0 -0.0223167969
C  C396  1  0.77984000  0.68124000  0.24456000  1.0 -0.0921487147
C  C397  1  0.29363000  0.20737000  0.49121000  1.0 -0.0960737163
C  C398  1  0.29513000  0.19927000  0.54379000  1.0 -0.2352703228
C  C399  1  0.29530000  0.24850000  0.62850000  1.0 -0.0801755317
C  C400  1  0.25189000  0.23649000  0.62871000  1.0 0.0508802657
C  C401  1  0.20744000  0.22064000  0.68156000  1.0 -0.1099253204
C  C402  1  0.20630000  0.21690000  0.73430000  1.0 -0.186438753
C  C403  1  0.24981000  0.22881000  0.73419000  1.0 -0.0223167969
C  C404  1  0.29436000  0.24456000  0.68124000  1.0 -0.0960737163
C  C405  1  0.49121000  0.00779000  0.29363000  1.0 -0.0960737163
C  C406  1  0.54379000  0.96181000  0.29513000  1.0 -0.2352703228
C  C407  1  0.62850000  0.82770000  0.29530000  1.0 -0.0801755317
C  C408  1  0.62871000  0.88291000  0.25189000  1.0 0.0508802657
C  C409  1  0.68156000  0.89036000  0.20744000  1.0 -0.1099253204
C  C410  1  0.73430000  0.84250000  0.20630000  1.0 -0.186438753
C  C411  1  0.73419000  0.78719000  0.24981000  1.0 -0.0223167969
C  C412  1  0.68124000  0.77984000  0.29436000  1.0 -0.0960737163
C  C413  1  0.29363000  0.00779000  0.20737000  1.0 -0.0960737163
C  C414  1  0.29513000  0.96181000  0.19927000  1.0 -0.2352703228
C  C415  1  0.29530000  0.82770000  0.24850000  1.0 -0.0801755317
C  C416  1  0.25189000  0.88291000  0.23649000  1.0 0.0508802657
C  C417  1  0.20744000  0.89036000  0.22064000  1.0 -0.1099253204
C  C418  1  0.20630000  0.84250000  0.21690000  1.0 -0.186438753
C  C419  1  0.24981000  0.78719000  0.22881000  1.0 -0.0223167969
C  C420  1  0.29436000  0.77984000  0.24456000  1.0 -0.0960737163
C  C421  1  0.49121000  0.20737000  0.00779000  1.0 -0.0960737163
C  C422  1  0.54379000  0.19927000  0.96181000  1.0 -0.2352703228
C  C423  1  0.62850000  0.24850000  0.82770000  1.0 -0.0801755317
C  C424  1  0.62871000  0.23649000  0.88291000  1.0 0.0508802657
C  C425  1  0.68156000  0.22064000  0.89036000  1.0 -0.1099253204
C  C426  1  0.73430000  0.21690000  0.84250000  1.0 -0.186438753
C  C427  1  0.73419000  0.22881000  0.78719000  1.0 -0.0223167969
C  C428  1  0.68124000  0.24456000  0.77984000  1.0 -0.0921487147
C  C429  1  0.20737000  0.49121000  0.29363000  1.0 -0.0960737163
C  C430  1  0.19927000  0.54379000  0.29513000  1.0 -0.2352703228
C  C431  1  0.24850000  0.62850000  0.29530000  1.0 -0.0801755317
C  C432  1  0.23649000  0.62871000  0.25189000  1.0 0.0508802657
C  C433  1  0.22064000  0.68156000  0.20744000  1.0 -0.1099253204
C  C434  1  0.21690000  0.73430000  0.20630000  1.0 -0.186438753
C  C435  1  0.22881000  0.73419000  0.24981000  1.0 -0.0223167969
C  C436  1  0.24456000  0.68124000  0.29436000  1.0 -0.0960737163
C  C437  1  0.00779000  0.29363000  0.49121000  1.0 -0.0960737163
C  C438  1  0.96181000  0.29513000  0.54379000  1.0 -0.2338015956
C  C439  1  0.82770000  0.29530000  0.62850000  1.0 -0.0801755317
C  C440  1  0.88291000  0.25189000  0.62871000  1.0 0.0508802657
C  C441  1  0.89036000  0.20744000  0.68156000  1.0 -0.1099253204
C  C442  1  0.84250000  0.20630000  0.73430000  1.0 -0.186438753
C  C443  1  0.78719000  0.24981000  0.73419000  1.0 -0.0223167969
C  C444  1  0.77984000  0.29436000  0.68124000  1.0 -0.0921487147
C  C445  1  0.25014000  0.08792000  0.25014000  1.0 0.6194599575
C  C446  1  0.25010000  0.03422000  0.25010000  1.0 -0.0342254825
C  C447  1  0.24960000  0.93300000  0.24960000  1.0 0.109073696
C  C448  1  0.08792000  0.25014000  0.41180000  1.0 0.6194599575
C  C449  1  0.03422000  0.25010000  0.46558000  1.0 -0.0342254825
C  C450  1  0.93300000  0.24960000  0.56780000  1.0 0.109073696
C  C451  1  0.25014000  0.41180000  0.25014000  1.0 0.6194599575
C  C452  1  0.25010000  0.46558000  0.25010000  1.0 -0.0342254825
C  C453  1  0.24960000  0.56780000  0.24960000  1.0 0.109073696
C  C454  1  0.41180000  0.25014000  0.08792000  1.0 0.6194599575
C  C455  1  0.46558000  0.25010000  0.03422000  1.0 -0.0342254825
C  C456  1  0.56780000  0.24960000  0.93300000  1.0 0.109073696
C  C457  1  0.25014000  0.25014000  0.08792000  1.0 0.6194599575
C  C458  1  0.25010000  0.25010000  0.03422000  1.0 -0.0342254825
C  C459  1  0.24960000  0.24960000  0.93300000  1.0 0.109073696
C  C460  1  0.41180000  0.08792000  0.25014000  1.0 0.6194599575
C  C461  1  0.46558000  0.03422000  0.25010000  1.0 -0.0342254825
C  C462  1  0.56780000  0.93300000  0.24960000  1.0 0.109073696
C  C463  1  0.25014000  0.25014000  0.41180000  1.0 0.6194599575
C  C464  1  0.25010000  0.25010000  0.46558000  1.0 -0.0342254825
C  C465  1  0.24960000  0.24960000  0.56780000  1.0 0.109073696
C  C466  1  0.08792000  0.41180000  0.25014000  1.0 0.6194599575
C  C467  1  0.03422000  0.46558000  0.25010000  1.0 -0.0342254825
C  C468  1  0.93300000  0.56780000  0.24960000  1.0 0.109073696
C  C469  1  0.08792000  0.25014000  0.25014000  1.0 0.6194599575
C  C470  1  0.03422000  0.25010000  0.25010000  1.0 -0.0342254825
C  C471  1  0.93300000  0.24960000  0.24960000  1.0 0.109073696
C  C472  1  0.25014000  0.41180000  0.08792000  1.0 0.6194599575
C  C473  1  0.25010000  0.46558000  0.03422000  1.0 -0.0342254825
C  C474  1  0.24960000  0.56780000  0.93300000  1.0 0.109073696
C  C475  1  0.41180000  0.25014000  0.25014000  1.0 0.6194599575
C  C476  1  0.46558000  0.25010000  0.25010000  1.0 -0.0342254825
C  C477  1  0.56780000  0.24960000  0.24960000  1.0 0.109073696
C  C478  1  0.25014000  0.08792000  0.41180000  1.0 0.6194599575
C  C479  1  0.25010000  0.03422000  0.46558000  1.0 -0.0342254825
C  C480  1  0.24960000  0.93300000  0.56780000  1.0 0.109073696
O  O1  1  0.14090000  0.04108000  0.95910000  1.0 -0.6264477168
O  O2  1  0.04108000  0.14090000  0.85892000  1.0 -0.6264477168
O  O3  1  0.95910000  0.85892000  0.14090000  1.0 -0.6264477168
O  O4  1  0.85892000  0.95910000  0.04108000  1.0 -0.6264477168
O  O5  1  0.95910000  0.14090000  0.04108000  1.0 -0.6264477168
O  O6  1  0.85892000  0.04108000  0.14090000  1.0 -0.6264477168
O  O7  1  0.14090000  0.95910000  0.85892000  1.0 -0.6264477168
O  O8  1  0.04108000  0.85892000  0.95910000  1.0 -0.6264477168
O  O9  1  0.04108000  0.95910000  0.14090000  1.0 -0.6264477168
O  O10  1  0.14090000  0.85892000  0.04108000  1.0 -0.6264477168
O  O11  1  0.85892000  0.14090000  0.95910000  1.0 -0.6264477168
O  O12  1  0.95910000  0.04108000  0.85892000  1.0 -0.6264477168
O  O13  1  0.04108000  0.14090000  0.95910000  1.0 -0.6264477168
O  O14  1  0.14090000  0.04108000  0.85892000  1.0 -0.6264477168
O  O15  1  0.85892000  0.95910000  0.14090000  1.0 -0.6264477168
O  O16  1  0.95910000  0.85892000  0.04108000  1.0 -0.6264477168
O  O17  1  0.14090000  0.95910000  0.04108000  1.0 -0.6264477168
O  O18  1  0.04108000  0.85892000  0.14090000  1.0 -0.6264477168
O  O19  1  0.95910000  0.14090000  0.85892000  1.0 -0.6264477168
O  O20  1  0.85892000  0.04108000  0.95910000  1.0 -0.6264477168
O  O21  1  0.95910000  0.04108000  0.14090000  1.0 -0.6264477168
O  O22  1  0.85892000  0.14090000  0.04108000  1.0 -0.6264477168
O  O23  1  0.14090000  0.85892000  0.95910000  1.0 -0.6264477168
O  O24  1  0.04108000  0.95910000  0.85892000  1.0 -0.6264477168
O  O25  1  0.08007000  0.97331000  0.97331000  1.0 -0.3402843122
O  O26  1  0.10695000  0.96435000  0.96435000  1.0 -0.2931335513
O  O27  1  0.97331000  0.08007000  0.97331000  1.0 -0.3402843122
O  O28  1  0.96435000  0.10695000  0.96435000  1.0 -0.2931335513
O  O29  1  0.97331000  0.97331000  0.08007000  1.0 -0.3402843122
O  O30  1  0.96435000  0.96435000  0.10695000  1.0 -0.2931335513
O  O31  1  0.97331000  0.97331000  0.97331000  1.0 -0.3402843122
O  O32  1  0.96435000  0.96435000  0.96435000  1.0 -0.2931335513
O  O33  1  0.03608000  0.03608000  0.03608000  1.0 -0.2781738817
O  O34  1  0.02679000  0.02679000  0.02679000  1.0 -0.3526029792
O  O35  1  0.03608000  0.03608000  0.89176000  1.0 -0.2781738817
O  O36  1  0.02679000  0.02679000  0.91963000  1.0 -0.3526029792
O  O37  1  0.03608000  0.89176000  0.03608000  1.0 -0.2781738817
O  O38  1  0.02679000  0.91963000  0.02679000  1.0 -0.3526029792
O  O39  1  0.89176000  0.03608000  0.03608000  1.0 -0.2727706526
O  O40  1  0.91963000  0.02679000  0.02679000  1.0 -0.3526029792
O  O41  1  0.20888000  0.10910000  0.29078000  1.0 -0.6235074295
O  O42  1  0.10910000  0.20888000  0.39124000  1.0 -0.6235074295
O  O43  1  0.29078000  0.39124000  0.20888000  1.0 -0.6235074295
O  O44  1  0.39124000  0.29078000  0.10910000  1.0 -0.6235074295
O  O45  1  0.29078000  0.20888000  0.10910000  1.0 -0.6235074295
O  O46  1  0.39124000  0.10910000  0.20888000  1.0 -0.6235074295
O  O47  1  0.20888000  0.29078000  0.39124000  1.0 -0.6235074295
O  O48  1  0.10910000  0.39124000  0.29078000  1.0 -0.6235074295
O  O49  1  0.10910000  0.29078000  0.20888000  1.0 -0.6235074295
O  O50  1  0.20888000  0.39124000  0.10910000  1.0 -0.6235074295
O  O51  1  0.39124000  0.20888000  0.29078000  1.0 -0.6235074295
O  O52  1  0.29078000  0.10910000  0.39124000  1.0 -0.6235074295
O  O53  1  0.10910000  0.20888000  0.29078000  1.0 -0.6235074295
O  O54  1  0.20888000  0.10910000  0.39124000  1.0 -0.6235074295
O  O55  1  0.39124000  0.29078000  0.20888000  1.0 -0.6235074295
O  O56  1  0.29078000  0.39124000  0.10910000  1.0 -0.6235074295
O  O57  1  0.20888000  0.29078000  0.10910000  1.0 -0.6235074295
O  O58  1  0.10910000  0.39124000  0.20888000  1.0 -0.6235074295
O  O59  1  0.29078000  0.20888000  0.39124000  1.0 -0.6235074295
O  O60  1  0.39124000  0.10910000  0.29078000  1.0 -0.6235074295
O  O61  1  0.29078000  0.10910000  0.20888000  1.0 -0.6235074295
O  O62  1  0.39124000  0.20888000  0.10910000  1.0 -0.6235074295
O  O63  1  0.20888000  0.39124000  0.29078000  1.0 -0.6235074295
O  O64  1  0.10910000  0.29078000  0.39124000  1.0 -0.6235074295
O  O65  1  0.22356000  0.22356000  0.32932000  1.0 -0.3281296883
O  O66  1  0.21424000  0.21424000  0.35728000  1.0 -0.2931335513
O  O67  1  0.22356000  0.22356000  0.22356000  1.0 -0.3281296883
O  O68  1  0.21424000  0.21424000  0.21424000  1.0 -0.2931335513
O  O69  1  0.32932000  0.22356000  0.22356000  1.0 -0.3281296883
O  O70  1  0.35728000  0.21424000  0.21424000  1.0 -0.2931335513
O  O71  1  0.22356000  0.32932000  0.22356000  1.0 -0.3281296883
O  O72  1  0.21424000  0.35728000  0.21424000  1.0 -0.2931335513
O  O73  1  0.14095000  0.28635000  0.28635000  1.0 -0.2781738817
O  O74  1  0.17041000  0.27653000  0.27653000  1.0 -0.3526029792
O  O75  1  0.28635000  0.14095000  0.28635000  1.0 -0.2781738817
O  O76  1  0.27653000  0.17041000  0.27653000  1.0 -0.3526029792
O  O77  1  0.28635000  0.28635000  0.14095000  1.0 -0.2781738817
O  O78  1  0.27653000  0.27653000  0.17041000  1.0 -0.3526029792
O  O79  1  0.28635000  0.28635000  0.28635000  1.0 -0.2781738817
O  O80  1  0.27653000  0.27653000  0.27653000  1.0 -0.3526029792
