# DDEC6 charges by PACMAN v1.1 (https://github.com/mtap-research/PACMAN-charge/)
data_GAMTOE_FSR_pacman
_symmetry_space_group_name_H-M   'P 1'
_cell_length_a   11.85700000
_cell_length_b   12.51500000
_cell_length_c   12.70090000
_cell_angle_alpha   120.28800000
_cell_angle_beta   117.03200000
_cell_angle_gamma   81.56000000
_symmetry_Int_Tables_number   1
_chemical_formula_structural   LaH9(C3O2)4
_chemical_formula_sum   'La4 H36 C48 O32'
_cell_volume   1441.28871202
_cell_formula_units_Z   4
loop_
 _symmetry_equiv_pos_site_id
 _symmetry_equiv_pos_as_xyz
  1  'x, y, z'
loop_
 _atom_site_type_symbol
 _atom_site_label
 _atom_site_symmetry_multiplicity
 _atom_site_fract_x
 _atom_site_fract_y
 _atom_site_fract_z
 _atom_site_occupancy
 _atom_site_charge
La  La1  1  0.47975000  0.83308000  0.01103000  1.0 1.8882410308
La  La2  1  0.52025000  0.16692000  0.98897000  1.0 1.8882410308
La  La3  1  0.80285000  0.47983000  0.23593000  1.0 1.782959201
La  La4  1  0.19715000  0.52017000  0.76407000  1.0 1.782959201
H  H1  1  0.56640000  0.82280000  0.51900000  1.0 0.1312345049
H  H2  1  0.43360000  0.17720000  0.48100000  1.0 0.1312345049
H  H3  1  0.87750000  0.83500000  0.84470000  1.0 0.1312345049
H  H4  1  0.12250000  0.16500000  0.15530000  1.0 0.1312345049
H  H5  1  0.91780000  0.90980000  0.58800000  1.0 0.1385718515
H  H6  1  0.08220000  0.09020000  0.41200000  1.0 0.1385718515
H  H7  1  0.59340000  0.91260000  0.39540000  1.0 0.1510640186
H  H8  1  0.40660000  0.08740000  0.60460000  1.0 0.1510640186
H  H9  1  0.73160000  0.92650000  0.40820000  1.0 0.1604907518
H  H10  1  0.26840000  0.07350000  0.59180000  1.0 0.1604907518
H  H11  1  0.67270000  0.75900000  0.79170000  1.0 0.1604907518
H  H12  1  0.32730000  0.24100000  0.20830000  1.0 0.1604907518
H  H13  1  0.55180000  0.73470000  0.65220000  1.0 0.1510640186
H  H14  1  0.44820000  0.26530000  0.34780000  1.0 0.1510640186
H  H15  1  0.07270000  0.94480000  0.91880000  1.0 0.1510640186
H  H16  1  0.92730000  0.05520000  0.08120000  1.0 0.1510640186
H  H17  1  0.08720000  0.98450000  0.82420000  1.0 0.1510640186
H  H18  1  0.91280000  0.01550000  0.17580000  1.0 0.1510640186
H  H19  1  0.40640000  0.64700000  0.20310000  1.0 0.1312345049
H  H20  1  0.59360000  0.35300000  0.79690000  1.0 0.1312345049
H  H21  1  0.34310000  0.57720000  0.45110000  1.0 0.1246315693
H  H22  1  0.65690000  0.42280000  0.54890000  1.0 0.1246315693
H  H23  1  0.15200000  0.83040000  0.34650000  1.0 0.1312345049
H  H24  1  0.84800000  0.16960000  0.65350000  1.0 0.1312345049
H  H25  1  0.16450000  0.85870000  0.18150000  1.0 0.1510640186
H  H26  1  0.83550000  0.14130000  0.81850000  1.0 0.1510640186
H  H27  1  0.31290000  0.87920000  0.22580000  1.0 0.1604907518
H  H28  1  0.68710000  0.12080000  0.77420000  1.0 0.1604907518
H  H29  1  0.50630000  0.48610000  0.39560000  1.0 0.1385718515
H  H30  1  0.49370000  0.51390000  0.60440000  1.0 0.1385718515
H  H31  1  0.58100000  0.57480000  0.38650000  1.0 0.1604907518
H  H32  1  0.41900000  0.42520000  0.61350000  1.0 0.1604907518
H  H33  1  0.22040000  0.71450000  0.57090000  1.0 0.1510640186
H  H34  1  0.77960000  0.28550000  0.42910000  1.0 0.1510640186
H  H35  1  0.15200000  0.82120000  0.53670000  1.0 0.1510640186
H  H36  1  0.84800000  0.17880000  0.46330000  1.0 0.1510640186
C  C1  1  0.73350000  0.86640000  0.53320000  1.0 0.1891837581
C  C2  1  0.26650000  0.13360000  0.46680000  1.0 0.1891837581
C  C3  1  0.65620000  0.83590000  0.57230000  1.0 -0.2213694075
C  C4  1  0.34380000  0.16410000  0.42770000  1.0 -0.2213694075
C  C5  1  0.70900000  0.82440000  0.68900000  1.0 0.1891837581
C  C6  1  0.29100000  0.17560000  0.31100000  1.0 0.1891837581
C  C7  1  0.84070000  0.84490000  0.76670000  1.0 -0.2308827149
C  C8  1  0.15930000  0.15510000  0.23330000  1.0 -0.2308827149
C  C9  1  0.91890000  0.87950000  0.73190000  1.0 0.1891837581
C  C10  1  0.08110000  0.12050000  0.26810000  1.0 0.1849174431
C  C11  1  0.86460000  0.88850000  0.61380000  1.0 -0.2389619072
C  C12  1  0.13540000  0.11150000  0.38620000  1.0 -0.2389619072
C  C13  1  0.67320000  0.87280000  0.40260000  1.0 -0.4214096139
C  C14  1  0.32680000  0.12720000  0.59740000  1.0 -0.4214096139
C  C15  1  0.64300000  0.74760000  0.27450000  1.0 0.6794184228
C  C16  1  0.35700000  0.25240000  0.72550000  1.0 0.6794184228
C  C17  1  0.62380000  0.79640000  0.73360000  1.0 -0.4126709173
C  C18  1  0.37620000  0.20360000  0.26640000  1.0 -0.4126709173
C  C19  1  0.57200000  0.91180000  0.81190000  1.0 0.6593450686
C  C20  1  0.42800000  0.08820000  0.18810000  1.0 0.6593450686
C  C21  1  0.06020000  0.91390000  0.82510000  1.0 -0.3992635975
C  C22  1  0.93980000  0.08610000  0.17490000  1.0 -0.3992635975
C  C23  1  0.14990000  0.81530000  0.79680000  1.0 0.6676978251
C  C24  1  0.85010000  0.18470000  0.20320000  1.0 0.6676978251
C  C25  1  0.27220000  0.74670000  0.25940000  1.0 0.1891837581
C  C26  1  0.72780000  0.25330000  0.74060000  1.0 0.1891837581
C  C27  1  0.36330000  0.66230000  0.25590000  1.0 -0.2389619072
C  C28  1  0.63670000  0.33770000  0.74410000  1.0 -0.2389619072
C  C29  1  0.39210000  0.59990000  0.32900000  1.0 0.1891837581
C  C30  1  0.60790000  0.40010000  0.67100000  1.0 0.1891837581
C  C31  1  0.32700000  0.62200000  0.40450000  1.0 -0.2389619072
C  C32  1  0.67300000  0.37800000  0.59550000  1.0 -0.2389619072
C  C33  1  0.23870000  0.70870000  0.41300000  1.0 0.1678829571
C  C34  1  0.76130000  0.29130000  0.58700000  1.0 0.1678829571
C  C35  1  0.21190000  0.77080000  0.34070000  1.0 -0.2308827149
C  C36  1  0.78810000  0.22920000  0.65930000  1.0 -0.2308827149
C  C37  1  0.24130000  0.81540000  0.18060000  1.0 -0.3920522401
C  C38  1  0.75870000  0.18460000  0.81940000  1.0 -0.3920522401
C  C39  1  0.21810000  0.72670000  0.03450000  1.0 0.6676978251
C  C40  1  0.78190000  0.27330000  0.96550000  1.0 0.6676978251
C  C41  1  0.50110000  0.52010000  0.33830000  1.0 -0.4214096139
C  C42  1  0.49890000  0.47990000  0.66170000  1.0 -0.4214096139
C  C43  1  0.49640000  0.41240000  0.20590000  1.0 0.6593450686
C  C44  1  0.50360000  0.58760000  0.79410000  1.0 0.6593450686
C  C45  1  0.16810000  0.73270000  0.49610000  1.0 -0.3920522401
C  C46  1  0.83190000  0.26730000  0.50390000  1.0 -0.3920522401
C  C47  1  0.04320000  0.65010000  0.40410000  1.0 0.6259702226
C  C48  1  0.95680000  0.34990000  0.59590000  1.0 0.6259702226
O  O1  1  0.59260000  0.74570000  0.16150000  1.0 -0.5781711707
O  O2  1  0.40740000  0.25430000  0.83850000  1.0 -0.5781711707
O  O3  1  0.66850000  0.65072000  0.28300000  1.0 -0.5579549739
O  O4  1  0.33150000  0.34928000  0.71700000  1.0 -0.5579549739
O  O5  1  0.57240000  0.00550000  0.80200000  1.0 -0.5579549739
O  O6  1  0.42760000  0.99450000  0.19800000  1.0 -0.5579549739
O  O7  1  0.52900000  0.90990000  0.88670000  1.0 -0.6218250612
O  O8  1  0.47100000  0.09010000  0.11330000  1.0 -0.6218250612
O  O9  1  0.26660000  0.85640000  0.85350000  1.0 -0.5990423778
O  O10  1  0.73340000  0.14360000  0.14650000  1.0 -0.5990423778
O  O11  1  0.10980000  0.70240000  0.72670000  1.0 -0.5496896425
O  O12  1  0.89020000  0.29760000  0.27330000  1.0 -0.5496896425
O  O13  1  0.30500000  0.72160000  0.99980000  1.0 -0.6781222889
O  O14  1  0.69500000  0.27840000  0.00020000  1.0 -0.6781222889
O  O15  1  0.11590000  0.65620000  0.95020000  1.0 -0.515109382
O  O16  1  0.88410000  0.34380000  0.04980000  1.0 -0.515109382
O  O17  1  0.39490000  0.34600000  0.11090000  1.0 -0.5048552373
O  O18  1  0.60510000  0.65400000  0.88910000  1.0 -0.5063929577
O  O19  1  0.60170000  0.38590000  0.19830000  1.0 -0.6781222889
O  O20  1  0.39830000  0.61410000  0.80170000  1.0 -0.6781222889
O  O21  1  0.94030000  0.69380000  0.36090000  1.0 -0.5781711707
O  O22  1  0.05970000  0.30620000  0.63910000  1.0 -0.5781711707
O  O23  1  0.04330000  0.53460000  0.36820000  1.0 -0.5063929577
O  O24  1  0.95670000  0.46540000  0.63180000  1.0 -0.5063929577
O  O25  1  0.69660000  0.94970000  0.17420000  1.0 -0.2766232112
O  O26  1  0.30340000  0.05030000  0.82580000  1.0 -0.2766232112
O  O27  1  0.83690000  0.56770000  0.47770000  1.0 -0.0587562131
O  O28  1  0.16310000  0.43230000  0.52230000  1.0 -0.0587562131
O  O29  1  0.74430000  0.55090000  0.06460000  1.0 -0.3992635975
O  O30  1  0.25570000  0.44910000  0.93540000  1.0 -0.3992635975
O  O31  1  0.42560000  0.50820000  0.97500000  1.0 0.1312345049
O  O32  1  0.57440000  0.49180000  0.02500000  1.0 0.1312345049
