# DDEC6 charges by PACMAN v1.1 (https://github.com/mtap-research/PACMAN-charge/)
data_GANBED01_ASR_pacman
_symmetry_space_group_name_H-M   'P 1'
_cell_length_a   16.09850000
_cell_length_b   16.09850000
_cell_length_c   17.02870000
_cell_angle_alpha   90.00000000
_cell_angle_beta   90.00000000
_cell_angle_gamma   90.00000000
_symmetry_Int_Tables_number   1
_chemical_formula_structural   Ni2H56(C12N7)3
_chemical_formula_sum   'Ni8 H224 C144 N84'
_cell_volume   4413.18687910
_cell_formula_units_Z   4
loop_
 _symmetry_equiv_pos_site_id
 _symmetry_equiv_pos_as_xyz
  1  'x, y, z'
loop_
 _atom_site_type_symbol
 _atom_site_label
 _atom_site_symmetry_multiplicity
 _atom_site_fract_x
 _atom_site_fract_y
 _atom_site_fract_z
 _atom_site_occupancy
 _atom_site_charge
Ni  Ni1  1  0.25225000  0.27109000  0.27717000  1.0 0.948957947
Ni  Ni2  1  0.74775000  0.72891000  0.27717000  1.0 0.948957947
Ni  Ni3  1  0.72891000  0.25225000  0.72283000  1.0 0.948957947
Ni  Ni4  1  0.27109000  0.74775000  0.72283000  1.0 0.948957947
Ni  Ni5  1  0.24775000  0.77109000  0.22283000  1.0 0.948957947
Ni  Ni6  1  0.75225000  0.22891000  0.22283000  1.0 0.948957947
Ni  Ni7  1  0.77109000  0.75225000  0.77717000  1.0 0.948957947
Ni  Ni8  1  0.22891000  0.24775000  0.77717000  1.0 0.948957947
H  H1  1  0.91600000  0.41200000  0.97960000  1.0 0.0713663423
H  H2  1  0.08400000  0.58800000  0.97960000  1.0 0.0713663423
H  H3  1  0.00610000  0.38600000  0.95410000  1.0 0.0939966709
H  H4  1  0.99390000  0.61400000  0.95410000  1.0 0.0939966709
H  H5  1  0.88040000  0.43830000  0.87490000  1.0 0.1184460394
H  H6  1  0.11960000  0.56170000  0.87490000  1.0 0.1184460394
H  H7  1  0.97190000  0.45840000  0.84350000  1.0 0.0990505733
H  H8  1  0.02810000  0.54160000  0.84350000  1.0 0.0990505733
H  H9  1  0.92350000  0.32800000  0.79710000  1.0 0.1184460394
H  H10  1  0.07650000  0.67200000  0.79710000  1.0 0.1184460394
H  H11  1  0.00690000  0.31780000  0.84730000  1.0 0.0990505733
H  H12  1  0.99310000  0.68220000  0.84730000  1.0 0.0990505733
H  H13  1  0.91900000  0.29540000  0.88580000  1.0 0.0489127691
H  H14  1  0.08100000  0.70460000  0.88580000  1.0 0.0489127691
H  H15  1  0.94900000  0.54110000  0.10670000  1.0 0.0818651822
H  H16  1  0.05100000  0.45890000  0.10670000  1.0 0.0818651822
H  H17  1  0.92920000  0.44560000  0.09040000  1.0 0.0818651822
H  H18  1  0.07080000  0.55440000  0.09040000  1.0 0.0818651822
H  H19  1  0.82570000  0.49070000  0.99560000  1.0 0.0939966709
H  H20  1  0.17430000  0.50930000  0.99560000  1.0 0.0939966709
H  H21  1  0.84060000  0.58360000  0.02600000  1.0 0.0818651822
H  H22  1  0.15940000  0.41640000  0.02600000  1.0 0.0818651822
H  H23  1  0.72610000  0.52800000  0.08940000  1.0 0.1102347978
H  H24  1  0.27390000  0.47200000  0.08940000  1.0 0.1102347978
H  H25  1  0.78040000  0.45130000  0.12010000  1.0 0.1317351907
H  H26  1  0.21960000  0.54870000  0.12010000  1.0 0.1317351907
H  H27  1  0.79810000  0.54290000  0.15260000  1.0 0.1317351907
H  H28  1  0.20190000  0.45710000  0.15260000  1.0 0.1317351907
H  H29  1  0.00530000  0.56510000  0.89490000  1.0 0.0990505733
H  H30  1  0.99470000  0.43490000  0.89490000  1.0 0.0990505733
H  H31  1  0.93930000  0.60220000  0.95550000  1.0 0.0990505733
H  H32  1  0.06070000  0.39780000  0.95550000  1.0 0.0990505733
H  H33  1  0.11560000  0.62230000  0.99160000  1.0 0.0818651822
H  H34  1  0.88440000  0.37770000  0.99160000  1.0 0.0818651822
H  H35  1  0.04140000  0.67870000  0.02420000  1.0 0.0990505733
H  H36  1  0.95860000  0.32130000  0.02420000  1.0 0.0990505733
H  H37  1  0.11030000  0.75960000  0.93560000  1.0 0.1102347978
H  H38  1  0.88970000  0.24040000  0.93560000  1.0 0.1102347978
H  H39  1  0.11200000  0.68690000  0.87150000  1.0 0.0818651822
H  H40  1  0.88800000  0.31310000  0.87150000  1.0 0.0818651822
H  H41  1  0.02640000  0.73260000  0.89210000  1.0 0.0641623646
H  H42  1  0.97360000  0.26740000  0.89210000  1.0 0.0641623646
H  H43  1  0.06590000  0.41790000  0.06180000  1.0 0.0818651822
H  H44  1  0.93410000  0.58210000  0.06180000  1.0 0.0818651822
H  H45  1  0.11570000  0.45360000  0.98790000  1.0 0.0641623646
H  H46  1  0.88430000  0.54640000  0.98790000  1.0 0.0641623646
H  H47  1  0.12550000  0.58360000  0.05370000  1.0 0.0434108446
H  H48  1  0.87450000  0.41640000  0.05370000  1.0 0.0434108446
H  H49  1  0.08310000  0.54180000  0.12890000  1.0 0.0713663423
H  H50  1  0.91690000  0.45820000  0.12890000  1.0 0.0713663423
H  H51  1  0.23150000  0.54900000  0.13750000  1.0 0.1317351907
H  H52  1  0.76850000  0.45100000  0.13750000  1.0 0.1317351907
H  H53  1  0.19660000  0.45670000  0.14850000  1.0 0.1317351907
H  H54  1  0.80340000  0.54330000  0.14850000  1.0 0.1317351907
H  H55  1  0.23670000  0.48410000  0.06650000  1.0 0.0713663423
H  H56  1  0.76330000  0.51590000  0.06650000  1.0 0.0713663423
H  H57  1  0.58800000  0.91600000  0.02040000  1.0 0.0713663423
H  H58  1  0.41200000  0.08400000  0.02040000  1.0 0.0713663423
H  H59  1  0.61400000  0.00610000  0.04590000  1.0 0.0939966709
H  H60  1  0.38600000  0.99390000  0.04590000  1.0 0.0939966709
H  H61  1  0.56170000  0.88040000  0.12510000  1.0 0.1184460394
H  H62  1  0.43830000  0.11960000  0.12510000  1.0 0.1184460394
H  H63  1  0.54160000  0.97190000  0.15650000  1.0 0.0990505733
H  H64  1  0.45840000  0.02810000  0.15650000  1.0 0.0990505733
H  H65  1  0.67200000  0.92350000  0.20290000  1.0 0.1184460394
H  H66  1  0.32800000  0.07650000  0.20290000  1.0 0.1184460394
H  H67  1  0.68220000  0.00690000  0.15270000  1.0 0.0990505733
H  H68  1  0.31780000  0.99310000  0.15270000  1.0 0.0990505733
H  H69  1  0.70460000  0.91900000  0.11420000  1.0 0.0489127691
H  H70  1  0.29540000  0.08100000  0.11420000  1.0 0.0489127691
H  H71  1  0.45890000  0.94900000  0.89330000  1.0 0.0818651822
H  H72  1  0.54110000  0.05100000  0.89330000  1.0 0.0818651822
H  H73  1  0.55440000  0.92920000  0.90960000  1.0 0.0818651822
H  H74  1  0.44560000  0.07080000  0.90960000  1.0 0.0818651822
H  H75  1  0.50930000  0.82570000  0.00440000  1.0 0.0939966709
H  H76  1  0.49070000  0.17430000  0.00440000  1.0 0.0939966709
H  H77  1  0.41640000  0.84060000  0.97400000  1.0 0.0818651822
H  H78  1  0.58360000  0.15940000  0.97400000  1.0 0.0818651822
H  H79  1  0.47200000  0.72610000  0.91060000  1.0 0.1102347978
H  H80  1  0.52800000  0.27390000  0.91060000  1.0 0.1102347978
H  H81  1  0.54870000  0.78040000  0.87990000  1.0 0.1317351907
H  H82  1  0.45130000  0.21960000  0.87990000  1.0 0.1317351907
H  H83  1  0.45710000  0.79810000  0.84740000  1.0 0.1317351907
H  H84  1  0.54290000  0.20190000  0.84740000  1.0 0.1317351907
H  H85  1  0.43490000  0.00530000  0.10510000  1.0 0.0990505733
H  H86  1  0.56510000  0.99470000  0.10510000  1.0 0.0990505733
H  H87  1  0.39780000  0.93930000  0.04450000  1.0 0.0990505733
H  H88  1  0.60220000  0.06070000  0.04450000  1.0 0.0990505733
H  H89  1  0.37770000  0.11560000  0.00840000  1.0 0.0818651822
H  H90  1  0.62230000  0.88440000  0.00840000  1.0 0.0818651822
H  H91  1  0.32130000  0.04140000  0.97580000  1.0 0.0990505733
H  H92  1  0.67870000  0.95860000  0.97580000  1.0 0.0990505733
H  H93  1  0.24040000  0.11030000  0.06440000  1.0 0.1102347978
H  H94  1  0.75960000  0.88970000  0.06440000  1.0 0.1102347978
H  H95  1  0.31310000  0.11200000  0.12850000  1.0 0.0818651822
H  H96  1  0.68690000  0.88800000  0.12850000  1.0 0.0818651822
H  H97  1  0.26740000  0.02640000  0.10790000  1.0 0.0641623646
H  H98  1  0.73260000  0.97360000  0.10790000  1.0 0.0641623646
H  H99  1  0.58210000  0.06590000  0.93820000  1.0 0.0818651822
H  H100  1  0.41790000  0.93410000  0.93820000  1.0 0.0818651822
H  H101  1  0.54640000  0.11570000  0.01210000  1.0 0.0641623646
H  H102  1  0.45360000  0.88430000  0.01210000  1.0 0.0641623646
H  H103  1  0.41640000  0.12550000  0.94630000  1.0 0.0434108446
H  H104  1  0.58360000  0.87450000  0.94630000  1.0 0.0434108446
H  H105  1  0.45820000  0.08310000  0.87110000  1.0 0.0713663423
H  H106  1  0.54180000  0.91690000  0.87110000  1.0 0.0713663423
H  H107  1  0.45100000  0.23150000  0.86250000  1.0 0.1317351907
H  H108  1  0.54900000  0.76850000  0.86250000  1.0 0.1317351907
H  H109  1  0.54330000  0.19660000  0.85150000  1.0 0.1317351907
H  H110  1  0.45670000  0.80340000  0.85150000  1.0 0.1317351907
H  H111  1  0.51590000  0.23670000  0.93350000  1.0 0.0713663423
H  H112  1  0.48410000  0.76330000  0.93350000  1.0 0.0713663423
H  H113  1  0.58400000  0.91200000  0.52040000  1.0 0.0713663423
H  H114  1  0.41600000  0.08800000  0.52040000  1.0 0.0713663423
H  H115  1  0.49390000  0.88600000  0.54590000  1.0 0.0939966709
H  H116  1  0.50610000  0.11400000  0.54590000  1.0 0.0939966709
H  H117  1  0.61960000  0.93830000  0.62510000  1.0 0.1184460394
H  H118  1  0.38040000  0.06170000  0.62510000  1.0 0.1184460394
H  H119  1  0.52810000  0.95840000  0.65650000  1.0 0.0990505733
H  H120  1  0.47190000  0.04160000  0.65650000  1.0 0.0990505733
H  H121  1  0.57650000  0.82800000  0.70290000  1.0 0.1184460394
H  H122  1  0.42350000  0.17200000  0.70290000  1.0 0.1184460394
H  H123  1  0.49310000  0.81780000  0.65270000  1.0 0.0990505733
H  H124  1  0.50690000  0.18220000  0.65270000  1.0 0.0990505733
H  H125  1  0.58100000  0.79540000  0.61420000  1.0 0.0489127691
H  H126  1  0.41900000  0.20460000  0.61420000  1.0 0.0489127691
H  H127  1  0.55100000  0.04110000  0.39330000  1.0 0.0818651822
H  H128  1  0.44900000  0.95890000  0.39330000  1.0 0.0818651822
H  H129  1  0.57080000  0.94560000  0.40960000  1.0 0.0818651822
H  H130  1  0.42920000  0.05440000  0.40960000  1.0 0.0818651822
H  H131  1  0.67430000  0.99070000  0.50440000  1.0 0.0939966709
H  H132  1  0.32570000  0.00930000  0.50440000  1.0 0.0939966709
H  H133  1  0.65940000  0.08360000  0.47400000  1.0 0.0818651822
H  H134  1  0.34060000  0.91640000  0.47400000  1.0 0.0818651822
H  H135  1  0.77390000  0.02800000  0.41060000  1.0 0.1102347978
H  H136  1  0.22610000  0.97200000  0.41060000  1.0 0.1102347978
H  H137  1  0.71960000  0.95130000  0.37990000  1.0 0.1317351907
H  H138  1  0.28040000  0.04870000  0.37990000  1.0 0.1317351907
H  H139  1  0.70190000  0.04290000  0.34740000  1.0 0.1317351907
H  H140  1  0.29810000  0.95710000  0.34740000  1.0 0.1317351907
H  H141  1  0.49470000  0.06510000  0.60510000  1.0 0.0990505733
H  H142  1  0.50530000  0.93490000  0.60510000  1.0 0.0990505733
H  H143  1  0.56070000  0.10220000  0.54450000  1.0 0.0990505733
H  H144  1  0.43930000  0.89780000  0.54450000  1.0 0.0990505733
H  H145  1  0.38440000  0.12230000  0.50840000  1.0 0.0818651822
H  H146  1  0.61560000  0.87770000  0.50840000  1.0 0.0818651822
H  H147  1  0.45860000  0.17870000  0.47580000  1.0 0.0990505733
H  H148  1  0.54140000  0.82130000  0.47580000  1.0 0.0990505733
H  H149  1  0.38970000  0.25960000  0.56440000  1.0 0.1102347978
H  H150  1  0.61030000  0.74040000  0.56440000  1.0 0.1102347978
H  H151  1  0.38800000  0.18690000  0.62850000  1.0 0.0818651822
H  H152  1  0.61200000  0.81310000  0.62850000  1.0 0.0818651822
H  H153  1  0.47360000  0.23260000  0.60790000  1.0 0.0641623646
H  H154  1  0.52640000  0.76740000  0.60790000  1.0 0.0641623646
H  H155  1  0.43410000  0.91790000  0.43820000  1.0 0.0818651822
H  H156  1  0.56590000  0.08210000  0.43820000  1.0 0.0818651822
H  H157  1  0.38430000  0.95360000  0.51210000  1.0 0.0641623646
H  H158  1  0.61570000  0.04640000  0.51210000  1.0 0.0641623646
H  H159  1  0.37450000  0.08360000  0.44630000  1.0 0.0434108446
H  H160  1  0.62550000  0.91640000  0.44630000  1.0 0.0434108446
H  H161  1  0.41690000  0.04180000  0.37110000  1.0 0.0713663423
H  H162  1  0.58310000  0.95820000  0.37110000  1.0 0.0713663423
H  H163  1  0.26850000  0.04900000  0.36250000  1.0 0.1317351907
H  H164  1  0.73150000  0.95100000  0.36250000  1.0 0.1317351907
H  H165  1  0.30340000  0.95670000  0.35150000  1.0 0.1317351907
H  H166  1  0.69660000  0.04330000  0.35150000  1.0 0.1317351907
H  H167  1  0.26330000  0.98410000  0.43350000  1.0 0.0713663423
H  H168  1  0.73670000  0.01590000  0.43350000  1.0 0.0713663423
H  H169  1  0.91200000  0.41600000  0.47960000  1.0 0.0713663423
H  H170  1  0.08800000  0.58400000  0.47960000  1.0 0.0713663423
H  H171  1  0.88600000  0.50610000  0.45410000  1.0 0.0939966709
H  H172  1  0.11400000  0.49390000  0.45410000  1.0 0.0939966709
H  H173  1  0.93830000  0.38040000  0.37490000  1.0 0.1184460394
H  H174  1  0.06170000  0.61960000  0.37490000  1.0 0.1184460394
H  H175  1  0.95840000  0.47190000  0.34350000  1.0 0.0990505733
H  H176  1  0.04160000  0.52810000  0.34350000  1.0 0.0990505733
H  H177  1  0.82800000  0.42350000  0.29710000  1.0 0.1184460394
H  H178  1  0.17200000  0.57650000  0.29710000  1.0 0.1184460394
H  H179  1  0.81780000  0.50690000  0.34730000  1.0 0.0990505733
H  H180  1  0.18220000  0.49310000  0.34730000  1.0 0.0990505733
H  H181  1  0.79540000  0.41900000  0.38580000  1.0 0.0489127691
H  H182  1  0.20460000  0.58100000  0.38580000  1.0 0.0489127691
H  H183  1  0.04110000  0.44900000  0.60670000  1.0 0.0818651822
H  H184  1  0.95890000  0.55100000  0.60670000  1.0 0.0818651822
H  H185  1  0.94560000  0.42920000  0.59040000  1.0 0.0818651822
H  H186  1  0.05440000  0.57080000  0.59040000  1.0 0.0818651822
H  H187  1  0.99070000  0.32570000  0.49560000  1.0 0.0939966709
H  H188  1  0.00930000  0.67430000  0.49560000  1.0 0.0939966709
H  H189  1  0.08360000  0.34060000  0.52600000  1.0 0.0818651822
H  H190  1  0.91640000  0.65940000  0.52600000  1.0 0.0818651822
H  H191  1  0.02800000  0.22610000  0.58940000  1.0 0.1102347978
H  H192  1  0.97200000  0.77390000  0.58940000  1.0 0.1102347978
H  H193  1  0.95130000  0.28040000  0.62010000  1.0 0.1317351907
H  H194  1  0.04870000  0.71960000  0.62010000  1.0 0.1317351907
H  H195  1  0.04290000  0.29810000  0.65260000  1.0 0.1317351907
H  H196  1  0.95710000  0.70190000  0.65260000  1.0 0.1317351907
H  H197  1  0.06510000  0.50530000  0.39490000  1.0 0.0990505733
H  H198  1  0.93490000  0.49470000  0.39490000  1.0 0.0990505733
H  H199  1  0.10220000  0.43930000  0.45550000  1.0 0.0990505733
H  H200  1  0.89780000  0.56070000  0.45550000  1.0 0.0990505733
H  H201  1  0.12230000  0.61560000  0.49160000  1.0 0.0818651822
H  H202  1  0.87770000  0.38440000  0.49160000  1.0 0.0818651822
H  H203  1  0.17870000  0.54140000  0.52420000  1.0 0.0990505733
H  H204  1  0.82130000  0.45860000  0.52420000  1.0 0.0990505733
H  H205  1  0.25960000  0.61030000  0.43560000  1.0 0.1102347978
H  H206  1  0.74040000  0.38970000  0.43560000  1.0 0.1102347978
H  H207  1  0.18690000  0.61200000  0.37150000  1.0 0.0818651822
H  H208  1  0.81310000  0.38800000  0.37150000  1.0 0.0818651822
H  H209  1  0.23260000  0.52640000  0.39210000  1.0 0.0641623646
H  H210  1  0.76740000  0.47360000  0.39210000  1.0 0.0641623646
H  H211  1  0.91790000  0.56590000  0.56180000  1.0 0.0818651822
H  H212  1  0.08210000  0.43410000  0.56180000  1.0 0.0818651822
H  H213  1  0.95360000  0.61570000  0.48790000  1.0 0.0641623646
H  H214  1  0.04640000  0.38430000  0.48790000  1.0 0.0641623646
H  H215  1  0.08360000  0.62550000  0.55370000  1.0 0.0434108446
H  H216  1  0.91640000  0.37450000  0.55370000  1.0 0.0434108446
H  H217  1  0.04180000  0.58310000  0.62890000  1.0 0.0713663423
H  H218  1  0.95820000  0.41690000  0.62890000  1.0 0.0713663423
H  H219  1  0.04900000  0.73150000  0.63750000  1.0 0.1317351907
H  H220  1  0.95100000  0.26850000  0.63750000  1.0 0.1317351907
H  H221  1  0.95670000  0.69660000  0.64850000  1.0 0.1317351907
H  H222  1  0.04330000  0.30340000  0.64850000  1.0 0.1317351907
H  H223  1  0.98410000  0.73670000  0.56650000  1.0 0.0713663423
H  H224  1  0.01590000  0.26330000  0.56650000  1.0 0.0713663423
C  C1  1  0.28660000  0.28130000  0.09230000  1.0 0.2758530313
C  C2  1  0.71340000  0.71870000  0.09230000  1.0 0.2758530313
C  C3  1  0.71870000  0.28660000  0.90770000  1.0 0.2758530313
C  C4  1  0.28130000  0.71340000  0.90770000  1.0 0.2758530313
C  C5  1  0.21340000  0.78130000  0.40770000  1.0 0.2758530313
C  C6  1  0.78660000  0.21870000  0.40770000  1.0 0.2758530313
C  C7  1  0.78130000  0.78660000  0.59230000  1.0 0.2758530313
C  C8  1  0.21870000  0.21340000  0.59230000  1.0 0.2758530313
C  C9  1  0.33350000  0.45260000  0.28260000  1.0 0.4005235554
C  C10  1  0.66650000  0.54740000  0.28260000  1.0 0.4005235554
C  C11  1  0.54740000  0.33350000  0.71740000  1.0 0.4005235554
C  C12  1  0.45260000  0.66650000  0.71740000  1.0 0.4005235554
C  C13  1  0.16650000  0.95260000  0.21740000  1.0 0.4005235554
C  C14  1  0.83350000  0.04740000  0.21740000  1.0 0.4005235554
C  C15  1  0.95260000  0.83350000  0.78260000  1.0 0.4005235554
C  C16  1  0.04740000  0.16650000  0.78260000  1.0 0.4005235554
C  C17  1  0.06920000  0.34210000  0.24530000  1.0 0.1842444276
C  C18  1  0.93080000  0.65790000  0.24530000  1.0 0.1864477367
C  C19  1  0.65790000  0.06920000  0.75470000  1.0 0.1842444276
C  C20  1  0.34210000  0.93080000  0.75470000  1.0 0.1842444276
C  C21  1  0.43080000  0.84210000  0.25470000  1.0 0.1842444276
C  C22  1  0.56920000  0.15790000  0.25470000  1.0 0.1842444276
C  C23  1  0.84210000  0.56920000  0.74530000  1.0 0.1842444276
C  C24  1  0.15790000  0.43080000  0.74530000  1.0 0.1842444276
C  C25  1  0.93010000  0.32250000  0.21950000  1.0 0.2594171324
C  C26  1  0.06990000  0.67750000  0.21950000  1.0 0.2594171324
C  C27  1  0.67750000  0.93010000  0.78050000  1.0 0.2594171324
C  C28  1  0.32250000  0.06990000  0.78050000  1.0 0.2594171324
C  C29  1  0.56990000  0.82250000  0.28050000  1.0 0.2594171324
C  C30  1  0.43010000  0.17750000  0.28050000  1.0 0.2594171324
C  C31  1  0.82250000  0.43010000  0.71950000  1.0 0.2594171324
C  C32  1  0.17750000  0.56990000  0.71950000  1.0 0.2594171324
C  C33  1  0.33090000  0.59190000  0.25520000  1.0 0.3835851969
C  C34  1  0.66910000  0.40810000  0.25520000  1.0 0.3835851969
C  C35  1  0.40810000  0.33090000  0.74480000  1.0 0.3835851969
C  C36  1  0.59190000  0.66910000  0.74480000  1.0 0.3835851969
C  C37  1  0.16910000  0.09190000  0.24480000  1.0 0.3835851969
C  C38  1  0.83090000  0.90810000  0.24480000  1.0 0.3835851969
C  C39  1  0.09190000  0.83090000  0.75520000  1.0 0.3835851969
C  C40  1  0.90810000  0.16910000  0.75520000  1.0 0.3835851969
C  C41  1  0.27310000  0.27430000  0.95750000  1.0 0.2343460367
C  C42  1  0.72690000  0.72570000  0.95750000  1.0 0.2343460367
C  C43  1  0.72570000  0.27310000  0.04250000  1.0 0.2343460367
C  C44  1  0.27430000  0.72690000  0.04250000  1.0 0.2343460367
C  C45  1  0.22690000  0.77430000  0.54250000  1.0 0.2343460367
C  C46  1  0.77310000  0.22570000  0.54250000  1.0 0.2343460367
C  C47  1  0.77430000  0.77310000  0.45750000  1.0 0.2343460367
C  C48  1  0.22570000  0.22690000  0.45750000  1.0 0.2343460367
C  C49  1  0.96430000  0.43070000  0.94830000  1.0 -0.0656022235
C  C50  1  0.03570000  0.56930000  0.94830000  1.0 -0.0656022235
C  C51  1  0.93950000  0.42140000  0.87830000  1.0 -0.158992746
C  C52  1  0.06050000  0.57860000  0.87830000  1.0 -0.158992746
C  C53  1  0.94800000  0.33290000  0.84960000  1.0 -0.1706688787
C  C54  1  0.05200000  0.66710000  0.84960000  1.0 -0.1706688787
C  C55  1  0.93080000  0.50140000  0.06590000  1.0 -0.085689717
C  C56  1  0.06920000  0.49860000  0.06590000  1.0 -0.085689717
C  C57  1  0.84220000  0.52440000  0.04170000  1.0 -0.0491140812
C  C58  1  0.15780000  0.47560000  0.04170000  1.0 -0.0491140812
C  C59  1  0.78150000  0.51050000  0.10650000  1.0 -0.3232460125
C  C60  1  0.21850000  0.48950000  0.10650000  1.0 -0.3232460125
C  C61  1  0.99590000  0.57880000  0.95080000  1.0 -0.0209512218
C  C62  1  0.00410000  0.42120000  0.95080000  1.0 -0.0209512218
C  C63  1  0.06270000  0.64960000  0.97710000  1.0 -0.1780789225
C  C64  1  0.93730000  0.35040000  0.97710000  1.0 -0.1780789225
C  C65  1  0.07930000  0.71270000  0.91350000  1.0 -0.122796978
C  C66  1  0.92070000  0.28730000  0.91350000  1.0 -0.122796978
C  C67  1  0.07750000  0.46880000  0.03110000  1.0 -0.0656022235
C  C68  1  0.92250000  0.53120000  0.03110000  1.0 -0.0656022235
C  C69  1  0.11910000  0.53080000  0.08290000  1.0 -0.0372919953
C  C70  1  0.88090000  0.46920000  0.08290000  1.0 -0.0372919953
C  C71  1  0.20330000  0.50270000  0.11130000  1.0 -0.3016322694
C  C72  1  0.79670000  0.49730000  0.11130000  1.0 -0.3016322694
C  C73  1  0.56930000  0.96430000  0.05170000  1.0 -0.0656022235
C  C74  1  0.43070000  0.03570000  0.05170000  1.0 -0.0656022235
C  C75  1  0.57860000  0.93950000  0.12170000  1.0 -0.158992746
C  C76  1  0.42140000  0.06050000  0.12170000  1.0 -0.158992746
C  C77  1  0.66710000  0.94800000  0.15040000  1.0 -0.1706688787
C  C78  1  0.33290000  0.05200000  0.15040000  1.0 -0.1706688787
C  C79  1  0.49860000  0.93080000  0.93410000  1.0 -0.085689717
C  C80  1  0.50140000  0.06920000  0.93410000  1.0 -0.085689717
C  C81  1  0.47560000  0.84220000  0.95830000  1.0 -0.0491140812
C  C82  1  0.52440000  0.15780000  0.95830000  1.0 -0.0491140812
C  C83  1  0.48950000  0.78150000  0.89350000  1.0 -0.3232460125
C  C84  1  0.51050000  0.21850000  0.89350000  1.0 -0.3232460125
C  C85  1  0.42120000  0.99590000  0.04920000  1.0 -0.0209512218
C  C86  1  0.57880000  0.00410000  0.04920000  1.0 -0.0209512218
C  C87  1  0.35040000  0.06270000  0.02290000  1.0 -0.1780789225
C  C88  1  0.64960000  0.93730000  0.02290000  1.0 -0.1780789225
C  C89  1  0.28730000  0.07930000  0.08650000  1.0 -0.122796978
C  C90  1  0.71270000  0.92070000  0.08650000  1.0 -0.122796978
C  C91  1  0.53120000  0.07750000  0.96890000  1.0 -0.0656022235
C  C92  1  0.46880000  0.92250000  0.96890000  1.0 -0.0656022235
C  C93  1  0.46920000  0.11910000  0.91710000  1.0 -0.0372919953
C  C94  1  0.53080000  0.88090000  0.91710000  1.0 -0.0372919953
C  C95  1  0.49730000  0.20330000  0.88870000  1.0 -0.3016322694
C  C96  1  0.50270000  0.79670000  0.88870000  1.0 -0.3016322694
C  C97  1  0.53570000  0.93070000  0.55170000  1.0 -0.0656022235
C  C98  1  0.46430000  0.06930000  0.55170000  1.0 -0.0656022235
C  C99  1  0.56050000  0.92140000  0.62170000  1.0 -0.158992746
C  C100  1  0.43950000  0.07860000  0.62170000  1.0 -0.158992746
C  C101  1  0.55200000  0.83290000  0.65040000  1.0 -0.1706688787
C  C102  1  0.44800000  0.16710000  0.65040000  1.0 -0.1706688787
C  C103  1  0.56920000  0.00140000  0.43410000  1.0 -0.085689717
C  C104  1  0.43080000  0.99860000  0.43410000  1.0 -0.085689717
C  C105  1  0.65780000  0.02440000  0.45830000  1.0 -0.0491140812
C  C106  1  0.34220000  0.97560000  0.45830000  1.0 -0.0491140812
C  C107  1  0.71850000  0.01050000  0.39350000  1.0 -0.3232460125
C  C108  1  0.28150000  0.98950000  0.39350000  1.0 -0.3232460125
C  C109  1  0.50410000  0.07880000  0.54920000  1.0 -0.0209512218
C  C110  1  0.49590000  0.92120000  0.54920000  1.0 -0.0209512218
C  C111  1  0.43730000  0.14960000  0.52290000  1.0 -0.1780789225
C  C112  1  0.56270000  0.85040000  0.52290000  1.0 -0.1780789225
C  C113  1  0.42070000  0.21270000  0.58650000  1.0 -0.122796978
C  C114  1  0.57930000  0.78730000  0.58650000  1.0 -0.122796978
C  C115  1  0.42250000  0.96880000  0.46890000  1.0 -0.0656022235
C  C116  1  0.57750000  0.03120000  0.46890000  1.0 -0.0656022235
C  C117  1  0.38090000  0.03080000  0.41710000  1.0 -0.0372919953
C  C118  1  0.61910000  0.96920000  0.41710000  1.0 -0.0372919953
C  C119  1  0.29670000  0.00270000  0.38870000  1.0 -0.3016322694
C  C120  1  0.70330000  0.99730000  0.38870000  1.0 -0.3016322694
C  C121  1  0.93070000  0.46430000  0.44830000  1.0 -0.0656022235
C  C122  1  0.06930000  0.53570000  0.44830000  1.0 -0.0656022235
C  C123  1  0.92140000  0.43950000  0.37830000  1.0 -0.158992746
C  C124  1  0.07860000  0.56050000  0.37830000  1.0 -0.158992746
C  C125  1  0.83290000  0.44800000  0.34960000  1.0 -0.1706688787
C  C126  1  0.16710000  0.55200000  0.34960000  1.0 -0.1706688787
C  C127  1  0.00140000  0.43080000  0.56590000  1.0 -0.085689717
C  C128  1  0.99860000  0.56920000  0.56590000  1.0 -0.085689717
C  C129  1  0.02440000  0.34220000  0.54170000  1.0 -0.0491140812
C  C130  1  0.97560000  0.65780000  0.54170000  1.0 -0.0491140812
C  C131  1  0.01050000  0.28150000  0.60650000  1.0 -0.3232460125
C  C132  1  0.98950000  0.71850000  0.60650000  1.0 -0.3232460125
C  C133  1  0.07880000  0.49590000  0.45080000  1.0 -0.0209512218
C  C134  1  0.92120000  0.50410000  0.45080000  1.0 -0.0209512218
C  C135  1  0.14960000  0.56270000  0.47710000  1.0 -0.1780789225
C  C136  1  0.85040000  0.43730000  0.47710000  1.0 -0.1780789225
C  C137  1  0.21270000  0.57930000  0.41350000  1.0 -0.122796978
C  C138  1  0.78730000  0.42070000  0.41350000  1.0 -0.122796978
C  C139  1  0.96880000  0.57750000  0.53110000  1.0 -0.0656022235
C  C140  1  0.03120000  0.42250000  0.53110000  1.0 -0.0656022235
C  C141  1  0.03080000  0.61910000  0.58290000  1.0 -0.0372919953
C  C142  1  0.96920000  0.38090000  0.58290000  1.0 -0.0372919953
C  C143  1  0.00270000  0.70330000  0.61130000  1.0 -0.3016322694
C  C144  1  0.99730000  0.29670000  0.61130000  1.0 -0.3016322694
N  N1  1  0.27190000  0.28090000  0.15660000  1.0 -0.4113695241
N  N2  1  0.72810000  0.71910000  0.15660000  1.0 -0.4113695241
N  N3  1  0.71910000  0.27190000  0.84340000  1.0 -0.4113695241
N  N4  1  0.28090000  0.72810000  0.84340000  1.0 -0.4113695241
N  N5  1  0.22810000  0.78090000  0.34340000  1.0 -0.4113695241
N  N6  1  0.77190000  0.21910000  0.34340000  1.0 -0.4113695241
N  N7  1  0.78090000  0.77190000  0.65660000  1.0 -0.4113695241
N  N8  1  0.21910000  0.22810000  0.65660000  1.0 -0.4113695241
N  N9  1  0.30800000  0.38660000  0.29090000  1.0 -0.4768953576
N  N10  1  0.69200000  0.61340000  0.29090000  1.0 -0.4768953576
N  N11  1  0.61340000  0.30800000  0.70910000  1.0 -0.4768953576
N  N12  1  0.38660000  0.69200000  0.70910000  1.0 -0.4768953576
N  N13  1  0.19200000  0.88660000  0.20910000  1.0 -0.4768953576
N  N14  1  0.80800000  0.11340000  0.20910000  1.0 -0.4768953576
N  N15  1  0.88660000  0.80800000  0.79090000  1.0 -0.4768953576
N  N16  1  0.11340000  0.19200000  0.79090000  1.0 -0.4768953576
N  N17  1  0.13550000  0.32750000  0.26230000  1.0 -0.4016017198
N  N18  1  0.86450000  0.67250000  0.26230000  1.0 -0.4016017198
N  N19  1  0.67250000  0.13550000  0.73770000  1.0 -0.4016017198
N  N20  1  0.32750000  0.86450000  0.73770000  1.0 -0.4016017198
N  N21  1  0.36450000  0.82750000  0.23770000  1.0 -0.4016017198
N  N22  1  0.63550000  0.17250000  0.23770000  1.0 -0.4016017198
N  N23  1  0.82750000  0.63550000  0.76230000  1.0 -0.4016017198
N  N24  1  0.17250000  0.36450000  0.76230000  1.0 -0.4016017198
N  N25  1  0.86890000  0.28800000  0.21340000  1.0 -0.4113695241
N  N26  1  0.13110000  0.71200000  0.21340000  1.0 -0.4113695241
N  N27  1  0.71200000  0.86890000  0.78660000  1.0 -0.4113695241
N  N28  1  0.28800000  0.13110000  0.78660000  1.0 -0.4113695241
N  N29  1  0.63110000  0.78800000  0.28660000  1.0 -0.4113695241
N  N30  1  0.36890000  0.21200000  0.28660000  1.0 -0.4113695241
N  N31  1  0.78800000  0.36890000  0.71340000  1.0 -0.4113695241
N  N32  1  0.21200000  0.63110000  0.71340000  1.0 -0.4113695241
N  N33  1  0.30430000  0.65490000  0.23890000  1.0 -0.4693267523
N  N34  1  0.69570000  0.34510000  0.23890000  1.0 -0.4693267523
N  N35  1  0.34510000  0.30430000  0.76110000  1.0 -0.4693267523
N  N36  1  0.65490000  0.69570000  0.76110000  1.0 -0.4693267523
N  N37  1  0.19570000  0.15490000  0.26110000  1.0 -0.4693267523
N  N38  1  0.80430000  0.84510000  0.26110000  1.0 -0.4693267523
N  N39  1  0.15490000  0.80430000  0.73890000  1.0 -0.4693267523
N  N40  1  0.84510000  0.19570000  0.73890000  1.0 -0.4693267523
N  N41  1  0.24260000  0.26470000  0.89700000  1.0 -0.4016017198
N  N42  1  0.75740000  0.73530000  0.89700000  1.0 -0.4016017198
N  N43  1  0.73530000  0.24260000  0.10300000  1.0 -0.4016017198
N  N44  1  0.26470000  0.75740000  0.10300000  1.0 -0.4016017198
N  N45  1  0.25740000  0.76470000  0.60300000  1.0 -0.4016017198
N  N46  1  0.74260000  0.23530000  0.60300000  1.0 -0.4016017198
N  N47  1  0.76470000  0.74260000  0.39700000  1.0 -0.4016017198
N  N48  1  0.23530000  0.25740000  0.39700000  1.0 -0.4016017198
N  N49  1  0.31040000  0.30440000  0.02030000  1.0 -0.1706688787
N  N50  1  0.68960000  0.69560000  0.02030000  1.0 -0.1706688787
N  N51  1  0.69560000  0.31040000  0.97970000  1.0 -0.1706688787
N  N52  1  0.30440000  0.68960000  0.97970000  1.0 -0.1706688787
N  N53  1  0.18960000  0.80440000  0.47970000  1.0 -0.1706688787
N  N54  1  0.81040000  0.19560000  0.47970000  1.0 -0.1706688787
N  N55  1  0.80440000  0.81040000  0.52030000  1.0 -0.1706688787
N  N56  1  0.19560000  0.18960000  0.52030000  1.0 -0.1706688787
N  N57  1  0.37090000  0.52280000  0.27470000  1.0 -0.3832130535
N  N58  1  0.62910000  0.47720000  0.27470000  1.0 -0.3832130535
N  N59  1  0.47720000  0.37090000  0.72530000  1.0 -0.3832130535
N  N60  1  0.52280000  0.62910000  0.72530000  1.0 -0.3832130535
N  N61  1  0.12910000  0.02280000  0.22530000  1.0 -0.3832130535
N  N62  1  0.87090000  0.97720000  0.22530000  1.0 -0.3832130535
N  N63  1  0.02280000  0.87090000  0.77470000  1.0 -0.3832130535
N  N64  1  0.97720000  0.12910000  0.77470000  1.0 -0.3832130535
N  N65  1  0.99710000  0.36930000  0.22120000  1.0 -0.4193951218
N  N66  1  0.00290000  0.63070000  0.22120000  1.0 -0.4193951218
N  N67  1  0.63070000  0.99710000  0.77880000  1.0 -0.4193951218
N  N68  1  0.36930000  0.00290000  0.77880000  1.0 -0.4193951218
N  N69  1  0.50290000  0.86930000  0.27880000  1.0 -0.4193951218
N  N70  1  0.49710000  0.13070000  0.27880000  1.0 -0.4193951218
N  N71  1  0.86930000  0.49710000  0.72120000  1.0 -0.4193951218
N  N72  1  0.13070000  0.50290000  0.72120000  1.0 -0.4193951218
N  N73  1  0.32480000  0.26250000  0.02050000  1.0 -0.158992746
N  N74  1  0.67520000  0.73750000  0.02050000  1.0 -0.158992746
N  N75  1  0.73750000  0.32480000  0.97950000  1.0 -0.158992746
N  N76  1  0.26250000  0.67520000  0.97950000  1.0 -0.158992746
N  N77  1  0.17520000  0.76250000  0.47950000  1.0 -0.158992746
N  N78  1  0.82480000  0.23750000  0.47950000  1.0 -0.158992746
N  N79  1  0.76250000  0.82480000  0.52050000  1.0 -0.158992746
N  N80  1  0.23750000  0.17520000  0.52050000  1.0 -0.158992746
N  N81  1  0.00000000  0.50000000  0.99790000  1.0 0.0068236349
N  N82  1  0.50000000  0.00000000  0.00210000  1.0 0.0068236349
N  N83  1  0.50000000  0.00000000  0.50210000  1.0 0.0068236349
N  N84  1  0.00000000  0.50000000  0.49790000  1.0 0.0068236349
