# DDEC6 charges by PACMAN v1.1 (https://github.com/mtap-research/PACMAN-charge/)
data_GANBIH_FSR_pacman
_symmetry_space_group_name_H-M   'P 1'
_cell_length_a   16.01070000
_cell_length_b   16.01140000
_cell_length_c   21.55770000
_cell_angle_alpha   90.00000000
_cell_angle_beta   90.00000000
_cell_angle_gamma   90.00000000
_symmetry_Int_Tables_number   1
_chemical_formula_structural   Mn2H55C33N23
_chemical_formula_sum   'Mn8 H220 C132 N92'
_cell_volume   5526.39663233
_cell_formula_units_Z   4
loop_
 _symmetry_equiv_pos_site_id
 _symmetry_equiv_pos_as_xyz
  1  'x, y, z'
loop_
 _atom_site_type_symbol
 _atom_site_label
 _atom_site_symmetry_multiplicity
 _atom_site_fract_x
 _atom_site_fract_y
 _atom_site_fract_z
 _atom_site_occupancy
 _atom_site_charge
Mn  Mn1  1  0.00000000  0.00000000  0.32744000  1.0 0.997454296
Mn  Mn2  1  0.50000000  0.50000000  0.67256000  1.0 0.997454296
Mn  Mn3  1  0.00000000  0.50000000  0.17792000  1.0 0.9573268398
Mn  Mn4  1  0.50000000  0.00000000  0.82208000  1.0 0.9573268398
Mn  Mn5  1  0.00000000  0.00000000  0.68315000  1.0 1.0200632616
Mn  Mn6  1  0.50000000  0.50000000  0.31685000  1.0 1.0200632616
Mn  Mn7  1  0.50000000  0.00000000  0.17806000  1.0 0.997454296
Mn  Mn8  1  0.00000000  0.50000000  0.82194000  1.0 0.997454296
H  H1  1  0.82060000  0.31290000  0.80110000  1.0 0.1073919922
H  H2  1  0.72950000  0.34640000  0.79400000  1.0 0.0993701881
H  H3  1  0.78240000  0.18300000  0.76160000  1.0 0.0993701881
H  H4  1  0.68770000  0.20840000  0.76150000  1.0 0.0993701881
H  H5  1  0.80540000  0.29090000  0.68960000  1.0 0.0799651666
H  H6  1  0.70750000  0.29980000  0.68460000  1.0 0.0903577357
H  H7  1  0.75490000  0.19560000  0.60660000  1.0 0.0604707856
H  H8  1  0.69690000  0.15050000  0.65460000  1.0 0.0903577357
H  H9  1  0.79420000  0.14150000  0.65970000  1.0 0.0993701881
H  H10  1  0.83110000  0.36580000  0.89720000  1.0 0.0993701881
H  H11  1  0.74030000  0.40150000  0.89380000  1.0 0.0903577357
H  H12  1  0.79550000  0.29930000  0.99240000  1.0 0.051545896
H  H13  1  0.70780000  0.34340000  0.98950000  1.0 0.0702955405
H  H14  1  0.81400000  0.42120000  0.05240000  1.0 0.0903577357
H  H15  1  0.85850000  0.44300000  0.98930000  1.0 0.0702955405
H  H16  1  0.76440000  0.55150000  0.01620000  1.0 0.0702955405
H  H17  1  0.69050000  0.48730000  0.01650000  1.0 0.0702955405
H  H18  1  0.73550000  0.50960000  0.95410000  1.0 0.0993701881
H  H19  1  0.63800000  0.20890000  0.85760000  1.0 0.1073919922
H  H20  1  0.64160000  0.25030000  0.92330000  1.0 0.0799651666
H  H21  1  0.60720000  0.33810000  0.81420000  1.0 0.0702955405
H  H22  1  0.60960000  0.37850000  0.88000000  1.0 0.0604707856
H  H23  1  0.48740000  0.26620000  0.88470000  1.0 0.0604707856
H  H24  1  0.47510000  0.31680000  0.82250000  1.0 0.0702955405
H  H25  1  0.41160000  0.39540000  0.90780000  1.0 0.0903577357
H  H26  1  0.48570000  0.44760000  0.88020000  1.0 0.0799651666
H  H27  1  0.49800000  0.39740000  0.94200000  1.0 0.0374072065
H  H28  1  0.77040000  0.15380000  0.86880000  1.0 0.0993701881
H  H29  1  0.78220000  0.19290000  0.93460000  1.0 0.1073919922
H  H30  1  0.89890000  0.20030000  0.83710000  1.0 0.1073919922
H  H31  1  0.90940000  0.25460000  0.89710000  1.0 0.1073919922
H  H32  1  0.92140000  0.13520000  0.95710000  1.0 0.0903577357
H  H33  1  0.90570000  0.07910000  0.89870000  1.0 0.0903577357
H  H34  1  0.04600000  0.08010000  0.91960000  1.0 0.1174119731
H  H35  1  0.04790000  0.17790000  0.91710000  1.0 0.1256134316
H  H36  1  0.03180000  0.12640000  0.85640000  1.0 0.1174119731
H  H37  1  0.80520000  0.29190000  0.69660000  1.0 0.0799651666
H  H38  1  0.71010000  0.30470000  0.69300000  1.0 0.0903577357
H  H39  1  0.75960000  0.27650000  0.60230000  1.0 0.0903577357
H  H40  1  0.70110000  0.20260000  0.62200000  1.0 0.0604707856
H  H41  1  0.79840000  0.19200000  0.62510000  1.0 0.0702955405
H  H42  1  0.82040000  0.33410000  0.99460000  1.0 0.0702955405
H  H43  1  0.72780000  0.30360000  0.98810000  1.0 0.051545896
H  H44  1  0.68570000  0.45080000  0.98840000  1.0 0.0702955405
H  H45  1  0.72300000  0.42040000  0.05240000  1.0 0.0903577357
H  H46  1  0.79840000  0.54060000  0.02360000  1.0 0.0799651666
H  H47  1  0.81630000  0.50320000  0.95770000  1.0 0.0903577357
H  H48  1  0.85940000  0.46460000  0.01640000  1.0 0.0702955405
H  H49  1  0.56140000  0.30990000  0.82260000  1.0 0.0343091182
H  H50  1  0.62570000  0.37780000  0.84620000  1.0 0.051545896
H  H51  1  0.56980000  0.31920000  0.95010000  1.0 0.0702955405
H  H52  1  0.54070000  0.40360000  0.92230000  1.0 0.051545896
H  H53  1  0.44100000  0.33840000  0.96310000  1.0 0.0799651666
H  H54  1  0.45590000  0.26120000  0.91980000  1.0 0.0903577357
H  H55  1  0.42650000  0.34640000  0.89150000  1.0 0.051545896
H  H56  1  0.17940000  0.68710000  0.80110000  1.0 0.1073919922
H  H57  1  0.27050000  0.65360000  0.79400000  1.0 0.0993701881
H  H58  1  0.21760000  0.81700000  0.76160000  1.0 0.0993701881
H  H59  1  0.31230000  0.79160000  0.76150000  1.0 0.0993701881
H  H60  1  0.19460000  0.70910000  0.68960000  1.0 0.0799651666
H  H61  1  0.29250000  0.70020000  0.68460000  1.0 0.0903577357
H  H62  1  0.24510000  0.80440000  0.60660000  1.0 0.0604707856
H  H63  1  0.30310000  0.84950000  0.65460000  1.0 0.0903577357
H  H64  1  0.20580000  0.85850000  0.65970000  1.0 0.0993701881
H  H65  1  0.16890000  0.63420000  0.89720000  1.0 0.0993701881
H  H66  1  0.25970000  0.59850000  0.89380000  1.0 0.0903577357
H  H67  1  0.20450000  0.70070000  0.99240000  1.0 0.051545896
H  H68  1  0.29220000  0.65660000  0.98950000  1.0 0.0702955405
H  H69  1  0.18600000  0.57880000  0.05240000  1.0 0.0903577357
H  H70  1  0.14150000  0.55700000  0.98930000  1.0 0.0702955405
H  H71  1  0.23560000  0.44850000  0.01620000  1.0 0.0702955405
H  H72  1  0.30950000  0.51270000  0.01650000  1.0 0.0702955405
H  H73  1  0.26450000  0.49040000  0.95410000  1.0 0.0993701881
H  H74  1  0.36200000  0.79110000  0.85760000  1.0 0.1073919922
H  H75  1  0.35840000  0.74970000  0.92330000  1.0 0.0799651666
H  H76  1  0.39280000  0.66190000  0.81420000  1.0 0.0702955405
H  H77  1  0.39040000  0.62150000  0.88000000  1.0 0.0604707856
H  H78  1  0.51260000  0.73380000  0.88470000  1.0 0.0604707856
H  H79  1  0.52490000  0.68320000  0.82250000  1.0 0.0702955405
H  H80  1  0.58840000  0.60460000  0.90780000  1.0 0.0903577357
H  H81  1  0.51430000  0.55240000  0.88020000  1.0 0.0799651666
H  H82  1  0.50200000  0.60260000  0.94200000  1.0 0.0374072065
H  H83  1  0.22960000  0.84620000  0.86880000  1.0 0.0993701881
H  H84  1  0.21780000  0.80710000  0.93460000  1.0 0.1073919922
H  H85  1  0.10110000  0.79970000  0.83710000  1.0 0.1073919922
H  H86  1  0.09060000  0.74540000  0.89710000  1.0 0.1073919922
H  H87  1  0.07860000  0.86480000  0.95710000  1.0 0.0903577357
H  H88  1  0.09430000  0.92090000  0.89870000  1.0 0.0903577357
H  H89  1  0.95400000  0.91990000  0.91960000  1.0 0.1174119731
H  H90  1  0.95210000  0.82210000  0.91710000  1.0 0.1256134316
H  H91  1  0.96820000  0.87360000  0.85640000  1.0 0.1174119731
H  H92  1  0.19480000  0.70810000  0.69660000  1.0 0.0799651666
H  H93  1  0.28990000  0.69530000  0.69300000  1.0 0.0903577357
H  H94  1  0.24040000  0.72350000  0.60230000  1.0 0.0903577357
H  H95  1  0.29890000  0.79740000  0.62200000  1.0 0.0604707856
H  H96  1  0.20160000  0.80800000  0.62510000  1.0 0.0702955405
H  H97  1  0.17960000  0.66590000  0.99460000  1.0 0.0702955405
H  H98  1  0.27220000  0.69640000  0.98810000  1.0 0.051545896
H  H99  1  0.31430000  0.54920000  0.98840000  1.0 0.0702955405
H  H100  1  0.27700000  0.57960000  0.05240000  1.0 0.0903577357
H  H101  1  0.20160000  0.45940000  0.02360000  1.0 0.0799651666
H  H102  1  0.18370000  0.49680000  0.95770000  1.0 0.0903577357
H  H103  1  0.14060000  0.53540000  0.01640000  1.0 0.0702955405
H  H104  1  0.43860000  0.69010000  0.82260000  1.0 0.0343091182
H  H105  1  0.37430000  0.62220000  0.84620000  1.0 0.051545896
H  H106  1  0.43020000  0.68080000  0.95010000  1.0 0.0702955405
H  H107  1  0.45930000  0.59640000  0.92230000  1.0 0.051545896
H  H108  1  0.55900000  0.66160000  0.96310000  1.0 0.0799651666
H  H109  1  0.54410000  0.73880000  0.91980000  1.0 0.0903577357
H  H110  1  0.57350000  0.65360000  0.89150000  1.0 0.051545896
H  H111  1  0.67940000  0.81290000  0.19890000  1.0 0.1073919922
H  H112  1  0.77050000  0.84640000  0.20600000  1.0 0.0993701881
H  H113  1  0.71760000  0.68300000  0.23840000  1.0 0.0993701881
H  H114  1  0.81230000  0.70840000  0.23850000  1.0 0.0993701881
H  H115  1  0.69460000  0.79090000  0.31040000  1.0 0.0799651666
H  H116  1  0.79250000  0.79980000  0.31540000  1.0 0.0903577357
H  H117  1  0.74510000  0.69560000  0.39340000  1.0 0.0604707856
H  H118  1  0.80310000  0.65050000  0.34540000  1.0 0.0903577357
H  H119  1  0.70580000  0.64150000  0.34030000  1.0 0.0993701881
H  H120  1  0.66890000  0.86580000  0.10280000  1.0 0.0993701881
H  H121  1  0.75970000  0.90150000  0.10620000  1.0 0.0993701881
H  H122  1  0.70450000  0.79930000  0.00760000  1.0 0.051545896
H  H123  1  0.79220000  0.84340000  0.01050000  1.0 0.0702955405
H  H124  1  0.68600000  0.92120000  0.94760000  1.0 0.0903577357
H  H125  1  0.64150000  0.94300000  0.01070000  1.0 0.0702955405
H  H126  1  0.73560000  0.05150000  0.98380000  1.0 0.0702955405
H  H127  1  0.80950000  0.98730000  0.98350000  1.0 0.0702955405
H  H128  1  0.76450000  0.00960000  0.04590000  1.0 0.0993701881
H  H129  1  0.86200000  0.70890000  0.14240000  1.0 0.1073919922
H  H130  1  0.85840000  0.75030000  0.07670000  1.0 0.0799651666
H  H131  1  0.89280000  0.83810000  0.18580000  1.0 0.0702955405
H  H132  1  0.89040000  0.87850000  0.12000000  1.0 0.0604707856
H  H133  1  0.01260000  0.76620000  0.11530000  1.0 0.0604707856
H  H134  1  0.02490000  0.81680000  0.17750000  1.0 0.0702955405
H  H135  1  0.08840000  0.89540000  0.09220000  1.0 0.0903577357
H  H136  1  0.01430000  0.94760000  0.11980000  1.0 0.0799651666
H  H137  1  0.00200000  0.89740000  0.05800000  1.0 0.0374072065
H  H138  1  0.72960000  0.65380000  0.13120000  1.0 0.0993701881
H  H139  1  0.71780000  0.69290000  0.06540000  1.0 0.1073919922
H  H140  1  0.60110000  0.70030000  0.16290000  1.0 0.1073919922
H  H141  1  0.59060000  0.75460000  0.10290000  1.0 0.1073919922
H  H142  1  0.57860000  0.63520000  0.04290000  1.0 0.0903577357
H  H143  1  0.59430000  0.57910000  0.10130000  1.0 0.0903577357
H  H144  1  0.45400000  0.58010000  0.08040000  1.0 0.1174119731
H  H145  1  0.45210000  0.67790000  0.08290000  1.0 0.1256134316
H  H146  1  0.46820000  0.62640000  0.14360000  1.0 0.1174119731
H  H147  1  0.69480000  0.79190000  0.30340000  1.0 0.0799651666
H  H148  1  0.78990000  0.80470000  0.30700000  1.0 0.0903577357
H  H149  1  0.74040000  0.77650000  0.39770000  1.0 0.0903577357
H  H150  1  0.79890000  0.70260000  0.37800000  1.0 0.0604707856
H  H151  1  0.70160000  0.69200000  0.37490000  1.0 0.0702955405
H  H152  1  0.67960000  0.83410000  0.00540000  1.0 0.0702955405
H  H153  1  0.77220000  0.80360000  0.01190000  1.0 0.051545896
H  H154  1  0.81430000  0.95080000  0.01160000  1.0 0.0702955405
H  H155  1  0.77700000  0.92040000  0.94760000  1.0 0.0903577357
H  H156  1  0.70160000  0.04060000  0.97640000  1.0 0.0799651666
H  H157  1  0.68370000  0.00320000  0.04230000  1.0 0.0903577357
H  H158  1  0.64060000  0.96460000  0.98360000  1.0 0.0702955405
H  H159  1  0.93860000  0.80990000  0.17740000  1.0 0.0343091182
H  H160  1  0.87430000  0.87780000  0.15380000  1.0 0.051545896
H  H161  1  0.93020000  0.81920000  0.04990000  1.0 0.0702955405
H  H162  1  0.95930000  0.90360000  0.07770000  1.0 0.051545896
H  H163  1  0.05900000  0.83840000  0.03690000  1.0 0.0799651666
H  H164  1  0.04410000  0.76120000  0.08020000  1.0 0.0903577357
H  H165  1  0.07350000  0.84640000  0.10850000  1.0 0.051545896
H  H166  1  0.32060000  0.18710000  0.19890000  1.0 0.1073919922
H  H167  1  0.22950000  0.15360000  0.20600000  1.0 0.0993701881
H  H168  1  0.28240000  0.31700000  0.23840000  1.0 0.0993701881
H  H169  1  0.18770000  0.29160000  0.23850000  1.0 0.0993701881
H  H170  1  0.30540000  0.20910000  0.31040000  1.0 0.0799651666
H  H171  1  0.20750000  0.20020000  0.31540000  1.0 0.0903577357
H  H172  1  0.25490000  0.30440000  0.39340000  1.0 0.0604707856
H  H173  1  0.19690000  0.34950000  0.34540000  1.0 0.0903577357
H  H174  1  0.29420000  0.35850000  0.34030000  1.0 0.0993701881
H  H175  1  0.33110000  0.13420000  0.10280000  1.0 0.0993701881
H  H176  1  0.24030000  0.09850000  0.10620000  1.0 0.0903577357
H  H177  1  0.29550000  0.20070000  0.00760000  1.0 0.051545896
H  H178  1  0.20780000  0.15660000  0.01050000  1.0 0.0702955405
H  H179  1  0.31400000  0.07880000  0.94760000  1.0 0.0903577357
H  H180  1  0.35850000  0.05700000  0.01070000  1.0 0.0702955405
H  H181  1  0.26440000  0.94850000  0.98380000  1.0 0.0702955405
H  H182  1  0.19050000  0.01270000  0.98350000  1.0 0.0702955405
H  H183  1  0.23550000  0.99040000  0.04590000  1.0 0.0993701881
H  H184  1  0.13800000  0.29110000  0.14240000  1.0 0.1073919922
H  H185  1  0.14160000  0.24970000  0.07670000  1.0 0.0799651666
H  H186  1  0.10720000  0.16190000  0.18580000  1.0 0.0702955405
H  H187  1  0.10960000  0.12150000  0.12000000  1.0 0.0604707856
H  H188  1  0.98740000  0.23380000  0.11530000  1.0 0.0604707856
H  H189  1  0.97510000  0.18320000  0.17750000  1.0 0.0702955405
H  H190  1  0.91160000  0.10460000  0.09220000  1.0 0.0903577357
H  H191  1  0.98570000  0.05240000  0.11980000  1.0 0.0799651666
H  H192  1  0.99800000  0.10260000  0.05800000  1.0 0.0374072065
H  H193  1  0.27040000  0.34620000  0.13120000  1.0 0.0993701881
H  H194  1  0.28220000  0.30710000  0.06540000  1.0 0.1073919922
H  H195  1  0.39890000  0.29970000  0.16290000  1.0 0.1073919922
H  H196  1  0.40940000  0.24540000  0.10290000  1.0 0.1073919922
H  H197  1  0.42140000  0.36480000  0.04290000  1.0 0.0903577357
H  H198  1  0.40570000  0.42090000  0.10130000  1.0 0.0903577357
H  H199  1  0.54600000  0.41990000  0.08040000  1.0 0.1174119731
H  H200  1  0.54790000  0.32210000  0.08290000  1.0 0.1256134316
H  H201  1  0.53180000  0.37360000  0.14360000  1.0 0.1174119731
H  H202  1  0.30520000  0.20810000  0.30340000  1.0 0.0799651666
H  H203  1  0.21010000  0.19530000  0.30700000  1.0 0.0903577357
H  H204  1  0.25960000  0.22350000  0.39770000  1.0 0.0903577357
H  H205  1  0.20110000  0.29740000  0.37800000  1.0 0.0604707856
H  H206  1  0.29840000  0.30800000  0.37490000  1.0 0.0702955405
H  H207  1  0.32040000  0.16590000  0.00540000  1.0 0.0702955405
H  H208  1  0.22780000  0.19640000  0.01190000  1.0 0.051545896
H  H209  1  0.18570000  0.04920000  0.01160000  1.0 0.0702955405
H  H210  1  0.22300000  0.07960000  0.94760000  1.0 0.0903577357
H  H211  1  0.29840000  0.95940000  0.97640000  1.0 0.0799651666
H  H212  1  0.31630000  0.99680000  0.04230000  1.0 0.0903577357
H  H213  1  0.35940000  0.03540000  0.98360000  1.0 0.0702955405
H  H214  1  0.06140000  0.19010000  0.17740000  1.0 0.0343091182
H  H215  1  0.12570000  0.12220000  0.15380000  1.0 0.051545896
H  H216  1  0.06980000  0.18080000  0.04990000  1.0 0.0702955405
H  H217  1  0.04070000  0.09640000  0.07770000  1.0 0.051545896
H  H218  1  0.94100000  0.16160000  0.03690000  1.0 0.0799651666
H  H219  1  0.95590000  0.23880000  0.08020000  1.0 0.0903577357
H  H220  1  0.92650000  0.15360000  0.10850000  1.0 0.051545896
C  C1  1  0.88670000  0.02810000  0.45460000  1.0 0.3015482827
C  C2  1  0.11330000  0.97190000  0.45460000  1.0 0.3015482827
C  C3  1  0.61330000  0.52810000  0.54540000  1.0 0.3015482827
C  C4  1  0.38670000  0.47190000  0.54540000  1.0 0.3015482827
C  C5  1  0.15780000  0.98180000  0.22580000  1.0 0.3613249912
C  C6  1  0.84220000  0.01820000  0.22580000  1.0 0.3613249912
C  C7  1  0.34220000  0.48180000  0.77420000  1.0 0.3613249912
C  C8  1  0.65780000  0.51820000  0.77420000  1.0 0.3613249912
C  C9  1  0.01230000  0.20720000  0.31790000  1.0 0.3015482827
C  C10  1  0.98770000  0.79280000  0.31790000  1.0 0.3015482827
C  C11  1  0.48770000  0.70720000  0.68210000  1.0 0.3015482827
C  C12  1  0.51230000  0.29280000  0.68210000  1.0 0.3015482827
C  C13  1  0.01180000  0.34270000  0.27910000  1.0 0.3155605301
C  C14  1  0.98820000  0.65730000  0.27910000  1.0 0.3155605301
C  C15  1  0.48820000  0.84270000  0.72090000  1.0 0.3155605301
C  C16  1  0.51180000  0.15730000  0.72090000  1.0 0.3155605301
C  C17  1  0.97740000  0.61670000  0.05150000  1.0 0.1641185648
C  C18  1  0.02260000  0.38330000  0.05150000  1.0 0.1641185648
C  C19  1  0.52260000  0.11670000  0.94850000  1.0 0.1641185648
C  C20  1  0.47740000  0.88330000  0.94850000  1.0 0.1641185648
C  C21  1  0.20830000  0.50900000  0.18020000  1.0 0.2899701997
C  C22  1  0.79170000  0.49100000  0.18020000  1.0 0.2899701997
C  C23  1  0.29170000  0.00900000  0.81980000  1.0 0.2899701997
C  C24  1  0.70830000  0.99100000  0.81980000  1.0 0.2899701997
C  C25  1  0.34320000  0.50770000  0.21500000  1.0 0.3133200809
C  C26  1  0.65680000  0.49230000  0.21500000  1.0 0.3133200809
C  C27  1  0.15680000  0.00770000  0.78500000  1.0 0.3133200809
C  C28  1  0.84320000  0.99230000  0.78500000  1.0 0.3133200809
C  C29  1  0.88330000  0.01990000  0.55810000  1.0 0.2797479361
C  C30  1  0.11670000  0.98010000  0.55810000  1.0 0.2797479361
C  C31  1  0.61670000  0.51990000  0.44190000  1.0 0.2797479361
C  C32  1  0.38330000  0.48010000  0.44190000  1.0 0.2797479361
C  C33  1  0.97950000  0.20700000  0.68780000  1.0 0.4283731013
C  C34  1  0.02050000  0.79300000  0.68780000  1.0 0.4283731013
C  C35  1  0.52050000  0.70700000  0.31220000  1.0 0.4283731013
C  C36  1  0.47950000  0.29300000  0.31220000  1.0 0.4283731013
C  C37  1  0.97940000  0.34170000  0.72260000  1.0 0.4606392934
C  C38  1  0.02060000  0.65830000  0.72260000  1.0 0.4606392934
C  C39  1  0.52060000  0.84170000  0.27740000  1.0 0.4606392934
C  C40  1  0.47940000  0.15830000  0.27740000  1.0 0.4606392934
C  C41  1  0.28990000  0.97780000  0.18590000  1.0 0.387461762
C  C42  1  0.71010000  0.02220000  0.18590000  1.0 0.387461762
C  C43  1  0.21010000  0.47780000  0.81410000  1.0 0.387461762
C  C44  1  0.78990000  0.52220000  0.81410000  1.0 0.387461762
C  C45  1  0.98210000  0.61690000  0.94591000  1.0 0.2603551998
C  C46  1  0.01790000  0.38310000  0.94591000  1.0 0.2603551998
C  C47  1  0.51790000  0.11690000  0.05409000  1.0 0.2603551998
C  C48  1  0.48210000  0.88310000  0.05409000  1.0 0.2603551998
C  C49  1  0.76230000  0.29750000  0.80470000  1.0 -0.1190870088
C  C50  1  0.74400000  0.22930000  0.75580000  1.0 -0.1989064262
C  C51  1  0.75270000  0.26170000  0.69430000  1.0 -0.1989064262
C  C52  1  0.74930000  0.17860000  0.64910000  1.0 -0.1689452544
C  C53  1  0.77330000  0.35420000  0.90760000  1.0 -0.1773583657
C  C54  1  0.76610000  0.34850000  0.97770000  1.0 -0.1505279679
C  C55  1  0.80520000  0.42990000  0.00840000  1.0 -0.0590116411
C  C56  1  0.74310000  0.50130000  0.99780000  1.0 -0.1505279679
C  C57  1  0.65200000  0.25990000  0.87960000  1.0 -0.1873840139
C  C58  1  0.59470000  0.32810000  0.85760000  1.0 -0.1624850527
C  C59  1  0.50110000  0.31760000  0.86310000  1.0 -0.049289992
C  C60  1  0.47110000  0.39760000  0.90220000  1.0 -0.1773583657
C  C61  1  0.79290000  0.20170000  0.89080000  1.0 -0.1190870088
C  C62  1  0.88710000  0.20250000  0.88120000  1.0 -0.1505279679
C  C63  1  0.93050000  0.13110000  0.91270000  1.0 -0.0937325217
C  C64  1  0.02220000  0.12870000  0.90040000  1.0 -0.3483085976
C  C65  1  0.75300000  0.23050000  0.63040000  1.0 -0.1190870088
C  C66  1  0.73540000  0.42960000  0.00880000  1.0 -0.0590116411
C  C67  1  0.80940000  0.49020000  0.00090000  1.0 -0.1190870088
C  C68  1  0.53960000  0.34370000  0.91560000  1.0 -0.0590116411
C  C69  1  0.46020000  0.32100000  0.92300000  1.0 -0.1689452544
C  C70  1  0.23770000  0.70250000  0.80470000  1.0 -0.1190870088
C  C71  1  0.25600000  0.77070000  0.75580000  1.0 -0.1989064262
C  C72  1  0.24730000  0.73830000  0.69430000  1.0 -0.1989064262
C  C73  1  0.25070000  0.82140000  0.64910000  1.0 -0.1689452544
C  C74  1  0.22670000  0.64580000  0.90760000  1.0 -0.1773583657
C  C75  1  0.23390000  0.65150000  0.97770000  1.0 -0.1505279679
C  C76  1  0.19480000  0.57010000  0.00840000  1.0 -0.0590116411
C  C77  1  0.25690000  0.49870000  0.99780000  1.0 -0.1505279679
C  C78  1  0.34800000  0.74010000  0.87960000  1.0 -0.1873840139
C  C79  1  0.40530000  0.67190000  0.85760000  1.0 -0.1624850527
C  C80  1  0.49890000  0.68240000  0.86310000  1.0 -0.049289992
C  C81  1  0.52890000  0.60240000  0.90220000  1.0 -0.1773583657
C  C82  1  0.20710000  0.79830000  0.89080000  1.0 -0.1190870088
C  C83  1  0.11290000  0.79750000  0.88120000  1.0 -0.1505279679
C  C84  1  0.06950000  0.86890000  0.91270000  1.0 -0.0937325217
C  C85  1  0.97780000  0.87130000  0.90040000  1.0 -0.3483085976
C  C86  1  0.24700000  0.76950000  0.63040000  1.0 -0.1190870088
C  C87  1  0.26460000  0.57040000  0.00880000  1.0 -0.0590116411
C  C88  1  0.19060000  0.50980000  0.00090000  1.0 -0.1190870088
C  C89  1  0.46040000  0.65630000  0.91560000  1.0 -0.0590116411
C  C90  1  0.53980000  0.67900000  0.92300000  1.0 -0.1689452544
C  C91  1  0.73770000  0.79750000  0.19530000  1.0 -0.1190870088
C  C92  1  0.75600000  0.72930000  0.24420000  1.0 -0.1989064262
C  C93  1  0.74730000  0.76170000  0.30570000  1.0 -0.1989064262
C  C94  1  0.75070000  0.67860000  0.35090000  1.0 -0.1689452544
C  C95  1  0.72670000  0.85420000  0.09240000  1.0 -0.1773583657
C  C96  1  0.73390000  0.84850000  0.02230000  1.0 -0.1505279679
C  C97  1  0.69480000  0.92990000  0.99160000  1.0 -0.0590116411
C  C98  1  0.75690000  0.00130000  0.00220000  1.0 -0.1505279679
C  C99  1  0.84800000  0.75990000  0.12040000  1.0 -0.1873840139
C  C100  1  0.90530000  0.82810000  0.14240000  1.0 -0.1624850527
C  C101  1  0.99890000  0.81760000  0.13690000  1.0 -0.049289992
C  C102  1  0.02890000  0.89760000  0.09780000  1.0 -0.1773583657
C  C103  1  0.70710000  0.70170000  0.10920000  1.0 -0.1190870088
C  C104  1  0.61290000  0.70250000  0.11880000  1.0 -0.1505279679
C  C105  1  0.56950000  0.63110000  0.08730000  1.0 -0.0937325217
C  C106  1  0.47780000  0.62870000  0.09960000  1.0 -0.3483085976
C  C107  1  0.74700000  0.73050000  0.36960000  1.0 -0.1190870088
C  C108  1  0.76460000  0.92960000  0.99120000  1.0 -0.0590116411
C  C109  1  0.69060000  0.99020000  0.99910000  1.0 -0.1190870088
C  C110  1  0.96040000  0.84370000  0.08440000  1.0 -0.0590116411
C  C111  1  0.03980000  0.82100000  0.07700000  1.0 -0.1689452544
C  C112  1  0.26230000  0.20250000  0.19530000  1.0 -0.1190870088
C  C113  1  0.24400000  0.27070000  0.24420000  1.0 -0.1989064262
C  C114  1  0.25270000  0.23830000  0.30570000  1.0 -0.1989064262
C  C115  1  0.24930000  0.32140000  0.35090000  1.0 -0.1689452544
C  C116  1  0.27330000  0.14580000  0.09240000  1.0 -0.1689452544
C  C117  1  0.26610000  0.15150000  0.02230000  1.0 -0.1505279679
C  C118  1  0.30520000  0.07010000  0.99160000  1.0 -0.0590116411
C  C119  1  0.24310000  0.99870000  0.00220000  1.0 -0.1505279679
C  C120  1  0.15200000  0.24010000  0.12040000  1.0 -0.1873840139
C  C121  1  0.09470000  0.17190000  0.14240000  1.0 -0.1624850527
C  C122  1  0.00110000  0.18240000  0.13690000  1.0 -0.049289992
C  C123  1  0.97110000  0.10240000  0.09780000  1.0 -0.1773583657
C  C124  1  0.29290000  0.29830000  0.10920000  1.0 -0.1190870088
C  C125  1  0.38710000  0.29750000  0.11880000  1.0 -0.1505279679
C  C126  1  0.43050000  0.36890000  0.08730000  1.0 -0.0937325217
C  C127  1  0.52220000  0.37130000  0.09960000  1.0 -0.3483085976
C  C128  1  0.25300000  0.26950000  0.36960000  1.0 -0.1190870088
C  C129  1  0.23540000  0.07040000  0.99120000  1.0 -0.0590116411
C  C130  1  0.30940000  0.00980000  0.99910000  1.0 -0.1190870088
C  C131  1  0.03960000  0.15630000  0.08440000  1.0 -0.0590116411
C  C132  1  0.96020000  0.17900000  0.07700000  1.0 -0.1689452544
N  N1  1  0.90790000  0.01520000  0.40500000  1.0 -0.4562781051
N  N2  1  0.09210000  0.98480000  0.40500000  1.0 -0.4528160826
N  N3  1  0.59210000  0.51520000  0.59500000  1.0 -0.4562781051
N  N4  1  0.40790000  0.48480000  0.59500000  1.0 -0.4562781051
N  N5  1  0.10390000  0.98700000  0.25982000  1.0 -0.4388173975
N  N6  1  0.89610000  0.01300000  0.25982000  1.0 -0.4388173975
N  N7  1  0.39610000  0.48700000  0.74018000  1.0 -0.4388173975
N  N8  1  0.60390000  0.51300000  0.74018000  1.0 -0.4388173975
N  N9  1  0.01210000  0.13920000  0.32150000  1.0 -0.4680871525
N  N10  1  0.98790000  0.86080000  0.32150000  1.0 -0.4680871525
N  N11  1  0.48790000  0.63920000  0.67850000  1.0 -0.4680871525
N  N12  1  0.51210000  0.36080000  0.67850000  1.0 -0.4680871525
N  N13  1  0.00490000  0.39540000  0.24736000  1.0 -0.4834670843
N  N14  1  0.99510000  0.60460000  0.24736000  1.0 -0.4834670843
N  N15  1  0.49510000  0.89540000  0.75264000  1.0 -0.4834670843
N  N16  1  0.50490000  0.10460000  0.75264000  1.0 -0.4834670843
N  N17  1  0.98770000  0.59110000  0.09950000  1.0 -0.4017553106
N  N18  1  0.01230000  0.40890000  0.09950000  1.0 -0.4017553106
N  N19  1  0.51230000  0.09110000  0.90050000  1.0 -0.4017553106
N  N20  1  0.48770000  0.90890000  0.90050000  1.0 -0.4017553106
N  N21  1  0.13700000  0.50990000  0.17990000  1.0 -0.4528160826
N  N22  1  0.86300000  0.49010000  0.17990000  1.0 -0.4528160826
N  N23  1  0.36300000  0.00990000  0.82010000  1.0 -0.4528160826
N  N24  1  0.63700000  0.99010000  0.82010000  1.0 -0.4528160826
N  N25  1  0.39750000  0.51260000  0.24904000  1.0 -0.4978414446
N  N26  1  0.60250000  0.48740000  0.24904000  1.0 -0.4978414446
N  N27  1  0.10250000  0.01260000  0.75096000  1.0 -0.4978414446
N  N28  1  0.89750000  0.98740000  0.75096000  1.0 -0.4978414446
N  N29  1  0.90500000  0.99900000  0.60671000  1.0 -0.4680871525
N  N30  1  0.09500000  0.00100000  0.60671000  1.0 -0.4680871525
N  N31  1  0.59500000  0.49900000  0.39329000  1.0 -0.4680871525
N  N32  1  0.40500000  0.50100000  0.39329000  1.0 -0.4680871525
N  N33  1  0.98710000  0.13800000  0.68680000  1.0 -0.4680871525
N  N34  1  0.01290000  0.86200000  0.68680000  1.0 -0.4680871525
N  N35  1  0.51290000  0.63800000  0.31320000  1.0 -0.4680871525
N  N36  1  0.48710000  0.36200000  0.31320000  1.0 -0.4680871525
N  N37  1  0.98970000  0.39710000  0.75440000  1.0 -0.486794141
N  N38  1  0.01030000  0.60290000  0.75440000  1.0 -0.486794141
N  N39  1  0.51030000  0.89710000  0.24560000  1.0 -0.486794141
N  N40  1  0.48970000  0.10290000  0.24560000  1.0 -0.486794141
N  N41  1  0.36130000  0.98640000  0.18309000  1.0 -0.4680871525
N  N42  1  0.63870000  0.01360000  0.18309000  1.0 -0.4680871525
N  N43  1  0.13870000  0.48640000  0.81691000  1.0 -0.4680871525
N  N44  1  0.86130000  0.51360000  0.81691000  1.0 -0.4680871525
N  N45  1  0.00010000  0.59230000  0.89893000  1.0 -0.4388173975
N  N46  1  0.99990000  0.40770000  0.89893000  1.0 -0.4388173975
N  N47  1  0.49990000  0.09230000  0.10107000  1.0 -0.4388173975
N  N48  1  0.50010000  0.90770000  0.10107000  1.0 -0.4388173975
N  N49  1  0.84220000  0.03270000  0.50730000  1.0 -0.0810238149
N  N50  1  0.15780000  0.96730000  0.50730000  1.0 -0.0810238149
N  N51  1  0.65780000  0.53270000  0.49270000  1.0 -0.0810238149
N  N52  1  0.34220000  0.46730000  0.49270000  1.0 -0.0810238149
N  N53  1  0.20900000  0.96700000  0.17920000  1.0 -0.486794141
N  N54  1  0.79100000  0.03300000  0.17920000  1.0 -0.486794141
N  N55  1  0.29100000  0.46700000  0.82080000  1.0 -0.486794141
N  N56  1  0.70900000  0.53300000  0.82080000  1.0 -0.486794141
N  N57  1  0.99820000  0.28730000  0.32510000  1.0 -0.0401427288
N  N58  1  0.00180000  0.71270000  0.32510000  1.0 -0.0401427288
N  N59  1  0.50180000  0.78730000  0.67490000  1.0 -0.0401427288
N  N60  1  0.49820000  0.21270000  0.67490000  1.0 -0.0401427288
N  N61  1  0.94630000  0.64680000  0.99810000  1.0 -0.1624850527
N  N62  1  0.05370000  0.35320000  0.99810000  1.0 -0.1624850527
N  N63  1  0.55370000  0.14680000  0.00190000  1.0 -0.1624850527
N  N64  1  0.44630000  0.85320000  0.00190000  1.0 -0.1624850527
N  N65  1  0.29270000  0.51760000  0.16770000  1.0 -0.1190870088
N  N66  1  0.70730000  0.48240000  0.16770000  1.0 -0.1190870088
N  N67  1  0.20730000  0.01760000  0.83230000  1.0 -0.1190870088
N  N68  1  0.79270000  0.98240000  0.83230000  1.0 -0.1190870088
N  N69  1  0.97290000  0.28580000  0.67940000  1.0 -0.4059018687
N  N70  1  0.02710000  0.71420000  0.67940000  1.0 -0.4059018687
N  N71  1  0.52710000  0.78580000  0.32060000  1.0 -0.4017553106
N  N72  1  0.47290000  0.21420000  0.32060000  1.0 -0.4059018687
N  N73  1  0.86300000  0.06570000  0.50630000  1.0 -0.049289992
N  N74  1  0.13700000  0.93430000  0.50630000  1.0 -0.049289992
N  N75  1  0.63700000  0.56570000  0.49370000  1.0 -0.049289992
N  N76  1  0.36300000  0.43430000  0.49370000  1.0 -0.049289992
N  N77  1  0.04460000  0.28660000  0.31670000  1.0 -0.1624850527
N  N78  1  0.95540000  0.71340000  0.31670000  1.0 -0.1689452544
N  N79  1  0.45540000  0.78660000  0.68330000  1.0 -0.1624850527
N  N80  1  0.54460000  0.21340000  0.68330000  1.0 -0.1689452544
N  N81  1  0.98610000  0.66190000  0.00020000  1.0 -0.1689452544
N  N82  1  0.01390000  0.33810000  0.00020000  1.0 -0.1689452544
N  N83  1  0.51390000  0.16190000  0.99980000  1.0 -0.1689452544
N  N84  1  0.48610000  0.83810000  0.99980000  1.0 -0.1689452544
N  N85  1  0.28300000  0.47780000  0.17800000  1.0 -0.1505279679
N  N86  1  0.71700000  0.52220000  0.17800000  1.0 -0.1505279679
N  N87  1  0.21700000  0.97780000  0.82200000  1.0 -0.1505279679
N  N88  1  0.78300000  0.02220000  0.82200000  1.0 -0.1505279679
N  N89  1  0.74540000  0.27690000  0.87083000  1.0 0.0374072065
N  N90  1  0.25460000  0.72310000  0.87083000  1.0 0.0374072065
N  N91  1  0.75460000  0.77690000  0.12917000  1.0 0.0374072065
N  N92  1  0.24540000  0.22310000  0.12917000  1.0 0.0374072065
