# DDEC6 charges by PACMAN v1.1 (https://github.com/mtap-research/PACMAN-charge/)
data_GAQYIH_ASR_pacman
_symmetry_space_group_name_H-M   'P 1'
_cell_length_a   34.60660000
_cell_length_b   34.60660000
_cell_length_c   34.60660000
_cell_angle_alpha   60.00000000
_cell_angle_beta   60.00000000
_cell_angle_gamma   60.00000000
_symmetry_Int_Tables_number   1
_chemical_formula_structural   CdH6C3N2
_chemical_formula_sum   'Cd68 H408 C204 N136'
_cell_volume   29306.35470662
_cell_formula_units_Z   68
loop_
 _symmetry_equiv_pos_site_id
 _symmetry_equiv_pos_as_xyz
  1  'x, y, z'
loop_
 _atom_site_type_symbol
 _atom_site_label
 _atom_site_symmetry_multiplicity
 _atom_site_fract_x
 _atom_site_fract_y
 _atom_site_fract_z
 _atom_site_occupancy
 _atom_site_charge
Cd  Cd1  1  0.51718000  0.82162000  0.33060000  1.0 0.2687492508
Cd  Cd2  1  0.33060000  0.51718000  0.82162000  1.0 0.2608229981
Cd  Cd3  1  0.82162000  0.33060000  0.51718000  1.0 0.2687492508
Cd  Cd4  1  0.73282000  0.42838000  0.91940000  1.0 0.252104421
Cd  Cd5  1  0.91940000  0.91940000  0.42838000  1.0 0.2608229981
Cd  Cd6  1  0.91940000  0.91940000  0.73282000  1.0 0.2687492508
Cd  Cd7  1  0.91940000  0.73282000  0.91940000  1.0 0.2687492508
Cd  Cd8  1  0.91940000  0.42838000  0.91940000  1.0 0.252104421
Cd  Cd9  1  0.42838000  0.91940000  0.73282000  1.0 0.2687492508
Cd  Cd10  1  0.42838000  0.91940000  0.91940000  1.0 0.2608229981
Cd  Cd11  1  0.73282000  0.91940000  0.91940000  1.0 0.2608229981
Cd  Cd12  1  0.91940000  0.73282000  0.42838000  1.0 0.2608229981
Cd  Cd13  1  0.33060000  0.33060000  0.51718000  1.0 0.2608229981
Cd  Cd14  1  0.82162000  0.33060000  0.33060000  1.0 0.2687492508
Cd  Cd15  1  0.51718000  0.33060000  0.82162000  1.0 0.2608229981
Cd  Cd16  1  0.82162000  0.51718000  0.33060000  1.0 0.2687492508
Cd  Cd17  1  0.51718000  0.33060000  0.33060000  1.0 0.2687492508
Cd  Cd18  1  0.33060000  0.82162000  0.33060000  1.0 0.2687492508
Cd  Cd19  1  0.33060000  0.33060000  0.82162000  1.0 0.2687492508
Cd  Cd20  1  0.33060000  0.82162000  0.51718000  1.0 0.2608229981
Cd  Cd21  1  0.33060000  0.51718000  0.33060000  1.0 0.2687492508
Cd  Cd22  1  0.42838000  0.73282000  0.91940000  1.0 0.2608229981
Cd  Cd23  1  0.73282000  0.91940000  0.42838000  1.0 0.2608229981
Cd  Cd24  1  0.91940000  0.42838000  0.73282000  1.0 0.252104421
Cd  Cd25  1  0.45367000  0.63899000  0.45367000  1.0 0.2608229981
Cd  Cd26  1  0.45367000  0.45367000  0.63899000  1.0 0.2608229981
Cd  Cd27  1  0.63899000  0.45367000  0.45367000  1.0 0.2608229981
Cd  Cd28  1  0.79633000  0.61101000  0.79633000  1.0 0.2608229981
Cd  Cd29  1  0.79633000  0.79633000  0.61101000  1.0 0.252104421
Cd  Cd30  1  0.79633000  0.79633000  0.79633000  1.0 0.252104421
Cd  Cd31  1  0.61101000  0.79633000  0.79633000  1.0 0.252104421
Cd  Cd32  1  0.45367000  0.45367000  0.45367000  1.0 0.2608229981
Cd  Cd33  1  0.62500000  0.93536000  0.31464000  1.0 0.2687492508
Cd  Cd34  1  0.31464000  0.62500000  0.93536000  1.0 0.2687492508
Cd  Cd35  1  0.93536000  0.31464000  0.62500000  1.0 0.2608229981
Cd  Cd36  1  0.62500000  0.31464000  0.12500000  1.0 0.2687492508
Cd  Cd37  1  0.93536000  0.12500000  0.31464000  1.0 0.2608229981
Cd  Cd38  1  0.12500000  0.93536000  0.62500000  1.0 0.2687492508
Cd  Cd39  1  0.93536000  0.62500000  0.12500000  1.0 0.2608229981
Cd  Cd40  1  0.12500000  0.31464000  0.93536000  1.0 0.2608229981
Cd  Cd41  1  0.31464000  0.12500000  0.62500000  1.0 0.2608229981
Cd  Cd42  1  0.31464000  0.93536000  0.12500000  1.0 0.2687492508
Cd  Cd43  1  0.62500000  0.12500000  0.93536000  1.0 0.2687492508
Cd  Cd44  1  0.12500000  0.62500000  0.31464000  1.0 0.252104421
Cd  Cd45  1  0.62500000  0.31464000  0.93536000  1.0 0.2687492508
Cd  Cd46  1  0.93536000  0.62500000  0.31464000  1.0 0.2758507997
Cd  Cd47  1  0.31464000  0.93536000  0.62500000  1.0 0.2608229981
Cd  Cd48  1  0.62500000  0.93536000  0.12500000  1.0 0.2687492508
Cd  Cd49  1  0.31464000  0.12500000  0.93536000  1.0 0.2687492508
Cd  Cd50  1  0.12500000  0.31464000  0.62500000  1.0 0.2687492508
Cd  Cd51  1  0.31464000  0.62500000  0.12500000  1.0 0.2687492508
Cd  Cd52  1  0.12500000  0.93536000  0.31464000  1.0 0.2687492508
Cd  Cd53  1  0.93536000  0.12500000  0.62500000  1.0 0.2687492508
Cd  Cd54  1  0.93536000  0.31464000  0.12500000  1.0 0.2687492508
Cd  Cd55  1  0.62500000  0.12500000  0.31464000  1.0 0.2608229981
Cd  Cd56  1  0.12500000  0.62500000  0.93536000  1.0 0.2608229981
Cd  Cd57  1  0.74683000  0.74683000  0.25317000  1.0 0.2391229498
Cd  Cd58  1  0.25317000  0.74683000  0.74683000  1.0 0.2328098238
Cd  Cd59  1  0.74683000  0.25317000  0.74683000  1.0 0.2391229498
Cd  Cd60  1  0.50317000  0.50317000  0.99683000  1.0 0.2391229498
Cd  Cd61  1  0.99683000  0.99683000  0.50317000  1.0 0.2391229498
Cd  Cd62  1  0.99683000  0.50317000  0.99683000  1.0 0.2391229498
Cd  Cd63  1  0.50317000  0.99683000  0.50317000  1.0 0.2391229498
Cd  Cd64  1  0.50317000  0.99683000  0.99683000  1.0 0.2328098238
Cd  Cd65  1  0.99683000  0.50317000  0.50317000  1.0 0.252104421
Cd  Cd66  1  0.25317000  0.25317000  0.74683000  1.0 0.2391229498
Cd  Cd67  1  0.74683000  0.25317000  0.25317000  1.0 0.2328098238
Cd  Cd68  1  0.25317000  0.74683000  0.25317000  1.0 0.2328098238
H  H1  1  0.48410000  0.72890000  0.37070000  1.0 0.0601142169
H  H2  1  0.37070000  0.48410000  0.72890000  1.0 0.0601142169
H  H3  1  0.72890000  0.37070000  0.48410000  1.0 0.0601142169
H  H4  1  0.76590000  0.52110000  0.83370000  1.0 0.0601142169
H  H5  1  0.87930000  0.83370000  0.52110000  1.0 0.0601142169
H  H6  1  0.83370000  0.87930000  0.76590000  1.0 0.0601142169
H  H7  1  0.87930000  0.76590000  0.83370000  1.0 0.0601142169
H  H8  1  0.83370000  0.52110000  0.87930000  1.0 0.0601142169
H  H9  1  0.52110000  0.83370000  0.76590000  1.0 0.0601142169
H  H10  1  0.52110000  0.87930000  0.83370000  1.0 0.0601142169
H  H11  1  0.76590000  0.83370000  0.87930000  1.0 0.0601142169
H  H12  1  0.83370000  0.76590000  0.52110000  1.0 0.0601142169
H  H13  1  0.37070000  0.41630000  0.48410000  1.0 0.0601142169
H  H14  1  0.72890000  0.41630000  0.37070000  1.0 0.0601142169
H  H15  1  0.48410000  0.41630000  0.72890000  1.0 0.0601142169
H  H16  1  0.72890000  0.48410000  0.41630000  1.0 0.0601142169
H  H17  1  0.48410000  0.37070000  0.41630000  1.0 0.0601142169
H  H18  1  0.37070000  0.72890000  0.41630000  1.0 0.0601142169
H  H19  1  0.41630000  0.37070000  0.72890000  1.0 0.0601142169
H  H20  1  0.41630000  0.72890000  0.48410000  1.0 0.0601142169
H  H21  1  0.41630000  0.48410000  0.37070000  1.0 0.0601142169
H  H22  1  0.52110000  0.76590000  0.87930000  1.0 0.0601142169
H  H23  1  0.76590000  0.87930000  0.52110000  1.0 0.0601142169
H  H24  1  0.87930000  0.52110000  0.76590000  1.0 0.0601142169
H  H25  1  0.76590000  0.52110000  0.87930000  1.0 0.0601142169
H  H26  1  0.87930000  0.76590000  0.52110000  1.0 0.0601142169
H  H27  1  0.52110000  0.87930000  0.76590000  1.0 0.0601142169
H  H28  1  0.48410000  0.72890000  0.41630000  1.0 0.0601142169
H  H29  1  0.37070000  0.41630000  0.72890000  1.0 0.0601142169
H  H30  1  0.41630000  0.37070000  0.48410000  1.0 0.0601142169
H  H31  1  0.37070000  0.48410000  0.41630000  1.0 0.0601142169
H  H32  1  0.41630000  0.72890000  0.37070000  1.0 0.0601142169
H  H33  1  0.72890000  0.41630000  0.48410000  1.0 0.0601142169
H  H34  1  0.72890000  0.37070000  0.41630000  1.0 0.0601142169
H  H35  1  0.48410000  0.41630000  0.37070000  1.0 0.0601142169
H  H36  1  0.41630000  0.48410000  0.72890000  1.0 0.0601142169
H  H37  1  0.87930000  0.83370000  0.76590000  1.0 0.0601142169
H  H38  1  0.52110000  0.83370000  0.87930000  1.0 0.0601142169
H  H39  1  0.76590000  0.83370000  0.52110000  1.0 0.0601142169
H  H40  1  0.52110000  0.76590000  0.83370000  1.0 0.0601142169
H  H41  1  0.76590000  0.87930000  0.83370000  1.0 0.0601142169
H  H42  1  0.87930000  0.52110000  0.83370000  1.0 0.0601142169
H  H43  1  0.83370000  0.87930000  0.52110000  1.0 0.0601142169
H  H44  1  0.83370000  0.52110000  0.76590000  1.0 0.0601142169
H  H45  1  0.83370000  0.76590000  0.87930000  1.0 0.0601142169
H  H46  1  0.72890000  0.48410000  0.37070000  1.0 0.0601142169
H  H47  1  0.48410000  0.37070000  0.72890000  1.0 0.0601142169
H  H48  1  0.37070000  0.72890000  0.48410000  1.0 0.0601142169
H  H49  1  0.43910000  0.80210000  0.31970000  1.0 0.0601142169
H  H50  1  0.31970000  0.43910000  0.80210000  1.0 0.0601142169
H  H51  1  0.80210000  0.31970000  0.43910000  1.0 0.0601142169
H  H52  1  0.81090000  0.44790000  0.81090000  1.0 0.0658248227
H  H53  1  0.93030000  0.81090000  0.44790000  1.0 0.0601142169
H  H54  1  0.81090000  0.93030000  0.81090000  1.0 0.0658248227
H  H55  1  0.93030000  0.81090000  0.81090000  1.0 0.0601142169
H  H56  1  0.81090000  0.44790000  0.93030000  1.0 0.0658248227
H  H57  1  0.44790000  0.81090000  0.81090000  1.0 0.0601142169
H  H58  1  0.44790000  0.93030000  0.81090000  1.0 0.0601142169
H  H59  1  0.81090000  0.81090000  0.93030000  1.0 0.0601142169
H  H60  1  0.81090000  0.81090000  0.44790000  1.0 0.0601142169
H  H61  1  0.31970000  0.43910000  0.43910000  1.0 0.0601142169
H  H62  1  0.80210000  0.43910000  0.31970000  1.0 0.0601142169
H  H63  1  0.43910000  0.43910000  0.80210000  1.0 0.0601142169
H  H64  1  0.80210000  0.43910000  0.43910000  1.0 0.0601142169
H  H65  1  0.43910000  0.31970000  0.43910000  1.0 0.0601142169
H  H66  1  0.31970000  0.80210000  0.43910000  1.0 0.0601142169
H  H67  1  0.43910000  0.31970000  0.80210000  1.0 0.0601142169
H  H68  1  0.43910000  0.80210000  0.43910000  1.0 0.0601142169
H  H69  1  0.43910000  0.43910000  0.31970000  1.0 0.0601142169
H  H70  1  0.44790000  0.81090000  0.93030000  1.0 0.0601142169
H  H71  1  0.81090000  0.93030000  0.44790000  1.0 0.0601142169
H  H72  1  0.93030000  0.44790000  0.81090000  1.0 0.0658248227
H  H73  1  0.40850000  0.84730000  0.33570000  1.0 0.0601142169
H  H74  1  0.33570000  0.40850000  0.84730000  1.0 0.0658248227
H  H75  1  0.84730000  0.33570000  0.40850000  1.0 0.0658248227
H  H76  1  0.84150000  0.40270000  0.84150000  1.0 0.0658248227
H  H77  1  0.91430000  0.84150000  0.40270000  1.0 0.0658248227
H  H78  1  0.84150000  0.91430000  0.84150000  1.0 0.0658248227
H  H79  1  0.91430000  0.84150000  0.84150000  1.0 0.0658248227
H  H80  1  0.84150000  0.40270000  0.91430000  1.0 0.0658248227
H  H81  1  0.40270000  0.84150000  0.84150000  1.0 0.0601142169
H  H82  1  0.40270000  0.91430000  0.84150000  1.0 0.0601142169
H  H83  1  0.84150000  0.84150000  0.91430000  1.0 0.0658248227
H  H84  1  0.84150000  0.84150000  0.40270000  1.0 0.0658248227
H  H85  1  0.33570000  0.40850000  0.40850000  1.0 0.0601142169
H  H86  1  0.84730000  0.40850000  0.33570000  1.0 0.0658248227
H  H87  1  0.40850000  0.40850000  0.84730000  1.0 0.0658248227
H  H88  1  0.84730000  0.40850000  0.40850000  1.0 0.0601142169
H  H89  1  0.40850000  0.33570000  0.40850000  1.0 0.0658248227
H  H90  1  0.33570000  0.84730000  0.40850000  1.0 0.0658248227
H  H91  1  0.40850000  0.33570000  0.84730000  1.0 0.0658248227
H  H92  1  0.40850000  0.84730000  0.40850000  1.0 0.0601142169
H  H93  1  0.40850000  0.40850000  0.33570000  1.0 0.0658248227
H  H94  1  0.40270000  0.84150000  0.91430000  1.0 0.0658248227
H  H95  1  0.84150000  0.91430000  0.40270000  1.0 0.0658248227
H  H96  1  0.91430000  0.40270000  0.84150000  1.0 0.0658248227
H  H97  1  0.63490000  0.77970000  0.31550000  1.0 0.0601142169
H  H98  1  0.31550000  0.63490000  0.77970000  1.0 0.0601142169
H  H99  1  0.77970000  0.31550000  0.63490000  1.0 0.0601142169
H  H100  1  0.61510000  0.47030000  0.98010000  1.0 0.0601142169
H  H101  1  0.93450000  0.98010000  0.47030000  1.0 0.0601142169
H  H102  1  0.98010000  0.93450000  0.61510000  1.0 0.0601142169
H  H103  1  0.93450000  0.61510000  0.98010000  1.0 0.0601142169
H  H104  1  0.98010000  0.47030000  0.93450000  1.0 0.0601142169
H  H105  1  0.47030000  0.98010000  0.61510000  1.0 0.0601142169
H  H106  1  0.47030000  0.93450000  0.98010000  1.0 0.0601142169
H  H107  1  0.61510000  0.98010000  0.93450000  1.0 0.0601142169
H  H108  1  0.98010000  0.61510000  0.47030000  1.0 0.0601142169
H  H109  1  0.31550000  0.26990000  0.63490000  1.0 0.0601142169
H  H110  1  0.77970000  0.26990000  0.31550000  1.0 0.0601142169
H  H111  1  0.63490000  0.26990000  0.77970000  1.0 0.0601142169
H  H112  1  0.77970000  0.63490000  0.26990000  1.0 0.0601142169
H  H113  1  0.63490000  0.31550000  0.26990000  1.0 0.0601142169
H  H114  1  0.31550000  0.77970000  0.26990000  1.0 0.0601142169
H  H115  1  0.26990000  0.31550000  0.77970000  1.0 0.0601142169
H  H116  1  0.26990000  0.77970000  0.63490000  1.0 0.0601142169
H  H117  1  0.26990000  0.63490000  0.31550000  1.0 0.0601142169
H  H118  1  0.47030000  0.61510000  0.93450000  1.0 0.0601142169
H  H119  1  0.61510000  0.93450000  0.47030000  1.0 0.0601142169
H  H120  1  0.93450000  0.47030000  0.61510000  1.0 0.0601142169
H  H121  1  0.61510000  0.47030000  0.93450000  1.0 0.0601142169
H  H122  1  0.93450000  0.61510000  0.47030000  1.0 0.0601142169
H  H123  1  0.47030000  0.93450000  0.61510000  1.0 0.0601142169
H  H124  1  0.63490000  0.77970000  0.26990000  1.0 0.0601142169
H  H125  1  0.31550000  0.26990000  0.77970000  1.0 0.0601142169
H  H126  1  0.26990000  0.31550000  0.63490000  1.0 0.0601142169
H  H127  1  0.31550000  0.63490000  0.26990000  1.0 0.0601142169
H  H128  1  0.26990000  0.77970000  0.31550000  1.0 0.0601142169
H  H129  1  0.77970000  0.26990000  0.63490000  1.0 0.0601142169
H  H130  1  0.77970000  0.31550000  0.26990000  1.0 0.0601142169
H  H131  1  0.63490000  0.26990000  0.31550000  1.0 0.0601142169
H  H132  1  0.26990000  0.63490000  0.77970000  1.0 0.0601142169
H  H133  1  0.93450000  0.98010000  0.61510000  1.0 0.0601142169
H  H134  1  0.47030000  0.98010000  0.93450000  1.0 0.0601142169
H  H135  1  0.61510000  0.98010000  0.47030000  1.0 0.0601142169
H  H136  1  0.47030000  0.61510000  0.98010000  1.0 0.0601142169
H  H137  1  0.61510000  0.93450000  0.98010000  1.0 0.0601142169
H  H138  1  0.93450000  0.47030000  0.98010000  1.0 0.0601142169
H  H139  1  0.98010000  0.93450000  0.47030000  1.0 0.0601142169
H  H140  1  0.98010000  0.47030000  0.61510000  1.0 0.0601142169
H  H141  1  0.98010000  0.61510000  0.93450000  1.0 0.0601142169
H  H142  1  0.77970000  0.63490000  0.31550000  1.0 0.0601142169
H  H143  1  0.63490000  0.31550000  0.77970000  1.0 0.0601142169
H  H144  1  0.31550000  0.77970000  0.63490000  1.0 0.0601142169
H  H145  1  0.58830000  0.85490000  0.33650000  1.0 0.0601142169
H  H146  1  0.33650000  0.58830000  0.85490000  1.0 0.0601142169
H  H147  1  0.85490000  0.33650000  0.58830000  1.0 0.0601142169
H  H148  1  0.66170000  0.39510000  0.02970000  1.0 0.0601142169
H  H149  1  0.91350000  0.02970000  0.39510000  1.0 0.0601142169
H  H150  1  0.02970000  0.91350000  0.66170000  1.0 0.0601142169
H  H151  1  0.91350000  0.66170000  0.02970000  1.0 0.0601142169
H  H152  1  0.02970000  0.39510000  0.91350000  1.0 0.0601142169
H  H153  1  0.39510000  0.02970000  0.66170000  1.0 0.0601142169
H  H154  1  0.39510000  0.91350000  0.02970000  1.0 0.0601142169
H  H155  1  0.66170000  0.02970000  0.91350000  1.0 0.0601142169
H  H156  1  0.02970000  0.66170000  0.39510000  1.0 0.0601142169
H  H157  1  0.33650000  0.22030000  0.58830000  1.0 0.0601142169
H  H158  1  0.85490000  0.22030000  0.33650000  1.0 0.0601142169
H  H159  1  0.58830000  0.22030000  0.85490000  1.0 0.0601142169
H  H160  1  0.85490000  0.58830000  0.22030000  1.0 0.0601142169
H  H161  1  0.58830000  0.33650000  0.22030000  1.0 0.0601142169
H  H162  1  0.33650000  0.85490000  0.22030000  1.0 0.0601142169
H  H163  1  0.22030000  0.33650000  0.85490000  1.0 0.0601142169
H  H164  1  0.22030000  0.85490000  0.58830000  1.0 0.0601142169
H  H165  1  0.22030000  0.58830000  0.33650000  1.0 0.0601142169
H  H166  1  0.39510000  0.66170000  0.91350000  1.0 0.0601142169
H  H167  1  0.66170000  0.91350000  0.39510000  1.0 0.0601142169
H  H168  1  0.91350000  0.39510000  0.66170000  1.0 0.0601142169
H  H169  1  0.66170000  0.39510000  0.91350000  1.0 0.0601142169
H  H170  1  0.91350000  0.66170000  0.39510000  1.0 0.0601142169
H  H171  1  0.39510000  0.91350000  0.66170000  1.0 0.0601142169
H  H172  1  0.58830000  0.85490000  0.22030000  1.0 0.0601142169
H  H173  1  0.33650000  0.22030000  0.85490000  1.0 0.0601142169
H  H174  1  0.22030000  0.33650000  0.58830000  1.0 0.0601142169
H  H175  1  0.33650000  0.58830000  0.22030000  1.0 0.0601142169
H  H176  1  0.22030000  0.85490000  0.33650000  1.0 0.0601142169
H  H177  1  0.85490000  0.22030000  0.58830000  1.0 0.0601142169
H  H178  1  0.85490000  0.33650000  0.22030000  1.0 0.0601142169
H  H179  1  0.58830000  0.22030000  0.33650000  1.0 0.0601142169
H  H180  1  0.22030000  0.58830000  0.85490000  1.0 0.0601142169
H  H181  1  0.91350000  0.02970000  0.66170000  1.0 0.0601142169
H  H182  1  0.39510000  0.02970000  0.91350000  1.0 0.0601142169
H  H183  1  0.66170000  0.02970000  0.39510000  1.0 0.0601142169
H  H184  1  0.39510000  0.66170000  0.02970000  1.0 0.0601142169
H  H185  1  0.66170000  0.91350000  0.02970000  1.0 0.0601142169
H  H186  1  0.91350000  0.39510000  0.02970000  1.0 0.0601142169
H  H187  1  0.02970000  0.91350000  0.39510000  1.0 0.0601142169
H  H188  1  0.02970000  0.39510000  0.66170000  1.0 0.0601142169
H  H189  1  0.02970000  0.66170000  0.91350000  1.0 0.0601142169
H  H190  1  0.85490000  0.58830000  0.33650000  1.0 0.0601142169
H  H191  1  0.58830000  0.33650000  0.85490000  1.0 0.0601142169
H  H192  1  0.33650000  0.85490000  0.58830000  1.0 0.0601142169
H  H193  1  0.55880000  0.90100000  0.30620000  1.0 0.0601142169
H  H194  1  0.30620000  0.55880000  0.90100000  1.0 0.0601142169
H  H195  1  0.90100000  0.30620000  0.55880000  1.0 0.0601142169
H  H196  1  0.69120000  0.34900000  0.01600000  1.0 0.0601142169
H  H197  1  0.94380000  0.01600000  0.34900000  1.0 0.0601142169
H  H198  1  0.01600000  0.94380000  0.69120000  1.0 0.0601142169
H  H199  1  0.94380000  0.69120000  0.01600000  1.0 0.0601142169
H  H200  1  0.01600000  0.34900000  0.94380000  1.0 0.0601142169
H  H201  1  0.34900000  0.01600000  0.69120000  1.0 0.0601142169
H  H202  1  0.34900000  0.94380000  0.01600000  1.0 0.0601142169
H  H203  1  0.69120000  0.01600000  0.94380000  1.0 0.0601142169
H  H204  1  0.01600000  0.69120000  0.34900000  1.0 0.0601142169
H  H205  1  0.30620000  0.23400000  0.55880000  1.0 0.0601142169
H  H206  1  0.90100000  0.23400000  0.30620000  1.0 0.0601142169
H  H207  1  0.55880000  0.23400000  0.90100000  1.0 0.0601142169
H  H208  1  0.90100000  0.55880000  0.23400000  1.0 0.0601142169
H  H209  1  0.55880000  0.30620000  0.23400000  1.0 0.0601142169
H  H210  1  0.30620000  0.90100000  0.23400000  1.0 0.0601142169
H  H211  1  0.23400000  0.30620000  0.90100000  1.0 0.0601142169
H  H212  1  0.23400000  0.90100000  0.55880000  1.0 0.0601142169
H  H213  1  0.23400000  0.55880000  0.30620000  1.0 0.0601142169
H  H214  1  0.34900000  0.69120000  0.94380000  1.0 0.0601142169
H  H215  1  0.69120000  0.94380000  0.34900000  1.0 0.0601142169
H  H216  1  0.94380000  0.34900000  0.69120000  1.0 0.0601142169
H  H217  1  0.69120000  0.34900000  0.94380000  1.0 0.0601142169
H  H218  1  0.94380000  0.69120000  0.34900000  1.0 0.0601142169
H  H219  1  0.34900000  0.94380000  0.69120000  1.0 0.0601142169
H  H220  1  0.55880000  0.90100000  0.23400000  1.0 0.0601142169
H  H221  1  0.30620000  0.23400000  0.90100000  1.0 0.0601142169
H  H222  1  0.23400000  0.30620000  0.55880000  1.0 0.0601142169
H  H223  1  0.30620000  0.55880000  0.23400000  1.0 0.0601142169
H  H224  1  0.23400000  0.90100000  0.30620000  1.0 0.0601142169
H  H225  1  0.90100000  0.23400000  0.55880000  1.0 0.0601142169
H  H226  1  0.90100000  0.30620000  0.23400000  1.0 0.0601142169
H  H227  1  0.55880000  0.23400000  0.30620000  1.0 0.0601142169
H  H228  1  0.23400000  0.55880000  0.90100000  1.0 0.0601142169
H  H229  1  0.94380000  0.01600000  0.69120000  1.0 0.0601142169
H  H230  1  0.34900000  0.01600000  0.94380000  1.0 0.0601142169
H  H231  1  0.69120000  0.01600000  0.34900000  1.0 0.0601142169
H  H232  1  0.34900000  0.69120000  0.01600000  1.0 0.0601142169
H  H233  1  0.69120000  0.94380000  0.01600000  1.0 0.0601142169
H  H234  1  0.94380000  0.34900000  0.01600000  1.0 0.0601142169
H  H235  1  0.01600000  0.94380000  0.34900000  1.0 0.0601142169
H  H236  1  0.01600000  0.34900000  0.69120000  1.0 0.0601142169
H  H237  1  0.01600000  0.69120000  0.94380000  1.0 0.0601142169
H  H238  1  0.90100000  0.55880000  0.30620000  1.0 0.0601142169
H  H239  1  0.55880000  0.30620000  0.90100000  1.0 0.0601142169
H  H240  1  0.30620000  0.90100000  0.55880000  1.0 0.0601142169
H  H241  1  0.70190000  0.85250000  0.25870000  1.0 0.0601142169
H  H242  1  0.25870000  0.70190000  0.85250000  1.0 0.0601142169
H  H243  1  0.85250000  0.25870000  0.70190000  1.0 0.0601142169
H  H244  1  0.54810000  0.39750000  0.06310000  1.0 0.0601142169
H  H245  1  0.99130000  0.06310000  0.39750000  1.0 0.0601142169
H  H246  1  0.06310000  0.99130000  0.54810000  1.0 0.0601142169
H  H247  1  0.99130000  0.54810000  0.06310000  1.0 0.0601142169
H  H248  1  0.06310000  0.39750000  0.99130000  1.0 0.0601142169
H  H249  1  0.39750000  0.06310000  0.54810000  1.0 0.0601142169
H  H250  1  0.39750000  0.99130000  0.06310000  1.0 0.0601142169
H  H251  1  0.54810000  0.06310000  0.99130000  1.0 0.0601142169
H  H252  1  0.06310000  0.54810000  0.39750000  1.0 0.0601142169
H  H253  1  0.25870000  0.18690000  0.70190000  1.0 0.0601142169
H  H254  1  0.85250000  0.18690000  0.25870000  1.0 0.0601142169
H  H255  1  0.70190000  0.18690000  0.85250000  1.0 0.0601142169
H  H256  1  0.85250000  0.70190000  0.18690000  1.0 0.0601142169
H  H257  1  0.70190000  0.25870000  0.18690000  1.0 0.0601142169
H  H258  1  0.25870000  0.85250000  0.18690000  1.0 0.0601142169
H  H259  1  0.18690000  0.25870000  0.85250000  1.0 0.0601142169
H  H260  1  0.18690000  0.85250000  0.70190000  1.0 0.0601142169
H  H261  1  0.18690000  0.70190000  0.25870000  1.0 0.0601142169
H  H262  1  0.39750000  0.54810000  0.99130000  1.0 0.0601142169
H  H263  1  0.54810000  0.99130000  0.39750000  1.0 0.0601142169
H  H264  1  0.99130000  0.39750000  0.54810000  1.0 0.0601142169
H  H265  1  0.54810000  0.39750000  0.99130000  1.0 0.0601142169
H  H266  1  0.99130000  0.54810000  0.39750000  1.0 0.0601142169
H  H267  1  0.39750000  0.99130000  0.54810000  1.0 0.0601142169
H  H268  1  0.70190000  0.85250000  0.18690000  1.0 0.0601142169
H  H269  1  0.25870000  0.18690000  0.85250000  1.0 0.0601142169
H  H270  1  0.18690000  0.25870000  0.70190000  1.0 0.0601142169
H  H271  1  0.25870000  0.70190000  0.18690000  1.0 0.0601142169
H  H272  1  0.18690000  0.85250000  0.25870000  1.0 0.0601142169
H  H273  1  0.85250000  0.18690000  0.70190000  1.0 0.0601142169
H  H274  1  0.85250000  0.25870000  0.18690000  1.0 0.0601142169
H  H275  1  0.70190000  0.18690000  0.25870000  1.0 0.0601142169
H  H276  1  0.18690000  0.70190000  0.85250000  1.0 0.0601142169
H  H277  1  0.99130000  0.06310000  0.54810000  1.0 0.0601142169
H  H278  1  0.39750000  0.06310000  0.99130000  1.0 0.0601142169
H  H279  1  0.54810000  0.06310000  0.39750000  1.0 0.0601142169
H  H280  1  0.39750000  0.54810000  0.06310000  1.0 0.0601142169
H  H281  1  0.54810000  0.99130000  0.06310000  1.0 0.0601142169
H  H282  1  0.99130000  0.39750000  0.06310000  1.0 0.0601142169
H  H283  1  0.06310000  0.99130000  0.39750000  1.0 0.0601142169
H  H284  1  0.06310000  0.39750000  0.54810000  1.0 0.0601142169
H  H285  1  0.06310000  0.54810000  0.99130000  1.0 0.0601142169
H  H286  1  0.85250000  0.70190000  0.25870000  1.0 0.0601142169
H  H287  1  0.70190000  0.25870000  0.85250000  1.0 0.0601142169
H  H288  1  0.25870000  0.85250000  0.70190000  1.0 0.0601142169
H  H289  1  0.67200000  0.82520000  0.30760000  1.0 0.0601142169
H  H290  1  0.30760000  0.67200000  0.82520000  1.0 0.0601142169
H  H291  1  0.82520000  0.30760000  0.67200000  1.0 0.0601142169
H  H292  1  0.57800000  0.42480000  0.05480000  1.0 0.0601142169
H  H293  1  0.94240000  0.05480000  0.42480000  1.0 0.0601142169
H  H294  1  0.05480000  0.94240000  0.57800000  1.0 0.0601142169
H  H295  1  0.94240000  0.57800000  0.05480000  1.0 0.0601142169
H  H296  1  0.05480000  0.42480000  0.94240000  1.0 0.0601142169
H  H297  1  0.42480000  0.05480000  0.57800000  1.0 0.0601142169
H  H298  1  0.42480000  0.94240000  0.05480000  1.0 0.0601142169
H  H299  1  0.57800000  0.05480000  0.94240000  1.0 0.0601142169
H  H300  1  0.05480000  0.57800000  0.42480000  1.0 0.0601142169
H  H301  1  0.30760000  0.19520000  0.67200000  1.0 0.0601142169
H  H302  1  0.82520000  0.19520000  0.30760000  1.0 0.0601142169
H  H303  1  0.67200000  0.19520000  0.82520000  1.0 0.0601142169
H  H304  1  0.82520000  0.67200000  0.19520000  1.0 0.0601142169
H  H305  1  0.67200000  0.30760000  0.19520000  1.0 0.0601142169
H  H306  1  0.30760000  0.82520000  0.19520000  1.0 0.0601142169
H  H307  1  0.19520000  0.30760000  0.82520000  1.0 0.0601142169
H  H308  1  0.19520000  0.82520000  0.67200000  1.0 0.0601142169
H  H309  1  0.19520000  0.67200000  0.30760000  1.0 0.0601142169
H  H310  1  0.42480000  0.57800000  0.94240000  1.0 0.0601142169
H  H311  1  0.57800000  0.94240000  0.42480000  1.0 0.0601142169
H  H312  1  0.94240000  0.42480000  0.57800000  1.0 0.0601142169
H  H313  1  0.57800000  0.42480000  0.94240000  1.0 0.0601142169
H  H314  1  0.94240000  0.57800000  0.42480000  1.0 0.0601142169
H  H315  1  0.42480000  0.94240000  0.57800000  1.0 0.0601142169
H  H316  1  0.67200000  0.82520000  0.19520000  1.0 0.0601142169
H  H317  1  0.30760000  0.19520000  0.82520000  1.0 0.0601142169
H  H318  1  0.19520000  0.30760000  0.67200000  1.0 0.0601142169
H  H319  1  0.30760000  0.67200000  0.19520000  1.0 0.0601142169
H  H320  1  0.19520000  0.82520000  0.30760000  1.0 0.0601142169
H  H321  1  0.82520000  0.19520000  0.67200000  1.0 0.0601142169
H  H322  1  0.82520000  0.30760000  0.19520000  1.0 0.0601142169
H  H323  1  0.67200000  0.19520000  0.30760000  1.0 0.0601142169
H  H324  1  0.19520000  0.67200000  0.82520000  1.0 0.0601142169
H  H325  1  0.94240000  0.05480000  0.57800000  1.0 0.0601142169
H  H326  1  0.42480000  0.05480000  0.94240000  1.0 0.0601142169
H  H327  1  0.57800000  0.05480000  0.42480000  1.0 0.0601142169
H  H328  1  0.42480000  0.57800000  0.05480000  1.0 0.0601142169
H  H329  1  0.57800000  0.94240000  0.05480000  1.0 0.0601142169
H  H330  1  0.94240000  0.42480000  0.05480000  1.0 0.0601142169
H  H331  1  0.05480000  0.94240000  0.42480000  1.0 0.0601142169
H  H332  1  0.05480000  0.42480000  0.57800000  1.0 0.0601142169
H  H333  1  0.05480000  0.57800000  0.94240000  1.0 0.0601142169
H  H334  1  0.82520000  0.67200000  0.30760000  1.0 0.0601142169
H  H335  1  0.67200000  0.30760000  0.82520000  1.0 0.0601142169
H  H336  1  0.30760000  0.82520000  0.67200000  1.0 0.0601142169
H  H337  1  0.65430000  0.93110000  0.20730000  1.0 0.0601142169
H  H338  1  0.20730000  0.65430000  0.93110000  1.0 0.0601142169
H  H339  1  0.93110000  0.20730000  0.65430000  1.0 0.0601142169
H  H340  1  0.59570000  0.31890000  0.04270000  1.0 0.0601142169
H  H341  1  0.04270000  0.04270000  0.31890000  1.0 0.0601142169
H  H342  1  0.04270000  0.04270000  0.59570000  1.0 0.0601142169
H  H343  1  0.04270000  0.59570000  0.04270000  1.0 0.0601142169
H  H344  1  0.04270000  0.31890000  0.04270000  1.0 0.0601142169
H  H345  1  0.31890000  0.04270000  0.59570000  1.0 0.0601142169
H  H346  1  0.31890000  0.04270000  0.04270000  1.0 0.0601142169
H  H347  1  0.59570000  0.04270000  0.04270000  1.0 0.0601142169
H  H348  1  0.04270000  0.59570000  0.31890000  1.0 0.0601142169
H  H349  1  0.20730000  0.20730000  0.65430000  1.0 0.0601142169
H  H350  1  0.93110000  0.20730000  0.20730000  1.0 0.0601142169
H  H351  1  0.65430000  0.20730000  0.93110000  1.0 0.0601142169
H  H352  1  0.93110000  0.65430000  0.20730000  1.0 0.0601142169
H  H353  1  0.65430000  0.20730000  0.20730000  1.0 0.0601142169
H  H354  1  0.20730000  0.93110000  0.20730000  1.0 0.0601142169
H  H355  1  0.20730000  0.20730000  0.93110000  1.0 0.0601142169
H  H356  1  0.20730000  0.93110000  0.65430000  1.0 0.0601142169
H  H357  1  0.20730000  0.65430000  0.20730000  1.0 0.0601142169
H  H358  1  0.31890000  0.59570000  0.04270000  1.0 0.0601142169
H  H359  1  0.59570000  0.04270000  0.31890000  1.0 0.0601142169
H  H360  1  0.04270000  0.31890000  0.59570000  1.0 0.0601142169
H  H361  1  0.59900000  0.94580000  0.22760000  1.0 0.0601142169
H  H362  1  0.22760000  0.59900000  0.94580000  1.0 0.0601142169
H  H363  1  0.94580000  0.22760000  0.59900000  1.0 0.0601142169
H  H364  1  0.65100000  0.30420000  0.02240000  1.0 0.0601142169
H  H365  1  0.02240000  0.02240000  0.30420000  1.0 0.0601142169
H  H366  1  0.02240000  0.02240000  0.65100000  1.0 0.0601142169
H  H367  1  0.02240000  0.65100000  0.02240000  1.0 0.0601142169
H  H368  1  0.02240000  0.30420000  0.02240000  1.0 0.0601142169
H  H369  1  0.30420000  0.02240000  0.65100000  1.0 0.0601142169
H  H370  1  0.30420000  0.02240000  0.02240000  1.0 0.0601142169
H  H371  1  0.65100000  0.02240000  0.02240000  1.0 0.0601142169
H  H372  1  0.02240000  0.65100000  0.30420000  1.0 0.0601142169
H  H373  1  0.22760000  0.22760000  0.59900000  1.0 0.0601142169
H  H374  1  0.94580000  0.22760000  0.22760000  1.0 0.0601142169
H  H375  1  0.59900000  0.22760000  0.94580000  1.0 0.0601142169
H  H376  1  0.94580000  0.59900000  0.22760000  1.0 0.0601142169
H  H377  1  0.59900000  0.22760000  0.22760000  1.0 0.0601142169
H  H378  1  0.22760000  0.94580000  0.22760000  1.0 0.0601142169
H  H379  1  0.22760000  0.22760000  0.94580000  1.0 0.0601142169
H  H380  1  0.22760000  0.94580000  0.59900000  1.0 0.0601142169
H  H381  1  0.22760000  0.59900000  0.22760000  1.0 0.0601142169
H  H382  1  0.30420000  0.65100000  0.02240000  1.0 0.0601142169
H  H383  1  0.65100000  0.02240000  0.30420000  1.0 0.0601142169
H  H384  1  0.02240000  0.30420000  0.65100000  1.0 0.0601142169
H  H385  1  0.43130000  0.54590000  0.47690000  1.0 0.0601142169
H  H386  1  0.47690000  0.43130000  0.54590000  1.0 0.0601142169
H  H387  1  0.54590000  0.47690000  0.43130000  1.0 0.0601142169
H  H388  1  0.81870000  0.70410000  0.70410000  1.0 0.0601142169
H  H389  1  0.77310000  0.70410000  0.70410000  1.0 0.0601142169
H  H390  1  0.70410000  0.77310000  0.81870000  1.0 0.0601142169
H  H391  1  0.77310000  0.81870000  0.70410000  1.0 0.0601142169
H  H392  1  0.70410000  0.70410000  0.77310000  1.0 0.0601142169
H  H393  1  0.70410000  0.70410000  0.81870000  1.0 0.0601142169
H  H394  1  0.70410000  0.77310000  0.70410000  1.0 0.0601142169
H  H395  1  0.81870000  0.70410000  0.77310000  1.0 0.0601142169
H  H396  1  0.70410000  0.81870000  0.70410000  1.0 0.0601142169
H  H397  1  0.47690000  0.54590000  0.43130000  1.0 0.0601142169
H  H398  1  0.54590000  0.54590000  0.47690000  1.0 0.0601142169
H  H399  1  0.43130000  0.54590000  0.54590000  1.0 0.0601142169
H  H400  1  0.54590000  0.43130000  0.54590000  1.0 0.0601142169
H  H401  1  0.43130000  0.47690000  0.54590000  1.0 0.0601142169
H  H402  1  0.47690000  0.54590000  0.54590000  1.0 0.0601142169
H  H403  1  0.54590000  0.47690000  0.54590000  1.0 0.0601142169
H  H404  1  0.54590000  0.54590000  0.43130000  1.0 0.0601142169
H  H405  1  0.54590000  0.43130000  0.47690000  1.0 0.0601142169
H  H406  1  0.70410000  0.81870000  0.77310000  1.0 0.0601142169
H  H407  1  0.81870000  0.77310000  0.70410000  1.0 0.0601142169
H  H408  1  0.77310000  0.70410000  0.81870000  1.0 0.0601142169
C  C1  1  0.46510000  0.74110000  0.39690000  1.0 -0.0700074886
C  C2  1  0.39690000  0.46510000  0.74110000  1.0 -0.0700074886
C  C3  1  0.74110000  0.39690000  0.46510000  1.0 -0.0700074886
C  C4  1  0.78490000  0.50890000  0.85310000  1.0 -0.0700074886
C  C5  1  0.85310000  0.85310000  0.50890000  1.0 -0.0700074886
C  C6  1  0.85310000  0.85310000  0.78490000  1.0 -0.0700074886
C  C7  1  0.85310000  0.78490000  0.85310000  1.0 -0.0700074886
C  C8  1  0.85310000  0.50890000  0.85310000  1.0 -0.0700074886
C  C9  1  0.50890000  0.85310000  0.78490000  1.0 -0.0700074886
C  C10  1  0.50890000  0.85310000  0.85310000  1.0 -0.0700074886
C  C11  1  0.78490000  0.85310000  0.85310000  1.0 -0.0700074886
C  C12  1  0.85310000  0.78490000  0.50890000  1.0 -0.0700074886
C  C13  1  0.39690000  0.39690000  0.46510000  1.0 -0.0700074886
C  C14  1  0.74110000  0.39690000  0.39690000  1.0 -0.0700074886
C  C15  1  0.46510000  0.39690000  0.74110000  1.0 -0.0700074886
C  C16  1  0.74110000  0.46510000  0.39690000  1.0 -0.0700074886
C  C17  1  0.46510000  0.39690000  0.39690000  1.0 -0.0700074886
C  C18  1  0.39690000  0.74110000  0.39690000  1.0 -0.0700074886
C  C19  1  0.39690000  0.39690000  0.74110000  1.0 -0.0700074886
C  C20  1  0.39690000  0.74110000  0.46510000  1.0 -0.0700074886
C  C21  1  0.39690000  0.46510000  0.39690000  1.0 -0.0700074886
C  C22  1  0.50890000  0.78490000  0.85310000  1.0 -0.0700074886
C  C23  1  0.78490000  0.85310000  0.50890000  1.0 -0.0700074886
C  C24  1  0.85310000  0.50890000  0.78490000  1.0 -0.0700074886
C  C25  1  0.42010000  0.81292000  0.34688000  1.0 -0.0979839863
C  C26  1  0.34688000  0.42010000  0.81292000  1.0 -0.0925526592
C  C27  1  0.81292000  0.34688000  0.42010000  1.0 -0.0925526592
C  C28  1  0.82990000  0.43708000  0.82990000  1.0 -0.0925526592
C  C29  1  0.90312000  0.82990000  0.43708000  1.0 -0.0925526592
C  C30  1  0.82990000  0.90312000  0.82990000  1.0 -0.0925526592
C  C31  1  0.90312000  0.82990000  0.82990000  1.0 -0.0925526592
C  C32  1  0.82990000  0.43708000  0.90312000  1.0 -0.0925526592
C  C33  1  0.43708000  0.82990000  0.82990000  1.0 -0.0925526592
C  C34  1  0.43708000  0.90312000  0.82990000  1.0 -0.0925526592
C  C35  1  0.82990000  0.82990000  0.90312000  1.0 -0.0925526592
C  C36  1  0.82990000  0.82990000  0.43708000  1.0 -0.0925526592
C  C37  1  0.34688000  0.42010000  0.42010000  1.0 -0.0925526592
C  C38  1  0.81292000  0.42010000  0.34688000  1.0 -0.0925526592
C  C39  1  0.42010000  0.42010000  0.81292000  1.0 -0.0925526592
C  C40  1  0.81292000  0.42010000  0.42010000  1.0 -0.0925526592
C  C41  1  0.42010000  0.34688000  0.42010000  1.0 -0.0925526592
C  C42  1  0.34688000  0.81292000  0.42010000  1.0 -0.0925526592
C  C43  1  0.42010000  0.34688000  0.81292000  1.0 -0.0979839863
C  C44  1  0.42010000  0.81292000  0.42010000  1.0 -0.0925526592
C  C45  1  0.42010000  0.42010000  0.34688000  1.0 -0.0925526592
C  C46  1  0.43708000  0.82990000  0.90312000  1.0 -0.0925526592
C  C47  1  0.82990000  0.90312000  0.43708000  1.0 -0.0979839863
C  C48  1  0.90312000  0.43708000  0.82990000  1.0 -0.0925526592
C  C49  1  0.63370000  0.79890000  0.28370000  1.0 -0.0979839863
C  C50  1  0.28370000  0.63370000  0.79890000  1.0 -0.0979839863
C  C51  1  0.79890000  0.28370000  0.63370000  1.0 -0.0979839863
C  C52  1  0.61630000  0.45110000  0.96630000  1.0 -0.0979839863
C  C53  1  0.96630000  0.96630000  0.45110000  1.0 -0.0979839863
C  C54  1  0.96630000  0.96630000  0.61630000  1.0 -0.0979839863
C  C55  1  0.96630000  0.61630000  0.96630000  1.0 -0.0979839863
C  C56  1  0.96630000  0.45110000  0.96630000  1.0 -0.0979839863
C  C57  1  0.45110000  0.96630000  0.61630000  1.0 -0.0979839863
C  C58  1  0.45110000  0.96630000  0.96630000  1.0 -0.0979839863
C  C59  1  0.61630000  0.96630000  0.96630000  1.0 -0.0979839863
C  C60  1  0.96630000  0.61630000  0.45110000  1.0 -0.0979839863
C  C61  1  0.28370000  0.28370000  0.63370000  1.0 -0.0979839863
C  C62  1  0.79890000  0.28370000  0.28370000  1.0 -0.0979839863
C  C63  1  0.63370000  0.28370000  0.79890000  1.0 -0.0979839863
C  C64  1  0.79890000  0.63370000  0.28370000  1.0 -0.0979839863
C  C65  1  0.63370000  0.28370000  0.28370000  1.0 -0.0979839863
C  C66  1  0.28370000  0.79890000  0.28370000  1.0 -0.0979839863
C  C67  1  0.28370000  0.28370000  0.79890000  1.0 -0.0979839863
C  C68  1  0.28370000  0.79890000  0.63370000  1.0 -0.0979839863
C  C69  1  0.28370000  0.63370000  0.28370000  1.0 -0.0979839863
C  C70  1  0.45110000  0.61630000  0.96630000  1.0 -0.0979839863
C  C71  1  0.61630000  0.96630000  0.45110000  1.0 -0.0979839863
C  C72  1  0.96630000  0.45110000  0.61630000  1.0 -0.0979839863
C  C73  1  0.58740000  0.87372000  0.30460000  1.0 -0.0809617107
C  C74  1  0.30460000  0.58740000  0.87372000  1.0 -0.0809617107
C  C75  1  0.87372000  0.30460000  0.58740000  1.0 -0.0809617107
C  C76  1  0.66260000  0.37628000  0.01572000  1.0 -0.0809617107
C  C77  1  0.94540000  0.01572000  0.37628000  1.0 -0.0809617107
C  C78  1  0.01572000  0.94540000  0.66260000  1.0 -0.0809617107
C  C79  1  0.94540000  0.66260000  0.01572000  1.0 -0.0809617107
C  C80  1  0.01572000  0.37628000  0.94540000  1.0 -0.0809617107
C  C81  1  0.37628000  0.01572000  0.66260000  1.0 -0.0809617107
C  C82  1  0.37628000  0.94540000  0.01572000  1.0 -0.0809617107
C  C83  1  0.66260000  0.01572000  0.94540000  1.0 -0.0809617107
C  C84  1  0.01572000  0.66260000  0.37628000  1.0 -0.0809617107
C  C85  1  0.30460000  0.23428000  0.58740000  1.0 -0.0809617107
C  C86  1  0.87372000  0.23428000  0.30460000  1.0 -0.0809617107
C  C87  1  0.58740000  0.23428000  0.87372000  1.0 -0.0809617107
C  C88  1  0.87372000  0.58740000  0.23428000  1.0 -0.0809617107
C  C89  1  0.58740000  0.30460000  0.23428000  1.0 -0.0809617107
C  C90  1  0.30460000  0.87372000  0.23428000  1.0 -0.0809617107
C  C91  1  0.23428000  0.30460000  0.87372000  1.0 -0.0809617107
C  C92  1  0.23428000  0.87372000  0.58740000  1.0 -0.0809617107
C  C93  1  0.23428000  0.58740000  0.30460000  1.0 -0.0809617107
C  C94  1  0.37628000  0.66260000  0.94540000  1.0 -0.0809617107
C  C95  1  0.66260000  0.94540000  0.37628000  1.0 -0.0809617107
C  C96  1  0.94540000  0.37628000  0.66260000  1.0 -0.0809617107
C  C97  1  0.66260000  0.37628000  0.94540000  1.0 -0.0809617107
C  C98  1  0.94540000  0.66260000  0.37628000  1.0 -0.0809617107
C  C99  1  0.37628000  0.94540000  0.66260000  1.0 -0.0809617107
C  C100  1  0.58740000  0.87372000  0.23428000  1.0 -0.0809617107
C  C101  1  0.30460000  0.23428000  0.87372000  1.0 -0.0809617107
C  C102  1  0.23428000  0.30460000  0.58740000  1.0 -0.0809617107
C  C103  1  0.30460000  0.58740000  0.23428000  1.0 -0.0809617107
C  C104  1  0.23428000  0.87372000  0.30460000  1.0 -0.0809617107
C  C105  1  0.87372000  0.23428000  0.58740000  1.0 -0.0809617107
C  C106  1  0.87372000  0.30460000  0.23428000  1.0 -0.0809617107
C  C107  1  0.58740000  0.23428000  0.30460000  1.0 -0.0809617107
C  C108  1  0.23428000  0.58740000  0.87372000  1.0 -0.0809617107
C  C109  1  0.94540000  0.01572000  0.66260000  1.0 -0.0809617107
C  C110  1  0.37628000  0.01572000  0.94540000  1.0 -0.0809617107
C  C111  1  0.66260000  0.01572000  0.37628000  1.0 -0.0809617107
C  C112  1  0.37628000  0.66260000  0.01572000  1.0 -0.0809617107
C  C113  1  0.66260000  0.94540000  0.01572000  1.0 -0.0809617107
C  C114  1  0.94540000  0.37628000  0.01572000  1.0 -0.0809617107
C  C115  1  0.01572000  0.94540000  0.37628000  1.0 -0.0809617107
C  C116  1  0.01572000  0.37628000  0.66260000  1.0 -0.0809617107
C  C117  1  0.01572000  0.66260000  0.94540000  1.0 -0.0809617107
C  C118  1  0.87372000  0.58740000  0.30460000  1.0 -0.0809617107
C  C119  1  0.58740000  0.30460000  0.87372000  1.0 -0.0809617107
C  C120  1  0.30460000  0.87372000  0.58740000  1.0 -0.0809617107
C  C121  1  0.67308000  0.84472000  0.27528000  1.0 -0.0621163371
C  C122  1  0.27528000  0.67308000  0.84472000  1.0 -0.0621163371
C  C123  1  0.84472000  0.27528000  0.67308000  1.0 -0.0621163371
C  C124  1  0.57692000  0.40528000  0.04308000  1.0 -0.0621163371
C  C125  1  0.97472000  0.04308000  0.40528000  1.0 -0.0621163371
C  C126  1  0.04308000  0.97472000  0.57692000  1.0 -0.0621163371
C  C127  1  0.97472000  0.57692000  0.04308000  1.0 -0.0621163371
C  C128  1  0.04308000  0.40528000  0.97472000  1.0 -0.0621163371
C  C129  1  0.40528000  0.04308000  0.57692000  1.0 -0.0621163371
C  C130  1  0.40528000  0.97472000  0.04308000  1.0 -0.0621163371
C  C131  1  0.57692000  0.04308000  0.97472000  1.0 -0.0621163371
C  C132  1  0.04308000  0.57692000  0.40528000  1.0 -0.0621163371
C  C133  1  0.27528000  0.20692000  0.67308000  1.0 -0.0621163371
C  C134  1  0.84472000  0.20692000  0.27528000  1.0 -0.0621163371
C  C135  1  0.67308000  0.20692000  0.84472000  1.0 -0.0621163371
C  C136  1  0.84472000  0.67308000  0.20692000  1.0 -0.0621163371
C  C137  1  0.67308000  0.27528000  0.20692000  1.0 -0.0621163371
C  C138  1  0.27528000  0.84472000  0.20692000  1.0 -0.0621163371
C  C139  1  0.20692000  0.27528000  0.84472000  1.0 -0.0621163371
C  C140  1  0.20692000  0.84472000  0.67308000  1.0 -0.0621163371
C  C141  1  0.20692000  0.67308000  0.27528000  1.0 -0.0621163371
C  C142  1  0.40528000  0.57692000  0.97472000  1.0 -0.0621163371
C  C143  1  0.57692000  0.97472000  0.40528000  1.0 -0.0621163371
C  C144  1  0.97472000  0.40528000  0.57692000  1.0 -0.0621163371
C  C145  1  0.57692000  0.40528000  0.97472000  1.0 -0.0621163371
C  C146  1  0.97472000  0.57692000  0.40528000  1.0 -0.0621163371
C  C147  1  0.40528000  0.97472000  0.57692000  1.0 -0.0621163371
C  C148  1  0.67308000  0.84472000  0.20692000  1.0 -0.0621163371
C  C149  1  0.27528000  0.20692000  0.84472000  1.0 -0.0621163371
C  C150  1  0.20692000  0.27528000  0.67308000  1.0 -0.0621163371
C  C151  1  0.27528000  0.67308000  0.20692000  1.0 -0.0621163371
C  C152  1  0.20692000  0.84472000  0.27528000  1.0 -0.0621163371
C  C153  1  0.84472000  0.20692000  0.67308000  1.0 -0.0621163371
C  C154  1  0.84472000  0.27528000  0.20692000  1.0 -0.0621163371
C  C155  1  0.67308000  0.20692000  0.27528000  1.0 -0.0621163371
C  C156  1  0.20692000  0.67308000  0.84472000  1.0 -0.0621163371
C  C157  1  0.97472000  0.04308000  0.57692000  1.0 -0.0621163371
C  C158  1  0.40528000  0.04308000  0.97472000  1.0 -0.0621163371
C  C159  1  0.57692000  0.04308000  0.40528000  1.0 -0.0621163371
C  C160  1  0.40528000  0.57692000  0.04308000  1.0 -0.0621163371
C  C161  1  0.57692000  0.97472000  0.04308000  1.0 -0.0621163371
C  C162  1  0.97472000  0.40528000  0.04308000  1.0 -0.0621163371
C  C163  1  0.04308000  0.97472000  0.40528000  1.0 -0.0621163371
C  C164  1  0.04308000  0.40528000  0.57692000  1.0 -0.0621163371
C  C165  1  0.04308000  0.57692000  0.97472000  1.0 -0.0621163371
C  C166  1  0.84472000  0.67308000  0.27528000  1.0 -0.0621163371
C  C167  1  0.67308000  0.27528000  0.84472000  1.0 -0.0621163371
C  C168  1  0.27528000  0.84472000  0.67308000  1.0 -0.0621163371
C  C169  1  0.62809000  0.91905000  0.22643000  1.0 -0.0809617107
C  C170  1  0.22643000  0.62809000  0.91905000  1.0 -0.0809617107
C  C171  1  0.91905000  0.22643000  0.62809000  1.0 -0.0809617107
C  C172  1  0.62191000  0.33095000  0.02357000  1.0 -0.0700074886
C  C173  1  0.02357000  0.02357000  0.33095000  1.0 -0.0809617107
C  C174  1  0.02357000  0.02357000  0.62191000  1.0 -0.0809617107
C  C175  1  0.02357000  0.62191000  0.02357000  1.0 -0.0809617107
C  C176  1  0.02357000  0.33095000  0.02357000  1.0 -0.0809617107
C  C177  1  0.33095000  0.02357000  0.62191000  1.0 -0.0809617107
C  C178  1  0.33095000  0.02357000  0.02357000  1.0 -0.0809617107
C  C179  1  0.62191000  0.02357000  0.02357000  1.0 -0.0809617107
C  C180  1  0.02357000  0.62191000  0.33095000  1.0 -0.0809617107
C  C181  1  0.22643000  0.22643000  0.62809000  1.0 -0.0809617107
C  C182  1  0.91905000  0.22643000  0.22643000  1.0 -0.0700074886
C  C183  1  0.62809000  0.22643000  0.91905000  1.0 -0.0809617107
C  C184  1  0.91905000  0.62809000  0.22643000  1.0 -0.0809617107
C  C185  1  0.62809000  0.22643000  0.22643000  1.0 -0.0700074886
C  C186  1  0.22643000  0.91905000  0.22643000  1.0 -0.0809617107
C  C187  1  0.22643000  0.22643000  0.91905000  1.0 -0.0700074886
C  C188  1  0.22643000  0.91905000  0.62809000  1.0 -0.0809617107
C  C189  1  0.22643000  0.62809000  0.22643000  1.0 -0.0809617107
C  C190  1  0.33095000  0.62191000  0.02357000  1.0 -0.0809617107
C  C191  1  0.62191000  0.02357000  0.33095000  1.0 -0.0809617107
C  C192  1  0.02357000  0.33095000  0.62191000  1.0 -0.0809617107
C  C193  1  0.46570000  0.53430000  0.46570000  1.0 -0.0700074886
C  C194  1  0.46570000  0.46570000  0.53430000  1.0 -0.0700074886
C  C195  1  0.53430000  0.46570000  0.46570000  1.0 -0.0700074886
C  C196  1  0.78430000  0.71570000  0.71570000  1.0 -0.0700074886
C  C197  1  0.71570000  0.78430000  0.78430000  1.0 -0.0700074886
C  C198  1  0.78430000  0.78430000  0.71570000  1.0 -0.0700074886
C  C199  1  0.71570000  0.71570000  0.78430000  1.0 -0.0700074886
C  C200  1  0.71570000  0.78430000  0.71570000  1.0 -0.0700074886
C  C201  1  0.78430000  0.71570000  0.78430000  1.0 -0.0700074886
C  C202  1  0.53430000  0.53430000  0.46570000  1.0 -0.0700074886
C  C203  1  0.46570000  0.53430000  0.53430000  1.0 -0.0700074886
C  C204  1  0.53430000  0.46570000  0.53430000  1.0 -0.0700074886
N  N1  1  0.44937000  0.79353000  0.37855000  1.0 -0.1906828385
N  N2  1  0.37855000  0.44937000  0.79353000  1.0 -0.2001426495
N  N3  1  0.79353000  0.37855000  0.44937000  1.0 -0.2001426495
N  N4  1  0.80063000  0.45647000  0.87145000  1.0 -0.1906828385
N  N5  1  0.87145000  0.87145000  0.45647000  1.0 -0.1906828385
N  N6  1  0.87145000  0.87145000  0.80063000  1.0 -0.2001426495
N  N7  1  0.87145000  0.80063000  0.87145000  1.0 -0.1906828385
N  N8  1  0.87145000  0.45647000  0.87145000  1.0 -0.1906828385
N  N9  1  0.45647000  0.87145000  0.80063000  1.0 -0.2001426495
N  N10  1  0.45647000  0.87145000  0.87145000  1.0 -0.2001426495
N  N11  1  0.80063000  0.87145000  0.87145000  1.0 -0.1906828385
N  N12  1  0.87145000  0.80063000  0.45647000  1.0 -0.2001426495
N  N13  1  0.37855000  0.37855000  0.44937000  1.0 -0.2001426495
N  N14  1  0.79353000  0.37855000  0.37855000  1.0 -0.2001426495
N  N15  1  0.44937000  0.37855000  0.79353000  1.0 -0.1906828385
N  N16  1  0.79353000  0.44937000  0.37855000  1.0 -0.2001426495
N  N17  1  0.44937000  0.37855000  0.37855000  1.0 -0.2001426495
N  N18  1  0.37855000  0.79353000  0.37855000  1.0 -0.1906828385
N  N19  1  0.37855000  0.37855000  0.79353000  1.0 -0.2001426495
N  N20  1  0.37855000  0.79353000  0.44937000  1.0 -0.1906828385
N  N21  1  0.37855000  0.44937000  0.37855000  1.0 -0.2001426495
N  N22  1  0.45647000  0.80063000  0.87145000  1.0 -0.2001426495
N  N23  1  0.80063000  0.87145000  0.45647000  1.0 -0.1906828385
N  N24  1  0.87145000  0.45647000  0.80063000  1.0 -0.2001426495
N  N25  1  0.58625000  0.84477000  0.28449000  1.0 -0.2001426495
N  N26  1  0.28449000  0.58625000  0.84477000  1.0 -0.2001426495
N  N27  1  0.84477000  0.28449000  0.58625000  1.0 -0.2001426495
N  N28  1  0.66375000  0.40523000  0.96551000  1.0 -0.1906828385
N  N29  1  0.96551000  0.96551000  0.40523000  1.0 -0.2001426495
N  N30  1  0.96551000  0.96551000  0.66375000  1.0 -0.2001426495
N  N31  1  0.96551000  0.66375000  0.96551000  1.0 -0.2001426495
N  N32  1  0.96551000  0.40523000  0.96551000  1.0 -0.1906828385
N  N33  1  0.40523000  0.96551000  0.66375000  1.0 -0.2001426495
N  N34  1  0.40523000  0.96551000  0.96551000  1.0 -0.2001426495
N  N35  1  0.66375000  0.96551000  0.96551000  1.0 -0.2001426495
N  N36  1  0.96551000  0.66375000  0.40523000  1.0 -0.2001426495
N  N37  1  0.28449000  0.28449000  0.58625000  1.0 -0.2001426495
N  N38  1  0.84477000  0.28449000  0.28449000  1.0 -0.2001426495
N  N39  1  0.58625000  0.28449000  0.84477000  1.0 -0.2001426495
N  N40  1  0.84477000  0.58625000  0.28449000  1.0 -0.2001426495
N  N41  1  0.58625000  0.28449000  0.28449000  1.0 -0.2001426495
N  N42  1  0.28449000  0.84477000  0.28449000  1.0 -0.2001426495
N  N43  1  0.28449000  0.28449000  0.84477000  1.0 -0.2001426495
N  N44  1  0.28449000  0.84477000  0.58625000  1.0 -0.2001426495
N  N45  1  0.28449000  0.58625000  0.28449000  1.0 -0.2001426495
N  N46  1  0.40523000  0.66375000  0.96551000  1.0 -0.2001426495
N  N47  1  0.66375000  0.96551000  0.40523000  1.0 -0.2001426495
N  N48  1  0.96551000  0.40523000  0.66375000  1.0 -0.2001426495
N  N49  1  0.42460000  0.72620000  0.42460000  1.0 -0.1792490902
N  N50  1  0.42460000  0.42460000  0.72620000  1.0 -0.1792490902
N  N51  1  0.72620000  0.42460000  0.42460000  1.0 -0.1792490902
N  N52  1  0.82540000  0.52380000  0.82540000  1.0 -0.1906828385
N  N53  1  0.82540000  0.82540000  0.52380000  1.0 -0.1906828385
N  N54  1  0.82540000  0.82540000  0.82540000  1.0 -0.1792490902
N  N55  1  0.52380000  0.82540000  0.82540000  1.0 -0.1906828385
N  N56  1  0.42460000  0.42460000  0.42460000  1.0 -0.1792490902
N  N57  1  0.48310000  0.55070000  0.48310000  1.0 -0.1906828385
N  N58  1  0.48310000  0.48310000  0.55070000  1.0 -0.1906828385
N  N59  1  0.55070000  0.48310000  0.48310000  1.0 -0.1906828385
N  N60  1  0.76690000  0.69930000  0.76690000  1.0 -0.1906828385
N  N61  1  0.76690000  0.76690000  0.69930000  1.0 -0.1906828385
N  N62  1  0.76690000  0.76690000  0.76690000  1.0 -0.1906828385
N  N63  1  0.69930000  0.76690000  0.76690000  1.0 -0.1906828385
N  N64  1  0.48310000  0.48310000  0.48310000  1.0 -0.1906828385
N  N65  1  0.63016000  0.89048000  0.27490000  1.0 -0.2001426495
N  N66  1  0.27490000  0.63016000  0.89048000  1.0 -0.2054556425
N  N67  1  0.89048000  0.27490000  0.63016000  1.0 -0.2001426495
N  N68  1  0.61984000  0.35952000  0.04554000  1.0 -0.2001426495
N  N69  1  0.97510000  0.04554000  0.35952000  1.0 -0.2001426495
N  N70  1  0.04554000  0.97510000  0.61984000  1.0 -0.2054556425
N  N71  1  0.97510000  0.61984000  0.04554000  1.0 -0.2001426495
N  N72  1  0.04554000  0.35952000  0.97510000  1.0 -0.2001426495
N  N73  1  0.35952000  0.04554000  0.61984000  1.0 -0.2001426495
N  N74  1  0.35952000  0.97510000  0.04554000  1.0 -0.2001426495
N  N75  1  0.61984000  0.04554000  0.97510000  1.0 -0.2001426495
N  N76  1  0.04554000  0.61984000  0.35952000  1.0 -0.2001426495
N  N77  1  0.27490000  0.20446000  0.63016000  1.0 -0.2001426495
N  N78  1  0.89048000  0.20446000  0.27490000  1.0 -0.2001426495
N  N79  1  0.63016000  0.20446000  0.89048000  1.0 -0.2001426495
N  N80  1  0.89048000  0.63016000  0.20446000  1.0 -0.2001426495
N  N81  1  0.63016000  0.27490000  0.20446000  1.0 -0.2054556425
N  N82  1  0.27490000  0.89048000  0.20446000  1.0 -0.2001426495
N  N83  1  0.20446000  0.27490000  0.89048000  1.0 -0.2001426495
N  N84  1  0.20446000  0.89048000  0.63016000  1.0 -0.2054556425
N  N85  1  0.20446000  0.63016000  0.27490000  1.0 -0.2001426495
N  N86  1  0.35952000  0.61984000  0.97510000  1.0 -0.2001426495
N  N87  1  0.61984000  0.97510000  0.35952000  1.0 -0.2001426495
N  N88  1  0.97510000  0.35952000  0.61984000  1.0 -0.2001426495
N  N89  1  0.61984000  0.35952000  0.97510000  1.0 -0.2001426495
N  N90  1  0.97510000  0.61984000  0.35952000  1.0 -0.2001426495
N  N91  1  0.35952000  0.97510000  0.61984000  1.0 -0.2001426495
N  N92  1  0.63016000  0.89048000  0.20446000  1.0 -0.2001426495
N  N93  1  0.27490000  0.20446000  0.89048000  1.0 -0.2001426495
N  N94  1  0.20446000  0.27490000  0.63016000  1.0 -0.2001426495
N  N95  1  0.27490000  0.63016000  0.20446000  1.0 -0.2001426495
N  N96  1  0.20446000  0.89048000  0.27490000  1.0 -0.2054556425
N  N97  1  0.89048000  0.20446000  0.63016000  1.0 -0.2001426495
N  N98  1  0.89048000  0.27490000  0.20446000  1.0 -0.2001426495
N  N99  1  0.63016000  0.20446000  0.27490000  1.0 -0.2054556425
N  N100  1  0.20446000  0.63016000  0.89048000  1.0 -0.2001426495
N  N101  1  0.97510000  0.04554000  0.61984000  1.0 -0.2001426495
N  N102  1  0.35952000  0.04554000  0.97510000  1.0 -0.2001426495
N  N103  1  0.61984000  0.04554000  0.35952000  1.0 -0.2001426495
N  N104  1  0.35952000  0.61984000  0.04554000  1.0 -0.2001426495
N  N105  1  0.61984000  0.97510000  0.04554000  1.0 -0.2001426495
N  N106  1  0.97510000  0.35952000  0.04554000  1.0 -0.2001426495
N  N107  1  0.04554000  0.97510000  0.35952000  1.0 -0.2001426495
N  N108  1  0.04554000  0.35952000  0.61984000  1.0 -0.2054556425
N  N109  1  0.04554000  0.61984000  0.97510000  1.0 -0.2001426495
N  N110  1  0.89048000  0.63016000  0.27490000  1.0 -0.2001426495
N  N111  1  0.63016000  0.27490000  0.89048000  1.0 -0.2001426495
N  N112  1  0.27490000  0.89048000  0.63016000  1.0 -0.2001426495
N  N113  1  0.67390000  0.81886000  0.25362000  1.0 -0.1740146197
N  N114  1  0.25362000  0.67390000  0.81886000  1.0 -0.1792490902
N  N115  1  0.81886000  0.25362000  0.67390000  1.0 -0.1792490902
N  N116  1  0.57610000  0.43114000  0.99638000  1.0 -0.1740146197
N  N117  1  0.99638000  0.99638000  0.43114000  1.0 -0.1740146197
N  N118  1  0.99638000  0.99638000  0.57610000  1.0 -0.1740146197
N  N119  1  0.99638000  0.57610000  0.99638000  1.0 -0.1792490902
N  N120  1  0.99638000  0.43114000  0.99638000  1.0 -0.1792490902
N  N121  1  0.43114000  0.99638000  0.57610000  1.0 -0.1740146197
N  N122  1  0.43114000  0.99638000  0.99638000  1.0 -0.1792490902
N  N123  1  0.57610000  0.99638000  0.99638000  1.0 -0.1792490902
N  N124  1  0.99638000  0.57610000  0.43114000  1.0 -0.1792490902
N  N125  1  0.25362000  0.25362000  0.67390000  1.0 -0.1792490902
N  N126  1  0.81886000  0.25362000  0.25362000  1.0 -0.1792490902
N  N127  1  0.67390000  0.25362000  0.81886000  1.0 -0.1792490902
N  N128  1  0.81886000  0.67390000  0.25362000  1.0 -0.1792490902
N  N129  1  0.67390000  0.25362000  0.25362000  1.0 -0.1740146197
N  N130  1  0.25362000  0.81886000  0.25362000  1.0 -0.1740146197
N  N131  1  0.25362000  0.25362000  0.81886000  1.0 -0.1792490902
N  N132  1  0.25362000  0.81886000  0.67390000  1.0 -0.1740146197
N  N133  1  0.25362000  0.67390000  0.25362000  1.0 -0.1792490902
N  N134  1  0.43114000  0.57610000  0.99638000  1.0 -0.1792490902
N  N135  1  0.57610000  0.99638000  0.43114000  1.0 -0.1792490902
N  N136  1  0.99638000  0.43114000  0.57610000  1.0 -0.1792490902
