# DDEC6 charges by PACMAN v1.1 (https://github.com/mtap-research/PACMAN-charge/)
data_GARQAU_FSR_pacman
_symmetry_space_group_name_H-M   'P 1'
_cell_length_a   21.53410000
_cell_length_b   21.53410000
_cell_length_c   21.53410000
_cell_angle_alpha   116.56000000
_cell_angle_beta   116.56000000
_cell_angle_gamma   116.56000000
_symmetry_Int_Tables_number   1
_chemical_formula_structural   ZnH30C31(NO)4
_chemical_formula_sum   'Zn6 H180 C186 N24 O24'
_cell_volume   4698.82558434
_cell_formula_units_Z   6
loop_
 _symmetry_equiv_pos_site_id
 _symmetry_equiv_pos_as_xyz
  1  'x, y, z'
loop_
 _atom_site_type_symbol
 _atom_site_label
 _atom_site_symmetry_multiplicity
 _atom_site_fract_x
 _atom_site_fract_y
 _atom_site_fract_z
 _atom_site_occupancy
 _atom_site_charge
Zn  Zn1  1  0.04313000  0.42136000  0.20549000  1.0 0.7867839122
Zn  Zn2  1  0.42136000  0.20549000  0.04313000  1.0 0.7867839122
Zn  Zn3  1  0.20549000  0.04313000  0.42136000  1.0 0.7867839122
Zn  Zn4  1  0.95687000  0.57864000  0.79451000  1.0 0.7867839122
Zn  Zn5  1  0.57864000  0.79451000  0.95687000  1.0 0.7867839122
Zn  Zn6  1  0.79451000  0.95687000  0.57864000  1.0 0.7867839122
H  H1  1  0.30050000  0.68000000  0.42280000  1.0 0.277372607
H  H2  1  0.85670000  0.23930000  0.14030000  1.0 0.2878964925
H  H3  1  0.38850000  0.99930000  0.84110000  1.0 0.1190716455
H  H4  1  0.37200000  0.88770000  0.72170000  1.0 0.1190716455
H  H5  1  0.11670000  0.77530000  0.45610000  1.0 0.1190716455
H  H6  1  0.13830000  0.89290000  0.57820000  1.0 0.1190716455
H  H7  1  0.00930000  0.58510000  0.37510000  1.0 0.1399399275
H  H8  1  0.94870000  0.49650000  0.25130000  1.0 0.1505138263
H  H9  1  0.98490000  0.48360000  0.32280000  1.0 0.1505138263
H  H10  1  0.46260000  0.95890000  0.67780000  1.0 0.1399399275
H  H11  1  0.49200000  0.90170000  0.66000000  1.0 0.1505138263
H  H12  1  0.45680000  0.91630000  0.59000000  1.0 0.1505138263
H  H13  1  0.00450000  0.05270000  0.28260000  1.0 0.1124707842
H  H14  1  0.92580000  0.08010000  0.20310000  1.0 0.1124707842
H  H15  1  0.24270000  0.43260000  0.50360000  1.0 0.1329589421
H  H16  1  0.32020000  0.40480000  0.58470000  1.0 0.1505138263
H  H17  1  0.84590000  0.12220000  0.21870000  1.0 0.1399399275
H  H18  1  0.81440000  0.17630000  0.21590000  1.0 0.1505138263
H  H19  1  0.75210000  0.06600000  0.09900000  1.0 0.1598630929
H  H20  1  0.18280000  0.37720000  0.27870000  1.0 0.1505138263
H  H21  1  0.24480000  0.42420000  0.39410000  1.0 0.1598630929
H  H22  1  0.24430000  0.49480000  0.38670000  1.0 0.1190716455
H  H23  1  0.68000000  0.42280000  0.30050000  1.0 0.277372607
H  H24  1  0.23930000  0.14030000  0.85670000  1.0 0.2878964925
H  H25  1  0.99930000  0.84110000  0.38850000  1.0 0.1190716455
H  H26  1  0.88770000  0.72170000  0.37200000  1.0 0.1190716455
H  H27  1  0.77530000  0.45610000  0.11670000  1.0 0.1190716455
H  H28  1  0.89290000  0.57820000  0.13830000  1.0 0.1190716455
H  H29  1  0.58510000  0.37510000  0.00930000  1.0 0.1399399275
H  H30  1  0.49650000  0.25130000  0.94870000  1.0 0.1505138263
H  H31  1  0.48360000  0.32280000  0.98490000  1.0 0.1505138263
H  H32  1  0.95890000  0.67780000  0.46260000  1.0 0.1399399275
H  H33  1  0.90170000  0.66000000  0.49200000  1.0 0.1505138263
H  H34  1  0.91630000  0.59000000  0.45680000  1.0 0.1505138263
H  H35  1  0.05270000  0.28260000  0.00450000  1.0 0.1124707842
H  H36  1  0.08010000  0.20310000  0.92580000  1.0 0.1124707842
H  H37  1  0.43260000  0.50360000  0.24270000  1.0 0.1329589421
H  H38  1  0.40480000  0.58470000  0.32020000  1.0 0.1505138263
H  H39  1  0.12220000  0.21870000  0.84590000  1.0 0.1399399275
H  H40  1  0.17630000  0.21590000  0.81440000  1.0 0.1505138263
H  H41  1  0.06600000  0.09900000  0.75210000  1.0 0.1598630929
H  H42  1  0.37720000  0.27870000  0.18280000  1.0 0.1505138263
H  H43  1  0.42420000  0.39410000  0.24480000  1.0 0.1598630929
H  H44  1  0.49480000  0.38670000  0.24430000  1.0 0.1190716455
H  H45  1  0.42280000  0.30050000  0.68000000  1.0 0.277372607
H  H46  1  0.14030000  0.85670000  0.23930000  1.0 0.2878964925
H  H47  1  0.84110000  0.38850000  0.99930000  1.0 0.1190716455
H  H48  1  0.72170000  0.37200000  0.88770000  1.0 0.1190716455
H  H49  1  0.45610000  0.11670000  0.77530000  1.0 0.1190716455
H  H50  1  0.57820000  0.13830000  0.89290000  1.0 0.1190716455
H  H51  1  0.37510000  0.00930000  0.58510000  1.0 0.1399399275
H  H52  1  0.25130000  0.94870000  0.49650000  1.0 0.1505138263
H  H53  1  0.32280000  0.98490000  0.48360000  1.0 0.1505138263
H  H54  1  0.67780000  0.46260000  0.95890000  1.0 0.1399399275
H  H55  1  0.66000000  0.49200000  0.90170000  1.0 0.1505138263
H  H56  1  0.59000000  0.45680000  0.91630000  1.0 0.1505138263
H  H57  1  0.28260000  0.00450000  0.05270000  1.0 0.1124707842
H  H58  1  0.20310000  0.92580000  0.08010000  1.0 0.1124707842
H  H59  1  0.50360000  0.24270000  0.43260000  1.0 0.1329589421
H  H60  1  0.58470000  0.32020000  0.40480000  1.0 0.1505138263
H  H61  1  0.21870000  0.84590000  0.12220000  1.0 0.1399399275
H  H62  1  0.21590000  0.81440000  0.17630000  1.0 0.1505138263
H  H63  1  0.09900000  0.75210000  0.06600000  1.0 0.1598630929
H  H64  1  0.27870000  0.18280000  0.37720000  1.0 0.1505138263
H  H65  1  0.39410000  0.24480000  0.42420000  1.0 0.1598630929
H  H66  1  0.38670000  0.24430000  0.49480000  1.0 0.1190716455
H  H67  1  0.69950000  0.32000000  0.57720000  1.0 0.277372607
H  H68  1  0.14330000  0.76070000  0.85970000  1.0 0.2878964925
H  H69  1  0.61150000  0.00070000  0.15890000  1.0 0.1190716455
H  H70  1  0.62800000  0.11230000  0.27830000  1.0 0.1190716455
H  H71  1  0.88330000  0.22470000  0.54390000  1.0 0.1190716455
H  H72  1  0.86170000  0.10710000  0.42180000  1.0 0.1190716455
H  H73  1  0.99070000  0.41490000  0.62490000  1.0 0.1399399275
H  H74  1  0.05130000  0.50350000  0.74870000  1.0 0.1505138263
H  H75  1  0.01510000  0.51640000  0.67720000  1.0 0.1505138263
H  H76  1  0.53740000  0.04110000  0.32220000  1.0 0.1399399275
H  H77  1  0.50800000  0.09830000  0.34000000  1.0 0.1505138263
H  H78  1  0.54320000  0.08370000  0.41000000  1.0 0.1505138263
H  H79  1  0.99550000  0.94730000  0.71740000  1.0 0.1124707842
H  H80  1  0.07420000  0.91990000  0.79690000  1.0 0.1124707842
H  H81  1  0.75730000  0.56740000  0.49640000  1.0 0.1329589421
H  H82  1  0.67980000  0.59520000  0.41530000  1.0 0.1505138263
H  H83  1  0.15410000  0.87780000  0.78130000  1.0 0.1399399275
H  H84  1  0.18560000  0.82370000  0.78410000  1.0 0.1505138263
H  H85  1  0.24790000  0.93400000  0.90100000  1.0 0.1598630929
H  H86  1  0.81720000  0.62280000  0.72130000  1.0 0.1505138263
H  H87  1  0.75520000  0.57580000  0.60590000  1.0 0.1598630929
H  H88  1  0.75570000  0.50520000  0.61330000  1.0 0.1190716455
H  H89  1  0.32000000  0.57720000  0.69950000  1.0 0.277372607
H  H90  1  0.76070000  0.85970000  0.14330000  1.0 0.2878964925
H  H91  1  0.00070000  0.15890000  0.61150000  1.0 0.1190716455
H  H92  1  0.11230000  0.27830000  0.62800000  1.0 0.1190716455
H  H93  1  0.22470000  0.54390000  0.88330000  1.0 0.1190716455
H  H94  1  0.10710000  0.42180000  0.86170000  1.0 0.1190716455
H  H95  1  0.41490000  0.62490000  0.99070000  1.0 0.1399399275
H  H96  1  0.50350000  0.74870000  0.05130000  1.0 0.1505138263
H  H97  1  0.51640000  0.67720000  0.01510000  1.0 0.1505138263
H  H98  1  0.04110000  0.32220000  0.53740000  1.0 0.1399399275
H  H99  1  0.09830000  0.34000000  0.50800000  1.0 0.1505138263
H  H100  1  0.08370000  0.41000000  0.54320000  1.0 0.1505138263
H  H101  1  0.94730000  0.71740000  0.99550000  1.0 0.1124707842
H  H102  1  0.91990000  0.79690000  0.07420000  1.0 0.1124707842
H  H103  1  0.56740000  0.49640000  0.75730000  1.0 0.1329589421
H  H104  1  0.59520000  0.41530000  0.67980000  1.0 0.1505138263
H  H105  1  0.87780000  0.78130000  0.15410000  1.0 0.1399399275
H  H106  1  0.82370000  0.78410000  0.18560000  1.0 0.1505138263
H  H107  1  0.93400000  0.90100000  0.24790000  1.0 0.1598630929
H  H108  1  0.62280000  0.72130000  0.81720000  1.0 0.1505138263
H  H109  1  0.57580000  0.60590000  0.75520000  1.0 0.1598630929
H  H110  1  0.50520000  0.61330000  0.75570000  1.0 0.1190716455
H  H111  1  0.57720000  0.69950000  0.32000000  1.0 0.277372607
H  H112  1  0.85970000  0.14330000  0.76070000  1.0 0.2878964925
H  H113  1  0.15890000  0.61150000  0.00070000  1.0 0.1190716455
H  H114  1  0.27830000  0.62800000  0.11230000  1.0 0.1190716455
H  H115  1  0.54390000  0.88330000  0.22470000  1.0 0.1190716455
H  H116  1  0.42180000  0.86170000  0.10710000  1.0 0.1190716455
H  H117  1  0.62490000  0.99070000  0.41490000  1.0 0.1399399275
H  H118  1  0.74870000  0.05130000  0.50350000  1.0 0.1505138263
H  H119  1  0.67720000  0.01510000  0.51640000  1.0 0.1505138263
H  H120  1  0.32220000  0.53740000  0.04110000  1.0 0.1399399275
H  H121  1  0.34000000  0.50800000  0.09830000  1.0 0.1505138263
H  H122  1  0.41000000  0.54320000  0.08370000  1.0 0.1505138263
H  H123  1  0.71740000  0.99550000  0.94730000  1.0 0.1124707842
H  H124  1  0.79690000  0.07420000  0.91990000  1.0 0.1124707842
H  H125  1  0.49640000  0.75730000  0.56740000  1.0 0.1329589421
H  H126  1  0.41530000  0.67980000  0.59520000  1.0 0.1505138263
H  H127  1  0.78130000  0.15410000  0.87780000  1.0 0.1399399275
H  H128  1  0.78410000  0.18560000  0.82370000  1.0 0.1505138263
H  H129  1  0.90100000  0.24790000  0.93400000  1.0 0.1598630929
H  H130  1  0.72130000  0.81720000  0.62280000  1.0 0.1505138263
H  H131  1  0.60590000  0.75520000  0.57580000  1.0 0.1598630929
H  H132  1  0.61330000  0.75570000  0.50520000  1.0 0.1190716455
H  H133  1  0.81070000  0.76690000  0.75890000  1.0 0.0902264943
H  H134  1  0.77350000  0.70980000  0.64920000  1.0 0.0612811381
H  H135  1  0.76450000  0.78350000  0.69460000  1.0 0.0612811381
H  H136  1  0.59780000  0.50000000  0.48720000  1.0 0.0784485648
H  H137  1  0.40500000  0.33080000  0.36260000  1.0 0.0902264943
H  H138  1  0.32450000  0.34880000  0.40140000  1.0 0.1011324236
H  H139  1  0.43660000  0.53590000  0.56480000  1.0 0.0612811381
H  H140  1  0.62920000  0.70520000  0.68950000  1.0 0.0486746812
H  H141  1  0.76690000  0.75890000  0.81070000  1.0 0.0902264943
H  H142  1  0.70980000  0.64920000  0.77350000  1.0 0.0612811381
H  H143  1  0.78350000  0.69460000  0.76450000  1.0 0.0612811381
H  H144  1  0.50000000  0.48720000  0.59780000  1.0 0.0784485648
H  H145  1  0.33080000  0.36260000  0.40500000  1.0 0.0902264943
H  H146  1  0.34880000  0.40140000  0.32450000  1.0 0.1011324236
H  H147  1  0.53590000  0.56480000  0.43660000  1.0 0.0612811381
H  H148  1  0.70520000  0.68950000  0.62920000  1.0 0.0486746812
H  H149  1  0.75890000  0.81070000  0.76690000  1.0 0.0902264943
H  H150  1  0.64920000  0.77350000  0.70980000  1.0 0.0612811381
H  H151  1  0.69460000  0.76450000  0.78350000  1.0 0.0612811381
H  H152  1  0.48720000  0.59780000  0.50000000  1.0 0.0784485648
H  H153  1  0.36260000  0.40500000  0.33080000  1.0 0.0902264943
H  H154  1  0.40140000  0.32450000  0.34880000  1.0 0.1011324236
H  H155  1  0.56480000  0.43660000  0.53590000  1.0 0.0612811381
H  H156  1  0.68950000  0.62920000  0.70520000  1.0 0.0486746812
H  H157  1  0.18930000  0.23310000  0.24110000  1.0 0.0902264943
H  H158  1  0.22650000  0.29020000  0.35080000  1.0 0.0612811381
H  H159  1  0.23550000  0.21650000  0.30540000  1.0 0.0612811381
H  H160  1  0.40220000  0.50000000  0.51280000  1.0 0.0784485648
H  H161  1  0.59500000  0.66920000  0.63740000  1.0 0.0902264943
H  H162  1  0.67550000  0.65120000  0.59860000  1.0 0.1011324236
H  H163  1  0.56340000  0.46410000  0.43520000  1.0 0.0612811381
H  H164  1  0.37080000  0.29480000  0.31050000  1.0 0.0486746812
H  H165  1  0.23310000  0.24110000  0.18930000  1.0 0.0902264943
H  H166  1  0.29020000  0.35080000  0.22650000  1.0 0.0612811381
H  H167  1  0.21650000  0.30540000  0.23550000  1.0 0.0612811381
H  H168  1  0.50000000  0.51280000  0.40220000  1.0 0.0784485648
H  H169  1  0.66920000  0.63740000  0.59500000  1.0 0.0902264943
H  H170  1  0.65120000  0.59860000  0.67550000  1.0 0.1011324236
H  H171  1  0.46410000  0.43520000  0.56340000  1.0 0.0612811381
H  H172  1  0.29480000  0.31050000  0.37080000  1.0 0.0486746812
H  H173  1  0.24110000  0.18930000  0.23310000  1.0 0.0902264943
H  H174  1  0.35080000  0.22650000  0.29020000  1.0 0.0612811381
H  H175  1  0.30540000  0.23550000  0.21650000  1.0 0.0612811381
H  H176  1  0.51280000  0.40220000  0.50000000  1.0 0.0784485648
H  H177  1  0.63740000  0.59500000  0.66920000  1.0 0.0902264943
H  H178  1  0.59860000  0.67550000  0.65120000  1.0 0.1011324236
H  H179  1  0.43520000  0.56340000  0.46410000  1.0 0.0612811381
H  H180  1  0.31050000  0.37080000  0.29480000  1.0 0.0486746812
C  C1  1  0.24284000  0.82015000  0.57701000  1.0 0.1011324236
C  C2  1  0.27949000  0.03317000  0.80044000  1.0 0.5611421848
C  C3  1  0.26547000  0.95760000  0.72143000  1.0 -0.0442602252
C  C4  1  0.33420000  0.95492000  0.76338000  1.0 -0.1075200578
C  C5  1  0.32366000  0.88776000  0.69198000  1.0 -0.1566757675
C  C6  1  0.17285000  0.82173000  0.53472000  1.0 -0.1566757675
C  C7  1  0.18505000  0.89108000  0.60707000  1.0 -0.1027954062
C  C8  1  0.22926000  0.74508000  0.50036000  1.0 -0.1861031269
C  C9  1  0.12616000  0.62209000  0.39285000  1.0 0.2220205301
C  C10  1  0.31572000  0.77998000  0.52150000  1.0 0.2220205301
C  C11  1  0.00699000  0.53971000  0.33010000  1.0 -0.4934640145
C  C12  1  0.44271000  0.89951000  0.62088000  1.0 -0.4934640145
C  C13  1  0.22635000  0.20815000  0.48790000  1.0 0.5611421848
C  C14  1  0.17201000  0.22623000  0.44046000  1.0 -0.0132703093
C  C15  1  0.05363000  0.13007000  0.32740000  1.0 -0.0647817133
C  C16  1  0.00715000  0.14660000  0.27995000  1.0 -0.1205450511
C  C17  1  0.07684000  0.25855000  0.34221000  1.0 0.0902264943
C  C18  1  0.19404000  0.35480000  0.45756000  1.0 -0.201100341
C  C19  1  0.24042000  0.33819000  0.50579000  1.0 -0.1788311815
C  C20  1  0.02975000  0.27466000  0.28679000  1.0 -0.1289337368
C  C21  1  0.92197000  0.22147000  0.21856000  1.0 0.2081223214
C  C22  1  0.08410000  0.34373000  0.28787000  1.0 0.1666521291
C  C23  1  0.82529000  0.13946000  0.18515000  1.0 -0.4985983735
C  C24  1  0.19906000  0.41631000  0.34153000  1.0 -0.4591555213
C  C25  1  0.82015000  0.57701000  0.24284000  1.0 0.1011324236
C  C26  1  0.03317000  0.80044000  0.27949000  1.0 0.5611421848
C  C27  1  0.95760000  0.72143000  0.26547000  1.0 -0.0442602252
C  C28  1  0.95492000  0.76338000  0.33420000  1.0 -0.1075200578
C  C29  1  0.88776000  0.69198000  0.32366000  1.0 -0.1566757675
C  C30  1  0.82173000  0.53472000  0.17285000  1.0 -0.1566757675
C  C31  1  0.89108000  0.60707000  0.18505000  1.0 -0.1027954062
C  C32  1  0.74508000  0.50036000  0.22926000  1.0 -0.1861031269
C  C33  1  0.62209000  0.39285000  0.12616000  1.0 0.2220205301
C  C34  1  0.77998000  0.52150000  0.31572000  1.0 0.2220205301
C  C35  1  0.53971000  0.33010000  0.00699000  1.0 -0.4934640145
C  C36  1  0.89951000  0.62088000  0.44271000  1.0 -0.4934640145
C  C37  1  0.20815000  0.48790000  0.22635000  1.0 0.5611421848
C  C38  1  0.22623000  0.44046000  0.17201000  1.0 -0.0132703093
C  C39  1  0.13007000  0.32740000  0.05363000  1.0 -0.0647817133
C  C40  1  0.14660000  0.27995000  0.00715000  1.0 -0.1205450511
C  C41  1  0.25855000  0.34221000  0.07684000  1.0 0.0902264943
C  C42  1  0.35480000  0.45756000  0.19404000  1.0 -0.201100341
C  C43  1  0.33819000  0.50579000  0.24042000  1.0 -0.1788311815
C  C44  1  0.27466000  0.28679000  0.02975000  1.0 -0.1289337368
C  C45  1  0.22147000  0.21856000  0.92197000  1.0 0.2081223214
C  C46  1  0.34373000  0.28787000  0.08410000  1.0 0.1666521291
C  C47  1  0.13946000  0.18515000  0.82529000  1.0 -0.4985983735
C  C48  1  0.41631000  0.34153000  0.19906000  1.0 -0.4591555213
C  C49  1  0.57701000  0.24284000  0.82015000  1.0 0.1011324236
C  C50  1  0.80044000  0.27949000  0.03317000  1.0 0.5611421848
C  C51  1  0.72143000  0.26547000  0.95760000  1.0 -0.0442602252
C  C52  1  0.76338000  0.33420000  0.95492000  1.0 -0.1075200578
C  C53  1  0.69198000  0.32366000  0.88776000  1.0 -0.1566757675
C  C54  1  0.53472000  0.17285000  0.82173000  1.0 -0.1566757675
C  C55  1  0.60707000  0.18505000  0.89108000  1.0 -0.1027954062
C  C56  1  0.50036000  0.22926000  0.74508000  1.0 -0.1861031269
C  C57  1  0.39285000  0.12616000  0.62209000  1.0 0.2220205301
C  C58  1  0.52150000  0.31572000  0.77998000  1.0 0.2220205301
C  C59  1  0.33010000  0.00699000  0.53971000  1.0 -0.4934640145
C  C60  1  0.62088000  0.44271000  0.89951000  1.0 -0.4934640145
C  C61  1  0.48790000  0.22635000  0.20815000  1.0 0.5611421848
C  C62  1  0.44046000  0.17201000  0.22623000  1.0 -0.0132703093
C  C63  1  0.32740000  0.05363000  0.13007000  1.0 -0.0647817133
C  C64  1  0.27995000  0.00715000  0.14660000  1.0 -0.1205450511
C  C65  1  0.34221000  0.07684000  0.25855000  1.0 0.0902264943
C  C66  1  0.45756000  0.19404000  0.35480000  1.0 -0.201100341
C  C67  1  0.50579000  0.24042000  0.33819000  1.0 -0.1788311815
C  C68  1  0.28679000  0.02975000  0.27466000  1.0 -0.1289337368
C  C69  1  0.21856000  0.92197000  0.22147000  1.0 0.2081223214
C  C70  1  0.28787000  0.08410000  0.34373000  1.0 0.1666521291
C  C71  1  0.18515000  0.82529000  0.13946000  1.0 -0.4985983735
C  C72  1  0.34153000  0.19906000  0.41631000  1.0 -0.4591555213
C  C73  1  0.75716000  0.17985000  0.42299000  1.0 0.1011324236
C  C74  1  0.72051000  0.96683000  0.19956000  1.0 0.5611421848
C  C75  1  0.73453000  0.04240000  0.27857000  1.0 -0.0442602252
C  C76  1  0.66580000  0.04508000  0.23662000  1.0 -0.1075200578
C  C77  1  0.67634000  0.11224000  0.30802000  1.0 -0.1566757675
C  C78  1  0.82715000  0.17827000  0.46528000  1.0 -0.1566757675
C  C79  1  0.81495000  0.10892000  0.39293000  1.0 -0.1027954062
C  C80  1  0.77074000  0.25492000  0.49964000  1.0 -0.1861031269
C  C81  1  0.87384000  0.37791000  0.60715000  1.0 0.2220205301
C  C82  1  0.68428000  0.22002000  0.47850000  1.0 0.2220205301
C  C83  1  0.99301000  0.46029000  0.66990000  1.0 -0.4934640145
C  C84  1  0.55729000  0.10049000  0.37912000  1.0 -0.4934640145
C  C85  1  0.77365000  0.79185000  0.51210000  1.0 0.5611421848
C  C86  1  0.82799000  0.77377000  0.55954000  1.0 -0.0132703093
C  C87  1  0.94637000  0.86993000  0.67260000  1.0 -0.0647817133
C  C88  1  0.99285000  0.85340000  0.72005000  1.0 -0.1205450511
C  C89  1  0.92316000  0.74145000  0.65779000  1.0 0.0902264943
C  C90  1  0.80596000  0.64520000  0.54244000  1.0 -0.201100341
C  C91  1  0.75958000  0.66181000  0.49421000  1.0 -0.1788311815
C  C92  1  0.97025000  0.72534000  0.71321000  1.0 -0.1289337368
C  C93  1  0.07803000  0.77853000  0.78144000  1.0 0.2081223214
C  C94  1  0.91590000  0.65627000  0.71213000  1.0 0.1666521291
C  C95  1  0.17471000  0.86054000  0.81485000  1.0 -0.4985983735
C  C96  1  0.80094000  0.58369000  0.65847000  1.0 -0.4591555213
C  C97  1  0.17985000  0.42299000  0.75716000  1.0 0.1011324236
C  C98  1  0.96683000  0.19956000  0.72051000  1.0 0.5611421848
C  C99  1  0.04240000  0.27857000  0.73453000  1.0 -0.0442602252
C  C100  1  0.04508000  0.23662000  0.66580000  1.0 -0.1075200578
C  C101  1  0.11224000  0.30802000  0.67634000  1.0 -0.1566757675
C  C102  1  0.17827000  0.46528000  0.82715000  1.0 -0.1566757675
C  C103  1  0.10892000  0.39293000  0.81495000  1.0 -0.1027954062
C  C104  1  0.25492000  0.49964000  0.77074000  1.0 -0.1861031269
C  C105  1  0.37791000  0.60715000  0.87384000  1.0 0.2220205301
C  C106  1  0.22002000  0.47850000  0.68428000  1.0 0.2220205301
C  C107  1  0.46029000  0.66990000  0.99301000  1.0 -0.4934640145
C  C108  1  0.10049000  0.37912000  0.55729000  1.0 -0.4934640145
C  C109  1  0.79185000  0.51210000  0.77365000  1.0 0.5611421848
C  C110  1  0.77377000  0.55954000  0.82799000  1.0 -0.0132703093
C  C111  1  0.86993000  0.67260000  0.94637000  1.0 -0.0647817133
C  C112  1  0.85340000  0.72005000  0.99285000  1.0 -0.1205450511
C  C113  1  0.74145000  0.65779000  0.92316000  1.0 0.0902264943
C  C114  1  0.64520000  0.54244000  0.80596000  1.0 -0.201100341
C  C115  1  0.66181000  0.49421000  0.75958000  1.0 -0.1788311815
C  C116  1  0.72534000  0.71321000  0.97025000  1.0 -0.1289337368
C  C117  1  0.77853000  0.78144000  0.07803000  1.0 0.2081223214
C  C118  1  0.65627000  0.71213000  0.91590000  1.0 0.1666521291
C  C119  1  0.86054000  0.81485000  0.17471000  1.0 -0.4985983735
C  C120  1  0.58369000  0.65847000  0.80094000  1.0 -0.4591555213
C  C121  1  0.42299000  0.75716000  0.17985000  1.0 0.1011324236
C  C122  1  0.19956000  0.72051000  0.96683000  1.0 0.5611421848
C  C123  1  0.27857000  0.73453000  0.04240000  1.0 -0.0442602252
C  C124  1  0.23662000  0.66580000  0.04508000  1.0 -0.1075200578
C  C125  1  0.30802000  0.67634000  0.11224000  1.0 -0.1566757675
C  C126  1  0.46528000  0.82715000  0.17827000  1.0 -0.1566757675
C  C127  1  0.39293000  0.81495000  0.10892000  1.0 -0.1027954062
C  C128  1  0.49964000  0.77074000  0.25492000  1.0 -0.1861031269
C  C129  1  0.60715000  0.87384000  0.37791000  1.0 0.2220205301
C  C130  1  0.47850000  0.68428000  0.22002000  1.0 0.2220205301
C  C131  1  0.66990000  0.99301000  0.46029000  1.0 -0.4934640145
C  C132  1  0.37912000  0.55729000  0.10049000  1.0 -0.4934640145
C  C133  1  0.51210000  0.77365000  0.79185000  1.0 0.5611421848
C  C134  1  0.55954000  0.82799000  0.77377000  1.0 -0.0132703093
C  C135  1  0.67260000  0.94637000  0.86993000  1.0 -0.0647817133
C  C136  1  0.72005000  0.99285000  0.85340000  1.0 -0.1205450511
C  C137  1  0.65779000  0.92316000  0.74145000  1.0 0.0902264943
C  C138  1  0.54244000  0.80596000  0.64520000  1.0 -0.201100341
C  C139  1  0.49421000  0.75958000  0.66181000  1.0 -0.1788311815
C  C140  1  0.71321000  0.97025000  0.72534000  1.0 -0.1289337368
C  C141  1  0.78144000  0.07803000  0.77853000  1.0 0.2081223214
C  C142  1  0.71213000  0.91590000  0.65627000  1.0 0.1666521291
C  C143  1  0.81485000  0.17471000  0.86054000  1.0 -0.4985983735
C  C144  1  0.65847000  0.80094000  0.58369000  1.0 -0.4591555213
C  C145  1  0.75560000  0.72890000  0.68250000  1.0 -0.2796632663
C  C146  1  0.63170000  0.61850000  0.60000000  1.0 -0.0194601365
C  C147  1  0.56530000  0.50750000  0.50320000  1.0 -0.0132703093
C  C148  1  0.45060000  0.40670000  0.42890000  1.0 -0.0194601365
C  C149  1  0.40270000  0.41740000  0.45200000  1.0 -0.0132703093
C  C150  1  0.46940000  0.52870000  0.54910000  1.0 -0.0495456982
C  C151  1  0.58380000  0.62920000  0.62310000  1.0 0.0112033161
C  C152  1  0.72890000  0.68250000  0.75560000  1.0 -0.2796632663
C  C153  1  0.61850000  0.60000000  0.63170000  1.0 -0.0194601365
C  C154  1  0.50750000  0.50320000  0.56530000  1.0 -0.0132703093
C  C155  1  0.40670000  0.42890000  0.45060000  1.0 -0.0194601365
C  C156  1  0.41740000  0.45200000  0.40270000  1.0 -0.0132703093
C  C157  1  0.52870000  0.54910000  0.46940000  1.0 -0.0495456982
C  C158  1  0.62920000  0.62310000  0.58380000  1.0 0.0112033161
C  C159  1  0.68250000  0.75560000  0.72890000  1.0 -0.2796632663
C  C160  1  0.60000000  0.63170000  0.61850000  1.0 -0.0194601365
C  C161  1  0.50320000  0.56530000  0.50750000  1.0 -0.0132703093
C  C162  1  0.42890000  0.45060000  0.40670000  1.0 -0.0194601365
C  C163  1  0.45200000  0.40270000  0.41740000  1.0 -0.0132703093
C  C164  1  0.54910000  0.46940000  0.52870000  1.0 -0.0495456982
C  C165  1  0.62310000  0.58380000  0.62920000  1.0 0.0112033161
C  C166  1  0.24440000  0.27110000  0.31750000  1.0 -0.2796632663
C  C167  1  0.36830000  0.38150000  0.40000000  1.0 -0.0194601365
C  C168  1  0.43470000  0.49250000  0.49680000  1.0 -0.0132703093
C  C169  1  0.54940000  0.59330000  0.57110000  1.0 -0.0194601365
C  C170  1  0.59730000  0.58260000  0.54800000  1.0 -0.0132703093
C  C171  1  0.53060000  0.47130000  0.45090000  1.0 -0.0495456982
C  C172  1  0.41620000  0.37080000  0.37690000  1.0 0.0112033161
C  C173  1  0.27110000  0.31750000  0.24440000  1.0 -0.2796632663
C  C174  1  0.38150000  0.40000000  0.36830000  1.0 -0.0194601365
C  C175  1  0.49250000  0.49680000  0.43470000  1.0 -0.0132703093
C  C176  1  0.59330000  0.57110000  0.54940000  1.0 -0.0194601365
C  C177  1  0.58260000  0.54800000  0.59730000  1.0 -0.0132703093
C  C178  1  0.47130000  0.45090000  0.53060000  1.0 -0.0495456982
C  C179  1  0.37080000  0.37690000  0.41620000  1.0 0.0112033161
C  C180  1  0.31750000  0.24440000  0.27110000  1.0 -0.2796632663
C  C181  1  0.40000000  0.36830000  0.38150000  1.0 -0.0194601365
C  C182  1  0.49680000  0.43470000  0.49250000  1.0 -0.0132703093
C  C183  1  0.57110000  0.54940000  0.59330000  1.0 -0.0194601365
C  C184  1  0.54800000  0.59730000  0.58260000  1.0 -0.0132703093
C  C185  1  0.45090000  0.53060000  0.47130000  1.0 -0.0495456982
C  C186  1  0.37690000  0.41620000  0.37080000  1.0 0.0112033161
N  N1  1  0.14819000  0.58385000  0.35095000  1.0 -0.2692967271
N  N2  1  0.26398000  0.68126000  0.43019000  1.0 -0.1505437447
N  N3  1  0.91647000  0.25983000  0.18402000  1.0 -0.1505437447
N  N4  1  0.01418000  0.33401000  0.22477000  1.0 -0.255951575
N  N5  1  0.58385000  0.35095000  0.14819000  1.0 -0.2692967271
N  N6  1  0.68126000  0.43019000  0.26398000  1.0 -0.1505437447
N  N7  1  0.25983000  0.18402000  0.91647000  1.0 -0.1505437447
N  N8  1  0.33401000  0.22477000  0.01418000  1.0 -0.255951575
N  N9  1  0.35095000  0.14819000  0.58385000  1.0 -0.2692967271
N  N10  1  0.43019000  0.26398000  0.68126000  1.0 -0.1505437447
N  N11  1  0.18402000  0.91647000  0.25983000  1.0 -0.1505437447
N  N12  1  0.22477000  0.01418000  0.33401000  1.0 -0.255951575
N  N13  1  0.85181000  0.41615000  0.64905000  1.0 -0.2692967271
N  N14  1  0.73602000  0.31874000  0.56981000  1.0 -0.1505437447
N  N15  1  0.08353000  0.74017000  0.81598000  1.0 -0.1505437447
N  N16  1  0.98582000  0.66599000  0.77523000  1.0 -0.255951575
N  N17  1  0.41615000  0.64905000  0.85181000  1.0 -0.2692967271
N  N18  1  0.31874000  0.56981000  0.73602000  1.0 -0.1505437447
N  N19  1  0.74017000  0.81598000  0.08353000  1.0 -0.1505437447
N  N20  1  0.66599000  0.77523000  0.98582000  1.0 -0.255951575
N  N21  1  0.64905000  0.85181000  0.41615000  1.0 -0.2692967271
N  N22  1  0.56981000  0.73602000  0.31874000  1.0 -0.1505437447
N  N23  1  0.81598000  0.08353000  0.74017000  1.0 -0.1505437447
N  N24  1  0.77523000  0.98582000  0.66599000  1.0 -0.255951575
O  O1  1  0.35043000  0.08329000  0.90054000  1.0 -0.5594907783
O  O2  1  0.22522000  0.04280000  0.76660000  1.0 -0.5594907783
O  O3  1  0.15899000  0.10043000  0.41320000  1.0 -0.5594907783
O  O4  1  0.33060000  0.29515000  0.59095000  1.0 -0.5290160989
O  O5  1  0.08329000  0.90054000  0.35043000  1.0 -0.5594907783
O  O6  1  0.04280000  0.76660000  0.22522000  1.0 -0.5594907783
O  O7  1  0.10043000  0.41320000  0.15899000  1.0 -0.5594907783
O  O8  1  0.29515000  0.59095000  0.33060000  1.0 -0.5290160989
O  O9  1  0.90054000  0.35043000  0.08329000  1.0 -0.5594907783
O  O10  1  0.76660000  0.22522000  0.04280000  1.0 -0.5594907783
O  O11  1  0.41320000  0.15899000  0.10043000  1.0 -0.5594907783
O  O12  1  0.59095000  0.33060000  0.29515000  1.0 -0.5290160989
O  O13  1  0.64957000  0.91671000  0.09946000  1.0 -0.5594907783
O  O14  1  0.77478000  0.95720000  0.23340000  1.0 -0.5594907783
O  O15  1  0.84101000  0.89957000  0.58680000  1.0 -0.5594907783
O  O16  1  0.66940000  0.70485000  0.40905000  1.0 -0.5290160989
O  O17  1  0.91671000  0.09946000  0.64957000  1.0 -0.5594907783
O  O18  1  0.95720000  0.23340000  0.77478000  1.0 -0.5594907783
O  O19  1  0.89957000  0.58680000  0.84101000  1.0 -0.5594907783
O  O20  1  0.70485000  0.40905000  0.66940000  1.0 -0.5290160989
O  O21  1  0.09946000  0.64957000  0.91671000  1.0 -0.5594907783
O  O22  1  0.23340000  0.77478000  0.95720000  1.0 -0.5594907783
O  O23  1  0.58680000  0.84101000  0.89957000  1.0 -0.5594907783
O  O24  1  0.40905000  0.66940000  0.70485000  1.0 -0.5290160989
