# DDEC6 charges by PACMAN v1.1 (https://github.com/mtap-research/PACMAN-charge/)
data_GARTUR_FSR_pacman
_symmetry_space_group_name_H-M   'P 1'
_cell_length_a   36.95740000
_cell_length_b   36.95740000
_cell_length_c   36.95740000
_cell_angle_alpha   164.49100000
_cell_angle_beta   98.01530000
_cell_angle_gamma   84.08650000
_symmetry_Int_Tables_number   1
_chemical_formula_structural   Zn7GaP10H10O34F
_chemical_formula_sum   'Zn56 Ga8 P80 H80 O272 F8'
_cell_volume   13271.59086313
_cell_formula_units_Z   8
loop_
 _symmetry_equiv_pos_site_id
 _symmetry_equiv_pos_as_xyz
  1  'x, y, z'
loop_
 _atom_site_type_symbol
 _atom_site_label
 _atom_site_symmetry_multiplicity
 _atom_site_fract_x
 _atom_site_fract_y
 _atom_site_fract_z
 _atom_site_occupancy
 _atom_site_charge
Zn  Zn1  1  0.65275000  0.88849000  0.10070000  1.0 1.0516608049
Zn  Zn2  1  0.28779000  0.55205000  0.39930000  1.0 1.0516608049
Zn  Zn3  1  0.21221000  0.61151000  0.26426000  1.0 1.0516608049
Zn  Zn4  1  0.84725000  0.94795000  0.23574000  1.0 1.0516608049
Zn  Zn5  1  0.34725000  0.11151000  0.89930000  1.0 1.0516608049
Zn  Zn6  1  0.71221000  0.44795000  0.60070000  1.0 1.0516608049
Zn  Zn7  1  0.78779000  0.38849000  0.73574000  1.0 1.0516608049
Zn  Zn8  1  0.15275000  0.05205000  0.76426000  1.0 1.0516608049
Zn  Zn9  1  0.49578000  0.83784000  0.06694000  1.0 1.005559801
Zn  Zn10  1  0.27090000  0.42884000  0.43306000  1.0 1.005559801
Zn  Zn11  1  0.22910000  0.66216000  0.15794000  1.0 1.005559801
Zn  Zn12  1  0.00422000  0.07116000  0.34206000  1.0 1.005559801
Zn  Zn13  1  0.50422000  0.16216000  0.93306000  1.0 1.005559801
Zn  Zn14  1  0.72910000  0.57116000  0.56694000  1.0 1.005559801
Zn  Zn15  1  0.77090000  0.33784000  0.84206000  1.0 1.005559801
Zn  Zn16  1  0.99578000  0.92884000  0.65794000  1.0 1.005559801
Zn  Zn17  1  0.41794000  0.61595000  0.89759000  1.0 1.0774169852
Zn  Zn18  1  0.21836000  0.52035000  0.60241000  1.0 1.0774169852
Zn  Zn19  1  0.28164000  0.88405000  0.30199000  1.0 1.0774169852
Zn  Zn20  1  0.08206000  0.97965000  0.19801000  1.0 1.0774169852
Zn  Zn21  1  0.58206000  0.38405000  0.10241000  1.0 1.0774169852
Zn  Zn22  1  0.78164000  0.47965000  0.39759000  1.0 1.0774169852
Zn  Zn23  1  0.71836000  0.11595000  0.69801000  1.0 1.0774169852
Zn  Zn24  1  0.91794000  0.02035000  0.80199000  1.0 1.0774169852
Zn  Zn25  1  0.50394000  0.15285000  0.44249000  1.0 1.0204679657
Zn  Zn26  1  0.21036000  0.06145000  0.05751000  1.0 1.0204679657
Zn  Zn27  1  0.28964000  0.34715000  0.85109000  1.0 1.0204679657
Zn  Zn28  1  0.99606000  0.43855000  0.64891000  1.0 1.0204679657
Zn  Zn29  1  0.49606000  0.84715000  0.55751000  1.0 1.0204679657
Zn  Zn30  1  0.78964000  0.93855000  0.94249000  1.0 1.0204679657
Zn  Zn31  1  0.71036000  0.65285000  0.14891000  1.0 1.0204679657
Zn  Zn32  1  0.00394000  0.56145000  0.35109000  1.0 1.0204679657
Zn  Zn33  1  0.66045000  0.18499000  0.45674000  1.0 1.0676510622
Zn  Zn34  1  0.22825000  0.20371000  0.04326000  1.0 1.0676510622
Zn  Zn35  1  0.27175000  0.31501000  0.97546000  1.0 1.0676510622
Zn  Zn36  1  0.83955000  0.29629000  0.52454000  1.0 1.0676510622
Zn  Zn37  1  0.33955000  0.81501000  0.54326000  1.0 1.0676510622
Zn  Zn38  1  0.77175000  0.79629000  0.95674000  1.0 1.0676510622
Zn  Zn39  1  0.72825000  0.68499000  0.02454000  1.0 1.0676510622
Zn  Zn40  1  0.16045000  0.70371000  0.47546000  1.0 1.0676510622
Zn  Zn41  1  0.41261000  0.29047000  0.52684000  1.0 1.0599606623
Zn  Zn42  1  0.26363000  0.88577000  0.97316000  1.0 1.0599606623
Zn  Zn43  1  0.23637000  0.20953000  0.62214000  1.0 1.0599606623
Zn  Zn44  1  0.08739000  0.61423000  0.87786000  1.0 1.0599606623
Zn  Zn45  1  0.58739000  0.70953000  0.47316000  1.0 1.0599606623
Zn  Zn46  1  0.73637000  0.11423000  0.02684000  1.0 1.0599606623
Zn  Zn47  1  0.76363000  0.79047000  0.37786000  1.0 1.0599606623
Zn  Zn48  1  0.91261000  0.38577000  0.12214000  1.0 1.0599606623
Zn  Zn49  1  0.58000000  0.51692000  0.76634000  1.0 1.2536996976
Zn  Zn50  1  0.25058000  0.81366000  0.73366000  1.0 1.2536996976
Zn  Zn51  1  0.24942000  0.98308000  0.56308000  1.0 1.2536996976
Zn  Zn52  1  0.92000000  0.68634000  0.93692000  1.0 1.2536996976
Zn  Zn53  1  0.42000000  0.48308000  0.23366000  1.0 1.2536996976
Zn  Zn54  1  0.74942000  0.18634000  0.26634000  1.0 1.2536996976
Zn  Zn55  1  0.75058000  0.01692000  0.43692000  1.0 1.2554557015
Zn  Zn56  1  0.08000000  0.31366000  0.06308000  1.0 1.2536996976
Ga  Ga1  1  0.29965000  0.89957000  0.15368000  1.0 1.3910864953
Ga  Ga2  1  0.24589000  0.14597000  0.34632000  1.0 1.3910864953
Ga  Ga3  1  0.25411000  0.60043000  0.90008000  1.0 1.3910864953
Ga  Ga4  1  0.20035000  0.35403000  0.59992000  1.0 1.3910864953
Ga  Ga5  1  0.70035000  0.10043000  0.84632000  1.0 1.3910864953
Ga  Ga6  1  0.75411000  0.85403000  0.65368000  1.0 1.3910864953
Ga  Ga7  1  0.74589000  0.39957000  0.09992000  1.0 1.3910864953
Ga  Ga8  1  0.79965000  0.64597000  0.40008000  1.0 1.3910864953
P  P1  1  0.32763000  0.20698000  0.44205000  1.0 1.2360483696
P  P2  1  0.26493000  0.88558000  0.05795000  1.0 1.2360483696
P  P3  1  0.23507000  0.29302000  0.62065000  1.0 1.2360483696
P  P4  1  0.17237000  0.61442000  0.87935000  1.0 1.2360483696
P  P5  1  0.67237000  0.79302000  0.55795000  1.0 1.2360483696
P  P6  1  0.73507000  0.11442000  0.94205000  1.0 1.2360483696
P  P7  1  0.76493000  0.70698000  0.37935000  1.0 1.2360483696
P  P8  1  0.82763000  0.38558000  0.12065000  1.0 1.2360483696
P  P9  1  0.69794000  0.91857000  0.20577000  1.0 1.12743578
P  P10  1  0.21280000  0.49217000  0.29423000  1.0 1.12743578
P  P11  1  0.28720000  0.58143000  0.27937000  1.0 1.12743578
P  P12  1  0.80206000  0.00783000  0.22063000  1.0 1.12743578
P  P13  1  0.30206000  0.08143000  0.79423000  1.0 1.12743578
P  P14  1  0.78720000  0.50783000  0.70577000  1.0 1.12743578
P  P15  1  0.71280000  0.41857000  0.72063000  1.0 1.12743578
P  P16  1  0.19794000  0.99217000  0.77937000  1.0 1.12743578
P  P17  1  0.58788000  0.21106000  0.50742000  1.0 1.154319941
P  P18  1  0.20364000  0.08046000  0.99258000  1.0 1.154319941
P  P19  1  0.29636000  0.28894000  0.87682000  1.0 1.154319941
P  P20  1  0.91212000  0.41954000  0.62318000  1.0 1.154319941
P  P21  1  0.41212000  0.78894000  0.49258000  1.0 1.154319941
P  P22  1  0.79636000  0.91954000  0.00742000  1.0 1.154319941
P  P23  1  0.70364000  0.71106000  0.12318000  1.0 1.154319941
P  P24  1  0.08788000  0.58046000  0.37682000  1.0 1.154319941
P  P25  1  0.68943000  0.18470000  0.38453000  1.0 1.0599606623
P  P26  1  0.30017000  0.30490000  0.11547000  1.0 1.0599606623
P  P27  1  0.19983000  0.31530000  0.00473000  1.0 1.0599606623
P  P28  1  0.81057000  0.19510000  0.49527000  1.0 1.0599606623
P  P29  1  0.31057000  0.81530000  0.61547000  1.0 1.0599606623
P  P30  1  0.69983000  0.69510000  0.88453000  1.0 1.0599606623
P  P31  1  0.80017000  0.68470000  0.99527000  1.0 1.0599606623
P  P32  1  0.18943000  0.80490000  0.50473000  1.0 1.0599606623
P  P33  1  0.47558000  0.84847000  0.15671000  1.0 1.3910864953
P  P34  1  0.19176000  0.31887000  0.34329000  1.0 1.3910864953
P  P35  1  0.30824000  0.65153000  0.12711000  1.0 1.3910864953
P  P36  1  0.02442000  0.18113000  0.37289000  1.0 1.3910864953
P  P37  1  0.52442000  0.15153000  0.84329000  1.0 1.3910864953
P  P38  1  0.80824000  0.68113000  0.65671000  1.0 1.3910864953
P  P39  1  0.69176000  0.34847000  0.87289000  1.0 1.3910864953
P  P40  1  0.97558000  0.81887000  0.62711000  1.0 1.3910864953
P  P41  1  0.57050000  0.82512000  0.02818000  1.0 1.3629428585
P  P42  1  0.29694000  0.54232000  0.47182000  1.0 1.3629428585
P  P43  1  0.20306000  0.67488000  0.24538000  1.0 1.3629428585
P  P44  1  0.92950000  0.95768000  0.25462000  1.0 1.3629428585
P  P45  1  0.42950000  0.17488000  0.97182000  1.0 1.3629428585
P  P46  1  0.70306000  0.45768000  0.52818000  1.0 1.3629428585
P  P47  1  0.79694000  0.32512000  0.75462000  1.0 1.3629428585
P  P48  1  0.07050000  0.04232000  0.74538000  1.0 1.3629428585
P  P49  1  0.45590000  0.34892000  0.66098000  1.0 1.2200573672
P  P50  1  0.18794000  0.79492000  0.83902000  1.0 1.2200573672
P  P51  1  0.31206000  0.15108000  0.60698000  1.0 1.2200573672
P  P52  1  0.04410000  0.70508000  0.89302000  1.0 1.2200573672
P  P53  1  0.54410000  0.65108000  0.33902000  1.0 1.2200573672
P  P54  1  0.81206000  0.20508000  0.16098000  1.0 1.2200573672
P  P55  1  0.68794000  0.84892000  0.39302000  1.0 1.2200573672
P  P56  1  0.95590000  0.29492000  0.10698000  1.0 1.2200573672
P  P57  1  0.33313000  0.62273000  0.89920000  1.0 1.0379662056
P  P58  1  0.22353000  0.43393000  0.60080000  1.0 1.0379662056
P  P59  1  0.27647000  0.87727000  0.21040000  1.0 1.0379662056
P  P60  1  0.16687000  0.06607000  0.28960000  1.0 1.0379662056
P  P61  1  0.66687000  0.37727000  0.10080000  1.0 1.0379662056
P  P62  1  0.77647000  0.56607000  0.39920000  1.0 1.0379662056
P  P63  1  0.72353000  0.12273000  0.78960000  1.0 1.0379662056
P  P64  1  0.83313000  0.93393000  0.71040000  1.0 1.0379662056
P  P65  1  0.46279000  0.11173000  0.32186000  1.0 1.0599606623
P  P66  1  0.28987000  0.14093000  0.17814000  1.0 1.0599606623
P  P67  1  0.21013000  0.38827000  0.85106000  1.0 1.0599606623
P  P68  1  0.03721000  0.35907000  0.64894000  1.0 1.0599606623
P  P69  1  0.53721000  0.88827000  0.67814000  1.0 1.0599606623
P  P70  1  0.71013000  0.85907000  0.82186000  1.0 1.0599606623
P  P71  1  0.78987000  0.61173000  0.14894000  1.0 1.0599606623
P  P72  1  0.96279000  0.64093000  0.35106000  1.0 1.0599606623
P  P73  1  0.44331000  0.58937000  0.79594000  1.0 1.12743578
P  P74  1  0.29343000  0.64737000  0.70406000  1.0 1.12743578
P  P75  1  0.20657000  0.91063000  0.35394000  1.0 1.12743578
P  P76  1  0.05669000  0.85263000  0.14606000  1.0 1.12743578
P  P77  1  0.55669000  0.41063000  0.20406000  1.0 1.12743578
P  P78  1  0.70657000  0.35263000  0.29594000  1.0 1.12743578
P  P79  1  0.79343000  0.08937000  0.64606000  1.0 1.12743578
P  P80  1  0.94331000  0.14737000  0.85394000  1.0 1.12743578
H  H1  1  0.31690000  0.25880000  0.52370000  1.0 -0.0784081119
H  H2  1  0.23510000  0.79320000  0.97630000  1.0 -0.0784081119
H  H3  1  0.26490000  0.24120000  0.55810000  1.0 -0.0784081119
H  H4  1  0.18310000  0.70680000  0.94190000  1.0 -0.0784081119
H  H5  1  0.68310000  0.74120000  0.47630000  1.0 -0.0784081119
H  H6  1  0.76490000  0.20680000  0.02370000  1.0 -0.0784081119
H  H7  1  0.73510000  0.75880000  0.44190000  1.0 -0.0784081119
H  H8  1  0.81690000  0.29320000  0.05810000  1.0 -0.0784081119
H  H9  1  0.72490000  0.89020000  0.15910000  1.0 -0.1033948633
H  H10  1  0.23110000  0.56580000  0.34090000  1.0 -0.1033948633
H  H11  1  0.26890000  0.60980000  0.33470000  1.0 -0.1033948633
H  H12  1  0.77510000  0.93420000  0.16530000  1.0 -0.1033948633
H  H13  1  0.27510000  0.10980000  0.84090000  1.0 -0.1033948633
H  H14  1  0.76890000  0.43420000  0.65910000  1.0 -0.1033948633
H  H15  1  0.73110000  0.39020000  0.66530000  1.0 -0.1033948633
H  H16  1  0.22490000  0.06580000  0.83470000  1.0 -0.1033948633
H  H17  1  0.60630000  0.26910000  0.59040000  1.0 -0.230285422
H  H18  1  0.17870000  0.01590000  0.90960000  1.0 -0.230285422
H  H19  1  0.32130000  0.23090000  0.83720000  1.0 -0.230285422
H  H20  1  0.89370000  0.48410000  0.66280000  1.0 -0.230285422
H  H21  1  0.39370000  0.73090000  0.40960000  1.0 -0.230285422
H  H22  1  0.82130000  0.98410000  0.09040000  1.0 -0.230285422
H  H23  1  0.67870000  0.76910000  0.16280000  1.0 -0.230285422
H  H24  1  0.10630000  0.51590000  0.33720000  1.0 -0.230285422
H  H25  1  0.71540000  0.22450000  0.44310000  1.0 -0.0404774147
H  H26  1  0.28140000  0.27230000  0.05690000  1.0 -0.0404774147
H  H27  1  0.21860000  0.27550000  0.99090000  1.0 -0.0404774147
H  H28  1  0.78460000  0.22770000  0.50910000  1.0 -0.0404774147
H  H29  1  0.28460000  0.77550000  0.55690000  1.0 -0.0404774147
H  H30  1  0.71860000  0.72770000  0.94310000  1.0 -0.0404774147
H  H31  1  0.78140000  0.72450000  0.00910000  1.0 -0.0404774147
H  H32  1  0.21540000  0.77230000  0.49090000  1.0 -0.0404774147
H  H33  1  0.49080000  0.78390000  0.12890000  1.0 -0.2009587075
H  H34  1  0.15500000  0.36190000  0.37110000  1.0 -0.2009587075
H  H35  1  0.34500000  0.71610000  0.20690000  1.0 -0.2009587075
H  H36  1  0.00920000  0.13810000  0.29310000  1.0 -0.2009587075
H  H37  1  0.50920000  0.21610000  0.87110000  1.0 -0.2009587075
H  H38  1  0.84500000  0.63810000  0.62890000  1.0 -0.2009587075
H  H39  1  0.65500000  0.28390000  0.79310000  1.0 -0.2009587075
H  H40  1  0.99080000  0.86190000  0.70690000  1.0 -0.2009587075
H  H41  1  0.54490000  0.78620000  0.95790000  1.0 -0.2609163422
H  H42  1  0.32830000  0.58700000  0.54210000  1.0 -0.2609163422
H  H43  1  0.17170000  0.71380000  0.25870000  1.0 -0.2609163422
H  H44  1  0.95510000  0.91300000  0.24130000  1.0 -0.2609163422
H  H45  1  0.45510000  0.21380000  0.04210000  1.0 -0.2609163422
H  H46  1  0.67170000  0.41300000  0.45790000  1.0 -0.2609163422
H  H47  1  0.82830000  0.28620000  0.74130000  1.0 -0.2609163422
H  H48  1  0.04490000  0.08700000  0.75870000  1.0 -0.2609163422
H  H49  1  0.44960000  0.27480000  0.61860000  1.0 -0.1687518071
H  H50  1  0.15620000  0.83100000  0.88140000  1.0 -0.1687518071
H  H51  1  0.34380000  0.22520000  0.67480000  1.0 -0.1687518071
H  H52  1  0.05040000  0.66900000  0.82520000  1.0 -0.1687518071
H  H53  1  0.55040000  0.72520000  0.38140000  1.0 -0.1687518071
H  H54  1  0.84380000  0.16900000  0.11860000  1.0 -0.1687518071
H  H55  1  0.65620000  0.77480000  0.32520000  1.0 -0.1687518071
H  H56  1  0.94960000  0.33100000  0.17480000  1.0 -0.1687518071
H  H57  1  0.31780000  0.63180000  0.88320000  1.0 0.1282926787
H  H58  1  0.24860000  0.43460000  0.61680000  1.0 0.1282926787
H  H59  1  0.25140000  0.86820000  0.18600000  1.0 0.1282926787
H  H60  1  0.18220000  0.06540000  0.31400000  1.0 0.1282926787
H  H61  1  0.68220000  0.36820000  0.11680000  1.0 0.1282926787
H  H62  1  0.75140000  0.56540000  0.38320000  1.0 0.1282926787
H  H63  1  0.74860000  0.13180000  0.81400000  1.0 0.1282926787
H  H64  1  0.81780000  0.93460000  0.68600000  1.0 0.1282926787
H  H65  1  0.47040000  0.12740000  0.31220000  1.0 0.0113670019
H  H66  1  0.31520000  0.15820000  0.18780000  1.0 0.0113670019
H  H67  1  0.18480000  0.37260000  0.84300000  1.0 0.0113670019
H  H68  1  0.02960000  0.34180000  0.65700000  1.0 0.0113670019
H  H69  1  0.52960000  0.87260000  0.68780000  1.0 0.0113670019
H  H70  1  0.68480000  0.84180000  0.81220000  1.0 0.0113670019
H  H71  1  0.81520000  0.62740000  0.15700000  1.0 0.0113670019
H  H72  1  0.97040000  0.65820000  0.34300000  1.0 0.0113670019
H  H73  1  0.44040000  0.62000000  0.79300000  1.0 -0.156393259
H  H74  1  0.32700000  0.64740000  0.70700000  1.0 -0.156393259
H  H75  1  0.17300000  0.88000000  0.32040000  1.0 -0.156393259
H  H76  1  0.05960000  0.85260000  0.17960000  1.0 -0.156393259
H  H77  1  0.55960000  0.38000000  0.20700000  1.0 -0.156393259
H  H78  1  0.67300000  0.35260000  0.29300000  1.0 -0.156393259
H  H79  1  0.82700000  0.12000000  0.67960000  1.0 -0.156393259
H  H80  1  0.94040000  0.14740000  0.82040000  1.0 -0.156393259
O  O1  1  0.29699000  0.22049000  0.42390000  1.0 -0.6596479084
O  O2  1  0.29659000  0.87309000  0.07610000  1.0 -0.6596479084
O  O3  1  0.20341000  0.27951000  0.57650000  1.0 -0.6596479084
O  O4  1  0.20301000  0.62691000  0.92350000  1.0 -0.6596479084
O  O5  1  0.70301000  0.77951000  0.57610000  1.0 -0.6596479084
O  O6  1  0.70341000  0.12691000  0.92390000  1.0 -0.6596479084
O  O7  1  0.79659000  0.72049000  0.42350000  1.0 -0.6596479084
O  O8  1  0.79699000  0.37309000  0.07650000  1.0 -0.6596479084
O  O9  1  0.33566000  0.06005000  0.30681000  1.0 -0.6473535054
O  O10  1  0.25324000  0.02885000  0.19319000  1.0 -0.6473535054
O  O11  1  0.24676000  0.43995000  0.77561000  1.0 -0.6473535054
O  O12  1  0.16434000  0.47115000  0.72439000  1.0 -0.6473535054
O  O13  1  0.66434000  0.93995000  0.69319000  1.0 -0.6473535054
O  O14  1  0.74676000  0.97115000  0.80681000  1.0 -0.6473535054
O  O15  1  0.75324000  0.56005000  0.22439000  1.0 -0.6421072361
O  O16  1  0.83566000  0.52885000  0.27561000  1.0 -0.6421072361
O  O17  1  0.36113000  0.29955000  0.52398000  1.0 -0.6421072361
O  O18  1  0.27557000  0.83715000  0.97602000  1.0 -0.6421072361
O  O19  1  0.22443000  0.20045000  0.56158000  1.0 -0.6421072361
O  O20  1  0.13887000  0.66285000  0.93842000  1.0 -0.6421072361
O  O21  1  0.63887000  0.70045000  0.47602000  1.0 -0.6421072361
O  O22  1  0.72443000  0.16285000  0.02398000  1.0 -0.6421072361
O  O23  1  0.77557000  0.79955000  0.43842000  1.0 -0.6421072361
O  O24  1  0.86113000  0.33715000  0.06158000  1.0 -0.6421072361
O  O25  1  0.66308000  0.85342000  0.11966000  1.0 -0.6596479084
O  O26  1  0.23376000  0.54342000  0.38034000  1.0 -0.6596479084
O  O27  1  0.26624000  0.64658000  0.30966000  1.0 -0.6596479084
O  O28  1  0.83692000  0.95658000  0.19034000  1.0 -0.6596479084
O  O29  1  0.33692000  0.14658000  0.88034000  1.0 -0.6596479084
O  O30  1  0.76624000  0.45658000  0.61966000  1.0 -0.6596479084
O  O31  1  0.73376000  0.35342000  0.69034000  1.0 -0.6596479084
O  O32  1  0.16308000  0.04342000  0.80966000  1.0 -0.6596479084
O  O33  1  0.70577000  0.85151000  0.17766000  1.0 -0.6196503852
O  O34  1  0.17385000  0.52811000  0.32234000  1.0 -0.6196503852
O  O35  1  0.32615000  0.64849000  0.35426000  1.0 -0.6196503852
O  O36  1  0.79423000  0.97189000  0.14574000  1.0 -0.6196503852
O  O37  1  0.29423000  0.14849000  0.82234000  1.0 -0.6196503852
O  O38  1  0.82615000  0.47189000  0.67766000  1.0 -0.6196503852
O  O39  1  0.67385000  0.35151000  0.64574000  1.0 -0.6196503852
O  O40  1  0.20577000  0.02811000  0.85426000  1.0 -0.6306495307
O  O41  1  0.69846000  0.06937000  0.35709000  1.0 -0.6596479084
O  O42  1  0.21228000  0.34137000  0.14291000  1.0 -0.6596479084
O  O43  1  0.28772000  0.43063000  0.12909000  1.0 -0.6596479084
O  O44  1  0.80154000  0.15863000  0.37091000  1.0 -0.6596479084
O  O45  1  0.30154000  0.93063000  0.64291000  1.0 -0.6596479084
O  O46  1  0.78772000  0.65863000  0.85709000  1.0 -0.6596479084
O  O47  1  0.71228000  0.56937000  0.87091000  1.0 -0.6596479084
O  O48  1  0.19846000  0.84137000  0.62909000  1.0 -0.6596479084
O  O49  1  0.55427000  0.12930000  0.43777000  1.0 -0.6100496157
O  O50  1  0.19153000  0.11650000  0.06223000  1.0 -0.6100496157
O  O51  1  0.30847000  0.37070000  0.92497000  1.0 -0.6100496157
O  O52  1  0.94573000  0.38350000  0.57503000  1.0 -0.6100496157
O  O53  1  0.44573000  0.87070000  0.56223000  1.0 -0.6100496157
O  O54  1  0.80847000  0.88350000  0.93777000  1.0 -0.6100496157
O  O55  1  0.69153000  0.62930000  0.07503000  1.0 -0.6100496157
O  O56  1  0.05427000  0.61650000  0.42497000  1.0 -0.6100496157
O  O57  1  0.61326000  0.11464000  0.40182000  1.0 -0.6100496157
O  O58  1  0.21282000  0.21144000  0.09818000  1.0 -0.6100496157
O  O59  1  0.28718000  0.38536000  0.99862000  1.0 -0.6100496157
O  O60  1  0.88674000  0.28856000  0.50138000  1.0 -0.6100496157
O  O61  1  0.38674000  0.88536000  0.59818000  1.0 -0.6100496157
O  O62  1  0.78718000  0.78856000  0.90182000  1.0 -0.6100496157
O  O63  1  0.71282000  0.61464000  0.00138000  1.0 -0.6100496157
O  O64  1  0.11326000  0.71144000  0.49862000  1.0 -0.6100496157
O  O65  1  0.58045000  0.31825000  0.58260000  1.0 -0.6736003357
O  O66  1  0.23565000  0.99785000  0.91740000  1.0 -0.6736003357
O  O67  1  0.26435000  0.18175000  0.76220000  1.0 -0.6736003357
O  O68  1  0.91955000  0.50215000  0.73780000  1.0 -0.6736003357
O  O69  1  0.41955000  0.68175000  0.41740000  1.0 -0.6736003357
O  O70  1  0.76435000  0.00215000  0.08260000  1.0 -0.6736003357
O  O71  1  0.73565000  0.81825000  0.23780000  1.0 -0.6736003357
O  O72  1  0.08045000  0.49785000  0.26220000  1.0 -0.6736003357
O  O73  1  0.69096000  0.26088000  0.42268000  1.0 -0.6100496157
O  O74  1  0.33820000  0.26828000  0.07732000  1.0 -0.6100496157
O  O75  1  0.16180000  0.23912000  0.93008000  1.0 -0.6100496157
O  O76  1  0.80904000  0.23172000  0.56992000  1.0 -0.6100496157
O  O77  1  0.30904000  0.73912000  0.57732000  1.0 -0.6100496157
O  O78  1  0.66180000  0.73172000  0.92268000  1.0 -0.6100496157
O  O79  1  0.83820000  0.76088000  0.06992000  1.0 -0.6100496157
O  O80  1  0.19096000  0.76828000  0.43008000  1.0 -0.6100496157
O  O81  1  0.68922000  0.03705000  0.23517000  1.0 -0.6421072361
O  O82  1  0.30188000  0.45405000  0.26483000  1.0 -0.6421072361
O  O83  1  0.19812000  0.46295000  0.15217000  1.0 -0.6421072361
O  O84  1  0.81078000  0.04595000  0.34783000  1.0 -0.6421072361
O  O85  1  0.31078000  0.96295000  0.76483000  1.0 -0.6421072361
O  O86  1  0.69812000  0.54595000  0.73517000  1.0 -0.6421072361
O  O87  1  0.80188000  0.53705000  0.84783000  1.0 -0.6421072361
O  O88  1  0.18922000  0.95405000  0.65217000  1.0 -0.6421072361
O  O89  1  0.65804000  0.21925000  0.43759000  1.0 -0.6473535054
O  O90  1  0.28166000  0.22045000  0.06241000  1.0 -0.6473535054
O  O91  1  0.21834000  0.28075000  0.93879000  1.0 -0.6473535054
O  O92  1  0.84196000  0.27955000  0.56121000  1.0 -0.6473535054
O  O93  1  0.34196000  0.78075000  0.56241000  1.0 -0.6473535054
O  O94  1  0.71834000  0.77955000  0.93759000  1.0 -0.6473535054
O  O95  1  0.78166000  0.71925000  0.06121000  1.0 -0.6473535054
O  O96  1  0.15804000  0.72045000  0.43879000  1.0 -0.6473535054
O  O97  1  0.50187000  0.81766000  0.10041000  1.0 -0.7268628638
O  O98  1  0.21725000  0.40146000  0.39959000  1.0 -0.7268628638
O  O99  1  0.28275000  0.68234000  0.18421000  1.0 -0.7268628638
O  O100  1  0.99813000  0.09854000  0.31579000  1.0 -0.7268628638
O  O101  1  0.49813000  0.18234000  0.89959000  1.0 -0.7268628638
O  O102  1  0.78275000  0.59854000  0.60041000  1.0 -0.7268628638
O  O103  1  0.71725000  0.31766000  0.81579000  1.0 -0.7268628638
O  O104  1  0.00187000  0.90146000  0.68421000  1.0 -0.7268628638
O  O105  1  0.47638000  0.99718000  0.30980000  1.0 -0.6931410592
O  O106  1  0.18738000  0.16658000  0.19020000  1.0 -0.6931410592
O  O107  1  0.31262000  0.50282000  0.97920000  1.0 -0.6931410592
O  O108  1  0.02362000  0.33342000  0.52080000  1.0 -0.6931410592
O  O109  1  0.52362000  0.00282000  0.69020000  1.0 -0.6931410592
O  O110  1  0.81262000  0.83342000  0.80980000  1.0 -0.6931410592
O  O111  1  0.68738000  0.49718000  0.02080000  1.0 -0.6931410592
O  O112  1  0.97638000  0.66658000  0.47920000  1.0 -0.6931410592
O  O113  1  0.43652000  0.79352000  0.09080000  1.0 -0.6809141572
O  O114  1  0.20272000  0.34572000  0.40920000  1.0 -0.6809141572
O  O115  1  0.29728000  0.70648000  0.14300000  1.0 -0.6809141572
O  O116  1  0.06348000  0.15428000  0.35700000  1.0 -0.6809141572
O  O117  1  0.56348000  0.20648000  0.90920000  1.0 -0.6809141572
O  O118  1  0.79728000  0.65428000  0.59080000  1.0 -0.6809141572
O  O119  1  0.70272000  0.29352000  0.85700000  1.0 -0.6809141572
O  O120  1  0.93652000  0.84572000  0.64300000  1.0 -0.6809141572
O  O121  1  0.60329000  0.92059000  0.11330000  1.0 -0.6809141572
O  O122  1  0.30729000  0.48999000  0.38670000  1.0 -0.6809141572
O  O123  1  0.19271000  0.57941000  0.18270000  1.0 -0.6809141572
O  O124  1  0.89671000  0.01001000  0.31730000  1.0 -0.6809141572
O  O125  1  0.39671000  0.07941000  0.88670000  1.0 -0.6809141572
O  O126  1  0.69271000  0.51001000  0.61330000  1.0 -0.6809141572
O  O127  1  0.80729000  0.42059000  0.81730000  1.0 -0.6809141572
O  O128  1  0.10329000  0.98999000  0.68270000  1.0 -0.6809141572
O  O129  1  0.54282000  0.90842000  0.12080000  1.0 -0.6306495307
O  O130  1  0.28762000  0.42202000  0.37920000  1.0 -0.6306495307
O  O131  1  0.21238000  0.59158000  0.13440000  1.0 -0.6306495307
O  O132  1  0.95718000  0.07798000  0.36560000  1.0 -0.6306495307
O  O133  1  0.45718000  0.09158000  0.87920000  1.0 -0.6306495307
O  O134  1  0.71238000  0.57798000  0.62080000  1.0 -0.6306495307
O  O135  1  0.78762000  0.40842000  0.86560000  1.0 -0.6306495307
O  O136  1  0.04282000  0.92202000  0.63440000  1.0 -0.6306495307
O  O137  1  0.57994000  0.71575000  0.94939000  1.0 -0.7487787838
O  O138  1  0.26636000  0.63055000  0.55061000  1.0 -0.7487787838
O  O139  1  0.23364000  0.78425000  0.36419000  1.0 -0.7487787838
O  O140  1  0.92006000  0.86945000  0.13581000  1.0 -0.7487787838
O  O141  1  0.42006000  0.28425000  0.05061000  1.0 -0.7487787838
O  O142  1  0.73364000  0.36945000  0.44939000  1.0 -0.7487787838
O  O143  1  0.76636000  0.21575000  0.63581000  1.0 -0.7487787838
O  O144  1  0.07994000  0.13055000  0.86419000  1.0 -0.7487787838
O  O145  1  0.45336000  0.49899000  0.80557000  1.0 -0.6809141572
O  O146  1  0.19342000  0.64779000  0.69443000  1.0 -0.6809141572
O  O147  1  0.30658000  0.00101000  0.45437000  1.0 -0.6809141572
O  O148  1  0.04664000  0.85221000  0.04563000  1.0 -0.6809141572
O  O149  1  0.54664000  0.50101000  0.19443000  1.0 -0.6809141572
O  O150  1  0.80658000  0.35221000  0.30557000  1.0 -0.6809141572
O  O151  1  0.69342000  0.99899000  0.54563000  1.0 -0.6809141572
O  O152  1  0.95336000  0.14779000  0.95437000  1.0 -0.6809141572
O  O153  1  0.49341000  0.31959000  0.62502000  1.0 -0.6306495307
O  O154  1  0.19457000  0.86839000  0.87498000  1.0 -0.6306495307
O  O155  1  0.30543000  0.18041000  0.67382000  1.0 -0.6306495307
O  O156  1  0.00659000  0.63161000  0.82618000  1.0 -0.6306495307
O  O157  1  0.50659000  0.68041000  0.37498000  1.0 -0.6306495307
O  O158  1  0.80543000  0.13161000  0.12502000  1.0 -0.6306495307
O  O159  1  0.69457000  0.81959000  0.32618000  1.0 -0.6306495307
O  O160  1  0.99341000  0.36839000  0.17382000  1.0 -0.6306495307
O  O161  1  0.42512000  0.26673000  0.55679000  1.0 -0.6736003357
O  O162  1  0.20994000  0.86833000  0.94321000  1.0 -0.6736003357
O  O163  1  0.29006000  0.23327000  0.65839000  1.0 -0.6736003357
O  O164  1  0.07488000  0.63167000  0.84161000  1.0 -0.6736003357
O  O165  1  0.57488000  0.73327000  0.44321000  1.0 -0.6736003357
O  O166  1  0.79006000  0.13167000  0.05679000  1.0 -0.6736003357
O  O167  1  0.70994000  0.76673000  0.34161000  1.0 -0.6736003357
O  O168  1  0.92512000  0.36833000  0.15839000  1.0 -0.6736003357
O  O169  1  0.33783000  0.77772000  0.04331000  1.0 -0.6196503852
O  O170  1  0.23441000  0.29452000  0.45669000  1.0 -0.6196503852
O  O171  1  0.26559000  0.72228000  0.06011000  1.0 -0.6196503852
O  O172  1  0.16217000  0.20548000  0.43989000  1.0 -0.6196503852
O  O173  1  0.66217000  0.22228000  0.95669000  1.0 -0.6196503852
O  O174  1  0.76559000  0.70548000  0.54331000  1.0 -0.6196503852
O  O175  1  0.73441000  0.27772000  0.93989000  1.0 -0.6196503852
O  O176  1  0.83783000  0.79452000  0.56011000  1.0 -0.6196503852
O  O177  1  0.30490000  0.57509000  0.87761000  1.0 -0.6100496157
O  O178  1  0.19748000  0.42729000  0.62239000  1.0 -0.6100496157
O  O179  1  0.30252000  0.92491000  0.22981000  1.0 -0.6100496157
O  O180  1  0.19510000  0.07271000  0.27019000  1.0 -0.6100496157
O  O181  1  0.69510000  0.42491000  0.12239000  1.0 -0.6100496157
O  O182  1  0.80252000  0.57271000  0.37761000  1.0 -0.6100496157
O  O183  1  0.69748000  0.07509000  0.77019000  1.0 -0.6100496157
O  O184  1  0.80490000  0.92729000  0.72981000  1.0 -0.6100496157
O  O185  1  0.36907000  0.57127000  0.86460000  1.0 -0.6196503852
O  O186  1  0.20667000  0.50447000  0.63540000  1.0 -0.6196503852
O  O187  1  0.29333000  0.92873000  0.29780000  1.0 -0.6196503852
O  O188  1  0.13093000  0.99553000  0.20220000  1.0 -0.6196503852
O  O189  1  0.63093000  0.42873000  0.13540000  1.0 -0.6196503852
O  O190  1  0.79333000  0.49553000  0.36460000  1.0 -0.6196503852
O  O191  1  0.70667000  0.07127000  0.70220000  1.0 -0.6196503852
O  O192  1  0.86907000  0.00447000  0.79780000  1.0 -0.6196503852
O  O193  1  0.46275000  0.96325000  0.16930000  1.0 -0.6306495307
O  O194  1  0.29395000  0.29345000  0.33070000  1.0 -0.6306495307
O  O195  1  0.20605000  0.53675000  0.99950000  1.0 -0.6306495307
O  O196  1  0.03725000  0.20655000  0.50050000  1.0 -0.6306495307
O  O197  1  0.53725000  0.03675000  0.83070000  1.0 -0.6306495307
O  O198  1  0.70605000  0.70655000  0.66930000  1.0 -0.6306495307
O  O199  1  0.79395000  0.46325000  0.00050000  1.0 -0.6306495307
O  O200  1  0.96275000  0.79345000  0.49950000  1.0 -0.6306495307
O  O201  1  0.49533000  0.17156000  0.40737000  1.0 -0.6596479084
O  O202  1  0.26419000  0.08796000  0.09263000  1.0 -0.6596479084
O  O203  1  0.23581000  0.32844000  0.82377000  1.0 -0.6596479084
O  O204  1  0.00467000  0.41204000  0.67623000  1.0 -0.6596479084
O  O205  1  0.50467000  0.82844000  0.59263000  1.0 -0.6596479084
O  O206  1  0.73581000  0.91204000  0.90737000  1.0 -0.6596479084
O  O207  1  0.76419000  0.67156000  0.17623000  1.0 -0.6596479084
O  O208  1  0.99533000  0.58796000  0.32377000  1.0 -0.6596479084
O  O209  1  0.42540000  0.13198000  0.35102000  1.0 -0.6306495307
O  O210  1  0.28096000  0.07438000  0.14898000  1.0 -0.6306495307
O  O211  1  0.21904000  0.36802000  0.79342000  1.0 -0.6306495307
O  O212  1  0.07460000  0.42562000  0.70658000  1.0 -0.6306495307
O  O213  1  0.57460000  0.86802000  0.64898000  1.0 -0.6306495307
O  O214  1  0.71904000  0.92562000  0.85102000  1.0 -0.6306495307
O  O215  1  0.78096000  0.63198000  0.20658000  1.0 -0.6306495307
O  O216  1  0.92540000  0.57438000  0.29342000  1.0 -0.6306495307
O  O217  1  0.48241000  0.65631000  0.86890000  1.0 -0.6196503852
O  O218  1  0.28741000  0.61351000  0.63110000  1.0 -0.6196503852
O  O219  1  0.21259000  0.84369000  0.32610000  1.0 -0.6196503852
O  O220  1  0.01759000  0.88649000  0.17390000  1.0 -0.6196503852
O  O221  1  0.51759000  0.34369000  0.13110000  1.0 -0.6196503852
O  O222  1  0.71259000  0.38649000  0.36890000  1.0 -0.6196503852
O  O223  1  0.78741000  0.15631000  0.67390000  1.0 -0.6196503852
O  O224  1  0.98241000  0.11351000  0.82610000  1.0 -0.6196503852
O  O225  1  0.41779000  0.64349000  0.87170000  1.0 -0.6968975972
O  O226  1  0.27179000  0.54609000  0.62830000  1.0 -0.6968975972
O  O227  1  0.22821000  0.85651000  0.27430000  1.0 -0.6968975972
O  O228  1  0.08221000  0.95391000  0.22570000  1.0 -0.6968975972
O  O229  1  0.58221000  0.35651000  0.12830000  1.0 -0.6968975972
O  O230  1  0.72821000  0.45391000  0.37170000  1.0 -0.6968975972
O  O231  1  0.77179000  0.14349000  0.72570000  1.0 -0.6968975972
O  O232  1  0.91779000  0.04609000  0.77430000  1.0 -0.6968975972
O  O233  1  0.44279000  0.43784000  0.64935000  1.0 -0.6596479084
O  O234  1  0.28849000  0.79344000  0.85065000  1.0 -0.6596479084
O  O235  1  0.21151000  0.06216000  0.50495000  1.0 -0.6596479084
O  O236  1  0.05721000  0.70656000  0.99505000  1.0 -0.6596479084
O  O237  1  0.55721000  0.56216000  0.35065000  1.0 -0.6596479084
O  O238  1  0.71151000  0.20656000  0.14935000  1.0 -0.6596479084
O  O239  1  0.78849000  0.93784000  0.49505000  1.0 -0.6596479084
O  O240  1  0.94279000  0.29344000  0.00495000  1.0 -0.6596479084
O  O241  1  0.61581000  0.49379000  0.70202000  1.0 0.113821701
O  O242  1  0.29177000  0.91379000  0.79798000  1.0 0.113821701
O  O243  1  0.20823000  0.00621000  0.62202000  1.0 0.113821701
O  O244  1  0.88419000  0.58621000  0.87798000  1.0 0.113821701
O  O245  1  0.38419000  0.50621000  0.29798000  1.0 0.113821701
O  O246  1  0.70823000  0.08621000  0.20202000  1.0 0.113821701
O  O247  1  0.79177000  0.99379000  0.37798000  1.0 0.113821701
O  O248  1  0.11581000  0.41379000  0.12202000  1.0 0.113821701
O  O249  1  0.62799000  0.57196000  0.85843000  1.0 0.0870825703
O  O250  1  0.21353000  0.76956000  0.64157000  1.0 0.0870825703
O  O251  1  0.28647000  0.92804000  0.55603000  1.0 0.0870825703
O  O252  1  0.87201000  0.73044000  0.94397000  1.0 0.0870825703
O  O253  1  0.37201000  0.42804000  0.14157000  1.0 0.0870825703
O  O254  1  0.78647000  0.23044000  0.35843000  1.0 0.0870825703
O  O255  1  0.71353000  0.07196000  0.44397000  1.0 0.0870825703
O  O256  1  0.12799000  0.26956000  0.05603000  1.0 0.0870825703
O  O257  1  0.53040000  0.46012000  0.67368000  1.0 0.138505279
O  O258  1  0.28644000  0.85672000  0.82632000  1.0 0.138505279
O  O259  1  0.21356000  0.03988000  0.57028000  1.0 0.138505279
O  O260  1  0.96960000  0.64328000  0.92972000  1.0 0.138505279
O  O261  1  0.46960000  0.53988000  0.32632000  1.0 0.138505279
O  O262  1  0.71356000  0.14328000  0.17368000  1.0 0.138505279
O  O263  1  0.78644000  0.96012000  0.42972000  1.0 0.138505279
O  O264  1  0.03040000  0.35672000  0.07028000  1.0 0.138505279
O  O265  1  0.54258000  0.54383000  0.83375000  1.0 0.1877524055
O  O266  1  0.21008000  0.70883000  0.66625000  1.0 0.1877524055
O  O267  1  0.28992000  0.95617000  0.49875000  1.0 0.1877524055
O  O268  1  0.95742000  0.79117000  0.00125000  1.0 0.1877524055
O  O269  1  0.45742000  0.45617000  0.16625000  1.0 0.1877524055
O  O270  1  0.78992000  0.29117000  0.33375000  1.0 0.1877524055
O  O271  1  0.71008000  0.04383000  0.50125000  1.0 0.1877524055
O  O272  1  0.04258000  0.20883000  0.99875000  1.0 0.1827595521
F  F1  1  0.26105000  0.75000000  0.01105000  1.0 -0.557302774
F  F2  1  0.23895000  0.25000000  0.48895000  1.0 -0.557302774
F  F3  1  0.73895000  0.25000000  0.98895000  1.0 -0.557302774
F  F4  1  0.76105000  0.75000000  0.51105000  1.0 -0.557302774
F  F5  1  0.25884000  0.00884000  0.25000000  1.0 -0.557302774
F  F6  1  0.24116000  0.49116000  0.75000000  1.0 -0.557302774
F  F7  1  0.74116000  0.99116000  0.75000000  1.0 -0.557302774
F  F8  1  0.75884000  0.50884000  0.25000000  1.0 -0.557302774
