# DDEC6 charges by PACMAN v1.1 (https://github.com/mtap-research/PACMAN-charge/)
data_GATJIV_ion_pacman
_symmetry_space_group_name_H-M   'P 1'
_cell_length_a   26.20900000
_cell_length_b   26.20900000
_cell_length_c   12.75170000
_cell_angle_alpha   90.00000000
_cell_angle_beta   90.00000000
_cell_angle_gamma   120.00000000
_symmetry_Int_Tables_number   1
_chemical_formula_structural   CdH76C76N4(ClO3)6
_chemical_formula_sum   'Cd3 H228 C228 N12 Cl18 O54'
_cell_volume   7585.76911630
_cell_formula_units_Z   3
loop_
 _symmetry_equiv_pos_site_id
 _symmetry_equiv_pos_as_xyz
  1  'x, y, z'
loop_
 _atom_site_type_symbol
 _atom_site_label
 _atom_site_symmetry_multiplicity
 _atom_site_fract_x
 _atom_site_fract_y
 _atom_site_fract_z
 _atom_site_occupancy
 _atom_site_charge
Cd  Cd1  1  0.69886000  0.00000000  0.00000000  1.0 0.7504691604
Cd  Cd2  1  0.00000000  0.69886000  0.00000000  1.0 0.7504691604
Cd  Cd3  1  0.30114000  0.30114000  0.00000000  1.0 0.7504691604
H  H1  1  0.76580000  0.95250000  0.93440000  1.0 0.373425794
H  H2  1  0.04750000  0.81330000  0.93440000  1.0 0.373425794
H  H3  1  0.18670000  0.23420000  0.93440000  1.0 0.373425794
H  H4  1  0.95250000  0.76580000  0.06560000  1.0 0.373425794
H  H5  1  0.81330000  0.04750000  0.06560000  1.0 0.373425794
H  H6  1  0.23420000  0.18670000  0.06560000  1.0 0.373425794
H  H7  1  0.74080000  0.95940000  0.82600000  1.0 0.3834789766
H  H8  1  0.04060000  0.78140000  0.82600000  1.0 0.3834789766
H  H9  1  0.21860000  0.25920000  0.82600000  1.0 0.3834789766
H  H10  1  0.95940000  0.74080000  0.17400000  1.0 0.3834789766
H  H11  1  0.78140000  0.04060000  0.17400000  1.0 0.3834789766
H  H12  1  0.25920000  0.21860000  0.17400000  1.0 0.3834789766
H  H13  1  0.72480000  0.10240000  0.17140000  1.0 0.1022305673
H  H14  1  0.89760000  0.62240000  0.17140000  1.0 0.1022305673
H  H15  1  0.37760000  0.27520000  0.17140000  1.0 0.1022305673
H  H16  1  0.10240000  0.72480000  0.82860000  1.0 0.1022305673
H  H17  1  0.62240000  0.89760000  0.82860000  1.0 0.1022305673
H  H18  1  0.27520000  0.37760000  0.82860000  1.0 0.1022305673
H  H19  1  0.68480000  0.13060000  0.29800000  1.0 0.1395926449
H  H20  1  0.86940000  0.55420000  0.29800000  1.0 0.1395926449
H  H21  1  0.44580000  0.31520000  0.29800000  1.0 0.1395926449
H  H22  1  0.13060000  0.68480000  0.70200000  1.0 0.1395926449
H  H23  1  0.55420000  0.86940000  0.70200000  1.0 0.1395926449
H  H24  1  0.31520000  0.44580000  0.70200000  1.0 0.1395926449
H  H25  1  0.52470000  0.00490000  0.20420000  1.0 0.1472851682
H  H26  1  0.99510000  0.51980000  0.20420000  1.0 0.1472851682
H  H27  1  0.48020000  0.47530000  0.20420000  1.0 0.1472851682
H  H28  1  0.00490000  0.52470000  0.79580000  1.0 0.1472851682
H  H29  1  0.51980000  0.99510000  0.79580000  1.0 0.1472851682
H  H30  1  0.47530000  0.48020000  0.79580000  1.0 0.1472851682
H  H31  1  0.57140000  0.97330000  0.08570000  1.0 0.1022305673
H  H32  1  0.02670000  0.59810000  0.08570000  1.0 0.1022305673
H  H33  1  0.40190000  0.42860000  0.08570000  1.0 0.1022305673
H  H34  1  0.97330000  0.57140000  0.91430000  1.0 0.1022305673
H  H35  1  0.59810000  0.02670000  0.91430000  1.0 0.1022305673
H  H36  1  0.42860000  0.40190000  0.91430000  1.0 0.1022305673
H  H37  1  0.52390000  0.10640000  0.23110000  1.0 0.1395926449
H  H38  1  0.89360000  0.41750000  0.23110000  1.0 0.1395926449
H  H39  1  0.58250000  0.47610000  0.23110000  1.0 0.1395926449
H  H40  1  0.10640000  0.52390000  0.76890000  1.0 0.1395926449
H  H41  1  0.41750000  0.89360000  0.76890000  1.0 0.1395926449
H  H42  1  0.47610000  0.58250000  0.76890000  1.0 0.1395926449
H  H43  1  0.55450000  0.13660000  0.67930000  1.0 0.1208905857
H  H44  1  0.86340000  0.41790000  0.67930000  1.0 0.1208905857
H  H45  1  0.58210000  0.44550000  0.67930000  1.0 0.1208905857
H  H46  1  0.13660000  0.55450000  0.32070000  1.0 0.1208905857
H  H47  1  0.41790000  0.86340000  0.32070000  1.0 0.1208905857
H  H48  1  0.44550000  0.58210000  0.32070000  1.0 0.1208905857
H  H49  1  0.61990000  0.10920000  0.74050000  1.0 0.1395926449
H  H50  1  0.89080000  0.51070000  0.74050000  1.0 0.1395926449
H  H51  1  0.48930000  0.38010000  0.74050000  1.0 0.1395926449
H  H52  1  0.10920000  0.61990000  0.25950000  1.0 0.1395926449
H  H53  1  0.51070000  0.89080000  0.25950000  1.0 0.1395926449
H  H54  1  0.38010000  0.48930000  0.25950000  1.0 0.1395926449
H  H55  1  0.63880000  0.06020000  0.44460000  1.0 0.1208905857
H  H56  1  0.93980000  0.57860000  0.44460000  1.0 0.1208905857
H  H57  1  0.42140000  0.36120000  0.44460000  1.0 0.1208905857
H  H58  1  0.06020000  0.63880000  0.55540000  1.0 0.1208905857
H  H59  1  0.57860000  0.93980000  0.55540000  1.0 0.1208905857
H  H60  1  0.36120000  0.42140000  0.55540000  1.0 0.1208905857
H  H61  1  0.44520000  0.11770000  0.19340000  1.0 0.0808579656
H  H62  1  0.88230000  0.32750000  0.19340000  1.0 0.0808579656
H  H63  1  0.67250000  0.55480000  0.19340000  1.0 0.0808579656
H  H64  1  0.11770000  0.44520000  0.80660000  1.0 0.0808579656
H  H65  1  0.32750000  0.88230000  0.80660000  1.0 0.0808579656
H  H66  1  0.55480000  0.67250000  0.80660000  1.0 0.0808579656
H  H67  1  0.50440000  0.18060000  0.20430000  1.0 0.1022305673
H  H68  1  0.81940000  0.32380000  0.20430000  1.0 0.1022305673
H  H69  1  0.67620000  0.49560000  0.20430000  1.0 0.1022305673
H  H70  1  0.18060000  0.50440000  0.79570000  1.0 0.1022305673
H  H71  1  0.32380000  0.81940000  0.79570000  1.0 0.1022305673
H  H72  1  0.49560000  0.67620000  0.79570000  1.0 0.1022305673
H  H73  1  0.42850000  0.19710000  0.14130000  1.0 0.1395926449
H  H74  1  0.80290000  0.23140000  0.14130000  1.0 0.1395926449
H  H75  1  0.76860000  0.57150000  0.14130000  1.0 0.1395926449
H  H76  1  0.19710000  0.42850000  0.85870000  1.0 0.1395926449
H  H77  1  0.23140000  0.80290000  0.85870000  1.0 0.1395926449
H  H78  1  0.57150000  0.76860000  0.85870000  1.0 0.1395926449
H  H79  1  0.44500000  0.22320000  0.25770000  1.0 0.1281507622
H  H80  1  0.77680000  0.22180000  0.25770000  1.0 0.1281507622
H  H81  1  0.77820000  0.55500000  0.25770000  1.0 0.1281507622
H  H82  1  0.22320000  0.44500000  0.74230000  1.0 0.1281507622
H  H83  1  0.22180000  0.77680000  0.74230000  1.0 0.1281507622
H  H84  1  0.55500000  0.77820000  0.74230000  1.0 0.1281507622
H  H85  1  0.38700000  0.16090000  0.23760000  1.0 0.1281507622
H  H86  1  0.83910000  0.22610000  0.23760000  1.0 0.1281507622
H  H87  1  0.77390000  0.61300000  0.23760000  1.0 0.1281507622
H  H88  1  0.16090000  0.38700000  0.76240000  1.0 0.1281507622
H  H89  1  0.22610000  0.83910000  0.76240000  1.0 0.1281507622
H  H90  1  0.61300000  0.77390000  0.76240000  1.0 0.1281507622
H  H91  1  0.57330000  0.35850000  0.35650000  1.0 0.1281507622
H  H92  1  0.64150000  0.21480000  0.35650000  1.0 0.1281507622
H  H93  1  0.78520000  0.42670000  0.35650000  1.0 0.1281507622
H  H94  1  0.35850000  0.57330000  0.64350000  1.0 0.1281507622
H  H95  1  0.21480000  0.64150000  0.64350000  1.0 0.1281507622
H  H96  1  0.42670000  0.78520000  0.64350000  1.0 0.1281507622
H  H97  1  0.56320000  0.29530000  0.32350000  1.0 0.1395926449
H  H98  1  0.70470000  0.26790000  0.32350000  1.0 0.1395926449
H  H99  1  0.73210000  0.43680000  0.32350000  1.0 0.1395926449
H  H100  1  0.29530000  0.56320000  0.67650000  1.0 0.1395926449
H  H101  1  0.26790000  0.70470000  0.67650000  1.0 0.1395926449
H  H102  1  0.43680000  0.73210000  0.67650000  1.0 0.1395926449
H  H103  1  0.61680000  0.33700000  0.39900000  1.0 0.1395926449
H  H104  1  0.66300000  0.27980000  0.39900000  1.0 0.1395926449
H  H105  1  0.72020000  0.38320000  0.39900000  1.0 0.1395926449
H  H106  1  0.33700000  0.61680000  0.60100000  1.0 0.1395926449
H  H107  1  0.27980000  0.66300000  0.60100000  1.0 0.1395926449
H  H108  1  0.38320000  0.72020000  0.60100000  1.0 0.1395926449
H  H109  1  0.49850000  0.28740000  0.44920000  1.0 0.0890655135
H  H110  1  0.71260000  0.21110000  0.44920000  1.0 0.0890655135
H  H111  1  0.78890000  0.50150000  0.44920000  1.0 0.0890655135
H  H112  1  0.28740000  0.49850000  0.55080000  1.0 0.0890655135
H  H113  1  0.21110000  0.71260000  0.55080000  1.0 0.0890655135
H  H114  1  0.50150000  0.78890000  0.55080000  1.0 0.0890655135
H  H115  1  0.55240000  0.32870000  0.52480000  1.0 0.0890655135
H  H116  1  0.67130000  0.22370000  0.52480000  1.0 0.0890655135
H  H117  1  0.77630000  0.44760000  0.52480000  1.0 0.0890655135
H  H118  1  0.32870000  0.55240000  0.47520000  1.0 0.0890655135
H  H119  1  0.22370000  0.67130000  0.47520000  1.0 0.0890655135
H  H120  1  0.44760000  0.77630000  0.47520000  1.0 0.0890655135
H  H121  1  0.48120000  0.26740000  0.64490000  1.0 0.1281507622
H  H122  1  0.73260000  0.21380000  0.64490000  1.0 0.1281507622
H  H123  1  0.78620000  0.51880000  0.64490000  1.0 0.1281507622
H  H124  1  0.26740000  0.48120000  0.35510000  1.0 0.1281507622
H  H125  1  0.21380000  0.73260000  0.35510000  1.0 0.1281507622
H  H126  1  0.51880000  0.78620000  0.35510000  1.0 0.1281507622
H  H127  1  0.34070000  0.09300000  0.80240000  1.0 0.1208905857
H  H128  1  0.90700000  0.24770000  0.80240000  1.0 0.1208905857
H  H129  1  0.75230000  0.65930000  0.80240000  1.0 0.1208905857
H  H130  1  0.09300000  0.34070000  0.19760000  1.0 0.1208905857
H  H131  1  0.24770000  0.90700000  0.19760000  1.0 0.1208905857
H  H132  1  0.65930000  0.75230000  0.19760000  1.0 0.1208905857
H  H133  1  0.36130000  0.96750000  0.66470000  1.0 0.1208905857
H  H134  1  0.03250000  0.39380000  0.66470000  1.0 0.1208905857
H  H135  1  0.60620000  0.63870000  0.66470000  1.0 0.1208905857
H  H136  1  0.96750000  0.36130000  0.33530000  1.0 0.1208905857
H  H137  1  0.39380000  0.03250000  0.33530000  1.0 0.1208905857
H  H138  1  0.63870000  0.60620000  0.33530000  1.0 0.1208905857
H  H139  1  0.43860000  0.03550000  0.57430000  1.0 0.1139232415
H  H140  1  0.96450000  0.40310000  0.57430000  1.0 0.1139232415
H  H141  1  0.59690000  0.56140000  0.57430000  1.0 0.1139232415
H  H142  1  0.03550000  0.43860000  0.42570000  1.0 0.1139232415
H  H143  1  0.40310000  0.96450000  0.42570000  1.0 0.1139232415
H  H144  1  0.56140000  0.59690000  0.42570000  1.0 0.1139232415
H  H145  1  0.26760000  0.19740000  0.83790000  1.0 0.0890655135
H  H146  1  0.80260000  0.07020000  0.83790000  1.0 0.0890655135
H  H147  1  0.92980000  0.73240000  0.83790000  1.0 0.0890655135
H  H148  1  0.19740000  0.26760000  0.16210000  1.0 0.0890655135
H  H149  1  0.07020000  0.80260000  0.16210000  1.0 0.0890655135
H  H150  1  0.73240000  0.92980000  0.16210000  1.0 0.0890655135
H  H151  1  0.30980000  0.15900000  0.72020000  1.0 0.1208905857
H  H152  1  0.84100000  0.15080000  0.72020000  1.0 0.1208905857
H  H153  1  0.84920000  0.69020000  0.72020000  1.0 0.1208905857
H  H154  1  0.15900000  0.30980000  0.27980000  1.0 0.1208905857
H  H155  1  0.15080000  0.84100000  0.27980000  1.0 0.1208905857
H  H156  1  0.69020000  0.84920000  0.27980000  1.0 0.1208905857
H  H157  1  0.46960000  0.26830000  0.85190000  1.0 0.1472851682
H  H158  1  0.73170000  0.20130000  0.85190000  1.0 0.1472851682
H  H159  1  0.79870000  0.53040000  0.85190000  1.0 0.1472851682
H  H160  1  0.26830000  0.46960000  0.14810000  1.0 0.1472851682
H  H161  1  0.20130000  0.73170000  0.14810000  1.0 0.1472851682
H  H162  1  0.53040000  0.79870000  0.14810000  1.0 0.1472851682
H  H163  1  0.42320000  0.30340000  0.95720000  1.0 0.1022305673
H  H164  1  0.69660000  0.11980000  0.95720000  1.0 0.1022305673
H  H165  1  0.88020000  0.57680000  0.95720000  1.0 0.1022305673
H  H166  1  0.30340000  0.42320000  0.04280000  1.0 0.1022305673
H  H167  1  0.11980000  0.69660000  0.04280000  1.0 0.1022305673
H  H168  1  0.57680000  0.88020000  0.04280000  1.0 0.1022305673
H  H169  1  0.18560000  0.10060000  0.58150000  1.0 0.0808579656
H  H170  1  0.22250000  0.13370000  0.68420000  1.0 0.1022305673
H  H171  1  0.15200000  0.10030000  0.68660000  1.0 0.1281507622
H  H172  1  0.15380000  0.01880000  0.65030000  1.0 0.0808579656
H  H173  1  0.22350000  0.05600000  0.67560000  1.0 0.0890655135
H  H174  1  0.89940000  0.08500000  0.58150000  1.0 0.0890655135
H  H175  1  0.86630000  0.08880000  0.68420000  1.0 0.1022305673
H  H176  1  0.89970000  0.05170000  0.68660000  1.0 0.1281507622
H  H177  1  0.98120000  0.13500000  0.65030000  1.0 0.0808579656
H  H178  1  0.94400000  0.16750000  0.67560000  1.0 0.0890655135
H  H179  1  0.91500000  0.81440000  0.58150000  1.0 0.0808579656
H  H180  1  0.91120000  0.77750000  0.68420000  1.0 0.1022305673
H  H181  1  0.94830000  0.84800000  0.68660000  1.0 0.1281507622
H  H182  1  0.86500000  0.84620000  0.65030000  1.0 0.0890655135
H  H183  1  0.83250000  0.77650000  0.67560000  1.0 0.0890655135
H  H184  1  0.10060000  0.18560000  0.41850000  1.0 0.0808579656
H  H185  1  0.13370000  0.22250000  0.31580000  1.0 0.1022305673
H  H186  1  0.10030000  0.15200000  0.31340000  1.0 0.1281507622
H  H187  1  0.01880000  0.15380000  0.34970000  1.0 0.0808579656
H  H188  1  0.05600000  0.22350000  0.32440000  1.0 0.0890655135
H  H189  1  0.08500000  0.89940000  0.41850000  1.0 0.0808579656
H  H190  1  0.08880000  0.86630000  0.31580000  1.0 0.1022305673
H  H191  1  0.05170000  0.89970000  0.31340000  1.0 0.1281507622
H  H192  1  0.13500000  0.98120000  0.34970000  1.0 0.0808579656
H  H193  1  0.16750000  0.94400000  0.32440000  1.0 0.0890655135
H  H194  1  0.81440000  0.91500000  0.41850000  1.0 0.0808579656
H  H195  1  0.77750000  0.91120000  0.31580000  1.0 0.1022305673
H  H196  1  0.84800000  0.94830000  0.31340000  1.0 0.1281507622
H  H197  1  0.84620000  0.86500000  0.34970000  1.0 0.0890655135
H  H198  1  0.77650000  0.83250000  0.32440000  1.0 0.0890655135
H  H199  1  0.30250000  0.08890000  0.01860000  1.0 0.1208905857
H  H200  1  0.27920000  0.11880000  0.10070000  1.0 0.1281507622
H  H201  1  0.30920000  0.15180000  0.99340000  1.0 0.1281507622
H  H202  1  0.23420000  0.08040000  0.90170000  1.0 0.0808579656
H  H203  1  0.20420000  0.04610000  0.00850000  1.0 0.0808579656
H  H204  1  0.91110000  0.21360000  0.01860000  1.0 0.1208905857
H  H205  1  0.88120000  0.16040000  0.10070000  1.0 0.1281507622
H  H206  1  0.84820000  0.15740000  0.99340000  1.0 0.1281507622
H  H207  1  0.91960000  0.15380000  0.90170000  1.0 0.0808579656
H  H208  1  0.95390000  0.15810000  0.00850000  1.0 0.0808579656
H  H209  1  0.78640000  0.69750000  0.01860000  1.0 0.1208905857
H  H210  1  0.83960000  0.72080000  0.10070000  1.0 0.1281507622
H  H211  1  0.84260000  0.69080000  0.99340000  1.0 0.1281507622
H  H212  1  0.84620000  0.76580000  0.90170000  1.0 0.0808579656
H  H213  1  0.84190000  0.79580000  0.00850000  1.0 0.0808579656
H  H214  1  0.08890000  0.30250000  0.98140000  1.0 0.1208905857
H  H215  1  0.11880000  0.27920000  0.89930000  1.0 0.1281507622
H  H216  1  0.15180000  0.30920000  0.00660000  1.0 0.1281507622
H  H217  1  0.08040000  0.23420000  0.09830000  1.0 0.0808579656
H  H218  1  0.04610000  0.20420000  0.99150000  1.0 0.0808579656
H  H219  1  0.21360000  0.91110000  0.98140000  1.0 0.1208905857
H  H220  1  0.16040000  0.88120000  0.89930000  1.0 0.1281507622
H  H221  1  0.15740000  0.84820000  0.00660000  1.0 0.1281507622
H  H222  1  0.15380000  0.91960000  0.09830000  1.0 0.0808579656
H  H223  1  0.15810000  0.95390000  0.99150000  1.0 0.0808579656
H  H224  1  0.69750000  0.78640000  0.98140000  1.0 0.1208905857
H  H225  1  0.72080000  0.83960000  0.89930000  1.0 0.1281507622
H  H226  1  0.69080000  0.84260000  0.00660000  1.0 0.1281507622
H  H227  1  0.76580000  0.84620000  0.09830000  1.0 0.0808579656
H  H228  1  0.79580000  0.84190000  0.99150000  1.0 0.0808579656
C  C1  1  0.68320000  0.08100000  0.17910000  1.0 0.0695858227
C  C2  1  0.91900000  0.60220000  0.17910000  1.0 0.0695858227
C  C3  1  0.39780000  0.31680000  0.17910000  1.0 0.0695858227
C  C4  1  0.08100000  0.68320000  0.82090000  1.0 0.0695858227
C  C5  1  0.60220000  0.91900000  0.82090000  1.0 0.0695858227
C  C6  1  0.31680000  0.39780000  0.82090000  1.0 0.0695858227
C  C7  1  0.65980000  0.09920000  0.25270000  1.0 -0.1839543814
C  C8  1  0.90080000  0.56060000  0.25270000  1.0 -0.1839543814
C  C9  1  0.43940000  0.34020000  0.25270000  1.0 -0.1839543814
C  C10  1  0.09920000  0.65980000  0.74730000  1.0 -0.1839543814
C  C11  1  0.56060000  0.90080000  0.74730000  1.0 -0.1839543814
C  C12  1  0.34020000  0.43940000  0.74730000  1.0 -0.1839543814
C  C13  1  0.60000000  0.07280000  0.26340000  1.0 0.1208905857
C  C14  1  0.92720000  0.52720000  0.26340000  1.0 0.1208905857
C  C15  1  0.47280000  0.40000000  0.26340000  1.0 0.1208905857
C  C16  1  0.07280000  0.60000000  0.73660000  1.0 0.1208905857
C  C17  1  0.52720000  0.92720000  0.73660000  1.0 0.1208905857
C  C18  1  0.40000000  0.47280000  0.73660000  1.0 0.1208905857
C  C19  1  0.56640000  0.02520000  0.19950000  1.0 -0.1644739585
C  C20  1  0.97480000  0.54120000  0.19950000  1.0 -0.1644739585
C  C21  1  0.45880000  0.43360000  0.19950000  1.0 -0.1644739585
C  C22  1  0.02520000  0.56640000  0.80050000  1.0 -0.1644739585
C  C23  1  0.54120000  0.97480000  0.80050000  1.0 -0.1644739585
C  C24  1  0.43360000  0.45880000  0.80050000  1.0 -0.1644739585
C  C25  1  0.59450000  0.00700000  0.12790000  1.0 0.0695858227
C  C26  1  0.99300000  0.58750000  0.12790000  1.0 0.0695858227
C  C27  1  0.41250000  0.40550000  0.12790000  1.0 0.0695858227
C  C28  1  0.00700000  0.59450000  0.87210000  1.0 0.0695858227
C  C29  1  0.58750000  0.99300000  0.87210000  1.0 0.0695858227
C  C30  1  0.40550000  0.41250000  0.87210000  1.0 0.0695858227
C  C31  1  0.57130000  0.09290000  0.34260000  1.0 0.0466293517
C  C32  1  0.90710000  0.47840000  0.34260000  1.0 0.0466293517
C  C33  1  0.52160000  0.42870000  0.34260000  1.0 0.0466293517
C  C34  1  0.09290000  0.57130000  0.65740000  1.0 0.0466293517
C  C35  1  0.47840000  0.90710000  0.65740000  1.0 0.0466293517
C  C36  1  0.42870000  0.52160000  0.65740000  1.0 0.0466293517
C  C37  1  0.53190000  0.10890000  0.30410000  1.0 -0.2793480035
C  C38  1  0.89110000  0.42300000  0.30410000  1.0 -0.2793480035
C  C39  1  0.57700000  0.46810000  0.30410000  1.0 -0.2793480035
C  C40  1  0.10890000  0.53190000  0.69590000  1.0 -0.2793480035
C  C41  1  0.42300000  0.89110000  0.69590000  1.0 -0.2793480035
C  C42  1  0.46810000  0.57700000  0.69590000  1.0 -0.2793480035
C  C43  1  0.50380000  0.12900000  0.37370000  1.0 0.2227542672
C  C44  1  0.87100000  0.37480000  0.37370000  1.0 0.2227542672
C  C45  1  0.62520000  0.49620000  0.37370000  1.0 0.2227542672
C  C46  1  0.12900000  0.50380000  0.62630000  1.0 0.2227542672
C  C47  1  0.37480000  0.87100000  0.62630000  1.0 0.2227542672
C  C48  1  0.49620000  0.62520000  0.62630000  1.0 0.2227542672
C  C49  1  0.51600000  0.13290000  0.48330000  1.0 -0.0598127086
C  C50  1  0.86710000  0.38310000  0.48330000  1.0 -0.0598127086
C  C51  1  0.61690000  0.48400000  0.48330000  1.0 -0.0598127086
C  C52  1  0.13290000  0.51600000  0.51670000  1.0 -0.0598127086
C  C53  1  0.38310000  0.86710000  0.51670000  1.0 -0.0598127086
C  C54  1  0.48400000  0.61690000  0.51670000  1.0 -0.0598127086
C  C55  1  0.55610000  0.11700000  0.52070000  1.0 0.0207171618
C  C56  1  0.88300000  0.43910000  0.52070000  1.0 0.0207171618
C  C57  1  0.56090000  0.44390000  0.52070000  1.0 0.0207171618
C  C58  1  0.11700000  0.55610000  0.47930000  1.0 0.0207171618
C  C59  1  0.43910000  0.88300000  0.47930000  1.0 0.0207171618
C  C60  1  0.44390000  0.56090000  0.47930000  1.0 0.0207171618
C  C61  1  0.57140000  0.12130000  0.63170000  1.0 -0.1197268021
C  C62  1  0.87870000  0.45010000  0.63170000  1.0 -0.1197268021
C  C63  1  0.54990000  0.42860000  0.63170000  1.0 -0.1197268021
C  C64  1  0.12130000  0.57140000  0.36830000  1.0 -0.1197268021
C  C65  1  0.45010000  0.87870000  0.36830000  1.0 -0.1197268021
C  C66  1  0.42860000  0.54990000  0.36830000  1.0 -0.1197268021
C  C67  1  0.60890000  0.10410000  0.66870000  1.0 -0.1839543814
C  C68  1  0.89590000  0.50480000  0.66870000  1.0 -0.1839543814
C  C69  1  0.49520000  0.39110000  0.66870000  1.0 -0.1839543814
C  C70  1  0.10410000  0.60890000  0.33130000  1.0 -0.1839543814
C  C71  1  0.50480000  0.89590000  0.33130000  1.0 -0.1839543814
C  C72  1  0.39110000  0.49520000  0.33130000  1.0 -0.1839543814
C  C73  1  0.63100000  0.07880000  0.59930000  1.0 0.1395926449
C  C74  1  0.92120000  0.55220000  0.59930000  1.0 0.1395926449
C  C75  1  0.44780000  0.36900000  0.59930000  1.0 0.1395926449
C  C76  1  0.07880000  0.63100000  0.40070000  1.0 0.1395926449
C  C77  1  0.55220000  0.92120000  0.40070000  1.0 0.1395926449
C  C78  1  0.36900000  0.44780000  0.40070000  1.0 0.1395926449
C  C79  1  0.62090000  0.07540000  0.49040000  1.0 -0.2432589558
C  C80  1  0.92460000  0.54550000  0.49040000  1.0 -0.2432589558
C  C81  1  0.45450000  0.37910000  0.49040000  1.0 -0.2432589558
C  C82  1  0.07540000  0.62090000  0.50960000  1.0 -0.2432589558
C  C83  1  0.54550000  0.92460000  0.50960000  1.0 -0.2432589558
C  C84  1  0.37910000  0.45450000  0.50960000  1.0 -0.2432589558
C  C85  1  0.58330000  0.09530000  0.45150000  1.0 0.0288019611
C  C86  1  0.90470000  0.48800000  0.45150000  1.0 0.0288019611
C  C87  1  0.51200000  0.41670000  0.45150000  1.0 0.0288019611
C  C88  1  0.09530000  0.58330000  0.54850000  1.0 0.0288019611
C  C89  1  0.48800000  0.90470000  0.54850000  1.0 0.0288019611
C  C90  1  0.41670000  0.51200000  0.54850000  1.0 0.0288019611
C  C91  1  0.46390000  0.15580000  0.23120000  1.0 0.0288019611
C  C92  1  0.84420000  0.30810000  0.23120000  1.0 0.0288019611
C  C93  1  0.69190000  0.53610000  0.23120000  1.0 0.0288019611
C  C94  1  0.15580000  0.46390000  0.76880000  1.0 0.0288019611
C  C95  1  0.30810000  0.84420000  0.76880000  1.0 0.0288019611
C  C96  1  0.53610000  0.69190000  0.76880000  1.0 0.0288019611
C  C97  1  0.42780000  0.18710000  0.21550000  1.0 -0.4198321081
C  C98  1  0.81290000  0.24070000  0.21550000  1.0 -0.4198321081
C  C99  1  0.75930000  0.57220000  0.21550000  1.0 -0.4198321081
C  C100  1  0.18710000  0.42780000  0.78450000  1.0 -0.4198321081
C  C101  1  0.24070000  0.81290000  0.78450000  1.0 -0.4198321081
C  C102  1  0.57220000  0.75930000  0.78450000  1.0 -0.4198321081
C  C103  1  0.57600000  0.32440000  0.38010000  1.0 -0.4198321081
C  C104  1  0.67560000  0.25160000  0.38010000  1.0 -0.4198321081
C  C105  1  0.74840000  0.42400000  0.38010000  1.0 -0.4198321081
C  C106  1  0.32440000  0.57600000  0.61990000  1.0 -0.4198321081
C  C107  1  0.25160000  0.67560000  0.61990000  1.0 -0.4198321081
C  C108  1  0.42400000  0.74840000  0.61990000  1.0 -0.4198321081
C  C109  1  0.53960000  0.29920000  0.46780000  1.0 0.0102762795
C  C110  1  0.70080000  0.24040000  0.46780000  1.0 0.0102762795
C  C111  1  0.75960000  0.46040000  0.46780000  1.0 0.0102762795
C  C112  1  0.29920000  0.53960000  0.53220000  1.0 0.0102762795
C  C113  1  0.24040000  0.70080000  0.53220000  1.0 0.0102762795
C  C114  1  0.46040000  0.75960000  0.53220000  1.0 0.0102762795
C  C115  1  0.48280000  0.15180000  0.55680000  1.0 -0.0698990525
C  C116  1  0.84820000  0.33100000  0.55680000  1.0 -0.0698990525
C  C117  1  0.66900000  0.51720000  0.55680000  1.0 -0.0698990525
C  C118  1  0.15180000  0.48280000  0.44320000  1.0 -0.0698990525
C  C119  1  0.33100000  0.84820000  0.44320000  1.0 -0.0698990525
C  C120  1  0.51720000  0.66900000  0.44320000  1.0 -0.0698990525
C  C121  1  0.49890000  0.21020000  0.56930000  1.0 0.2227542672
C  C122  1  0.78980000  0.28870000  0.56930000  1.0 0.2227542672
C  C123  1  0.71130000  0.50110000  0.56930000  1.0 0.2227542672
C  C124  1  0.21020000  0.49890000  0.43070000  1.0 0.2227542672
C  C125  1  0.28870000  0.78980000  0.43070000  1.0 0.2227542672
C  C126  1  0.50110000  0.71130000  0.43070000  1.0 0.2227542672
C  C127  1  0.46960000  0.22690000  0.63920000  1.0 -0.2689036977
C  C128  1  0.77310000  0.24270000  0.63920000  1.0 -0.2689036977
C  C129  1  0.75730000  0.53040000  0.63920000  1.0 -0.2689036977
C  C130  1  0.22690000  0.46960000  0.36080000  1.0 -0.2689036977
C  C131  1  0.24270000  0.77310000  0.36080000  1.0 -0.2689036977
C  C132  1  0.53040000  0.75730000  0.36080000  1.0 -0.2689036977
C  C133  1  0.42390000  0.18650000  0.70110000  1.0 0.0388900957
C  C134  1  0.81350000  0.23740000  0.70110000  1.0 0.0388900957
C  C135  1  0.76260000  0.57610000  0.70110000  1.0 0.0388900957
C  C136  1  0.18650000  0.42390000  0.29890000  1.0 0.0388900957
C  C137  1  0.23740000  0.81350000  0.29890000  1.0 0.0388900957
C  C138  1  0.57610000  0.76260000  0.29890000  1.0 0.0388900957
C  C139  1  0.40610000  0.12490000  0.69200000  1.0 0.0388900957
C  C140  1  0.87510000  0.28120000  0.69200000  1.0 0.0388900957
C  C141  1  0.71880000  0.59390000  0.69200000  1.0 0.0388900957
C  C142  1  0.12490000  0.40610000  0.30800000  1.0 0.0388900957
C  C143  1  0.28120000  0.87510000  0.30800000  1.0 0.0388900957
C  C144  1  0.59390000  0.71880000  0.30800000  1.0 0.0388900957
C  C145  1  0.35920000  0.08150000  0.75090000  1.0 -0.199118222
C  C146  1  0.91850000  0.27770000  0.75090000  1.0 -0.199118222
C  C147  1  0.72230000  0.64080000  0.75090000  1.0 -0.199118222
C  C148  1  0.08150000  0.35920000  0.24910000  1.0 -0.199118222
C  C149  1  0.27770000  0.91850000  0.24910000  1.0 -0.199118222
C  C150  1  0.64080000  0.72230000  0.24910000  1.0 -0.199118222
C  C151  1  0.34070000  0.02620000  0.73660000  1.0 0.1281507622
C  C152  1  0.97380000  0.31450000  0.73660000  1.0 0.1281507622
C  C153  1  0.68550000  0.65930000  0.73660000  1.0 0.1281507622
C  C154  1  0.02620000  0.34070000  0.26340000  1.0 0.1281507622
C  C155  1  0.31450000  0.97380000  0.26340000  1.0 0.1281507622
C  C156  1  0.65930000  0.68550000  0.26340000  1.0 0.1281507622
C  C157  1  0.37240000  0.00790000  0.67010000  1.0 -0.1486554048
C  C158  1  0.99210000  0.36450000  0.67010000  1.0 -0.1486554048
C  C159  1  0.63550000  0.62760000  0.67010000  1.0 -0.1486554048
C  C160  1  0.00790000  0.37240000  0.32990000  1.0 -0.1486554048
C  C161  1  0.36450000  0.99210000  0.32990000  1.0 -0.1486554048
C  C162  1  0.62760000  0.63550000  0.32990000  1.0 -0.1486554048
C  C163  1  0.41720000  0.04800000  0.61700000  1.0 -0.1197268021
C  C164  1  0.95200000  0.36920000  0.61700000  1.0 -0.1197268021
C  C165  1  0.63080000  0.58280000  0.61700000  1.0 -0.1197268021
C  C166  1  0.04800000  0.41720000  0.38300000  1.0 -0.1197268021
C  C167  1  0.36920000  0.95200000  0.38300000  1.0 -0.1197268021
C  C168  1  0.58280000  0.63080000  0.38300000  1.0 -0.1197268021
C  C169  1  0.43590000  0.10880000  0.61900000  1.0 0.0388900957
C  C170  1  0.89120000  0.32710000  0.61900000  1.0 0.0388900957
C  C171  1  0.67290000  0.56410000  0.61900000  1.0 0.0388900957
C  C172  1  0.10880000  0.43590000  0.38100000  1.0 0.0388900957
C  C173  1  0.32710000  0.89120000  0.38100000  1.0 0.0388900957
C  C174  1  0.56410000  0.67290000  0.38100000  1.0 0.0388900957
C  C175  1  0.30900000  0.21240000  0.83890000  1.0 0.0695858227
C  C176  1  0.78760000  0.09660000  0.83890000  1.0 0.0695858227
C  C177  1  0.90340000  0.69100000  0.83890000  1.0 0.0695858227
C  C178  1  0.21240000  0.30900000  0.16110000  1.0 0.0695858227
C  C179  1  0.09660000  0.78760000  0.16110000  1.0 0.0695858227
C  C180  1  0.69100000  0.90340000  0.16110000  1.0 0.0695858227
C  C181  1  0.33410000  0.18820000  0.76980000  1.0 -0.2067983699
C  C182  1  0.81180000  0.14590000  0.76980000  1.0 -0.2067983699
C  C183  1  0.85410000  0.66590000  0.76980000  1.0 -0.2067983699
C  C184  1  0.18820000  0.33410000  0.23020000  1.0 -0.2067983699
C  C185  1  0.14590000  0.81180000  0.23020000  1.0 -0.2067983699
C  C186  1  0.66590000  0.85410000  0.23020000  1.0 -0.2067983699
C  C187  1  0.39460000  0.20750000  0.77470000  1.0 0.1208905857
C  C188  1  0.79250000  0.18710000  0.77470000  1.0 0.1208905857
C  C189  1  0.81290000  0.60540000  0.77470000  1.0 0.1208905857
C  C190  1  0.20750000  0.39460000  0.22530000  1.0 0.1208905857
C  C191  1  0.18710000  0.79250000  0.22530000  1.0 0.1208905857
C  C192  1  0.60540000  0.81290000  0.22530000  1.0 0.1208905857
C  C193  1  0.42830000  0.25270000  0.84630000  1.0 -0.1897382316
C  C194  1  0.74730000  0.17560000  0.84630000  1.0 -0.1897382316
C  C195  1  0.82440000  0.57170000  0.84630000  1.0 -0.1897382316
C  C196  1  0.25270000  0.42830000  0.15370000  1.0 -0.1897382316
C  C197  1  0.17560000  0.74730000  0.15370000  1.0 -0.1897382316
C  C198  1  0.57170000  0.82440000  0.15370000  1.0 -0.1897382316
C  C199  1  0.39970000  0.27350000  0.90800000  1.0 0.0808579656
C  C200  1  0.72650000  0.12620000  0.90800000  1.0 0.0808579656
C  C201  1  0.87380000  0.60030000  0.90800000  1.0 0.0808579656
C  C202  1  0.27350000  0.39970000  0.09200000  1.0 0.0808579656
C  C203  1  0.12620000  0.72650000  0.09200000  1.0 0.0808579656
C  C204  1  0.60030000  0.87380000  0.09200000  1.0 0.0808579656
C  C205  1  0.18600000  0.09900000  0.65800000  1.0 -0.2887681601
C  C206  1  0.18500000  0.05400000  0.68700000  1.0 0.0288019611
C  C207  1  0.90100000  0.08700000  0.65800000  1.0 -0.2887681601
C  C208  1  0.94600000  0.13100000  0.68700000  1.0 0.0288019611
C  C209  1  0.91300000  0.81400000  0.65800000  1.0 -0.2887681601
C  C210  1  0.86900000  0.81500000  0.68700000  1.0 0.0288019611
C  C211  1  0.09900000  0.18600000  0.34200000  1.0 -0.2887681601
C  C212  1  0.05400000  0.18500000  0.31300000  1.0 0.0288019611
C  C213  1  0.08700000  0.90100000  0.34200000  1.0 -0.2887681601
C  C214  1  0.13100000  0.94600000  0.31300000  1.0 0.0288019611
C  C215  1  0.81400000  0.91300000  0.34200000  1.0 -0.2887681601
C  C216  1  0.81500000  0.86900000  0.31300000  1.0 0.0288019611
C  C217  1  0.28400000  0.11300000  0.02600000  1.0 -0.4860284504
C  C218  1  0.22900000  0.08500000  0.97700000  1.0 0.1208905857
C  C219  1  0.88700000  0.17100000  0.02600000  1.0 -0.4860284504
C  C220  1  0.91500000  0.14400000  0.97700000  1.0 0.1208905857
C  C221  1  0.82900000  0.71600000  0.02600000  1.0 -0.4860284504
C  C222  1  0.85600000  0.77100000  0.97700000  1.0 0.1208905857
C  C223  1  0.11300000  0.28400000  0.97400000  1.0 -0.4860284504
C  C224  1  0.08500000  0.22900000  0.02300000  1.0 0.1208905857
C  C225  1  0.17100000  0.88700000  0.97400000  1.0 -0.4860284504
C  C226  1  0.14400000  0.91500000  0.02300000  1.0 0.1208905857
C  C227  1  0.71600000  0.82900000  0.97400000  1.0 -0.4860284504
C  C228  1  0.77100000  0.85600000  0.02300000  1.0 0.1208905857
N  N1  1  0.65360000  0.03630000  0.11700000  1.0 -0.257784265
N  N2  1  0.96370000  0.61730000  0.11700000  1.0 -0.257784265
N  N3  1  0.38270000  0.34640000  0.11700000  1.0 -0.257784265
N  N4  1  0.03630000  0.65360000  0.88300000  1.0 -0.257784265
N  N5  1  0.61730000  0.96370000  0.88300000  1.0 -0.257784265
N  N6  1  0.34640000  0.38270000  0.88300000  1.0 -0.257784265
N  N7  1  0.34300000  0.25620000  0.90580000  1.0 -0.2689036977
N  N8  1  0.74380000  0.08680000  0.90580000  1.0 -0.2689036977
N  N9  1  0.91320000  0.65700000  0.90580000  1.0 -0.2689036977
N  N10  1  0.25620000  0.34300000  0.09420000  1.0 -0.2689036977
N  N11  1  0.08680000  0.74380000  0.09420000  1.0 -0.2689036977
N  N12  1  0.65700000  0.91320000  0.09420000  1.0 -0.2689036977
Cl  Cl1  1  0.67782000  0.05481000  0.64717000  1.0 -0.0698990525
Cl  Cl2  1  0.94519000  0.62301000  0.64717000  1.0 -0.0698990525
Cl  Cl3  1  0.37699000  0.32218000  0.64717000  1.0 -0.0698990525
Cl  Cl4  1  0.05481000  0.67782000  0.35283000  1.0 -0.0698990525
Cl  Cl5  1  0.62301000  0.94519000  0.35283000  1.0 -0.0698990525
Cl  Cl6  1  0.32218000  0.37699000  0.35283000  1.0 -0.0698990525
Cl  Cl7  1  0.28700000  0.97247000  0.82140000  1.0 -0.1102462363
Cl  Cl8  1  0.02753000  0.31453000  0.82140000  1.0 -0.1102462363
Cl  Cl9  1  0.68547000  0.71300000  0.82140000  1.0 -0.1102462363
Cl  Cl10  1  0.97247000  0.28700000  0.17860000  1.0 -0.1102462363
Cl  Cl11  1  0.31453000  0.02753000  0.17860000  1.0 -0.1102462363
Cl  Cl12  1  0.71300000  0.68547000  0.17860000  1.0 -0.1102462363
Cl  Cl13  1  0.60680000  0.16490000  0.98930000  1.0 1.2293046239
Cl  Cl14  1  0.83510000  0.44190000  0.98930000  1.0 1.2293046239
Cl  Cl15  1  0.55810000  0.39320000  0.98930000  1.0 1.2293046239
Cl  Cl16  1  0.16490000  0.60680000  0.01070000  1.0 1.2293046239
Cl  Cl17  1  0.44190000  0.83510000  0.01070000  1.0 1.2293046239
Cl  Cl18  1  0.39320000  0.55810000  0.01070000  1.0 1.2293046239
O  O1  1  0.46490000  0.14630000  0.34210000  1.0 -0.1897382316
O  O2  1  0.85370000  0.31860000  0.34210000  1.0 -0.1897382316
O  O3  1  0.68140000  0.53510000  0.34210000  1.0 -0.1897382316
O  O4  1  0.14630000  0.46490000  0.65790000  1.0 -0.1897382316
O  O5  1  0.31860000  0.85370000  0.65790000  1.0 -0.1897382316
O  O6  1  0.53510000  0.68140000  0.65790000  1.0 -0.1897382316
O  O7  1  0.54190000  0.24830000  0.50440000  1.0 -0.1839543814
O  O8  1  0.75170000  0.29360000  0.50440000  1.0 -0.1839543814
O  O9  1  0.70640000  0.45810000  0.50440000  1.0 -0.1839543814
O  O10  1  0.24830000  0.54190000  0.49560000  1.0 -0.1839543814
O  O11  1  0.29360000  0.75170000  0.49560000  1.0 -0.1839543814
O  O12  1  0.45810000  0.70640000  0.49560000  1.0 -0.1839543814
O  O13  1  0.74580000  0.96190000  0.89600000  1.0 -0.6980558511
O  O14  1  0.03810000  0.78390000  0.89600000  1.0 -0.6980558511
O  O15  1  0.21610000  0.25420000  0.89600000  1.0 -0.6980558511
O  O16  1  0.96190000  0.74580000  0.10400000  1.0 -0.6980558511
O  O17  1  0.78390000  0.03810000  0.10400000  1.0 -0.6980558511
O  O18  1  0.25420000  0.21610000  0.10400000  1.0 -0.6980558511
O  O19  1  0.17490000  0.05350000  0.77400000  1.0 -0.1486554048
O  O20  1  0.94650000  0.12140000  0.77400000  1.0 -0.1486554048
O  O21  1  0.87860000  0.82510000  0.77400000  1.0 -0.1486554048
O  O22  1  0.05350000  0.17490000  0.22600000  1.0 -0.1486554048
O  O23  1  0.12140000  0.94650000  0.22600000  1.0 -0.1486554048
O  O24  1  0.82510000  0.87860000  0.22600000  1.0 -0.1486554048
O  O25  1  0.20500000  0.11600000  0.98700000  1.0 -0.3841533389
O  O26  1  0.88400000  0.08900000  0.98700000  1.0 -0.3841533389
O  O27  1  0.91100000  0.79500000  0.98700000  1.0 -0.3841533389
O  O28  1  0.11600000  0.20500000  0.01300000  1.0 -0.3852231678
O  O29  1  0.08900000  0.88400000  0.01300000  1.0 -0.3841533389
O  O30  1  0.79500000  0.91100000  0.01300000  1.0 -0.3852231678
O  O31  1  0.59750000  0.11210000  0.96020000  1.0 -0.4608559213
O  O32  1  0.55890000  0.15750000  0.05100000  1.0 -0.4608559213
O  O33  1  0.65550000  0.19430000  0.05100000  1.0 -0.4468180415
O  O34  1  0.61200000  0.19960000  0.90600000  1.0 -0.4198321081
O  O35  1  0.88790000  0.48540000  0.96020000  1.0 -0.4608559213
O  O36  1  0.84250000  0.40140000  0.05100000  1.0 -0.4608559213
O  O37  1  0.80570000  0.46120000  0.05100000  1.0 -0.4468180415
O  O38  1  0.80040000  0.41240000  0.90600000  1.0 -0.4198321081
O  O39  1  0.51460000  0.40250000  0.96020000  1.0 -0.4608559213
O  O40  1  0.59860000  0.44110000  0.05100000  1.0 -0.4608559213
O  O41  1  0.53880000  0.34450000  0.05100000  1.0 -0.4468180415
O  O42  1  0.58760000  0.38800000  0.90600000  1.0 -0.4198321081
O  O43  1  0.11210000  0.59750000  0.03980000  1.0 -0.4608559213
O  O44  1  0.15750000  0.55890000  0.94900000  1.0 -0.4608559213
O  O45  1  0.19430000  0.65550000  0.94900000  1.0 -0.4468180415
O  O46  1  0.19960000  0.61200000  0.09400000  1.0 -0.4198321081
O  O47  1  0.48540000  0.88790000  0.03980000  1.0 -0.4608559213
O  O48  1  0.40140000  0.84250000  0.94900000  1.0 -0.4608559213
O  O49  1  0.46120000  0.80570000  0.94900000  1.0 -0.4468180415
O  O50  1  0.41240000  0.80040000  0.09400000  1.0 -0.4198321081
O  O51  1  0.40250000  0.51460000  0.03980000  1.0 -0.4608559213
O  O52  1  0.44110000  0.59860000  0.94900000  1.0 -0.4608559213
O  O53  1  0.34450000  0.53880000  0.94900000  1.0 -0.4468180415
O  O54  1  0.38800000  0.58760000  0.09400000  1.0 -0.4198321081
