# DDEC6 charges by PACMAN v1.1 (https://github.com/mtap-research/PACMAN-charge/)
data_GATQOK_ASR_pacman
_symmetry_space_group_name_H-M   'P 1'
_cell_length_a   29.08980000
_cell_length_b   29.08980000
_cell_length_c   29.08980000
_cell_angle_alpha   96.07220000
_cell_angle_beta   96.07220000
_cell_angle_gamma   142.04000000
_symmetry_Int_Tables_number   1
_chemical_formula_structural   Zr6H50C88(N3O10)3
_chemical_formula_sum   'Zr24 H200 C352 N36 O120'
_cell_volume   14318.48927721
_cell_formula_units_Z   4
loop_
 _symmetry_equiv_pos_site_id
 _symmetry_equiv_pos_as_xyz
  1  'x, y, z'
loop_
 _atom_site_type_symbol
 _atom_site_label
 _atom_site_symmetry_multiplicity
 _atom_site_fract_x
 _atom_site_fract_y
 _atom_site_fract_z
 _atom_site_occupancy
 _atom_site_charge
Zr  Zr1  1  0.04958000  0.25061000  0.72829000  1.0 2.4416613052
Zr  Zr2  1  0.52232000  0.32129000  0.27171000  1.0 2.4416613052
Zr  Zr3  1  0.67871000  0.95042000  0.20103000  1.0 2.4416613052
Zr  Zr4  1  0.74939000  0.47768000  0.79897000  1.0 2.4416613052
Zr  Zr5  1  0.20042000  0.42871000  0.70103000  1.0 2.4416613052
Zr  Zr6  1  0.72768000  0.49939000  0.29897000  1.0 2.4416613052
Zr  Zr7  1  0.57129000  0.27232000  0.77171000  1.0 2.4416613052
Zr  Zr8  1  0.50061000  0.79958000  0.22829000  1.0 2.4416613052
Zr  Zr9  1  0.02562000  0.34624000  0.69912000  1.0 2.462660609
Zr  Zr10  1  0.64712000  0.32650000  0.30088000  1.0 2.462660609
Zr  Zr11  1  0.67350000  0.97438000  0.32062000  1.0 2.4664141008
Zr  Zr12  1  0.65376000  0.35288000  0.67938000  1.0 2.462660609
Zr  Zr13  1  0.22438000  0.42350000  0.82062000  1.0 2.462660609
Zr  Zr14  1  0.60288000  0.40376000  0.17938000  1.0 2.462660609
Zr  Zr15  1  0.57650000  0.39712000  0.80088000  1.0 2.462660609
Zr  Zr16  1  0.59624000  0.77562000  0.19912000  1.0 2.462660609
Zr  Zr17  1  0.19935000  0.51914000  0.79111000  1.0 2.3464604685
Zr  Zr18  1  0.72803000  0.40824000  0.20889000  1.0 2.3464604685
Zr  Zr19  1  0.59176000  0.80065000  0.31979000  1.0 2.3464604685
Zr  Zr20  1  0.48086000  0.27197000  0.68021000  1.0 2.3464604685
Zr  Zr21  1  0.05065000  0.34176000  0.81979000  1.0 2.3464604685
Zr  Zr22  1  0.52197000  0.23086000  0.18021000  1.0 2.3464604685
Zr  Zr23  1  0.65824000  0.47803000  0.70889000  1.0 2.3464604685
Zr  Zr24  1  0.76914000  0.94935000  0.29111000  1.0 2.3464604685
H  H1  1  0.06055000  0.11374000  0.75977000  1.0 0.1412957361
H  H2  1  0.35397000  0.30078000  0.24023000  1.0 0.1412957361
H  H3  1  0.69922000  0.93945000  0.05319000  1.0 0.1412957361
H  H4  1  0.88626000  0.64603000  0.94681000  1.0 0.1412957361
H  H5  1  0.18945000  0.44922000  0.55319000  1.0 0.1412957361
H  H6  1  0.89603000  0.63626000  0.44681000  1.0 0.1412957361
H  H7  1  0.55078000  0.10397000  0.74023000  1.0 0.1412957361
H  H8  1  0.36374000  0.81055000  0.25977000  1.0 0.1412957361
H  H9  1  0.25200000  0.30552000  0.87234000  1.0 0.1185905808
H  H10  1  0.43318000  0.37966000  0.12766000  1.0 0.1185905808
H  H11  1  0.62034000  0.74800000  0.05352000  1.0 0.1185905808
H  H12  1  0.69448000  0.56682000  0.94648000  1.0 0.1185905808
H  H13  1  0.99800000  0.37034000  0.55352000  1.0 0.1185905808
H  H14  1  0.81682000  0.44448000  0.44648000  1.0 0.1185905808
H  H15  1  0.62966000  0.18318000  0.62766000  1.0 0.1185905808
H  H16  1  0.55552000  0.00200000  0.37234000  1.0 0.1185905808
H  H17  1  0.25737000  0.23659000  0.89792000  1.0 0.1185905808
H  H18  1  0.33867000  0.35945000  0.10208000  1.0 0.1185905808
H  H19  1  0.64055000  0.74264000  0.97922000  1.0 0.1185905808
H  H20  1  0.76341000  0.66133000  0.02077000  1.0 0.1185905808
H  H21  1  0.99263000  0.39055000  0.47923000  1.0 0.1185905808
H  H22  1  0.91133000  0.51341000  0.52077000  1.0 0.1185905808
H  H23  1  0.60945000  0.08868000  0.60209000  1.0 0.1185905808
H  H24  1  0.48659000  0.00737000  0.39792000  1.0 0.1185905808
H  H25  1  0.06591000  0.04481000  0.78534000  1.0 0.1102590473
H  H26  1  0.25947000  0.28057000  0.21466000  1.0 0.1102590473
H  H27  1  0.71943000  0.93409000  0.97890000  1.0 0.1102590473
H  H28  1  0.95519000  0.74053000  0.02110000  1.0 0.1102590473
H  H29  1  0.18409000  0.46943000  0.47890000  1.0 0.1102590473
H  H30  1  0.99053000  0.70519000  0.52110000  1.0 0.1102590473
H  H31  1  0.53057000  0.00947000  0.71466000  1.0 0.1102590473
H  H32  1  0.29481000  0.81591000  0.28534000  1.0 0.1102590473
H  H33  1  0.08120000  0.87172000  0.88082000  1.0 0.1185905808
H  H34  1  0.99090000  0.20038000  0.11918000  1.0 0.1185905808
H  H35  1  0.79962000  0.91880000  0.79052000  1.0 0.1185905808
H  H36  1  0.12828000  0.00910000  0.20948000  1.0 0.1185905808
H  H37  1  0.16880000  0.54962000  0.29052000  1.0 0.1185905808
H  H38  1  0.25910000  0.87828000  0.70948000  1.0 0.1185905808
H  H39  1  0.45038000  0.74090000  0.61918000  1.0 0.1185905808
H  H40  1  0.12172000  0.83120000  0.38082000  1.0 0.1185905808
H  H41  1  0.97509000  0.73606000  0.84815000  1.0 0.1279027168
H  H42  1  0.88791000  0.12694000  0.15185000  1.0 0.1279027168
H  H43  1  0.87306000  0.02491000  0.76097000  1.0 0.1279027168
H  H44  1  0.26394000  0.11209000  0.23903000  1.0 0.1279027168
H  H45  1  0.27491000  0.62306000  0.26097000  1.0 0.1279027168
H  H46  1  0.36209000  0.01394000  0.73903000  1.0 0.1279027168
H  H47  1  0.37694000  0.63791000  0.65185000  1.0 0.1279027168
H  H48  1  0.98606000  0.72509000  0.34815000  1.0 0.1185905808
H  H49  1  0.86955000  0.74070000  0.75225000  1.0 0.1185905808
H  H50  1  0.98845000  0.11730000  0.24775000  1.0 0.1185905808
H  H51  1  0.88270000  0.13045000  0.87115000  1.0 0.1185905808
H  H52  1  0.25930000  0.01155000  0.12885000  1.0 0.1185905808
H  H53  1  0.38045000  0.63270000  0.37115000  1.0 0.1185905808
H  H54  1  0.26155000  0.00930000  0.62885000  1.0 0.1185905808
H  H55  1  0.36730000  0.73845000  0.74775000  1.0 0.1185905808
H  H56  1  0.99070000  0.61955000  0.25225000  1.0 0.1185905808
H  H57  1  0.97566000  0.87636000  0.78492000  1.0 0.1102590473
H  H58  1  0.09144000  0.19074000  0.21508000  1.0 0.1102590473
H  H59  1  0.80926000  0.02434000  0.90070000  1.0 0.1102590473
H  H60  1  0.12364000  0.90856000  0.09930000  1.0 0.1102590473
H  H61  1  0.27434000  0.55926000  0.40070000  1.0 0.1102590473
H  H62  1  0.15856000  0.87364000  0.59930000  1.0 0.1102590473
H  H63  1  0.44074000  0.84144000  0.71508000  1.0 0.1102590473
H  H64  1  0.12636000  0.72566000  0.28492000  1.0 0.1102590473
H  H65  1  0.34107000  0.23206000  0.96911000  1.0 0.1185905808
H  H66  1  0.26295000  0.37196000  0.03089000  1.0 0.1185905808
H  H67  1  0.62804000  0.65893000  0.89099000  1.0 0.1185905808
H  H68  1  0.76794000  0.73705000  0.10901000  1.0 0.1185905808
H  H69  1  0.90893000  0.37804000  0.39099000  1.0 0.1185905808
H  H70  1  0.98705000  0.51794000  0.60901000  1.0 0.1185905808
H  H71  1  0.62196000  0.01295000  0.53089000  1.0 0.1185905808
H  H72  1  0.48206000  0.09107000  0.46911000  1.0 0.1185905808
H  H73  1  0.43995000  0.29707000  0.03931000  1.0 0.1279027168
H  H74  1  0.25775000  0.40064000  0.96069000  1.0 0.1279027168
H  H75  1  0.59935000  0.56005000  0.85711000  1.0 0.1279027168
H  H76  1  0.70293000  0.74225000  0.14289000  1.0 0.1279027168
H  H77  1  0.81004000  0.34936000  0.35711000  1.0 0.1279027168
H  H78  1  0.99225000  0.45293000  0.64289000  1.0 0.1279027168
H  H79  1  0.65065000  0.00776000  0.46069000  1.0 0.1279027168
H  H80  1  0.54707000  0.18996000  0.53931000  1.0 0.1279027168
H  H81  1  0.34752000  0.09678000  0.03237000  1.0 0.1279027168
H  H82  1  0.06441000  0.31514000  0.96763000  1.0 0.1279027168
H  H83  1  0.68485000  0.65248000  0.74927000  1.0 0.1279027168
H  H84  1  0.90321000  0.93558000  0.25073000  1.0 0.1279027168
H  H85  1  0.90248000  0.43485000  0.24927000  1.0 0.1279027168
H  H86  1  0.18558000  0.65321000  0.75073000  1.0 0.1279027168
H  H87  1  0.56515000  0.81442000  0.46763000  1.0 0.1279027168
H  H88  1  0.34678000  0.09752000  0.53237000  1.0 0.1279027168
H  H89  1  0.24864000  0.03178000  0.96218000  1.0 0.1185905808
H  H90  1  0.06960000  0.28646000  0.03782000  1.0 0.1185905808
H  H91  1  0.71354000  0.75136000  0.78314000  1.0 0.1185905808
H  H92  1  0.96822000  0.93040000  0.21686000  1.0 0.1185905808
H  H93  1  0.00136000  0.46354000  0.28314000  1.0 0.1185905808
H  H94  1  0.18040000  0.71822000  0.71686000  1.0 0.1185905808
H  H95  1  0.53646000  0.81960000  0.53782000  1.0 0.1185905808
H  H96  1  0.28178000  0.99864000  0.46218000  1.0 0.1185905808
H  H97  1  0.22400000  0.64975000  0.91531000  1.0 0.1185905808
H  H98  1  0.73444000  0.30869000  0.08469000  1.0 0.1185905808
H  H99  1  0.69131000  0.77600000  0.42575000  1.0 0.1185905808
H  H100  1  0.35025000  0.26556000  0.57425000  1.0 0.1185905808
H  H101  1  0.02600000  0.44131000  0.92575000  1.0 0.1185905808
H  H102  1  0.51556000  0.10025000  0.07425000  1.0 0.1185905808
H  H103  1  0.55869000  0.48444000  0.58469000  1.0 0.1185905808
H  H104  1  0.89975000  0.97400000  0.41531000  1.0 0.1185905808
H  H105  1  0.22711000  0.71137000  0.97514000  1.0 0.1412957361
H  H106  1  0.73623000  0.25197000  0.02486000  1.0 0.1412957361
H  H107  1  0.74803000  0.77289000  0.48426000  1.0 0.1412957361
H  H108  1  0.28863000  0.26377000  0.51574000  1.0 0.1412957361
H  H109  1  0.02289000  0.49803000  0.98426000  1.0 0.1412957361
H  H110  1  0.51377000  0.03863000  0.01574000  1.0 0.1412957361
H  H111  1  0.50197000  0.48623000  0.52486000  1.0 0.1412957361
H  H112  1  0.96137000  0.97711000  0.47514000  1.0 0.1412957361
H  H113  1  0.31364000  0.94396000  0.22300000  1.0 0.1185905808
H  H114  1  0.72096000  0.09064000  0.77700000  1.0 0.1185905808
H  H115  1  0.90936000  0.68636000  0.63032000  1.0 0.1185905808
H  H116  1  0.05604000  0.27904000  0.36968000  1.0 0.1185905808
H  H117  1  0.93636000  0.65936000  0.13032000  1.0 0.1185905808
H  H118  1  0.52904000  0.80604000  0.86968000  1.0 0.1185905808
H  H119  1  0.34064000  0.47096000  0.27700000  1.0 0.1185905808
H  H120  1  0.19396000  0.06364000  0.72300000  1.0 0.1185905808
H  H121  1  0.21011000  0.81329000  0.17556000  1.0 0.1102590473
H  H122  1  0.63773000  0.03455000  0.82444000  1.0 0.1102590473
H  H123  1  0.96545000  0.78989000  0.60318000  1.0 0.1102590473
H  H124  1  0.18671000  0.36227000  0.39682000  1.0 0.1102590473
H  H125  1  0.03989000  0.71545000  0.10318000  1.0 0.1102590473
H  H126  1  0.61227000  0.93671000  0.89682000  1.0 0.1102590473
H  H127  1  0.28455000  0.38773000  0.32444000  1.0 0.1102590473
H  H128  1  0.06329000  0.96011000  0.67556000  1.0 0.1102590473
H  H129  1  0.29322000  0.88021000  0.06213000  1.0 0.1279027168
H  H130  1  0.81808000  0.23109000  0.93787000  1.0 0.1279027168
H  H131  1  0.76891000  0.70678000  0.58699000  1.0 0.1279027168
H  H132  1  0.11979000  0.18192000  0.41301000  1.0 0.1279027168
H  H133  1  0.95678000  0.51891000  0.08699000  1.0 0.1279027168
H  H134  1  0.43192000  0.86979000  0.91301000  1.0 0.1279027168
H  H135  1  0.48109000  0.56808000  0.43787000  1.0 0.1279027168
H  H136  1  0.13021000  0.04322000  0.56213000  1.0 0.1279027168
H  H137  1  0.39675000  0.01088000  0.10957000  1.0 0.1102590473
H  H138  1  0.90131000  0.28718000  0.89043000  1.0 0.1102590473
H  H139  1  0.71282000  0.60325000  0.61413000  1.0 0.1102590473
H  H140  1  0.98912000  0.09869000  0.38587000  1.0 0.1102590473
H  H141  1  0.85325000  0.46282000  0.11413000  1.0 0.1102590473
H  H142  1  0.34869000  0.73912000  0.88587000  1.0 0.1102590473
H  H143  1  0.53718000  0.65131000  0.39043000  1.0 0.1102590473
H  H144  1  0.26088000  0.14675000  0.60957000  1.0 0.1102590473
H  H145  1  0.45782000  0.98742000  0.12832000  1.0 0.1185905808
H  H146  1  0.85910000  0.32950000  0.87168000  1.0 0.1185905808
H  H147  1  0.67050000  0.54218000  0.52960000  1.0 0.1185905808
H  H148  1  0.01258000  0.14090000  0.47040000  1.0 0.1185905808
H  H149  1  0.79218000  0.42050000  0.02960000  1.0 0.1185905808
H  H150  1  0.39090000  0.76258000  0.97040000  1.0 0.1185905808
H  H151  1  0.57950000  0.60910000  0.37168000  1.0 0.1185905808
H  H152  1  0.23742000  0.20782000  0.62832000  1.0 0.1185905808
H  H153  1  0.34331000  0.85365000  0.08800000  1.0 0.1279027168
H  H154  1  0.76565000  0.25531000  0.91200000  1.0 0.1279027168
H  H155  1  0.74469000  0.65669000  0.51034000  1.0 0.1279027168
H  H156  1  0.14635000  0.23435000  0.48966000  1.0 0.1279027168
H  H157  1  0.90669000  0.49469000  0.01034000  1.0 0.1279027168
H  H158  1  0.48435000  0.89635000  0.98966000  1.0 0.1279027168
H  H159  1  0.50531000  0.51565000  0.41200000  1.0 0.1279027168
H  H160  1  0.10365000  0.09331000  0.58800000  1.0 0.1279027168
H  H161  1  0.21563000  0.85647000  0.12358000  1.0 0.1102590473
H  H162  1  0.73289000  0.09205000  0.87642000  1.0 0.1102590473
H  H163  1  0.90795000  0.78437000  0.64084000  1.0 0.1102590473
H  H164  1  0.14353000  0.26711000  0.35916000  1.0 0.1102590473
H  H165  1  0.03437000  0.65795000  0.14084000  1.0 0.1102590473
H  H166  1  0.51711000  0.89353000  0.85916000  1.0 0.1102590473
H  H167  1  0.34205000  0.48289000  0.37642000  1.0 0.1102590473
H  H168  1  0.10647000  0.96563000  0.62358000  1.0 0.1102590473
H  H169  1  0.33014000  0.99023000  0.16390000  1.0 0.1102590473
H  H170  1  0.82634000  0.16625000  0.83610000  1.0 0.1102590473
H  H171  1  0.83375000  0.66985000  0.66009000  1.0 0.1102590473
H  H172  1  0.00977000  0.17367000  0.33992000  1.0 0.1102590473
H  H173  1  0.91985000  0.58375000  0.16009000  1.0 0.1102590473
H  H174  1  0.42367000  0.75977000  0.83991000  1.0 0.1102590473
H  H175  1  0.41625000  0.57634000  0.33610000  1.0 0.1102590473
H  H176  1  0.24023000  0.08015000  0.66390000  1.0 0.1102590473
H  H177  1  0.09078000  0.17756000  0.60572000  1.0 0.050107859
H  H178  1  0.57184000  0.48506000  0.39428000  1.0 0.050107859
H  H179  1  0.51494000  0.90922000  0.08678000  1.0 0.050107859
H  H180  1  0.82244000  0.42816000  0.91322000  1.0 0.050107859
H  H181  1  0.15922000  0.26494000  0.58678000  1.0 0.050107859
H  H182  1  0.67816000  0.57244000  0.41322000  1.0 0.050107859
H  H183  1  0.73506000  0.32184000  0.89428000  1.0 0.050107859
H  H184  1  0.42756000  0.84078000  0.10572000  1.0 0.050107859
H  H185  1  0.17738000  0.25996000  0.60992000  1.0 0.0388692905
H  H186  1  0.65004000  0.56746000  0.39008000  1.0 0.0388692905
H  H187  1  0.43254000  0.82262000  0.08258000  1.0 0.0388692905
H  H188  1  0.74004000  0.34996000  0.91742000  1.0 0.0388692905
H  H189  1  0.07262000  0.18254000  0.58258000  1.0 0.0388692905
H  H190  1  0.59996000  0.49004000  0.41742000  1.0 0.0388692905
H  H191  1  0.81746000  0.40004000  0.89008000  1.0 0.0388692905
H  H192  1  0.50996000  0.92738000  0.10992000  1.0 0.0388692905
H  H193  1  0.10684000  0.22623000  0.57311000  1.0 0.050107859
H  H194  1  0.65312000  0.53373000  0.42689000  1.0 0.050107859
H  H195  1  0.46627000  0.89316000  0.11939000  1.0 0.050107859
H  H196  1  0.77377000  0.34688000  0.88061000  1.0 0.050107859
H  H197  1  0.14316000  0.21627000  0.61939000  1.0 0.050107859
H  H198  1  0.59688000  0.52377000  0.38061000  1.0 0.050107859
H  H199  1  0.78373000  0.40312000  0.92689000  1.0 0.050107859
H  H200  1  0.47623000  0.85684000  0.07311000  1.0 0.050107859
C  C1  1  0.15250000  0.26140000  0.79650000  1.0 0.6391875536
C  C2  1  0.46490000  0.35600000  0.20350000  1.0 0.6391875536
C  C3  1  0.64400000  0.84750000  0.10890000  1.0 0.6391875536
C  C4  1  0.73860000  0.53510000  0.89110000  1.0 0.6391875536
C  C5  1  0.09750000  0.39400000  0.60890000  1.0 0.6391875536
C  C6  1  0.78510000  0.48860000  0.39110000  1.0 0.6391875536
C  C7  1  0.60600000  0.21490000  0.70350000  1.0 0.6391875536
C  C8  1  0.51140000  0.90250000  0.29650000  1.0 0.6391875536
C  C9  1  0.10005000  0.13840000  0.78745000  1.0 -0.0946328348
C  C10  1  0.35095000  0.31260000  0.21255000  1.0 -0.0946328348
C  C11  1  0.68740000  0.89995000  0.03835000  1.0 -0.0946328348
C  C12  1  0.86160000  0.64905000  0.96165000  1.0 -0.0946328348
C  C13  1  0.14995000  0.43740000  0.53835000  1.0 -0.0946328348
C  C14  1  0.89905000  0.61160000  0.46165000  1.0 -0.0946328348
C  C15  1  0.56260000  0.10095000  0.71255000  1.0 -0.0946328348
C  C16  1  0.38840000  0.85005000  0.28745000  1.0 -0.0946328348
C  C17  1  0.15570000  0.21640000  0.81350000  1.0 -0.0302962473
C  C18  1  0.40290000  0.34220000  0.18650000  1.0 -0.0302962473
C  C19  1  0.65780000  0.84430000  0.06070000  1.0 -0.0302962473
C  C20  1  0.78360000  0.59710000  0.93930000  1.0 -0.0302962473
C  C21  1  0.09430000  0.40780000  0.56070000  1.0 -0.0302962473
C  C22  1  0.84710000  0.53360000  0.43930000  1.0 -0.0302962473
C  C23  1  0.59220000  0.15290000  0.68650000  1.0 -0.0302962473
C  C24  1  0.46640000  0.90570000  0.31350000  1.0 -0.0302962473
C  C25  1  0.21467000  0.25320000  0.85487000  1.0 -0.1000562237
C  C26  1  0.39833000  0.35980000  0.14513000  1.0 -0.1000562237
C  C27  1  0.64020000  0.78533000  0.03853000  1.0 -0.1000562237
C  C28  1  0.74680000  0.60167000  0.96147000  1.0 -0.1000562237
C  C29  1  0.03533000  0.39020000  0.53853000  1.0 -0.1000562237
C  C30  1  0.85167000  0.49680000  0.46147000  1.0 -0.1000562237
C  C31  1  0.60980000  0.14833000  0.64513000  1.0 -0.1000562237
C  C32  1  0.50320000  0.96467000  0.35487000  1.0 -0.1000562237
C  C33  1  0.21789000  0.21190000  0.87019000  1.0 -0.1192506851
C  C34  1  0.34171000  0.34770000  0.12981000  1.0 -0.1192506851
C  C35  1  0.65230000  0.78211000  0.99401000  1.0 -0.1192506851
C  C36  1  0.78810000  0.65829000  0.00599000  1.0 -0.1192506851
C  C37  1  0.03211000  0.40230000  0.49401000  1.0 -0.1192506851
C  C38  1  0.90829000  0.53810000  0.50599000  1.0 -0.1192506851
C  C39  1  0.59770000  0.09171000  0.62981000  1.0 -0.1192506851
C  C40  1  0.46190000  0.96789000  0.37019000  1.0 -0.1192506851
C  C41  1  0.16213000  0.13380000  0.84413000  1.0 0.0127455002
C  C42  1  0.28967000  0.31800000  0.15587000  1.0 0.0127455002
C  C43  1  0.68200000  0.83787000  0.97167000  1.0 0.0127455002
C  C44  1  0.86620000  0.71033000  0.02833000  1.0 0.0127455002
C  C45  1  0.08787000  0.43200000  0.47167000  1.0 0.0127455002
C  C46  1  0.96033000  0.61620000  0.52833000  1.0 0.0127455002
C  C47  1  0.56800000  0.03967000  0.65587000  1.0 0.0127455002
C  C48  1  0.38380000  0.91213000  0.34413000  1.0 0.0127455002
C  C49  1  0.10316000  0.09700000  0.80276000  1.0 -0.1192506851
C  C50  1  0.29424000  0.30040000  0.19724000  1.0 -0.1192506851
C  C51  1  0.69960000  0.89684000  0.99384000  1.0 -0.1192506851
C  C52  1  0.90300000  0.70576000  0.00616000  1.0 -0.1192506851
C  C53  1  0.14684000  0.44960000  0.49384000  1.0 -0.1192506851
C  C54  1  0.95576000  0.65300000  0.50616000  1.0 -0.1192506851
C  C55  1  0.55040000  0.04424000  0.69724000  1.0 -0.1192506851
C  C56  1  0.34700000  0.85316000  0.30276000  1.0 -0.1192506851
C  C57  1  0.16140000  0.08790000  0.86270000  1.0 0.3738740036
C  C58  1  0.22520000  0.29870000  0.13730000  1.0 0.3738740036
C  C59  1  0.70130000  0.83860000  0.92650000  1.0 0.3738740036
C  C60  1  0.91210000  0.77480000  0.07350000  1.0 0.3738740036
C  C61  1  0.08860000  0.45130000  0.42650000  1.0 0.3738740036
C  C62  1  0.02480000  0.66210000  0.57350000  1.0 0.3738740036
C  C63  1  0.54870000  0.97520000  0.63730000  1.0 0.3738740036
C  C64  1  0.33790000  0.91140000  0.36270000  1.0 0.3738740036
C  C65  1  0.10720000  0.97380000  0.85540000  1.0 0.3646831028
C  C66  1  0.11840000  0.25180000  0.14460000  1.0 0.3646831028
C  C67  1  0.74820000  0.89280000  0.86660000  1.0 0.3646831028
C  C68  1  0.02620000  0.88160000  0.13340000  1.0 0.3646831028
C  C69  1  0.14280000  0.49820000  0.36660000  1.0 0.3646831028
C  C70  1  0.13160000  0.77620000  0.63340000  1.0 0.3646831028
C  C71  1  0.50180000  0.86840000  0.64460000  1.0 0.3646831028
C  C72  1  0.22380000  0.85720000  0.35540000  1.0 0.3738740036
C  C73  1  0.22040000  0.08400000  0.91520000  1.0 0.3762337889
C  C74  1  0.16880000  0.30520000  0.08480000  1.0 0.3762337889
C  C75  1  0.69480000  0.77960000  0.86360000  1.0 0.3738740036
C  C76  1  0.91600000  0.83120000  0.13640000  1.0 0.3762337889
C  C77  1  0.02960000  0.44480000  0.36360000  1.0 0.3762337889
C  C78  1  0.08120000  0.66600000  0.63640000  1.0 0.3762337889
C  C79  1  0.55520000  0.91880000  0.58480000  1.0 0.3762337889
C  C80  1  0.33400000  0.97040000  0.41520000  1.0 0.3762337889
C  C81  1  0.03878000  0.84550000  0.85508000  1.0 -0.1192506851
C  C82  1  0.99042000  0.18370000  0.14492000  1.0 -0.1192506851
C  C83  1  0.81630000  0.96122000  0.80672000  1.0 -0.1192506851
C  C84  1  0.15450000  0.00958000  0.19328000  1.0 -0.1192506851
C  C85  1  0.21122000  0.56630000  0.30672000  1.0 -0.1192506851
C  C86  1  0.25958000  0.90450000  0.69328000  1.0 -0.1192506851
C  C87  1  0.43370000  0.74042000  0.64492000  1.0 -0.1192506851
C  C88  1  0.09550000  0.78878000  0.35508000  1.0 -0.1192506851
C  C89  1  0.97525000  0.76420000  0.83545000  1.0 -0.1000562237
C  C90  1  0.92875000  0.13980000  0.16455000  1.0 -0.1000562237
C  C91  1  0.86020000  0.02475000  0.78895000  1.0 -0.1000562237
C  C92  1  0.23580000  0.07125000  0.21105000  1.0 -0.1000562237
C  C93  1  0.27475000  0.61020000  0.28895000  1.0 -0.1000562237
C  C94  1  0.32125000  0.98580000  0.71105000  1.0 -0.1000562237
C  C95  1  0.38980000  0.67875000  0.66455000  1.0 -0.1000562237
C  C96  1  0.01420000  0.72525000  0.33545000  1.0 -0.1000562237
C  C97  1  0.91182000  0.72490000  0.79692000  1.0 -0.0203214208
C  C98  1  0.92798000  0.11490000  0.20308000  1.0 -0.0203214208
C  C99  1  0.88510000  0.08818000  0.81308000  1.0 -0.0203214208
C  C100  1  0.27510000  0.07202000  0.18692000  1.0 -0.0203214208
C  C101  1  0.33818000  0.63510000  0.31308000  1.0 -0.0203214208
C  C102  1  0.32202000  0.02510000  0.68692000  1.0 -0.0203214208
C  C103  1  0.36490000  0.67798000  0.70308000  1.0 -0.0203214208
C  C104  1  0.97490000  0.66182000  0.29692000  1.0 -0.0203214208
C  C105  1  0.91202000  0.76700000  0.77802000  1.0 -0.1192506851
C  C106  1  0.98898000  0.13400000  0.22198000  1.0 -0.1192506851
C  C107  1  0.86600000  0.08798000  0.85498000  1.0 -0.1192506851
C  C108  1  0.23300000  0.01102000  0.14502000  1.0 -0.1192506851
C  C109  1  0.33798000  0.61600000  0.35498000  1.0 -0.1192506851
C  C110  1  0.26102000  0.98300000  0.64502000  1.0 -0.1192506851
C  C111  1  0.38400000  0.73898000  0.72198000  1.0 -0.1192506851
C  C112  1  0.01700000  0.66202000  0.27802000  1.0 -0.1192506851
C  C113  1  0.97555000  0.84820000  0.79755000  1.0 -0.1131485054
C  C114  1  0.05065000  0.17800000  0.20245000  1.0 -0.1131485054
C  C115  1  0.82200000  0.02445000  0.87265000  1.0 -0.1131485054
C  C116  1  0.15180000  0.94935000  0.12735000  1.0 -0.1131485054
C  C117  1  0.27445000  0.57200000  0.37265000  1.0 -0.1131485054
C  C118  1  0.19935000  0.90180000  0.62735000  1.0 -0.1131485054
C  C119  1  0.42800000  0.80065000  0.70245000  1.0 -0.1131485054
C  C120  1  0.09820000  0.72555000  0.29755000  1.0 -0.1131485054
C  C121  1  0.03898000  0.88750000  0.83608000  1.0 0.0127455002
C  C122  1  0.05142000  0.20290000  0.16392000  1.0 0.0127455002
C  C123  1  0.79710000  0.96102000  0.84852000  1.0 0.0127455002
C  C124  1  0.11250000  0.94858000  0.15148000  1.0 0.0127455002
C  C125  1  0.21102000  0.54710000  0.34852000  1.0 0.0127455002
C  C126  1  0.19858000  0.86250000  0.65148000  1.0 0.0127455002
C  C127  1  0.45290000  0.80142000  0.66392000  1.0 0.0127455002
C  C128  1  0.13750000  0.78898000  0.33608000  1.0 0.0127455002
C  C129  1  0.83990000  0.63700000  0.77910000  1.0 0.6391875536
C  C130  1  0.85790000  0.06080000  0.22090000  1.0 0.6391875536
C  C131  1  0.93920000  0.16010000  0.79710000  1.0 0.6391875536
C  C132  1  0.36300000  0.14210000  0.20290000  1.0 0.6391875536
C  C133  1  0.41010000  0.68920000  0.29710000  1.0 0.6391875536
C  C134  1  0.39210000  0.11300000  0.70290000  1.0 0.6391875536
C  C135  1  0.31080000  0.60790000  0.72090000  1.0 0.6391875536
C  C136  1  0.88700000  0.58990000  0.27910000  1.0 0.6391875536
C  C137  1  0.28503000  0.12550000  0.95873000  1.0 0.0127455002
C  C138  1  0.16677000  0.32630000  0.04127000  1.0 0.0127455002
C  C139  1  0.67370000  0.71497000  0.84047000  1.0 0.0127455002
C  C140  1  0.87450000  0.83323000  0.15953000  1.0 0.0127455002
C  C141  1  0.96497000  0.42370000  0.34047000  1.0 0.0127455002
C  C142  1  0.08323000  0.62450000  0.65953000  1.0 0.0127455002
C  C143  1  0.57630000  0.91677000  0.54127000  1.0 0.0127455002
C  C144  1  0.37550000  0.03503000  0.45873000  1.0 0.0127455002
C  C145  1  0.34240000  0.20500000  0.98180000  1.0 -0.1192506851
C  C146  1  0.22320000  0.36060000  0.01820000  1.0 -0.1192506851
C  C147  1  0.63940000  0.65760000  0.86260000  1.0 -0.1192506851
C  C148  1  0.79500000  0.77680000  0.13740000  1.0 -0.1192506851
C  C149  1  0.90760000  0.38940000  0.36260000  1.0 -0.1192506851
C  C150  1  0.02680000  0.54500000  0.63740000  1.0 -0.1192506851
C  C151  1  0.61060000  0.97320000  0.51820000  1.0 -0.1192506851
C  C152  1  0.45500000  0.09240000  0.48180000  1.0 -0.1192506851
C  C153  1  0.40158000  0.24390000  0.02388000  1.0 -0.1000562237
C  C154  1  0.22002000  0.37770000  0.97612000  1.0 -0.1000562237
C  C155  1  0.62230000  0.59842000  0.84232000  1.0 -0.1000562237
C  C156  1  0.75610000  0.77998000  0.15768000  1.0 -0.1000562237
C  C157  1  0.84842000  0.37230000  0.34232000  1.0 -0.1000562237
C  C158  1  0.02998000  0.50610000  0.65768000  1.0 -0.1000562237
C  C159  1  0.62770000  0.97002000  0.47612000  1.0 -0.1000562237
C  C160  1  0.49390000  0.15158000  0.52388000  1.0 -0.1000562237
C  C161  1  0.40358000  0.20340000  0.04278000  1.0 -0.0302962473
C  C162  1  0.16062000  0.36080000  0.95722000  1.0 -0.0302962473
C  C163  1  0.63920000  0.59642000  0.79982000  1.0 -0.0302962473
C  C164  1  0.79660000  0.83938000  0.20018000  1.0 -0.0302962473
C  C165  1  0.84642000  0.38920000  0.29982000  1.0 -0.0302962473
C  C166  1  0.08938000  0.54660000  0.70018000  1.0 -0.0302962473
C  C167  1  0.61080000  0.91062000  0.45722000  1.0 -0.0302962473
C  C168  1  0.45340000  0.15358000  0.54278000  1.0 -0.0302962473
C  C169  1  0.34621000  0.12390000  0.01971000  1.0 -0.1000562237
C  C170  1  0.10419000  0.32650000  0.98029000  1.0 -0.1000562237
C  C171  1  0.67350000  0.65379000  0.77769000  1.0 -0.1000562237
C  C172  1  0.87610000  0.89581000  0.22231000  1.0 -0.1000562237
C  C173  1  0.90379000  0.42350000  0.27769000  1.0 -0.1000562237
C  C174  1  0.14581000  0.62610000  0.72231000  1.0 -0.1000562237
C  C175  1  0.57650000  0.85419000  0.48029000  1.0 -0.1000562237
C  C176  1  0.37390000  0.09621000  0.51971000  1.0 -0.1000562237
C  C177  1  0.28703000  0.08500000  0.97763000  1.0 -0.1192506851
C  C178  1  0.10737000  0.30940000  0.02237000  1.0 -0.1192506851
C  C179  1  0.69060000  0.71297000  0.79797000  1.0 -0.1192506851
C  C180  1  0.91500000  0.89263000  0.20203000  1.0 -0.1192506851
C  C181  1  0.96297000  0.44060000  0.29797000  1.0 -0.1192506851
C  C182  1  0.14263000  0.66500000  0.70203000  1.0 -0.1192506851
C  C183  1  0.55940000  0.85737000  0.52237000  1.0 -0.1192506851
C  C184  1  0.33500000  0.03703000  0.47763000  1.0 -0.1192506851
C  C185  1  0.46440000  0.24380000  0.08980000  1.0 0.6391875536
C  C186  1  0.15400000  0.37460000  0.91020000  1.0 0.6391875536
C  C187  1  0.62540000  0.53560000  0.77940000  1.0 0.6391875536
C  C188  1  0.75620000  0.84600000  0.22060000  1.0 0.6391875536
C  C189  1  0.78560000  0.37540000  0.27940000  1.0 0.6391875536
C  C190  1  0.09600000  0.50620000  0.72060000  1.0 0.6391875536
C  C191  1  0.62460000  0.90400000  0.41020000  1.0 0.6391875536
C  C192  1  0.49380000  0.21440000  0.58980000  1.0 0.6391875536
C  C193  1  0.12500000  0.26900000  0.64400000  1.0 0.7263789394
C  C194  1  0.62500000  0.48100000  0.35600000  1.0 0.7263789394
C  C195  1  0.51900000  0.87500000  0.14400000  1.0 0.7263789394
C  C196  1  0.73100000  0.37500000  0.85600000  1.0 0.7263789394
C  C197  1  0.12500000  0.22950000  0.60450000  1.0 -0.3392262569
C  C198  1  0.62500000  0.52050000  0.39550000  1.0 -0.3392262569
C  C199  1  0.47950000  0.87500000  0.10450000  1.0 -0.3392262569
C  C200  1  0.77050000  0.37500000  0.89550000  1.0 -0.3392262569
C  C201  1  0.12500000  0.50170000  0.87670000  1.0 0.6391875536
C  C202  1  0.62500000  0.24830000  0.12330000  1.0 0.6391875536
C  C203  1  0.75170000  0.87500000  0.37670000  1.0 0.6391875536
C  C204  1  0.49830000  0.37500000  0.62330000  1.0 0.6391875536
C  C205  1  0.12500000  0.53910000  0.91410000  1.0 -0.0523851147
C  C206  1  0.62500000  0.21090000  0.08590000  1.0 -0.0523851147
C  C207  1  0.78910000  0.87500000  0.41410000  1.0 -0.0523851147
C  C208  1  0.46090000  0.37500000  0.58590000  1.0 -0.0523851147
C  C209  1  0.18390000  0.61940000  0.92950000  1.0 -0.1000562237
C  C210  1  0.68990000  0.25440000  0.07050000  1.0 -0.1000562237
C  C211  1  0.74560000  0.81610000  0.43550000  1.0 -0.1000562237
C  C212  1  0.38060000  0.31010000  0.56450000  1.0 -0.1000562237
C  C213  1  0.06610000  0.49560000  0.93550000  1.0 -0.1000562237
C  C214  1  0.56010000  0.13060000  0.06450000  1.0 -0.1000562237
C  C215  1  0.50440000  0.43990000  0.57050000  1.0 -0.1000562237
C  C216  1  0.86940000  0.93390000  0.42950000  1.0 -0.1000562237
C  C217  1  0.18610000  0.65700000  0.96530000  1.0 -0.1000562237
C  C218  1  0.69170000  0.22080000  0.03470000  1.0 -0.1000562237
C  C219  1  0.77920000  0.81390000  0.47090000  1.0 -0.1000562237
C  C220  1  0.34300000  0.30830000  0.52910000  1.0 -0.1000562237
C  C221  1  0.06390000  0.52920000  0.97090000  1.0 -0.1000562237
C  C222  1  0.55830000  0.09300000  0.02910000  1.0 -0.1000562237
C  C223  1  0.47080000  0.44170000  0.53470000  1.0 -0.1000562237
C  C224  1  0.90700000  0.93610000  0.46530000  1.0 -0.1000562237
C  C225  1  0.12500000  0.64690000  0.02190000  1.0 0.3215772205
C  C226  1  0.62500000  0.10310000  0.97810000  1.0 0.3215772205
C  C227  1  0.89690000  0.87500000  0.52190000  1.0 0.3215772205
C  C228  1  0.35310000  0.37500000  0.47810000  1.0 0.3215772205
C  C229  1  0.12500000  0.61120000  0.98620000  1.0 0.0220768924
C  C230  1  0.62500000  0.13880000  0.01380000  1.0 0.0220768924
C  C231  1  0.86120000  0.87500000  0.48620000  1.0 0.0220768924
C  C232  1  0.38880000  0.37500000  0.51380000  1.0 0.0220768924
C  C233  1  0.19440000  0.76020000  0.08480000  1.0 0.2106538055
C  C234  1  0.67540000  0.10960000  0.91520000  1.0 0.2106538055
C  C235  1  0.89040000  0.80560000  0.56580000  1.0 0.2106538055
C  C236  1  0.23980000  0.32460000  0.43420000  1.0 0.2106538055
C  C237  1  0.05560000  0.64040000  0.06580000  1.0 0.2106538055
C  C238  1  0.57460000  0.98980000  0.93420000  1.0 0.2106538055
C  C239  1  0.35960000  0.42540000  0.41520000  1.0 0.2106538055
C  C240  1  0.01020000  0.94440000  0.58480000  1.0 0.2106538055
C  C241  1  0.42040000  0.07390000  0.19890000  1.0 0.402600787
C  C242  1  0.87500000  0.22150000  0.80110000  1.0 0.402600787
C  C243  1  0.77850000  0.57960000  0.65350000  1.0 0.402600787
C  C244  1  0.92610000  0.12500000  0.34650000  1.0 0.402600787
C  C245  1  0.82960000  0.52850000  0.15350000  1.0 0.402600787
C  C246  1  0.37500000  0.67610000  0.84650000  1.0 0.402600787
C  C247  1  0.47150000  0.62500000  0.30110000  1.0 0.402600787
C  C248  1  0.32390000  0.17040000  0.69890000  1.0 0.402600787
C  C249  1  0.30960000  0.93120000  0.19080000  1.0 -0.1000562237
C  C250  1  0.74040000  0.11880000  0.80920000  1.0 -0.1000562237
C  C251  1  0.88120000  0.69040000  0.62160000  1.0 -0.1000562237
C  C252  1  0.06880000  0.25960000  0.37840000  1.0 -0.1000562237
C  C253  1  0.94040000  0.63120000  0.12160000  1.0 -0.1000562237
C  C254  1  0.50960000  0.81880000  0.87840000  1.0 -0.1000562237
C  C255  1  0.36880000  0.49040000  0.30920000  1.0 -0.1000562237
C  C256  1  0.18120000  0.05960000  0.69080000  1.0 -0.1000562237
C  C257  1  0.24750000  0.85290000  0.16240000  1.0 -0.1533862433
C  C258  1  0.69050000  0.08510000  0.83760000  1.0 -0.1533862433
C  C259  1  0.91490000  0.75250000  0.60540000  1.0 -0.1533862433
C  C260  1  0.14710000  0.30950000  0.39460000  1.0 -0.1533862433
C  C261  1  0.00250000  0.66490000  0.10540000  1.0 -0.1533862433
C  C262  1  0.55950000  0.89710000  0.89460000  1.0 -0.1533862433
C  C263  1  0.33510000  0.44050000  0.33760000  1.0 -0.1533862433
C  C264  1  0.10290000  0.99750000  0.66240000  1.0 -0.1533862433
C  C265  1  0.24140000  0.83380000  0.11420000  1.0 0.0220768924
C  C266  1  0.71960000  0.12720000  0.88580000  1.0 0.0220768924
C  C267  1  0.87280000  0.75860000  0.59240000  1.0 0.0220768924
C  C268  1  0.16620000  0.28040000  0.40760000  1.0 0.0220768924
C  C269  1  0.00860000  0.62280000  0.09240000  1.0 0.0220768924
C  C270  1  0.53040000  0.91620000  0.90760000  1.0 0.0220768924
C  C271  1  0.37720000  0.46960000  0.38580000  1.0 0.0220768924
C  C272  1  0.08380000  0.99140000  0.61420000  1.0 0.0220768924
C  C273  1  0.29740000  0.89300000  0.09440000  1.0 -0.0402262616
C  C274  1  0.79860000  0.20300000  0.90560000  1.0 -0.0402262616
C  C275  1  0.79700000  0.70260000  0.59560000  1.0 -0.0402262616
C  C276  1  0.10700000  0.20140000  0.40440000  1.0 -0.0402262616
C  C277  1  0.95260000  0.54700000  0.09560000  1.0 -0.0402262616
C  C278  1  0.45140000  0.85700000  0.90440000  1.0 -0.0402262616
C  C279  1  0.45300000  0.54860000  0.40560000  1.0 -0.0402262616
C  C280  1  0.14300000  0.04740000  0.59440000  1.0 -0.0402262616
C  C281  1  0.35930000  0.97130000  0.12280000  1.0 -0.0203214208
C  C282  1  0.84850000  0.23650000  0.87720000  1.0 -0.0203214208
C  C283  1  0.76350000  0.64070000  0.61200000  1.0 -0.0203214208
C  C284  1  0.02870000  0.15150000  0.38800000  1.0 -0.0203214208
C  C285  1  0.89070000  0.51350000  0.11200000  1.0 -0.0203214208
C  C286  1  0.40150000  0.77870000  0.88800000  1.0 -0.0203214208
C  C287  1  0.48650000  0.59850000  0.37720000  1.0 -0.0203214208
C  C288  1  0.22130000  0.10930000  0.62280000  1.0 -0.0203214208
C  C289  1  0.36540000  0.99040000  0.17100000  1.0 -0.0302962473
C  C290  1  0.81940000  0.19440000  0.82900000  1.0 -0.0302962473
C  C291  1  0.80560000  0.63460000  0.62500000  1.0 -0.0302962473
C  C292  1  0.00960000  0.18060000  0.37500000  1.0 -0.0302962473
C  C293  1  0.88460000  0.55560000  0.12500000  1.0 -0.0302962473
C  C294  1  0.43060000  0.75960000  0.87500000  1.0 -0.0402262616
C  C295  1  0.44440000  0.56940000  0.32900000  1.0 -0.0302962473
C  C296  1  0.24040000  0.11540000  0.67100000  1.0 -0.0302962473
C  C297  1  0.48180000  0.08960000  0.17420000  1.0 0.4288249867
C  C298  1  0.91540000  0.30760000  0.82580000  1.0 0.4288249867
C  C299  1  0.69240000  0.51820000  0.60780000  1.0 0.4288249867
C  C300  1  0.91040000  0.08460000  0.39220000  1.0 0.4288249867
C  C301  1  0.76820000  0.44240000  0.10780000  1.0 0.4288249867
C  C302  1  0.33460000  0.66040000  0.89220000  1.0 0.4288249867
C  C303  1  0.55760000  0.66540000  0.32580000  1.0 0.4288249867
C  C304  1  0.33960000  0.23180000  0.67420000  1.0 0.4288249867
C  C305  1  0.40920000  0.96110000  0.12730000  1.0 -0.1693691338
C  C306  1  0.83380000  0.28190000  0.87270000  1.0 -0.1693691338
C  C307  1  0.71810000  0.59080000  0.55190000  1.0 -0.1693691338
C  C308  1  0.03890000  0.16620000  0.44810000  1.0 -0.1693691338
C  C309  1  0.84080000  0.46810000  0.05190000  1.0 -0.1693691338
C  C310  1  0.41620000  0.78890000  0.94810000  1.0 -0.1693691338
C  C311  1  0.53190000  0.58380000  0.37270000  1.0 -0.1693691338
C  C312  1  0.21110000  0.15920000  0.62730000  1.0 -0.1693691338
C  C313  1  0.34060000  0.88100000  0.10320000  1.0 -0.1428179318
C  C314  1  0.77780000  0.23740000  0.89680000  1.0 -0.1428179318
C  C315  1  0.76260000  0.65940000  0.54040000  1.0 -0.1428179318
C  C316  1  0.11900000  0.22220000  0.45960000  1.0 -0.1428179318
C  C317  1  0.90940000  0.51260000  0.04040000  1.0 -0.1428179318
C  C318  1  0.47220000  0.86900000  0.95960000  1.0 -0.1428179318
C  C319  1  0.48740000  0.52780000  0.39680000  1.0 -0.1428179318
C  C320  1  0.13100000  0.09060000  0.60320000  1.0 -0.1428179318
C  C321  1  0.26820000  0.84180000  0.10180000  1.0 0.0310934562
C  C322  1  0.74000000  0.16640000  0.89820000  1.0 0.0310934562
C  C323  1  0.83360000  0.73180000  0.57360000  1.0 0.0310934562
C  C324  1  0.15820000  0.26000000  0.42640000  1.0 0.0310934562
C  C325  1  0.98180000  0.58360000  0.07360000  1.0 0.0310934562
C  C326  1  0.51000000  0.90820000  0.92640000  1.0 0.0310934562
C  C327  1  0.41640000  0.49000000  0.39820000  1.0 0.0310934562
C  C328  1  0.09180000  0.01820000  0.60180000  1.0 0.0310934562
C  C329  1  0.26420000  0.88270000  0.12450000  1.0 -0.0203214208
C  C330  1  0.75820000  0.13970000  0.87550000  1.0 -0.0203214208
C  C331  1  0.86030000  0.73580000  0.61850000  1.0 -0.0203214208
C  C332  1  0.11730000  0.24180000  0.38150000  1.0 -0.0203214208
C  C333  1  0.98580000  0.61030000  0.11850000  1.0 -0.0203214208
C  C334  1  0.49180000  0.86730000  0.88150000  1.0 -0.0203214208
C  C335  1  0.38970000  0.50820000  0.37550000  1.0 -0.0203214208
C  C336  1  0.13270000  0.01420000  0.62450000  1.0 -0.0203214208
C  C337  1  0.33280000  0.96290000  0.14870000  1.0 -0.0123092034
C  C338  1  0.81420000  0.18410000  0.85130000  1.0 -0.0123092034
C  C339  1  0.81590000  0.66720000  0.63010000  1.0 -0.0123092034
C  C340  1  0.03710000  0.18580000  0.36990000  1.0 -0.0123092034
C  C341  1  0.91720000  0.56590000  0.13010000  1.0 -0.0123092034
C  C342  1  0.43580000  0.78710000  0.86990000  1.0 -0.0123092034
C  C343  1  0.43410000  0.56420000  0.35130000  1.0 -0.0123092034
C  C344  1  0.21290000  0.08280000  0.64870000  1.0 -0.0123092034
C  C345  1  0.40540000  0.00210000  0.15010000  1.0 -0.0302962473
C  C346  1  0.85200000  0.25530000  0.84990000  1.0 -0.0302962473
C  C347  1  0.74470000  0.59460000  0.59670000  1.0 -0.0302962473
C  C348  1  0.99790000  0.14800000  0.40330000  1.0 -0.0302962473
C  C349  1  0.84460000  0.49470000  0.09670000  1.0 -0.0203214208
C  C350  1  0.39800000  0.74790000  0.90330000  1.0 -0.0302962473
C  C351  1  0.50530000  0.60200000  0.34990000  1.0 -0.0302962473
C  C352  1  0.25210000  0.15540000  0.65010000  1.0 -0.0302962473
N  N1  1  0.10130000  0.01070000  0.83920000  1.0 -0.4260882816
N  N2  1  0.17150000  0.26210000  0.16080000  1.0 -0.4260882816
N  N3  1  0.73790000  0.89870000  0.90940000  1.0 -0.4260882816
N  N4  1  0.98930000  0.82850000  0.09060000  1.0 -0.4193366757
N  N5  1  0.14870000  0.48790000  0.40940000  1.0 -0.4193366757
N  N6  1  0.07850000  0.73930000  0.59060000  1.0 -0.4260882816
N  N7  1  0.51210000  0.92150000  0.66080000  1.0 -0.4260882816
N  N8  1  0.26070000  0.85130000  0.33920000  1.0 -0.4260882816
N  N9  1  0.16470000  0.00860000  0.89570000  1.0 -0.411073771
N  N10  1  0.11290000  0.26900000  0.10430000  1.0 -0.411073771
N  N11  1  0.73100000  0.83530000  0.84390000  1.0 -0.411073771
N  N12  1  0.99140000  0.88710000  0.15610000  1.0 -0.411073771
N  N13  1  0.08530000  0.48100000  0.34390000  1.0 -0.411073771
N  N14  1  0.13710000  0.74140000  0.65610000  1.0 -0.411073771
N  N15  1  0.51900000  0.86290000  0.60430000  1.0 -0.411073771
N  N16  1  0.25860000  0.91470000  0.39570000  1.0 -0.411073771
N  N17  1  0.21940000  0.12610000  0.90070000  1.0 -0.411073771
N  N18  1  0.22540000  0.31870000  0.09930000  1.0 -0.411073771
N  N19  1  0.68130000  0.78060000  0.90670000  1.0 -0.411073771
N  N20  1  0.87390000  0.77460000  0.09330000  1.0 -0.411073771
N  N21  1  0.03060000  0.43130000  0.40670000  1.0 -0.411073771
N  N22  1  0.02460000  0.62390000  0.59330000  1.0 -0.411073771
N  N23  1  0.56870000  0.97540000  0.59930000  1.0 -0.411073771
N  N24  1  0.37610000  0.96940000  0.40070000  1.0 -0.411073771
N  N25  1  0.19320000  0.72690000  0.04550000  1.0 -0.4193366757
N  N26  1  0.68140000  0.14770000  0.95450000  1.0 -0.4193366757
N  N27  1  0.85230000  0.80680000  0.53370000  1.0 -0.4193366757
N  N28  1  0.27310000  0.31860000  0.46630000  1.0 -0.4193366757
N  N29  1  0.05680000  0.60230000  0.03370000  1.0 -0.4193366757
N  N30  1  0.56860000  0.02310000  0.96630000  1.0 -0.4193366757
N  N31  1  0.39770000  0.43140000  0.45450000  1.0 -0.4193366757
N  N32  1  0.97690000  0.94320000  0.54550000  1.0 -0.4193366757
N  N33  1  0.12500000  0.71830000  0.09330000  1.0 -0.3392262569
N  N34  1  0.62500000  0.03170000  0.90670000  1.0 -0.3456962536
N  N35  1  0.96830000  0.87500000  0.59330000  1.0 -0.3456962536
N  N36  1  0.28170000  0.37500000  0.40670000  1.0 -0.3456962536
O  O1  1  0.09611000  0.22500000  0.76271000  1.0 -0.5400954342
O  O2  1  0.46229000  0.33340000  0.23729000  1.0 -0.5400954342
O  O3  1  0.66666667  0.90389000  0.12889000  1.0 -0.5400954342
O  O4  1  0.77500000  0.53771000  0.87111000  1.0 -0.5400954342
O  O5  1  0.15389000  0.41660000  0.62889000  1.0 -0.5400954342
O  O6  1  0.78771000  0.52500000  0.37111000  1.0 -0.5400954342
O  O7  1  0.58340000  0.21229000  0.73729000  1.0 -0.5400954342
O  O8  1  0.47500000  0.84611000  0.26271000  1.0 -0.5400954342
O  O9  1  0.20723000  0.33333333  0.82173000  1.0 -0.6220220371
O  O10  1  0.51157000  0.38550000  0.17827000  1.0 -0.6220220371
O  O11  1  0.61450000  0.79277000  0.12607000  1.0 -0.6220220371
O  O12  1  0.66666667  0.48843000  0.87393000  1.0 -0.6220220371
O  O13  1  0.04277000  0.36450000  0.62607000  1.0 -0.6220220371
O  O14  1  0.73843000  0.41670000  0.37393000  1.0 -0.6220220371
O  O15  1  0.63550000  0.26157000  0.67827000  1.0 -0.6220220371
O  O16  1  0.58330000  0.95723000  0.32173000  1.0 -0.6220220371
O  O17  1  0.78430000  0.60490000  0.74480000  1.0 -0.5808269387
O  O18  1  0.86010000  0.03950000  0.25520000  1.0 -0.5808269387
O  O19  1  0.96050000  0.21570000  0.82060000  1.0 -0.5808269387
O  O20  1  0.39510000  0.13990000  0.17940000  1.0 -0.5808269387
O  O21  1  0.46570000  0.71050000  0.32060000  1.0 -0.5808269387
O  O22  1  0.38990000  0.14510000  0.67940000  1.0 -0.5808269387
O  O23  1  0.28950000  0.61010000  0.75520000  1.0 -0.5808269387
O  O24  1  0.85490000  0.53430000  0.24480000  1.0 -0.5808269387
O  O25  1  0.84137000  0.60140000  0.80057000  1.0 -0.6220220371
O  O26  1  0.80083000  0.04080000  0.19943000  1.0 -0.6220220371
O  O27  1  0.95920000  0.15863000  0.76003000  1.0 -0.6220220371
O  O28  1  0.39860000  0.19917000  0.23997000  1.0 -0.6220220371
O  O29  1  0.40863000  0.70920000  0.26003000  1.0 -0.6220220371
O  O30  1  0.44917000  0.14860000  0.73997000  1.0 -0.6220220371
O  O31  1  0.29080000  0.55083000  0.69943000  1.0 -0.6220220371
O  O32  1  0.85140000  0.59137000  0.30057000  1.0 -0.6220220371
O  O33  1  0.46074000  0.20387000  0.10681000  1.0 -0.569274359
O  O34  1  0.09706000  0.35393000  0.89319000  1.0 -0.569274359
O  O35  1  0.64607000  0.53926000  0.74313000  1.0 -0.569274359
O  O36  1  0.79613000  0.90294000  0.25687000  1.0 -0.569274359
O  O37  1  0.78926000  0.39607000  0.24313000  1.0 -0.569274359
O  O38  1  0.15294000  0.54613000  0.75687000  1.0 -0.569274359
O  O39  1  0.60393000  0.84706000  0.39319000  1.0 -0.569274359
O  O40  1  0.45387000  0.21074000  0.60681000  1.0 -0.569274359
O  O41  1  0.51287000  0.31590000  0.10797000  1.0 -0.6263713917
O  O42  1  0.20793000  0.40490000  0.89203000  1.0 -0.6263713917
O  O43  1  0.59510000  0.48713000  0.80303000  1.0 -0.6263713917
O  O44  1  0.68410000  0.79207000  0.19697000  1.0 -0.6263713917
O  O45  1  0.73713000  0.34510000  0.30303000  1.0 -0.6263713917
O  O46  1  0.04207000  0.43410000  0.69697000  1.0 -0.6263713917
O  O47  1  0.65490000  0.95793000  0.39203000  1.0 -0.6263713917
O  O48  1  0.56590000  0.26287000  0.60797000  1.0 -0.6263713917
O  O49  1  0.08180000  0.22850000  0.67070000  1.0 -0.6580261371
O  O50  1  0.55780000  0.41110000  0.32930000  1.0 -0.6580261371
O  O51  1  0.58890000  0.91820000  0.14670000  1.0 -0.6580261371
O  O52  1  0.77150000  0.44220000  0.85330000  1.0 -0.6580261371
O  O53  1  0.16820000  0.33890000  0.64670000  1.0 -0.6580261371
O  O54  1  0.69220000  0.52150000  0.35330000  1.0 -0.6580261371
O  O55  1  0.66110000  0.30780000  0.82930000  1.0 -0.6580261371
O  O56  1  0.47850000  0.83180000  0.17070000  1.0 -0.6580261371
O  O57  1  0.17150000  0.54350000  0.85000000  1.0 -0.6580261371
O  O58  1  0.69350000  0.32150000  0.15000000  1.0 -0.6580261371
O  O59  1  0.67850000  0.82850000  0.37200000  1.0 -0.6580261371
O  O60  1  0.45650000  0.30650000  0.62800000  1.0 -0.6580261371
O  O61  1  0.07850000  0.42850000  0.87200000  1.0 -0.6580261371
O  O62  1  0.55650000  0.20650000  0.12800000  1.0 -0.6580261371
O  O63  1  0.57150000  0.44350000  0.65000000  1.0 -0.6580261371
O  O64  1  0.79350000  0.92150000  0.35000000  1.0 -0.6580261371
O  O65  1  0.07430000  0.32060000  0.68610000  1.0 -1.1788789859
O  O66  1  0.63450000  0.38820000  0.31390000  1.0 -1.1788789859
O  O67  1  0.61180000  0.92570000  0.24630000  1.0 -1.1788789859
O  O68  1  0.67940000  0.36550000  0.75370000  1.0 -1.1788789859
O  O69  1  0.17570000  0.36180000  0.74630000  1.0 -1.1788789859
O  O70  1  0.61550000  0.42940000  0.25370000  1.0 -1.1788789859
O  O71  1  0.63820000  0.38450000  0.81390000  1.0 -1.1788789859
O  O72  1  0.57060000  0.82430000  0.18610000  1.0 -1.1788789859
O  O73  1  0.99850000  0.27690000  0.74420000  1.0 -1.1658402613
O  O74  1  0.53270000  0.25430000  0.25580000  1.0 -1.1658402613
O  O75  1  0.74570000  0.00150000  0.27840000  1.0 -1.1658402613
O  O76  1  0.72310000  0.46730000  0.72160000  1.0 -1.1658402613
O  O77  1  0.25150000  0.49570000  0.77840000  1.0 -1.1658402613
O  O78  1  0.71730000  0.47310000  0.22160000  1.0 -1.1658402613
O  O79  1  0.50430000  0.28270000  0.75580000  1.0 -1.1658402613
O  O80  1  0.52690000  0.74850000  0.24420000  1.0 -1.1643898418
O  O81  1  0.15180000  0.45600000  0.71600000  1.0 -1.1450475386
O  O82  1  0.74000000  0.43580000  0.28400000  1.0 -1.1436016888
O  O83  1  0.56420000  0.84820000  0.30420000  1.0 -1.1436016888
O  O84  1  0.54400000  0.26000000  0.69580000  1.0 -1.1436016888
O  O85  1  0.09820000  0.31420000  0.80420000  1.0 -1.1450475386
O  O86  1  0.51000000  0.29400000  0.19580000  1.0 -1.1436016888
O  O87  1  0.68580000  0.49000000  0.78400000  1.0 -1.1436016888
O  O88  1  0.70600000  0.90180000  0.21600000  1.0 -1.1436016888
O  O89  1  0.17610000  0.45190000  0.83500000  1.0 -1.1034340492
O  O90  1  0.61690000  0.34110000  0.16500000  1.0 -1.1034340492
O  O91  1  0.65890000  0.82390000  0.27580000  1.0 -1.1034340492
O  O92  1  0.54810000  0.38310000  0.72420000  1.0 -1.1034340492
O  O93  1  0.07390000  0.40890000  0.77580000  1.0 -1.1034340492
O  O94  1  0.63310000  0.29810000  0.22420000  1.0 -1.1034340492
O  O95  1  0.59110000  0.36690000  0.66500000  1.0 -1.1034340492
O  O96  1  0.70190000  0.92610000  0.33500000  1.0 -1.1034340492
O  O97  1  0.47260000  0.12460000  0.18080000  1.0 -0.4631091921
O  O98  1  0.94380000  0.29180000  0.81920000  1.0 -0.4631091921
O  O99  1  0.70820000  0.52740000  0.65200000  1.0 -0.4631091921
O  O100  1  0.87540000  0.05620000  0.34800000  1.0 -0.4631091921
O  O101  1  0.77740000  0.45820000  0.15200000  1.0 -0.4631091921
O  O102  1  0.30620000  0.62540000  0.84800000  1.0 -0.4631091921
O  O103  1  0.54180000  0.69380000  0.31920000  1.0 -0.4631091921
O  O104  1  0.37460000  0.22260000  0.68080000  1.0 -0.4631091921
O  O105  1  0.40550000  0.07770000  0.23740000  1.0 -0.3902203484
O  O106  1  0.84030000  0.16810000  0.76260000  1.0 -0.3902203484
O  O107  1  0.83190000  0.59450000  0.67220000  1.0 -0.3902203484
O  O108  1  0.92230000  0.15970000  0.32780000  1.0 -0.3902203484
O  O109  1  0.84450000  0.58190000  0.17220000  1.0 -0.3902203484
O  O110  1  0.40970000  0.67230000  0.82780000  1.0 -0.3902203484
O  O111  1  0.41810000  0.59030000  0.26260000  1.0 -0.3902203484
O  O112  1  0.32770000  0.15550000  0.73740000  1.0 -0.3902203484
O  O113  1  0.54740000  0.12380000  0.18600000  1.0 -0.3818610465
O  O114  1  0.93780000  0.36140000  0.81400000  1.0 -0.3818610465
O  O115  1  0.63860000  0.45260000  0.57640000  1.0 -0.3818610465
O  O116  1  0.87620000  0.06220000  0.42360000  1.0 -0.3818610465
O  O117  1  0.70260000  0.38860000  0.07640000  1.0 -0.3818610465
O  O118  1  0.31220000  0.62620000  0.92360000  1.0 -0.3818610465
O  O119  1  0.61140000  0.68780000  0.31400000  1.0 -0.3818610465
O  O120  1  0.37380000  0.29740000  0.68600000  1.0 -0.3818610465
