# DDEC6 charges by PACMAN v1.1 (https://github.com/mtap-research/PACMAN-charge/)
data_GATQIE_FSR_pacman
_symmetry_space_group_name_H-M   'P 1'
_cell_length_a   29.02780000
_cell_length_b   29.02780000
_cell_length_c   29.02780000
_cell_angle_alpha   95.98860000
_cell_angle_beta   95.98860000
_cell_angle_gamma   142.31100000
_symmetry_Int_Tables_number   1
_chemical_formula_structural   Zr6H35C57(N3O16)2
_chemical_formula_sum   'Zr24 H140 C228 N24 O128'
_cell_volume   14152.19324427
_cell_formula_units_Z   4
loop_
 _symmetry_equiv_pos_site_id
 _symmetry_equiv_pos_as_xyz
  1  'x, y, z'
loop_
 _atom_site_type_symbol
 _atom_site_label
 _atom_site_symmetry_multiplicity
 _atom_site_fract_x
 _atom_site_fract_y
 _atom_site_fract_z
 _atom_site_occupancy
 _atom_site_charge
Zr  Zr1  1  0.07583000  0.89654000  0.80083000  1.0 2.4568579287
Zr  Zr2  1  0.09571000  0.27500000  0.19917000  1.0 2.4568579287
Zr  Zr3  1  0.72500000  0.92417000  0.82071000  1.0 2.4568579287
Zr  Zr4  1  0.10346000  0.90429000  0.17929000  1.0 2.4568579287
Zr  Zr5  1  0.17417000  0.47500000  0.32071000  1.0 2.4568579287
Zr  Zr6  1  0.15429000  0.85346000  0.67929000  1.0 2.4568579287
Zr  Zr7  1  0.52500000  0.84571000  0.69917000  1.0 2.4522544534
Zr  Zr8  1  0.14654000  0.82583000  0.30083000  1.0 2.4568579287
Zr  Zr9  1  0.97985000  0.77107000  0.68102000  1.0 2.4395868868
Zr  Zr10  1  0.09005000  0.29883000  0.31898000  1.0 2.4395868868
Zr  Zr11  1  0.70117000  0.02015000  0.79122000  1.0 2.4395868868
Zr  Zr12  1  0.22893000  0.90995000  0.20878000  1.0 2.4395868868
Zr  Zr13  1  0.27015000  0.45117000  0.29122000  1.0 2.4395868868
Zr  Zr14  1  0.15995000  0.97893000  0.70878000  1.0 2.4395868868
Zr  Zr15  1  0.54883000  0.84005000  0.81898000  1.0 2.4395868868
Zr  Zr16  1  0.02107000  0.72985000  0.18102000  1.0 2.4395868868
Zr  Zr17  1  0.07108000  0.77215000  0.77155000  1.0 2.4522544534
Zr  Zr18  1  0.00060000  0.29953000  0.22845000  1.0 2.4522544534
Zr  Zr19  1  0.70047000  0.92892000  0.70107000  1.0 2.4522544534
Zr  Zr20  1  0.22785000  0.99940000  0.29893000  1.0 2.4522544534
Zr  Zr21  1  0.17892000  0.45047000  0.20107000  1.0 2.4522544534
Zr  Zr22  1  0.24940000  0.97785000  0.79893000  1.0 2.4522544534
Zr  Zr23  1  0.54953000  0.75060000  0.72845000  1.0 2.4522544534
Zr  Zr24  1  0.02215000  0.82108000  0.27155000  1.0 2.4568579287
H  H1  1  0.39068000  0.15407000  0.94591000  1.0 0.179515125
H  H2  1  0.20816000  0.44477000  0.05409000  1.0 0.179515125
H  H3  1  0.55523000  0.60932000  0.76339000  1.0 0.179515125
H  H4  1  0.84593000  0.79184000  0.23661000  1.0 0.179515125
H  H5  1  0.85932000  0.30523000  0.26339000  1.0 0.179515125
H  H6  1  0.04184000  0.59593000  0.73661000  1.0 0.179515125
H  H7  1  0.69477000  0.95816000  0.55409000  1.0 0.179515125
H  H8  1  0.40407000  0.14068000  0.44591000  1.0 0.179515125
H  H9  1  0.45906000  0.25119000  0.01583000  1.0 0.1305292983
H  H10  1  0.23536000  0.44323000  0.98417000  1.0 0.1305292983
H  H11  1  0.55677000  0.54094000  0.79213000  1.0 0.1305292983
H  H12  1  0.74881000  0.76464000  0.20787000  1.0 0.1305292983
H  H13  1  0.79094000  0.30677000  0.29213000  1.0 0.1305292983
H  H14  1  0.01464000  0.49881000  0.70787000  1.0 0.1305292983
H  H15  1  0.69323000  0.98536000  0.48417000  1.0 0.1305292983
H  H16  1  0.50119000  0.20906000  0.51583000  1.0 0.1305292983
H  H17  1  0.25684000  0.14502000  0.02790000  1.0 0.1305292983
H  H18  1  0.11713000  0.22895000  0.97210000  1.0 0.1305292983
H  H19  1  0.77106000  0.74316000  0.88818000  1.0 0.1305292983
H  H20  1  0.85497000  0.88287000  0.11182000  1.0 0.1305292983
H  H21  1  0.99315000  0.52106000  0.38818000  1.0 0.1305292983
H  H22  1  0.13287000  0.60498000  0.61182000  1.0 0.1305292983
H  H23  1  0.47894000  0.86713000  0.47210000  1.0 0.1305292983
H  H24  1  0.39503000  0.00685000  0.52790000  1.0 0.1305292983
H  H25  1  0.19160000  0.05861000  0.94885000  1.0 0.1305292983
H  H26  1  0.10976000  0.24275000  0.05115000  1.0 0.1305292983
H  H27  1  0.75725000  0.80840000  0.86701000  1.0 0.1305292983
H  H28  1  0.94139000  0.89024000  0.13299000  1.0 0.1305292983
H  H29  1  0.05840000  0.50725000  0.36701000  1.0 0.1305292983
H  H30  1  0.14024000  0.69139000  0.63299000  1.0 0.1305292983
H  H31  1  0.49275000  0.85976000  0.55115000  1.0 0.1305292983
H  H32  1  0.30861000  0.94160000  0.44885000  1.0 0.1305292983
H  H33  1  0.20211000  0.23687000  0.14580000  1.0 0.1305292983
H  H34  1  0.09107000  0.05631000  0.85420000  1.0 0.1305292983
H  H35  1  0.94369000  0.79789000  0.03476000  1.0 0.1305292983
H  H36  1  0.76313000  0.90893000  0.96524000  1.0 0.1305292983
H  H37  1  0.04789000  0.69369000  0.53476000  1.0 0.1305292983
H  H38  1  0.15893000  0.51313000  0.46524000  1.0 0.1305292983
H  H39  1  0.30631000  0.84107000  0.35420000  1.0 0.1305292983
H  H40  1  0.48687000  0.95211000  0.64580000  1.0 0.1305292983
H  H41  1  0.27469000  0.24586000  0.10819000  1.0 0.1393074041
H  H42  1  0.13768000  0.16650000  0.89182000  1.0 0.1393074041
H  H43  1  0.83350000  0.72532000  0.97118000  1.0 0.1393074041
H  H44  1  0.75414000  0.86233000  0.02882000  1.0 0.1393074041
H  H45  1  0.97532000  0.58350000  0.47118000  1.0 0.1393074041
H  H46  1  0.11233000  0.50414000  0.52882000  1.0 0.1393074041
H  H47  1  0.41650000  0.88768000  0.39182000  1.0 0.1393074041
H  H48  1  0.49586000  0.02468000  0.60818000  1.0 0.1393074041
H  H49  1  0.46338000  0.42521000  0.21771000  1.0 0.1305292983
H  H50  1  0.20750000  0.24567000  0.78229000  1.0 0.1305292983
H  H51  1  0.75433000  0.53662000  0.96183000  1.0 0.1305292983
H  H52  1  0.57479000  0.79250000  0.03817000  1.0 0.1305292983
H  H53  1  0.78662000  0.50433000  0.46183000  1.0 0.1305292983
H  H54  1  0.04250000  0.32479000  0.53817000  1.0 0.1305292983
H  H55  1  0.49567000  0.95750000  0.28229000  1.0 0.1305292983
H  H56  1  0.67521000  0.21338000  0.71771000  1.0 0.1305292983
H  H57  1  0.40365000  0.43657000  0.24786000  1.0 0.1477047538
H  H58  1  0.18871000  0.15579000  0.75214000  1.0 0.1477047538
H  H59  1  0.84421000  0.59635000  0.03292000  1.0 0.1477047538
H  H60  1  0.56343000  0.81129000  0.96708000  1.0 0.1477047538
H  H61  1  0.84635000  0.59421000  0.53292000  1.0 0.1477047538
H  H62  1  0.06129000  0.31343000  0.46708000  1.0 0.1477047538
H  H63  1  0.40579000  0.93871000  0.25214000  1.0 0.1477047538
H  H64  1  0.68657000  0.15365000  0.74786000  1.0 0.1477047538
H  H65  1  0.75630000  0.50536000  0.12922000  1.0 0.1477047538
H  H66  1  0.37614000  0.62708000  0.87078000  1.0 0.1477047538
H  H67  1  0.37292000  0.24370000  0.74906000  1.0 0.1477047538
H  H68  1  0.49464000  0.62386000  0.25094000  1.0 0.1477047538
H  H69  1  0.49370000  0.12292000  0.24906000  1.0 0.1477047538
H  H70  1  0.87386000  0.24464000  0.75094000  1.0 0.1477047538
H  H71  1  0.87708000  0.12614000  0.37078000  1.0 0.1477047538
H  H72  1  0.75536000  0.50630000  0.62922000  1.0 0.1477047538
H  H73  1  0.62472000  0.40429000  0.10335000  1.0 0.1393074041
H  H74  1  0.30094000  0.52137000  0.89665000  1.0 0.1393074041
H  H75  1  0.47863000  0.37528000  0.77957000  1.0 0.1393074041
H  H76  1  0.59571000  0.69906000  0.22043000  1.0 0.1393074041
H  H77  1  0.62528000  0.22863000  0.27957000  1.0 0.1393074041
H  H78  1  0.94906000  0.34571000  0.72043000  1.0 0.1393074041
H  H79  1  0.77137000  0.05094000  0.39665000  1.0 0.1393074041
H  H80  1  0.65429000  0.37472000  0.60335000  1.0 0.1393074041
H  H81  1  0.61950000  0.49752000  0.20958000  1.0 0.1305292983
H  H82  1  0.28794000  0.40992000  0.79042000  1.0 0.1305292983
H  H83  1  0.59008000  0.38050000  0.87802000  1.0 0.1305292983
H  H84  1  0.50248000  0.71206000  0.12198000  1.0 0.1305292983
H  H85  1  0.63050000  0.34008000  0.37802000  1.0 0.1305292983
H  H86  1  0.96206000  0.25248000  0.62198000  1.0 0.1305292983
H  H87  1  0.65992000  0.03794000  0.29042000  1.0 0.1305292983
H  H88  1  0.74752000  0.36950000  0.70958000  1.0 0.1305292983
H  H89  1  0.76239000  0.61202000  0.23499000  1.0 0.1393074041
H  H90  1  0.37703000  0.52740000  0.76501000  1.0 0.1393074041
H  H91  1  0.47260000  0.23761000  0.84963000  1.0 0.1393074041
H  H92  1  0.38798000  0.62297000  0.15037000  1.0 0.1393074041
H  H93  1  0.48761000  0.22260000  0.34963000  1.0 0.1393074041
H  H94  1  0.87297000  0.13798000  0.65037000  1.0 0.1393074041
H  H95  1  0.77740000  0.12703000  0.26501000  1.0 0.1393074041
H  H96  1  0.86202000  0.51239000  0.73499000  1.0 0.1393074041
H  H97  1  0.85719000  0.75847000  0.57340000  1.0 0.1393074041
H  H98  1  0.18507000  0.28379000  0.42660000  1.0 0.1393074041
H  H99  1  0.71621000  0.14281000  0.90128000  1.0 0.1477047538
H  H100  1  0.24153000  0.81493000  0.09872000  1.0 0.1477047538
H  H101  1  0.39281000  0.46621000  0.40128000  1.0 0.1477047538
H  H102  1  0.06493000  0.99153000  0.59872000  1.0 0.1393074041
H  H103  1  0.53379000  0.93507000  0.92660000  1.0 0.1393074041
H  H104  1  0.00847000  0.60719000  0.07340000  1.0 0.1393074041
H  H105  1  0.79745000  0.75849000  0.51368000  1.0 0.1393074041
H  H106  1  0.24481000  0.28377000  0.48632000  1.0 0.1393074041
H  H107  1  0.71623000  0.20255000  0.96104000  1.0 0.1393074041
H  H108  1  0.24151000  0.75519000  0.03896000  1.0 0.1393074041
H  H109  1  0.45255000  0.46623000  0.46104000  1.0 0.1393074041
H  H110  1  0.00519000  0.99151000  0.53896000  1.0 0.1393074041
H  H111  1  0.53377000  0.99481000  0.98632000  1.0 0.1393074041
H  H112  1  0.00849000  0.54745000  0.01368000  1.0 0.1393074041
H  H113  1  0.87136000  0.87500000  0.49636000  1.0 0.1305292983
H  H114  1  0.37864000  0.37500000  0.50364000  1.0 0.1305292983
H  H115  1  0.62500000  0.12864000  0.00364000  1.0 0.1305292983
H  H116  1  0.12500000  0.62136000  0.99636000  1.0 0.1305292983
H  H117  1  0.32242000  0.92829000  0.90977000  1.0 0.1191391088
H  H118  1  0.01852000  0.41266000  0.09024000  1.0 0.1191391088
H  H119  1  0.58735000  0.67758000  0.60586000  1.0 0.1191391088
H  H120  1  0.07172000  0.98148000  0.39414000  1.0 0.1191391088
H  H121  1  0.92758000  0.33735000  0.10587000  1.0 0.1305292983
H  H122  1  0.23148000  0.82172000  0.89414000  1.0 0.1191391088
H  H123  1  0.66266000  0.76852000  0.59023000  1.0 0.1191391088
H  H124  1  0.17829000  0.07242000  0.40977000  1.0 0.1191391088
H  H125  1  0.26824000  0.84338000  0.87904000  1.0 0.1191391088
H  H126  1  0.96434000  0.38920000  0.12096000  1.0 0.1191391088
H  H127  1  0.61080000  0.73176000  0.57514000  1.0 0.1191391088
H  H128  1  0.15662000  0.03566000  0.42486000  1.0 0.1191391088
H  H129  1  0.98176000  0.36080000  0.07514000  1.0 0.1191391088
H  H130  1  0.28566000  0.90662000  0.92486000  1.0 0.1191391088
H  H131  1  0.63920000  0.71434000  0.62096000  1.0 0.1191391088
H  H132  1  0.09338000  0.01824000  0.37904000  1.0 0.1191391088
H  H133  1  0.24019000  0.85334000  0.91705000  1.0 0.1125498529
H  H134  1  0.93629000  0.32314000  0.08295000  1.0 0.1191391088
H  H135  1  0.67686000  0.75981000  0.61315000  1.0 0.1125498529
H  H136  1  0.14666000  0.06371000  0.38685000  1.0 0.1125498529
H  H137  1  0.00981000  0.42686000  0.11315000  1.0 0.1191391088
H  H138  1  0.31371000  0.89666000  0.88685000  1.0 0.1125498529
H  H139  1  0.57314000  0.68629000  0.58295000  1.0 0.1125498529
H  H140  1  0.10334000  0.99019000  0.41705000  1.0 0.1125498529
C  C1  1  0.23730000  0.03380000  0.89070000  1.0 0.5879279391
C  C2  1  0.14310000  0.34660000  0.10930000  1.0 0.5879279391
C  C3  1  0.65340000  0.76270000  0.79650000  1.0 0.5879279391
C  C4  1  0.96620000  0.85690000  0.20350000  1.0 0.5879279391
C  C5  1  0.01270000  0.40340000  0.29650000  1.0 0.5879279391
C  C6  1  0.10690000  0.71620000  0.70350000  1.0 0.5879279391
C  C7  1  0.59660000  0.89310000  0.60930000  1.0 0.5879279391
C  C8  1  0.28380000  0.98730000  0.39070000  1.0 0.5879279391
C  C9  1  0.28480000  0.09750000  0.93950000  1.0 -0.0040592852
C  C10  1  0.15800000  0.34530000  0.06050000  1.0 -0.0040592852
C  C11  1  0.65470000  0.71520000  0.81270000  1.0 -0.0040592852
C  C12  1  0.90250000  0.84200000  0.18730000  1.0 -0.0040592852
C  C13  1  0.96520000  0.40470000  0.31270000  1.0 -0.0040592852
C  C14  1  0.09200000  0.65250000  0.68730000  1.0 -0.0114042032
C  C15  1  0.59530000  0.90800000  0.56050000  1.0 -0.0040592852
C  C16  1  0.34750000  0.03480000  0.43950000  1.0 -0.0114042032
C  C17  1  0.36410000  0.15430000  0.96100000  1.0 -0.0671908467
C  C18  1  0.19330000  0.40310000  0.03900000  1.0 -0.0671908467
C  C19  1  0.59690000  0.63590000  0.79020000  1.0 -0.0671908467
C  C20  1  0.84570000  0.80670000  0.20980000  1.0 -0.0671908467
C  C21  1  0.88590000  0.34690000  0.29020000  1.0 -0.0671908467
C  C22  1  0.05670000  0.59570000  0.70980000  1.0 -0.0671908467
C  C23  1  0.65310000  0.94330000  0.53900000  1.0 -0.0671908467
C  C24  1  0.40430000  0.11410000  0.46100000  1.0 -0.0671908467
C  C25  1  0.40450000  0.21070000  0.00380000  1.0 -0.0924274158
C  C26  1  0.20690000  0.40070000  0.99620000  1.0 -0.0924274158
C  C27  1  0.59930000  0.59550000  0.80620000  1.0 -0.0924274158
C  C28  1  0.78930000  0.79310000  0.19380000  1.0 -0.0924274158
C  C29  1  0.84550000  0.34930000  0.30620000  1.0 -0.0924274158
C  C30  1  0.04310000  0.53930000  0.69380000  1.0 -0.0924274158
C  C31  1  0.65070000  0.95690000  0.49620000  1.0 -0.0924274158
C  C32  1  0.46070000  0.15450000  0.50380000  1.0 -0.0924274158
C  C33  1  0.36740000  0.20940000  0.02920000  1.0 0.0046156425
C  C34  1  0.18020000  0.33820000  0.97080000  1.0 0.0046156425
C  C35  1  0.66180000  0.63260000  0.84200000  1.0 0.0046156425
C  C36  1  0.79060000  0.81980000  0.15800000  1.0 0.0046156425
C  C37  1  0.88260000  0.41180000  0.34200000  1.0 0.0046156425
C  C38  1  0.06980000  0.54060000  0.65800000  1.0 0.0046156425
C  C39  1  0.58820000  0.93020000  0.47080000  1.0 0.0046156425
C  C40  1  0.45940000  0.11740000  0.52920000  1.0 0.0046156425
C  C41  1  0.28420000  0.14890000  0.01010000  1.0 -0.0970270051
C  C42  1  0.13880000  0.27410000  0.98990000  1.0 -0.0970270051
C  C43  1  0.72590000  0.71580000  0.86470000  1.0 -0.0970270051
C  C44  1  0.85110000  0.86120000  0.13530000  1.0 -0.0970270051
C  C45  1  0.96580000  0.47590000  0.36470000  1.0 -0.0970270051
C  C46  1  0.11120000  0.60110000  0.63530000  1.0 -0.0970270051
C  C47  1  0.52410000  0.88880000  0.48990000  1.0 -0.0970270051
C  C48  1  0.39890000  0.03420000  0.51010000  1.0 -0.0970270051
C  C49  1  0.24480000  0.09550000  0.96350000  1.0 -0.0924274158
C  C50  1  0.13200000  0.28130000  0.03650000  1.0 -0.0924274158
C  C51  1  0.71870000  0.75520000  0.85070000  1.0 -0.0924274158
C  C52  1  0.90450000  0.86800000  0.14930000  1.0 -0.0924274158
C  C53  1  0.00520000  0.46870000  0.35070000  1.0 -0.0970270051
C  C54  1  0.11800000  0.65450000  0.64930000  1.0 -0.0924274158
C  C55  1  0.53130000  0.88200000  0.53650000  1.0 -0.0924274158
C  C56  1  0.34550000  0.99480000  0.46350000  1.0 -0.0970270051
C  C57  1  0.25590000  0.34500000  0.21850000  1.0 0.6275577337
C  C58  1  0.12650000  0.03740000  0.78150000  1.0 0.6275577337
C  C59  1  0.96260000  0.74410000  0.08910000  1.0 0.6275577337
C  C60  1  0.65500000  0.87350000  0.91090000  1.0 0.6275577337
C  C61  1  0.99410000  0.71260000  0.58910000  1.0 0.6275577337
C  C62  1  0.12350000  0.40500000  0.41090000  1.0 0.6275577337
C  C63  1  0.28740000  0.87650000  0.28150000  1.0 0.6275577337
C  C64  1  0.59500000  0.00590000  0.71850000  1.0 0.6275577337
C  C65  1  0.29460000  0.33930000  0.19970000  1.0 -0.0796039871
C  C66  1  0.13960000  0.09490000  0.80030000  1.0 -0.0796039871
C  C67  1  0.90510000  0.70540000  0.04470000  1.0 -0.0796039871
C  C68  1  0.66070000  0.86040000  0.95530000  1.0 -0.0796039871
C  C69  1  0.95540000  0.65510000  0.54470000  1.0 -0.0796039871
C  C70  1  0.11040000  0.41070000  0.45530000  1.0 -0.0796039871
C  C71  1  0.34490000  0.88960000  0.30030000  1.0 -0.0796039871
C  C72  1  0.58930000  0.04460000  0.69970000  1.0 -0.0796039871
C  C73  1  0.25670000  0.27900000  0.15950000  1.0 -0.0532063686
C  C74  1  0.11950000  0.09720000  0.84050000  1.0 -0.0532063686
C  C75  1  0.90280000  0.74330000  0.02230000  1.0 -0.0532063686
C  C76  1  0.72100000  0.88050000  0.97770000  1.0 -0.0532063686
C  C77  1  0.99330000  0.65280000  0.52230000  1.0 -0.0532063686
C  C78  1  0.13050000  0.47100000  0.47770000  1.0 -0.0532063686
C  C79  1  0.34720000  0.86950000  0.34050000  1.0 -0.0532063686
C  C80  1  0.52900000  0.00670000  0.65950000  1.0 -0.0532063686
C  C81  1  0.29920000  0.28050000  0.13910000  1.0 -0.0970270051
C  C82  1  0.14140000  0.16010000  0.86090000  1.0 -0.0924274158
C  C83  1  0.83990000  0.70080000  0.98130000  1.0 -0.0924274158
C  C84  1  0.71950000  0.85860000  0.01870000  1.0 -0.0970270051
C  C85  1  0.95080000  0.58990000  0.48130000  1.0 -0.0970270051
C  C86  1  0.10860000  0.46950000  0.51870000  1.0 -0.0970270051
C  C87  1  0.41010000  0.89140000  0.36090000  1.0 -0.0924274158
C  C88  1  0.53050000  0.04920000  0.63910000  1.0 -0.0970270051
C  C89  1  0.37020000  0.32760000  0.16120000  1.0 0.044552409
C  C90  1  0.16640000  0.20900000  0.83880000  1.0 0.044552409
C  C91  1  0.79100000  0.62980000  0.95740000  1.0 0.0482119172
C  C92  1  0.67240000  0.83360000  0.04260000  1.0 0.0482119172
C  C93  1  0.87980000  0.54100000  0.45740000  1.0 0.044552409
C  C94  1  0.08360000  0.42240000  0.54260000  1.0 0.044552409
C  C95  1  0.45900000  0.91640000  0.33880000  1.0 0.0482119172
C  C96  1  0.57760000  0.12020000  0.66120000  1.0 0.044552409
C  C97  1  0.41030000  0.38800000  0.20230000  1.0 -0.1250004976
C  C98  1  0.18570000  0.20800000  0.79770000  1.0 -0.1241685658
C  C99  1  0.79200000  0.58970000  0.97770000  1.0 -0.1241685658
C  C100  1  0.61200000  0.81430000  0.02230000  1.0 -0.1250004976
C  C101  1  0.83970000  0.54200000  0.47770000  1.0 -0.1250004976
C  C102  1  0.06430000  0.36200000  0.52230000  1.0 -0.1241685658
C  C103  1  0.45800000  0.93570000  0.29770000  1.0 -0.1250004976
C  C104  1  0.63800000  0.16030000  0.70230000  1.0 -0.1250004976
C  C105  1  0.37440000  0.39430000  0.22050000  1.0 -0.0671908467
C  C106  1  0.17380000  0.15390000  0.77950000  1.0 -0.0671908467
C  C107  1  0.84610000  0.62560000  0.01990000  1.0 -0.0671908467
C  C108  1  0.60570000  0.82620000  0.98010000  1.0 -0.0671908467
C  C109  1  0.87560000  0.59610000  0.51990000  1.0 -0.0671908467
C  C110  1  0.07620000  0.35570000  0.48010000  1.0 -0.0671908467
C  C111  1  0.40390000  0.92380000  0.27950000  1.0 -0.0671908467
C  C112  1  0.64430000  0.12440000  0.72050000  1.0 -0.0671908467
C  C113  1  0.86430000  0.64270000  0.20220000  1.0 0.6443603129
C  C114  1  0.44050000  0.66210000  0.79780000  1.0 0.6443603129
C  C115  1  0.33790000  0.13570000  0.77840000  1.0 0.6443603129
C  C116  1  0.35730000  0.55950000  0.22160000  1.0 0.6443603129
C  C117  1  0.38570000  0.08790000  0.27840000  1.0 0.6443603129
C  C118  1  0.80950000  0.10730000  0.72160000  1.0 0.6443603129
C  C119  1  0.91210000  0.19050000  0.29780000  1.0 0.6443603129
C  C120  1  0.89270000  0.61430000  0.70220000  1.0 0.6443603129
C  C121  1  0.77610000  0.57210000  0.18700000  1.0 -0.028810818
C  C122  1  0.38510000  0.58910000  0.81300000  1.0 -0.028810818
C  C123  1  0.41090000  0.22390000  0.79600000  1.0 -0.028810818
C  C124  1  0.42790000  0.61490000  0.20400000  1.0 -0.028810818
C  C125  1  0.47390000  0.16090000  0.29600000  1.0 -0.028810818
C  C126  1  0.86490000  0.17790000  0.70400000  1.0 -0.028810818
C  C127  1  0.83910000  0.13510000  0.31300000  1.0 -0.028810818
C  C128  1  0.82210000  0.52610000  0.68700000  1.0 -0.028810818
C  C129  1  0.73080000  0.50610000  0.14550000  1.0 -0.0796039871
C  C130  1  0.36060000  0.58530000  0.85450000  1.0 -0.0796039871
C  C131  1  0.41470000  0.26920000  0.77530000  1.0 -0.0796039871
C  C132  1  0.49390000  0.63940000  0.22470000  1.0 -0.0796039871
C  C133  1  0.51920000  0.16470000  0.27530000  1.0 -0.0796039871
C  C134  1  0.88940000  0.24390000  0.72470000  1.0 -0.0796039871
C  C135  1  0.83530000  0.11060000  0.35450000  1.0 -0.0796039871
C  C136  1  0.75610000  0.48080000  0.64550000  1.0 -0.0796039871
C  C137  1  0.65300000  0.44640000  0.13040000  1.0 -0.0970270051
C  C138  1  0.31600000  0.52260000  0.86960000  1.0 -0.0970270051
C  C139  1  0.47740000  0.34700000  0.79340000  1.0 -0.0970270051
C  C140  1  0.55360000  0.68400000  0.20660000  1.0 -0.0970270051
C  C141  1  0.59700000  0.22740000  0.29340000  1.0 -0.0970270051
C  C142  1  0.93400000  0.30360000  0.70660000  1.0 -0.0970270051
C  C143  1  0.77260000  0.06600000  0.36960000  1.0 -0.0970270051
C  C144  1  0.69640000  0.40300000  0.63040000  1.0 -0.0970270051
C  C145  1  0.61020000  0.44370000  0.15410000  1.0 0.0482119172
C  C146  1  0.28960000  0.45610000  0.84590000  1.0 0.0482119172
C  C147  1  0.54390000  0.38980000  0.83350000  1.0 0.0482119172
C  C148  1  0.55630000  0.71040000  0.16650000  1.0 0.0482119172
C  C149  1  0.63980000  0.29390000  0.33350000  1.0 0.0482119172
C  C150  1  0.96040000  0.30630000  0.66650000  1.0 0.0482119172
C  C151  1  0.70610000  0.03960000  0.34590000  1.0 0.0482119172
C  C152  1  0.69370000  0.36020000  0.65410000  1.0 0.0482119172
C  C153  1  0.64680000  0.50020000  0.19280000  1.0 -0.0924274158
C  C154  1  0.30740000  0.45400000  0.80720000  1.0 -0.0924274158
C  C155  1  0.54600000  0.35320000  0.85340000  1.0 -0.0924274158
C  C156  1  0.49980000  0.69260000  0.14660000  1.0 -0.0924274158
C  C157  1  0.60320000  0.29600000  0.35340000  1.0 -0.0924274158
C  C158  1  0.94260000  0.24980000  0.64660000  1.0 -0.0924274158
C  C159  1  0.70400000  0.05740000  0.30720000  1.0 -0.0924274158
C  C160  1  0.75020000  0.39680000  0.69280000  1.0 -0.0924274158
C  C161  1  0.73440000  0.56900000  0.20880000  1.0 -0.0796039871
C  C162  1  0.36020000  0.52560000  0.79120000  1.0 -0.0796039871
C  C163  1  0.47440000  0.26560000  0.83460000  1.0 -0.0796039871
C  C164  1  0.43100000  0.63980000  0.16540000  1.0 -0.0796039871
C  C165  1  0.51560000  0.22440000  0.33460000  1.0 -0.0796039871
C  C166  1  0.88980000  0.18100000  0.66540000  1.0 -0.0796039871
C  C167  1  0.77560000  0.11020000  0.29120000  1.0 -0.0796039871
C  C168  1  0.81900000  0.48440000  0.70880000  1.0 -0.0796039871
C  C169  1  0.52290000  0.37820000  0.13410000  1.0 0.3911461709
C  C170  1  0.24410000  0.38880000  0.86590000  1.0 0.3911461709
C  C171  1  0.61120000  0.47710000  0.85530000  1.0 0.3911461709
C  C172  1  0.62180000  0.75590000  0.14470000  1.0 0.3911461709
C  C173  1  0.72710000  0.36120000  0.35530000  1.0 0.3911461709
C  C174  1  0.00590000  0.37180000  0.64470000  1.0 0.3911461709
C  C175  1  0.63880000  0.99410000  0.36590000  1.0 0.3911461709
C  C176  1  0.62820000  0.27290000  0.63410000  1.0 0.3911461709
C  C177  1  0.41840000  0.33260000  0.13760000  1.0 0.3911461709
C  C178  1  0.19500000  0.28080000  0.86240000  1.0 0.3911461709
C  C179  1  0.71920000  0.58160000  0.91420000  1.0 0.3911461709
C  C180  1  0.66740000  0.80500000  0.08580000  1.0 0.3911461709
C  C181  1  0.83160000  0.46920000  0.41420000  1.0 0.3911461709
C  C182  1  0.05500000  0.41740000  0.58580000  1.0 0.3911461709
C  C183  1  0.53080000  0.94500000  0.36240000  1.0 0.3911461709
C  C184  1  0.58260000  0.16840000  0.63760000  1.0 0.3911461709
C  C185  1  0.40520000  0.26440000  0.07520000  1.0 0.3911461709
C  C186  1  0.18920000  0.33000000  0.92480000  1.0 0.3911461709
C  C187  1  0.67000000  0.59480000  0.85920000  1.0 0.3911461709
C  C188  1  0.73560000  0.81080000  0.14080000  1.0 0.3911461709
C  C189  1  0.84480000  0.42000000  0.35920000  1.0 0.3911461709
C  C190  1  0.06080000  0.48560000  0.64080000  1.0 0.3911461709
C  C191  1  0.58000000  0.93920000  0.42480000  1.0 0.3911461709
C  C192  1  0.51440000  0.15520000  0.57520000  1.0 0.3911461709
C  C193  1  0.23140000  0.87500000  0.85640000  1.0 0.657405311
C  C194  1  0.01860000  0.37500000  0.14360000  1.0 0.657405311
C  C195  1  0.62500000  0.76860000  0.64360000  1.0 0.657405311
C  C196  1  0.12500000  0.98140000  0.35640000  1.0 0.657405311
C  C197  1  0.26870000  0.87500000  0.89370000  1.0 -0.3806578824
C  C198  1  0.98130000  0.37500000  0.10630000  1.0 -0.393653344
C  C199  1  0.62500000  0.73130000  0.60630000  1.0 -0.3806578824
C  C200  1  0.12500000  0.01870000  0.39370000  1.0 -0.3806578824
C  C201  1  0.00590000  0.87500000  0.63090000  1.0 0.5958171875
C  C202  1  0.24410000  0.37500000  0.36910000  1.0 0.5958171875
C  C203  1  0.62500000  0.99410000  0.86910000  1.0 0.5958171875
C  C204  1  0.12500000  0.75590000  0.13090000  1.0 0.5958171875
C  C205  1  0.96710000  0.87500000  0.59210000  1.0 -0.0218521499
C  C206  1  0.28290000  0.37500000  0.40790000  1.0 -0.0218521499
C  C207  1  0.62500000  0.03290000  0.90790000  1.0 -0.0218521499
C  C208  1  0.12500000  0.71710000  0.09210000  1.0 -0.0218521499
C  C209  1  0.88707000  0.80505000  0.56622000  1.0 -0.1064886472
C  C210  1  0.23883000  0.32085000  0.43378000  1.0 -0.1064886472
C  C211  1  0.67915000  0.11293000  0.91798000  1.0 -0.1064886472
C  C212  1  0.19495000  0.76117000  0.08202000  1.0 -0.1064886472
C  C213  1  0.36293000  0.42915000  0.41798000  1.0 -0.1064886472
C  C214  1  0.01117000  0.94495000  0.58202000  1.0 -0.1064886472
C  C215  1  0.57085000  0.98883000  0.93378000  1.0 -0.1064886472
C  C216  1  0.05505000  0.63707000  0.06622000  1.0 -0.1064886472
C  C217  1  0.85122000  0.80505000  0.53037000  1.0 -0.0114042032
C  C218  1  0.27468000  0.32085000  0.46963000  1.0 -0.0114042032
C  C219  1  0.67915000  0.14878000  0.95383000  1.0 -0.0114042032
C  C220  1  0.19495000  0.72532000  0.04617000  1.0 -0.0114042032
C  C221  1  0.39878000  0.42915000  0.45383000  1.0 -0.0114042032
C  C222  1  0.97532000  0.94495000  0.54617000  1.0 -0.0114042032
C  C223  1  0.57085000  0.02468000  0.96963000  1.0 -0.0114042032
C  C224  1  0.05505000  0.60122000  0.03037000  1.0 -0.0114042032
C  C225  1  0.89529000  0.87500000  0.52029000  1.0 -0.0796039871
C  C226  1  0.35471000  0.37500000  0.47971000  1.0 -0.0796039871
C  C227  1  0.62500000  0.10471000  0.97971000  1.0 -0.0796039871
C  C228  1  0.12500000  0.64529000  0.02029000  1.0 -0.0796039871
N  N1  1  0.48670000  0.32400000  0.09170000  1.0 -0.4094724639
N  N2  1  0.23230000  0.39500000  0.90830000  1.0 -0.4094724639
N  N3  1  0.60500000  0.51330000  0.83730000  1.0 -0.4094724639
N  N4  1  0.67600000  0.76770000  0.16270000  1.0 -0.4094724639
N  N5  1  0.76330000  0.35500000  0.33730000  1.0 -0.4094724639
N  N6  1  0.01770000  0.42600000  0.66270000  1.0 -0.4094724639
N  N7  1  0.64500000  0.98230000  0.40830000  1.0 -0.4094724639
N  N8  1  0.57400000  0.23670000  0.59170000  1.0 -0.4094724639
N  N9  1  0.37150000  0.26940000  0.09570000  1.0 -0.393653344
N  N10  1  0.17370000  0.27580000  0.90430000  1.0 -0.393653344
N  N11  1  0.72420000  0.62850000  0.89790000  1.0 -0.393653344
N  N12  1  0.73060000  0.82630000  0.10210000  1.0 -0.393653344
N  N13  1  0.87850000  0.47420000  0.39790000  1.0 -0.393653344
N  N14  1  0.07630000  0.48060000  0.60210000  1.0 -0.393653344
N  N15  1  0.52580000  0.92370000  0.40430000  1.0 -0.393653344
N  N16  1  0.51940000  0.12150000  0.59570000  1.0 -0.393653344
N  N17  1  0.49180000  0.38610000  0.15790000  1.0 -0.3659132331
N  N18  1  0.22820000  0.33390000  0.84210000  1.0 -0.3659132331
N  N19  1  0.66610000  0.50820000  0.89430000  1.0 -0.3659132331
N  N20  1  0.61390000  0.77180000  0.10570000  1.0 -0.3659132331
N  N21  1  0.75820000  0.41610000  0.39430000  1.0 -0.3659132331
N  N22  1  0.02180000  0.36390000  0.60570000  1.0 -0.3659132331
N  N23  1  0.58390000  0.97820000  0.34210000  1.0 -0.3659132331
N  N24  1  0.63610000  0.24180000  0.65790000  1.0 -0.3659132331
O  O1  1  0.16590000  0.98730000  0.87360000  1.0 -0.5801955802
O  O2  1  0.11370000  0.29230000  0.12640000  1.0 -0.5801955802
O  O3  1  0.70770000  0.83410000  0.82140000  1.0 -0.5801955802
O  O4  1  0.01270000  0.88630000  0.17860000  1.0 -0.5801955802
O  O5  1  0.08410000  0.45770000  0.32140000  1.0 -0.5801955802
O  O6  1  0.13630000  0.76270000  0.67860000  1.0 -0.5801955802
O  O7  1  0.54230000  0.86370000  0.62640000  1.0 -0.5801955802
O  O8  1  0.23730000  0.91590000  0.37360000  1.0 -0.5801955802
O  O9  1  0.27940000  0.04158000  0.87178000  1.0 -0.5519198785
O  O10  1  0.16980000  0.40762000  0.12822000  1.0 -0.5519198785
O  O11  1  0.59238000  0.72060000  0.76218000  1.0 -0.5519198785
O  O12  1  0.95842000  0.83020000  0.23782000  1.0 -0.5519198785
O  O13  1  0.97060000  0.34238000  0.26218000  1.0 -0.5519198785
O  O14  1  0.08020000  0.70842000  0.73782000  1.0 -0.5519198785
O  O15  1  0.65762000  0.91980000  0.62822000  1.0 -0.5519198785
O  O16  1  0.29158000  0.02940000  0.37178000  1.0 -0.5519198785
O  O17  1  0.18371000  0.29181000  0.19732000  1.0 -0.5577489306
O  O18  1  0.09449000  0.98639000  0.80268000  1.0 -0.5577489306
O  O19  1  0.01361000  0.81629000  0.10810000  1.0 -0.5577489306
O  O20  1  0.70819000  0.90551000  0.89190000  1.0 -0.5577489306
O  O21  1  0.06629000  0.76361000  0.60810000  1.0 -0.5577489306
O  O22  1  0.15551000  0.45819000  0.39190000  1.0 -0.5577489306
O  O23  1  0.23639000  0.84449000  0.30268000  1.0 -0.5577489306
O  O24  1  0.54181000  0.93371000  0.69732000  1.0 -0.5577489306
O  O25  1  0.29675000  0.40530000  0.25565000  1.0 -0.5700941666
O  O26  1  0.14965000  0.04110000  0.74435000  1.0 -0.5700941666
O  O27  1  0.95890000  0.70325000  0.10855000  1.0 -0.5700941666
O  O28  1  0.59470000  0.85035000  0.89145000  1.0 -0.5700941666
O  O29  1  0.95325000  0.70890000  0.60855000  1.0 -0.5700941666
O  O30  1  0.10035000  0.34470000  0.39145000  1.0 -0.5700941666
O  O31  1  0.29110000  0.89965000  0.24435000  1.0 -0.5700941666
O  O32  1  0.65530000  0.04675000  0.75565000  1.0 -0.5700941666
O  O33  1  0.89630000  0.69622000  0.23812000  1.0 -0.5401967376
O  O34  1  0.45810000  0.65818000  0.76188000  1.0 -0.5401967376
O  O35  1  0.34182000  0.10370000  0.79992000  1.0 -0.5401967376
O  O36  1  0.30378000  0.54190000  0.20008000  1.0 -0.5401967376
O  O37  1  0.35370000  0.09182000  0.29992000  1.0 -0.5401967376
O  O38  1  0.79190000  0.05378000  0.70008000  1.0 -0.5401967376
O  O39  1  0.90818000  0.20810000  0.26188000  1.0 -0.5401967376
O  O40  1  0.94622000  0.64630000  0.73812000  1.0 -0.5401967376
O  O41  1  0.89780000  0.64047000  0.18007000  1.0 -0.5401967376
O  O42  1  0.46040000  0.71773000  0.81993000  1.0 -0.5401967376
O  O43  1  0.28227000  0.10220000  0.74267000  1.0 -0.5401967376
O  O44  1  0.35953000  0.53960000  0.25733000  1.0 -0.5401967376
O  O45  1  0.35220000  0.03227000  0.24267000  1.0 -0.5401967376
O  O46  1  0.78960000  0.10953000  0.75733000  1.0 -0.5519198785
O  O47  1  0.96773000  0.21040000  0.31993000  1.0 -0.5401967376
O  O48  1  0.89047000  0.64780000  0.68007000  1.0 -0.5401967376
O  O49  1  0.00628000  0.78344000  0.75792000  1.0 -1.1398967845
O  O50  1  0.02552000  0.24836000  0.24208000  1.0 -1.1398967845
O  O51  1  0.75164000  0.99372000  0.77716000  1.0 -1.1398967845
O  O52  1  0.21656000  0.97448000  0.22284000  1.0 -1.1398967845
O  O53  1  0.24372000  0.50164000  0.27716000  1.0 -1.1398967845
O  O54  1  0.22448000  0.96656000  0.72284000  1.0 -1.1398967845
O  O55  1  0.49836000  0.77552000  0.74208000  1.0 -1.1322340662
O  O56  1  0.03344000  0.75628000  0.25792000  1.0 -1.1398967845
O  O57  1  0.04539000  0.76230000  0.69769000  1.0 -1.1322340662
O  O58  1  0.06461000  0.34770000  0.30231000  1.0 -1.1322340662
O  O59  1  0.65230000  0.95461000  0.71691000  1.0 -1.1322340662
O  O60  1  0.23770000  0.93539000  0.28309000  1.0 -1.1322340662
O  O61  1  0.20461000  0.40230000  0.21691000  1.0 -1.1322340662
O  O62  1  0.18539000  0.98770000  0.78309000  1.0 -1.1322340662
O  O63  1  0.59770000  0.81461000  0.80231000  1.0 -1.1398967845
O  O64  1  0.01230000  0.79539000  0.19769000  1.0 -1.1398967845
O  O65  1  0.13650000  0.88240000  0.81670000  1.0 -1.0707027098
O  O66  1  0.06570000  0.31980000  0.18330000  1.0 -1.0765637367
O  O67  1  0.68020000  0.86350000  0.74590000  1.0 -1.0707027098
O  O68  1  0.11760000  0.93430000  0.25410000  1.0 -1.0707027098
O  O69  1  0.11350000  0.43020000  0.24590000  1.0 -1.0707027098
O  O70  1  0.18430000  0.86760000  0.75410000  1.0 -1.0707027098
O  O71  1  0.56980000  0.81570000  0.68330000  1.0 -1.0707027098
O  O72  1  0.13240000  0.88650000  0.31670000  1.0 -1.0707027098
O  O73  1  0.04930000  0.88368000  0.72498000  1.0 -1.1201190262
O  O74  1  0.15870000  0.32432000  0.27502000  1.0 -1.1201190262
O  O75  1  0.67568000  0.95070000  0.83438000  1.0 -1.1201190262
O  O76  1  0.11632000  0.84130000  0.16562000  1.0 -1.1201190262
O  O77  1  0.20070000  0.42568000  0.33438000  1.0 -1.1201190262
O  O78  1  0.09130000  0.86632000  0.66562000  1.0 -1.1201190262
O  O79  1  0.57432000  0.90870000  0.77502000  1.0 -1.1201190262
O  O80  1  0.13368000  0.79930000  0.22498000  1.0 -1.1201190262
O  O81  1  0.15070000  0.79970000  0.82900000  1.0 -0.7431383341
O  O82  1  0.97070000  0.32170000  0.17100000  1.0 -0.7496062328
O  O83  1  0.67830000  0.84930000  0.64900000  1.0 -0.7431383341
O  O84  1  0.20030000  0.02930000  0.35100000  1.0 -0.7496062328
O  O85  1  0.09930000  0.42830000  0.14900000  1.0 -0.7496062328
O  O86  1  0.27930000  0.95030000  0.85100000  1.0 -0.7431383341
O  O87  1  0.57170000  0.72070000  0.67100000  1.0 -0.7431383341
O  O88  1  0.04970000  0.90070000  0.32900000  1.0 -0.7431383341
O  O89  1  0.94256000  0.79160000  0.62696000  1.0 -0.6735457315
O  O90  1  0.16464000  0.31560000  0.37304000  1.0 -0.6735457315
O  O91  1  0.68440000  0.05744000  0.84904000  1.0 -0.6735457315
O  O92  1  0.20840000  0.83536000  0.15096000  1.0 -0.6735457315
O  O93  1  0.30744000  0.43440000  0.34904000  1.0 -0.6735457315
O  O94  1  0.08536000  0.95840000  0.65096000  1.0 -0.6735457315
O  O95  1  0.56560000  0.91464000  0.87304000  1.0 -0.6735457315
O  O96  1  0.04160000  0.69256000  0.12696000  1.0 -0.6735457315
O  O97  1  0.02140000  0.83130000  0.85710000  1.0 -0.3455227077
O  O98  1  0.97420000  0.16430000  0.14290000  1.0 -0.3397634635
O  O99  1  0.83570000  0.97860000  0.80990000  1.0 -0.3455227077
O  O100  1  0.16870000  0.02580000  0.19010000  1.0 -0.3397634635
O  O101  1  0.22860000  0.58570000  0.30990000  1.0 -0.3397634635
O  O102  1  0.27580000  0.91870000  0.69010000  1.0 -0.3397634635
O  O103  1  0.41430000  0.72420000  0.64290000  1.0 -0.3397634635
O  O104  1  0.08130000  0.77140000  0.35710000  1.0 -0.3397634635
O  O105  1  0.95510000  0.83000000  0.78910000  1.0 -0.4487840656
O  O106  1  0.04090000  0.16600000  0.21090000  1.0 -0.4487840656
O  O107  1  0.83400000  0.04490000  0.87490000  1.0 -0.4487840656
O  O108  1  0.17000000  0.95910000  0.12510000  1.0 -0.4487840656
O  O109  1  0.29490000  0.58400000  0.37490000  1.0 -0.4487840656
O  O110  1  0.20910000  0.92000000  0.62510000  1.0 -0.4487840656
O  O111  1  0.41600000  0.79090000  0.71090000  1.0 -0.4589890449
O  O112  1  0.08000000  0.70510000  0.28910000  1.0 -0.4487840656
O  O113  1  0.88280000  0.73320000  0.69620000  1.0 -0.5577489306
O  O114  1  0.03700000  0.18660000  0.30380000  1.0 -0.5577489306
O  O115  1  0.81340000  0.11720000  0.85040000  1.0 -0.5577489306
O  O116  1  0.26680000  0.96300000  0.14960000  1.0 -0.5801955802
O  O117  1  0.36720000  0.56340000  0.35040000  1.0 -0.5577489306
O  O118  1  0.21300000  0.01680000  0.64960000  1.0 -0.5577489306
O  O119  1  0.43660000  0.78700000  0.80380000  1.0 -0.5577489306
O  O120  1  0.98320000  0.63280000  0.19620000  1.0 -0.5577489306
O  O121  1  0.01510000  0.72790000  0.83100000  1.0 -0.229911368
O  O122  1  0.89690000  0.18410000  0.16900000  1.0 -0.2127524226
O  O123  1  0.81590000  0.98490000  0.71280000  1.0 -0.229911368
O  O124  1  0.27210000  0.10310000  0.28720000  1.0 -0.2218049674
O  O125  1  0.23490000  0.56590000  0.21280000  1.0 -0.2218049674
O  O126  1  0.35310000  0.02210000  0.78720000  1.0 -0.2218049674
O  O127  1  0.43410000  0.64690000  0.66900000  1.0 -0.229911368
O  O128  1  0.97790000  0.76510000  0.33100000  1.0 -0.2218049674
