# DDEC6 charges by PACMAN v1.1 (https://github.com/mtap-research/PACMAN-charge/)
data_GAVNIE_FSR_pacman
_symmetry_space_group_name_H-M   'P 1'
_cell_length_a   13.32560000
_cell_length_b   25.47650000
_cell_length_c   25.82090000
_cell_angle_alpha   90.00000000
_cell_angle_beta   104.91800000
_cell_angle_gamma   90.00000000
_symmetry_Int_Tables_number   1
_chemical_formula_structural   Zn3H42C72S4(N2O)12
_chemical_formula_sum   'Zn12 H168 C288 S16 N96 O48'
_cell_volume   8470.47485040
_cell_formula_units_Z   4
loop_
 _symmetry_equiv_pos_site_id
 _symmetry_equiv_pos_as_xyz
  1  'x, y, z'
loop_
 _atom_site_type_symbol
 _atom_site_label
 _atom_site_symmetry_multiplicity
 _atom_site_fract_x
 _atom_site_fract_y
 _atom_site_fract_z
 _atom_site_occupancy
 _atom_site_charge
Zn  Zn1  1  0.20399000  0.40600000  0.92551000  1.0 0.7608864382
Zn  Zn2  1  0.20399000  0.09400000  0.42551000  1.0 0.7608864382
Zn  Zn3  1  0.79601000  0.90600000  0.57449000  1.0 0.7608864382
Zn  Zn4  1  0.79601000  0.59400000  0.07449000  1.0 0.7608864382
Zn  Zn5  1  0.87320000  0.09579000  0.13088000  1.0 0.765365608
Zn  Zn6  1  0.87320000  0.40421000  0.63088000  1.0 0.765365608
Zn  Zn7  1  0.45636000  0.59648000  0.78299000  1.0 0.7608864382
Zn  Zn8  1  0.45636000  0.90352000  0.28299000  1.0 0.7608864382
Zn  Zn9  1  0.12680000  0.59579000  0.36912000  1.0 0.765365608
Zn  Zn10  1  0.12680000  0.90421000  0.86912000  1.0 0.765365608
Zn  Zn11  1  0.54364000  0.09648000  0.71701000  1.0 0.7608864382
Zn  Zn12  1  0.54364000  0.40352000  0.21701000  1.0 0.7608864382
H  H1  1  0.43388000  0.39788000  0.91686000  1.0 0.1311872086
H  H2  1  0.30114000  0.53019000  0.93890000  1.0 0.1126893885
H  H3  1  0.61386000  0.54922000  0.92301000  1.0 0.1478805132
H  H4  1  0.79134000  0.54881000  0.92560000  1.0 0.1394023672
H  H5  1  0.97084000  0.39641000  0.92796000  1.0 0.1311872086
H  H6  1  0.11588000  0.53023000  0.93108000  1.0 0.1126893885
H  H7  1  0.30282000  0.35627000  0.09731000  1.0 0.1126893885
H  H8  1  0.31043000  0.31250000  0.17702000  1.0 0.1188016917
H  H9  1  0.09844000  0.20770000  0.09718000  1.0 0.1126893885
H  H10  1  0.09228000  0.25124000  0.01732000  1.0 0.1126893885
H  H11  1  0.10030000  0.13183000  0.24797000  1.0 0.1188016917
H  H12  1  0.09235000  0.17560000  0.16815000  1.0 0.1126893885
H  H13  1  0.30665000  0.27935000  0.24736000  1.0 0.1188016917
H  H14  1  0.30849000  0.23698000  0.32715000  1.0 0.1126893885
H  H15  1  0.43388000  0.10212000  0.41686000  1.0 0.1311872086
H  H16  1  0.30114000  0.96981000  0.43890000  1.0 0.1126893885
H  H17  1  0.61386000  0.95078000  0.42301000  1.0 0.1478805132
H  H18  1  0.79134000  0.95119000  0.42560000  1.0 0.1394023672
H  H19  1  0.97084000  0.10359000  0.42796000  1.0 0.1311872086
H  H20  1  0.11588000  0.96977000  0.43108000  1.0 0.1126893885
H  H21  1  0.30282000  0.14373000  0.59731000  1.0 0.1126893885
H  H22  1  0.31043000  0.18750000  0.67702000  1.0 0.1188016917
H  H23  1  0.09844000  0.29230000  0.59718000  1.0 0.1126893885
H  H24  1  0.09228000  0.24876000  0.51732000  1.0 0.1126893885
H  H25  1  0.10030000  0.36817000  0.74797000  1.0 0.1188016917
H  H26  1  0.09235000  0.32440000  0.66815000  1.0 0.1126893885
H  H27  1  0.30665000  0.22065000  0.74736000  1.0 0.1188016917
H  H28  1  0.30849000  0.26302000  0.82715000  1.0 0.1126893885
H  H29  1  0.56612000  0.89788000  0.58314000  1.0 0.1311872086
H  H30  1  0.69886000  0.03019000  0.56110000  1.0 0.1126893885
H  H31  1  0.38614000  0.04922000  0.57699000  1.0 0.1478805132
H  H32  1  0.20866000  0.04881000  0.57440000  1.0 0.1394023672
H  H33  1  0.02916000  0.89641000  0.57204000  1.0 0.1311872086
H  H34  1  0.88412000  0.03023000  0.56892000  1.0 0.1126893885
H  H35  1  0.69718000  0.85627000  0.40269000  1.0 0.1126893885
H  H36  1  0.68957000  0.81250000  0.32298000  1.0 0.1188016917
H  H37  1  0.90156000  0.70770000  0.40282000  1.0 0.1126893885
H  H38  1  0.90772000  0.75124000  0.48268000  1.0 0.1126893885
H  H39  1  0.89970000  0.63183000  0.25203000  1.0 0.1188016917
H  H40  1  0.90765000  0.67560000  0.33185000  1.0 0.1126893885
H  H41  1  0.69335000  0.77935000  0.25264000  1.0 0.1188016917
H  H42  1  0.69151000  0.73698000  0.17285000  1.0 0.1126893885
H  H43  1  0.56612000  0.60212000  0.08314000  1.0 0.1311872086
H  H44  1  0.69886000  0.46981000  0.06110000  1.0 0.1126893885
H  H45  1  0.38614000  0.45078000  0.07699000  1.0 0.1478805132
H  H46  1  0.20866000  0.45119000  0.07440000  1.0 0.1394023672
H  H47  1  0.02916000  0.60359000  0.07204000  1.0 0.1311872086
H  H48  1  0.88412000  0.46977000  0.06892000  1.0 0.1126893885
H  H49  1  0.69718000  0.64373000  0.90269000  1.0 0.1126893885
H  H50  1  0.68957000  0.68750000  0.82298000  1.0 0.1188016917
H  H51  1  0.90156000  0.79230000  0.90282000  1.0 0.1126893885
H  H52  1  0.90772000  0.74876000  0.98268000  1.0 0.1126893885
H  H53  1  0.89970000  0.86817000  0.75203000  1.0 0.1188016917
H  H54  1  0.90765000  0.82440000  0.83185000  1.0 0.1126893885
H  H55  1  0.69335000  0.72065000  0.75264000  1.0 0.1188016917
H  H56  1  0.69151000  0.76302000  0.67285000  1.0 0.1126893885
H  H57  1  0.97950000  0.97306000  0.15822000  1.0 0.1188016917
H  H58  1  0.09819000  0.10290000  0.11894000  1.0 0.1311872086
H  H59  1  0.47771000  0.96062000  0.16196000  1.0 0.1311872086
H  H60  1  0.30236000  0.95925000  0.16197000  1.0 0.1394023672
H  H61  1  0.78756000  0.97508000  0.14256000  1.0 0.1126893885
H  H62  1  0.63733000  0.10923000  0.12948000  1.0 0.1394023672
H  H63  1  0.75443000  0.25651000  0.21294000  1.0 0.1188016917
H  H64  1  0.76566000  0.30772000  0.28890000  1.0 0.1126893885
H  H65  1  0.98095000  0.20709000  0.37560000  1.0 0.1188016917
H  H66  1  0.97009000  0.15666000  0.29925000  1.0 0.1126893885
H  H67  1  0.90660000  0.27605000  0.51869000  1.0 0.1188016917
H  H68  1  0.91061000  0.23049000  0.44162000  1.0 0.1126893885
H  H69  1  0.83818000  0.36413000  0.35500000  1.0 0.1126893885
H  H70  1  0.83058000  0.40939000  0.43259000  1.0 0.1126893885
H  H71  1  0.97950000  0.52694000  0.65822000  1.0 0.1188016917
H  H72  1  0.09819000  0.39710000  0.61894000  1.0 0.1311872086
H  H73  1  0.47771000  0.53938000  0.66196000  1.0 0.1311872086
H  H74  1  0.30236000  0.54075000  0.66197000  1.0 0.1394023672
H  H75  1  0.78756000  0.52492000  0.64256000  1.0 0.1126893885
H  H76  1  0.63733000  0.39077000  0.62948000  1.0 0.1394023672
H  H77  1  0.75443000  0.24349000  0.71294000  1.0 0.1188016917
H  H78  1  0.76566000  0.19228000  0.78890000  1.0 0.1126893885
H  H79  1  0.98095000  0.29291000  0.87560000  1.0 0.1188016917
H  H80  1  0.97009000  0.34334000  0.79925000  1.0 0.1126893885
H  H81  1  0.90660000  0.22395000  0.01869000  1.0 0.1188016917
H  H82  1  0.91061000  0.26951000  0.94162000  1.0 0.1126893885
H  H83  1  0.83818000  0.13587000  0.85500000  1.0 0.1126893885
H  H84  1  0.83058000  0.09061000  0.93259000  1.0 0.1126893885
H  H85  1  0.55075000  0.47148000  0.78841000  1.0 0.1126893885
H  H86  1  0.68685000  0.60509000  0.77373000  1.0 0.1311872086
H  H87  1  0.05131000  0.45371000  0.79329000  1.0 0.1478805132
H  H88  1  0.87393000  0.45381000  0.79128000  1.0 0.1394023672
H  H89  1  0.36780000  0.47077000  0.78606000  1.0 0.1188016917
H  H90  1  0.22382000  0.60545000  0.78373000  1.0 0.1394023672
H  H91  1  0.35290000  0.74850000  0.87209000  1.0 0.1311872086
H  H92  1  0.35356000  0.79342000  0.95015000  1.0 0.1188016917
H  H93  1  0.57497000  0.69474000  0.03367000  1.0 0.1188016917
H  H94  1  0.56908000  0.64784000  0.95556000  1.0 0.1126893885
H  H95  1  0.51714000  0.75196000  0.18178000  1.0 0.1188016917
H  H96  1  0.51803000  0.71172000  0.10109000  1.0 0.1126893885
H  H97  1  0.38529000  0.84056000  0.02108000  1.0 0.1188016917
H  H98  1  0.38127000  0.87967000  0.10171000  1.0 0.1188016917
H  H99  1  0.55075000  0.02852000  0.28841000  1.0 0.1126893885
H  H100  1  0.68685000  0.89491000  0.27373000  1.0 0.1311872086
H  H101  1  0.05131000  0.04629000  0.29329000  1.0 0.1478805132
H  H102  1  0.87393000  0.04619000  0.29128000  1.0 0.1394023672
H  H103  1  0.36780000  0.02923000  0.28606000  1.0 0.1188016917
H  H104  1  0.22382000  0.89455000  0.28373000  1.0 0.1394023672
H  H105  1  0.35290000  0.75150000  0.37209000  1.0 0.1311872086
H  H106  1  0.35356000  0.70658000  0.45015000  1.0 0.1188016917
H  H107  1  0.57497000  0.80526000  0.53367000  1.0 0.1188016917
H  H108  1  0.56908000  0.85216000  0.45556000  1.0 0.1188016917
H  H109  1  0.51714000  0.74804000  0.68178000  1.0 0.1188016917
H  H110  1  0.51803000  0.78828000  0.60109000  1.0 0.1126893885
H  H111  1  0.38529000  0.65944000  0.52108000  1.0 0.1188016917
H  H112  1  0.38127000  0.62033000  0.60171000  1.0 0.1188016917
H  H113  1  0.02050000  0.47306000  0.34178000  1.0 0.1188016917
H  H114  1  0.90181000  0.60290000  0.38106000  1.0 0.1311872086
H  H115  1  0.52229000  0.46062000  0.33804000  1.0 0.1311872086
H  H116  1  0.69764000  0.45925000  0.33803000  1.0 0.1394023672
H  H117  1  0.21244000  0.47508000  0.35744000  1.0 0.1126893885
H  H118  1  0.36267000  0.60923000  0.37052000  1.0 0.1394023672
H  H119  1  0.24557000  0.75651000  0.28706000  1.0 0.1188016917
H  H120  1  0.23434000  0.80772000  0.21110000  1.0 0.1188016917
H  H121  1  0.01905000  0.70709000  0.12440000  1.0 0.1188016917
H  H122  1  0.02991000  0.65666000  0.20075000  1.0 0.1126893885
H  H123  1  0.09340000  0.77605000  0.98131000  1.0 0.1188016917
H  H124  1  0.08939000  0.73049000  0.05838000  1.0 0.1126893885
H  H125  1  0.16182000  0.86413000  0.14500000  1.0 0.1126893885
H  H126  1  0.16942000  0.90939000  0.06741000  1.0 0.1126893885
H  H127  1  0.02050000  0.02694000  0.84178000  1.0 0.1188016917
H  H128  1  0.90181000  0.89710000  0.88106000  1.0 0.1311872086
H  H129  1  0.52229000  0.03938000  0.83804000  1.0 0.1311872086
H  H130  1  0.69764000  0.04075000  0.83803000  1.0 0.1394023672
H  H131  1  0.21244000  0.02492000  0.85744000  1.0 0.1126893885
H  H132  1  0.36267000  0.89077000  0.87052000  1.0 0.1394023672
H  H133  1  0.24557000  0.74349000  0.78706000  1.0 0.1188016917
H  H134  1  0.23434000  0.69228000  0.71110000  1.0 0.1188016917
H  H135  1  0.01905000  0.79291000  0.62440000  1.0 0.1188016917
H  H136  1  0.02991000  0.84334000  0.70075000  1.0 0.1126893885
H  H137  1  0.09340000  0.72395000  0.48131000  1.0 0.1188016917
H  H138  1  0.08939000  0.76951000  0.55838000  1.0 0.1126893885
H  H139  1  0.16182000  0.63587000  0.64500000  1.0 0.1126893885
H  H140  1  0.16942000  0.59061000  0.56741000  1.0 0.1126893885
H  H141  1  0.44925000  0.97148000  0.71159000  1.0 0.1126893885
H  H142  1  0.31315000  0.10509000  0.72627000  1.0 0.1311872086
H  H143  1  0.94869000  0.95371000  0.70671000  1.0 0.1478805132
H  H144  1  0.12607000  0.95381000  0.70872000  1.0 0.1394023672
H  H145  1  0.63220000  0.97077000  0.71394000  1.0 0.1188016917
H  H146  1  0.77618000  0.10545000  0.71627000  1.0 0.1394023672
H  H147  1  0.64710000  0.24850000  0.62791000  1.0 0.1311872086
H  H148  1  0.64644000  0.29342000  0.54985000  1.0 0.1188016917
H  H149  1  0.42503000  0.19474000  0.46633000  1.0 0.1188016917
H  H150  1  0.43092000  0.14784000  0.54444000  1.0 0.1126893885
H  H151  1  0.48286000  0.25196000  0.31822000  1.0 0.1188016917
H  H152  1  0.48197000  0.21172000  0.39891000  1.0 0.1126893885
H  H153  1  0.61471000  0.34056000  0.47892000  1.0 0.1188016917
H  H154  1  0.61873000  0.37967000  0.39829000  1.0 0.1188016917
H  H155  1  0.44925000  0.52852000  0.21159000  1.0 0.1126893885
H  H156  1  0.31315000  0.39491000  0.22627000  1.0 0.1311872086
H  H157  1  0.94869000  0.54629000  0.20671000  1.0 0.1478805132
H  H158  1  0.12607000  0.54619000  0.20872000  1.0 0.1394023672
H  H159  1  0.63220000  0.52923000  0.21394000  1.0 0.1188016917
H  H160  1  0.77618000  0.39455000  0.21627000  1.0 0.1394023672
H  H161  1  0.64710000  0.25150000  0.12791000  1.0 0.1311872086
H  H162  1  0.64644000  0.20658000  0.04985000  1.0 0.1188016917
H  H163  1  0.42503000  0.30526000  0.96633000  1.0 0.1188016917
H  H164  1  0.43092000  0.35216000  0.04444000  1.0 0.1188016917
H  H165  1  0.48286000  0.24804000  0.81822000  1.0 0.1188016917
H  H166  1  0.48197000  0.28828000  0.89891000  1.0 0.1126893885
H  H167  1  0.61471000  0.15944000  0.97892000  1.0 0.1188016917
H  H168  1  0.61873000  0.12033000  0.89829000  1.0 0.1188016917
C  C1  1  0.42110000  0.43380000  0.92273000  1.0 0.0988171585
C  C2  1  0.35180000  0.50548000  0.93463000  1.0 0.1311872086
C  C3  1  0.59750000  0.47109000  0.92788000  1.0 0.0596424232
C  C4  1  0.64970000  0.51670000  0.92546000  1.0 -0.1504875103
C  C5  1  0.75690000  0.51630000  0.92655000  1.0 -0.1504875103
C  C6  1  0.81220000  0.47081000  0.92892000  1.0 0.0684609943
C  C7  1  0.76040000  0.42269000  0.93189000  1.0 0.0888648257
C  C8  1  0.65190000  0.42278000  0.93128000  1.0 0.0838621557
C  C9  1  0.98650000  0.43282000  0.92878000  1.0 0.1126893885
C  C10  1  0.06250000  0.50532000  0.93042000  1.0 0.1188016917
C  C11  1  0.17970000  0.34010000  0.99846000  1.0 0.5521631315
C  C12  1  0.19270000  0.30964000  0.04963000  1.0 -0.0286983592
C  C13  1  0.25970000  0.32658000  0.09734000  1.0 -0.0992110198
C  C14  1  0.26390000  0.30045000  0.14488000  1.0 -0.1416582398
C  C15  1  0.20158000  0.25689000  0.14676000  1.0 0.0684609943
C  C16  1  0.13890000  0.23850000  0.09768000  1.0 -0.1504875103
C  C17  1  0.13490000  0.26450000  0.05000000  1.0 -0.1055163518
C  C18  1  0.21570000  0.15095000  0.34723000  1.0 0.5521631315
C  C19  1  0.20810000  0.17875000  0.29545000  1.0 -0.0286983592
C  C20  1  0.14300000  0.16168000  0.24801000  1.0 -0.0914391558
C  C21  1  0.13910000  0.18755000  0.20026000  1.0 -0.1416582398
C  C22  1  0.20240000  0.23070000  0.19838000  1.0 0.0684609943
C  C23  1  0.26480000  0.24906000  0.24690000  1.0 -0.1504875103
C  C24  1  0.26640000  0.22347000  0.29445000  1.0 -0.0992110198
C  C25  1  0.42110000  0.06620000  0.42273000  1.0 0.0988171585
C  C26  1  0.35180000  0.99452000  0.43463000  1.0 0.1311872086
C  C27  1  0.59750000  0.02891000  0.42788000  1.0 0.0596424232
C  C28  1  0.64970000  0.98330000  0.42546000  1.0 -0.1504875103
C  C29  1  0.75690000  0.98370000  0.42655000  1.0 -0.1504875103
C  C30  1  0.81220000  0.02919000  0.42892000  1.0 0.0684609943
C  C31  1  0.76040000  0.07731000  0.43189000  1.0 0.0888648257
C  C32  1  0.65190000  0.07722000  0.43128000  1.0 0.0838621557
C  C33  1  0.98650000  0.06718000  0.42878000  1.0 0.1126893885
C  C34  1  0.06250000  0.99468000  0.43042000  1.0 0.1188016917
C  C35  1  0.17970000  0.15990000  0.49846000  1.0 0.5521631315
C  C36  1  0.19270000  0.19036000  0.54963000  1.0 -0.0286983592
C  C37  1  0.25970000  0.17342000  0.59734000  1.0 -0.0992110198
C  C38  1  0.26390000  0.19955000  0.64488000  1.0 -0.1416582398
C  C39  1  0.20158000  0.24311000  0.64676000  1.0 0.0684609943
C  C40  1  0.13890000  0.26150000  0.59768000  1.0 -0.1504875103
C  C41  1  0.13490000  0.23550000  0.55000000  1.0 -0.1055163518
C  C42  1  0.21570000  0.34905000  0.84723000  1.0 0.5521631315
C  C43  1  0.20810000  0.32125000  0.79545000  1.0 -0.0286983592
C  C44  1  0.14300000  0.33832000  0.74801000  1.0 -0.0914391558
C  C45  1  0.13910000  0.31245000  0.70026000  1.0 -0.1416582398
C  C46  1  0.20240000  0.26930000  0.69838000  1.0 0.0684609943
C  C47  1  0.26480000  0.25094000  0.74690000  1.0 -0.1504875103
C  C48  1  0.26640000  0.27653000  0.79445000  1.0 -0.0992110198
C  C49  1  0.57890000  0.93380000  0.57727000  1.0 0.0988171585
C  C50  1  0.64820000  0.00548000  0.56537000  1.0 0.1311872086
C  C51  1  0.40250000  0.97109000  0.57212000  1.0 0.0596424232
C  C52  1  0.35030000  0.01670000  0.57454000  1.0 -0.1504875103
C  C53  1  0.24310000  0.01630000  0.57345000  1.0 -0.1504875103
C  C54  1  0.18780000  0.97081000  0.57108000  1.0 0.0684609943
C  C55  1  0.23960000  0.92269000  0.56811000  1.0 0.0888648257
C  C56  1  0.34810000  0.92278000  0.56872000  1.0 0.0838621557
C  C57  1  0.01350000  0.93282000  0.57122000  1.0 0.1126893885
C  C58  1  0.93750000  0.00532000  0.56958000  1.0 0.1188016917
C  C59  1  0.82030000  0.84010000  0.50154000  1.0 0.5521631315
C  C60  1  0.80730000  0.80964000  0.45037000  1.0 -0.0286983592
C  C61  1  0.74030000  0.82658000  0.40266000  1.0 -0.0992110198
C  C62  1  0.73610000  0.80045000  0.35512000  1.0 -0.1416582398
C  C63  1  0.79842000  0.75689000  0.35324000  1.0 0.0684609943
C  C64  1  0.86110000  0.73850000  0.40232000  1.0 -0.1504875103
C  C65  1  0.86510000  0.76450000  0.45000000  1.0 -0.1055163518
C  C66  1  0.78430000  0.65095000  0.15277000  1.0 0.5521631315
C  C67  1  0.79190000  0.67875000  0.20455000  1.0 -0.0286983592
C  C68  1  0.85700000  0.66168000  0.25199000  1.0 -0.0914391558
C  C69  1  0.86090000  0.68755000  0.29974000  1.0 -0.1416582398
C  C70  1  0.79760000  0.73070000  0.30162000  1.0 0.0684609943
C  C71  1  0.73520000  0.74906000  0.25310000  1.0 -0.1504875103
C  C72  1  0.73360000  0.72347000  0.20555000  1.0 -0.0992110198
C  C73  1  0.57890000  0.56620000  0.07727000  1.0 0.0988171585
C  C74  1  0.64820000  0.49452000  0.06537000  1.0 0.1311872086
C  C75  1  0.40250000  0.52891000  0.07212000  1.0 0.0596424232
C  C76  1  0.35030000  0.48330000  0.07454000  1.0 -0.1504875103
C  C77  1  0.24310000  0.48370000  0.07345000  1.0 -0.1504875103
C  C78  1  0.18780000  0.52919000  0.07108000  1.0 0.0684609943
C  C79  1  0.23960000  0.57731000  0.06811000  1.0 0.0888648257
C  C80  1  0.34810000  0.57722000  0.06872000  1.0 0.0838621557
C  C81  1  0.01350000  0.56718000  0.07122000  1.0 0.1126893885
C  C82  1  0.93750000  0.49468000  0.06958000  1.0 0.1188016917
C  C83  1  0.82030000  0.65990000  0.00154000  1.0 0.5521631315
C  C84  1  0.80730000  0.69036000  0.95037000  1.0 -0.0286983592
C  C85  1  0.74030000  0.67342000  0.90266000  1.0 -0.0992110198
C  C86  1  0.73610000  0.69955000  0.85512000  1.0 -0.1416582398
C  C87  1  0.79842000  0.74311000  0.85324000  1.0 0.0684609943
C  C88  1  0.86110000  0.76150000  0.90232000  1.0 -0.1504875103
C  C89  1  0.86510000  0.73550000  0.95000000  1.0 -0.1055163518
C  C90  1  0.78430000  0.84905000  0.65277000  1.0 0.5521631315
C  C91  1  0.79190000  0.82125000  0.70455000  1.0 -0.0286983592
C  C92  1  0.85700000  0.83832000  0.75199000  1.0 -0.0914391558
C  C93  1  0.86090000  0.81245000  0.79974000  1.0 -0.1416582398
C  C94  1  0.79760000  0.76930000  0.80162000  1.0 0.0684609943
C  C95  1  0.73520000  0.75094000  0.75310000  1.0 -0.1504875103
C  C96  1  0.73360000  0.77653000  0.70555000  1.0 -0.0992110198
C  C97  1  0.02780000  0.99762000  0.15095000  1.0 0.1311872086
C  C98  1  0.08970000  0.06793000  0.12985000  1.0 0.1126893885
C  C99  1  0.27030000  0.03396000  0.13947000  1.0 0.0596424232
C  C100  1  0.31430000  0.08029000  0.12413000  1.0 0.1126893885
C  C101  1  0.42190000  0.08111000  0.12391000  1.0 0.1126893885
C  C102  1  0.48374000  0.03548000  0.13885000  1.0 0.0684609943
C  C103  1  0.43743000  0.99157000  0.15237000  1.0 -0.1504875103
C  C104  1  0.33150000  0.99073000  0.15253000  1.0 -0.1504875103
C  C105  1  0.73360000  0.99998000  0.14052000  1.0 0.1311872086
C  C106  1  0.65460000  0.07301000  0.13331000  1.0 0.1188016917
C  C107  1  0.84500000  0.16648000  0.20008000  1.0 0.5560599044
C  C108  1  0.85870000  0.20087000  0.24853000  1.0 -0.0286983592
C  C109  1  0.79980000  0.24621000  0.24613000  1.0 -0.0914391558
C  C110  1  0.80620000  0.27671000  0.29136000  1.0 -0.1416582398
C  C111  1  0.87240000  0.26185000  0.34068000  1.0 0.0684609943
C  C112  1  0.93410000  0.21698000  0.34269000  1.0 -0.1504875103
C  C113  1  0.92760000  0.18691000  0.29729000  1.0 -0.0992110198
C  C114  1  0.86150000  0.37484000  0.53382000  1.0 0.5415902212
C  C115  1  0.86720000  0.34672000  0.48347000  1.0 -0.0150883095
C  C116  1  0.89150000  0.29397000  0.48531000  1.0 -0.1055163518
C  C117  1  0.89410000  0.26684000  0.43938000  1.0 -0.1504875103
C  C118  1  0.87320000  0.29172000  0.39025000  1.0 0.0684609943
C  C119  1  0.85080000  0.34599000  0.38820000  1.0 -0.1334360391
C  C120  1  0.84690000  0.37303000  0.43439000  1.0 -0.0992110198
C  C121  1  0.02780000  0.50238000  0.65095000  1.0 0.1311872086
C  C122  1  0.08970000  0.43207000  0.62985000  1.0 0.1126893885
C  C123  1  0.27030000  0.46604000  0.63947000  1.0 0.0596424232
C  C124  1  0.31430000  0.41971000  0.62413000  1.0 0.1126893885
C  C125  1  0.42190000  0.41889000  0.62391000  1.0 0.1126893885
C  C126  1  0.48374000  0.46452000  0.63885000  1.0 0.0684609943
C  C127  1  0.43743000  0.50843000  0.65237000  1.0 -0.1504875103
C  C128  1  0.33150000  0.50927000  0.65253000  1.0 -0.1504875103
C  C129  1  0.73360000  0.50002000  0.64052000  1.0 0.1311872086
C  C130  1  0.65460000  0.42699000  0.63331000  1.0 0.1188016917
C  C131  1  0.84500000  0.33352000  0.70008000  1.0 0.5560599044
C  C132  1  0.85870000  0.29913000  0.74853000  1.0 -0.0286983592
C  C133  1  0.79980000  0.25379000  0.74613000  1.0 -0.0914391558
C  C134  1  0.80620000  0.22329000  0.79136000  1.0 -0.1416582398
C  C135  1  0.87240000  0.23815000  0.84068000  1.0 0.0684609943
C  C136  1  0.93410000  0.28302000  0.84269000  1.0 -0.1504875103
C  C137  1  0.92760000  0.31309000  0.79729000  1.0 -0.0992110198
C  C138  1  0.86150000  0.12516000  0.03382000  1.0 0.5415902212
C  C139  1  0.86720000  0.15328000  0.98347000  1.0 -0.0150883095
C  C140  1  0.89150000  0.20603000  0.98531000  1.0 -0.1055163518
C  C141  1  0.89410000  0.23316000  0.93938000  1.0 -0.1504875103
C  C142  1  0.87320000  0.20828000  0.89025000  1.0 0.0684609943
C  C143  1  0.85080000  0.15401000  0.88820000  1.0 -0.1334360391
C  C144  1  0.84690000  0.12697000  0.93439000  1.0 -0.0992110198
C  C145  1  0.60220000  0.49625000  0.78536000  1.0 0.1188016917
C  C146  1  0.67350000  0.56886000  0.77759000  1.0 0.1126893885
C  C147  1  0.84960000  0.53123000  0.78038000  1.0 0.0596424232
C  C148  1  0.89900000  0.57938000  0.77327000  1.0 0.0988171585
C  C149  1  0.00730000  0.57914000  0.77390000  1.0 0.0888648257
C  C150  1  0.06400000  0.53142000  0.78216000  1.0 0.0533613339
C  C151  1  0.01400000  0.48587000  0.78826000  1.0 -0.1504875103
C  C152  1  0.90680000  0.48606000  0.78717000  1.0 -0.1579742804
C  C153  1  0.31470000  0.49584000  0.78533000  1.0 0.1311872086
C  C154  1  0.23937000  0.56903000  0.78425000  1.0 0.1188016917
C  C155  1  0.44670000  0.65999000  0.85677000  1.0 0.5521631315
C  C156  1  0.45650000  0.69216000  0.90620000  1.0 -0.0286983592
C  C157  1  0.39580000  0.73649000  0.90527000  1.0 -0.0914391558
C  C158  1  0.39670000  0.76349000  0.95168000  1.0 -0.1416582398
C  C159  1  0.46070000  0.74724000  0.00112000  1.0 0.0596424232
C  C160  1  0.52710000  0.70482000  0.00114000  1.0 -0.1416582398
C  C161  1  0.52450000  0.67712000  0.95453000  1.0 -0.0992110198
C  C162  1  0.46370000  0.84803000  0.20212000  1.0 0.5521631315
C  C163  1  0.45540000  0.82149000  0.14976000  1.0 -0.0286983592
C  C164  1  0.49220000  0.77052000  0.14908000  1.0 -0.0992110198
C  C165  1  0.49280000  0.74661000  0.10095000  1.0 -0.1671080813
C  C166  1  0.45690000  0.77300000  0.05207000  1.0 0.0684609943
C  C167  1  0.41410000  0.82248000  0.05371000  1.0 -0.1334360391
C  C168  1  0.41240000  0.84611000  0.10186000  1.0 -0.0914391558
C  C169  1  0.60220000  0.00375000  0.28536000  1.0 0.1188016917
C  C170  1  0.67350000  0.93114000  0.27759000  1.0 0.1126893885
C  C171  1  0.84960000  0.96877000  0.28038000  1.0 0.0596424232
C  C172  1  0.89900000  0.92062000  0.27327000  1.0 0.0988171585
C  C173  1  0.00730000  0.92086000  0.27390000  1.0 0.0888648257
C  C174  1  0.06400000  0.96858000  0.28216000  1.0 0.0533613339
C  C175  1  0.01400000  0.01413000  0.28826000  1.0 -0.1504875103
C  C176  1  0.90680000  0.01394000  0.28717000  1.0 -0.1579742804
C  C177  1  0.31470000  0.00416000  0.28533000  1.0 0.1311872086
C  C178  1  0.23937000  0.93097000  0.28425000  1.0 0.1188016917
C  C179  1  0.44670000  0.84001000  0.35677000  1.0 0.5521631315
C  C180  1  0.45650000  0.80784000  0.40620000  1.0 -0.0286983592
C  C181  1  0.39580000  0.76351000  0.40527000  1.0 -0.0914391558
C  C182  1  0.39670000  0.73651000  0.45168000  1.0 -0.1416582398
C  C183  1  0.46070000  0.75276000  0.50112000  1.0 0.0596424232
C  C184  1  0.52710000  0.79518000  0.50114000  1.0 -0.1416582398
C  C185  1  0.52450000  0.82288000  0.45453000  1.0 -0.0992110198
C  C186  1  0.46370000  0.65197000  0.70212000  1.0 0.5521631315
C  C187  1  0.45540000  0.67851000  0.64976000  1.0 -0.0286983592
C  C188  1  0.49220000  0.72948000  0.64908000  1.0 -0.0992110198
C  C189  1  0.49280000  0.75339000  0.60095000  1.0 -0.1671080813
C  C190  1  0.45690000  0.72700000  0.55207000  1.0 0.0684609943
C  C191  1  0.41410000  0.67752000  0.55371000  1.0 -0.1334360391
C  C192  1  0.41240000  0.65389000  0.60186000  1.0 -0.0914391558
C  C193  1  0.97220000  0.49762000  0.34905000  1.0 0.1311872086
C  C194  1  0.91030000  0.56793000  0.37015000  1.0 0.1126893885
C  C195  1  0.72970000  0.53396000  0.36053000  1.0 0.0596424232
C  C196  1  0.68570000  0.58029000  0.37587000  1.0 0.1126893885
C  C197  1  0.57810000  0.58111000  0.37609000  1.0 0.1126893885
C  C198  1  0.51626000  0.53548000  0.36115000  1.0 0.0684609943
C  C199  1  0.56257000  0.49157000  0.34763000  1.0 -0.1504875103
C  C200  1  0.66850000  0.49073000  0.34747000  1.0 -0.1504875103
C  C201  1  0.26640000  0.49998000  0.35948000  1.0 0.1311872086
C  C202  1  0.34540000  0.57301000  0.36669000  1.0 0.1188016917
C  C203  1  0.15500000  0.66648000  0.29992000  1.0 0.5560599044
C  C204  1  0.14130000  0.70087000  0.25147000  1.0 -0.0286983592
C  C205  1  0.20020000  0.74621000  0.25387000  1.0 -0.0914391558
C  C206  1  0.19380000  0.77671000  0.20864000  1.0 -0.1416582398
C  C207  1  0.12760000  0.76185000  0.15932000  1.0 0.0684609943
C  C208  1  0.06590000  0.71698000  0.15731000  1.0 -0.1504875103
C  C209  1  0.07240000  0.68691000  0.20271000  1.0 -0.0992110198
C  C210  1  0.13850000  0.87484000  0.96618000  1.0 0.5415902212
C  C211  1  0.13280000  0.84672000  0.01653000  1.0 -0.0150883095
C  C212  1  0.10850000  0.79397000  0.01469000  1.0 -0.1055163518
C  C213  1  0.10590000  0.76684000  0.06062000  1.0 -0.1504875103
C  C214  1  0.12680000  0.79172000  0.10975000  1.0 0.0684609943
C  C215  1  0.14920000  0.84599000  0.11180000  1.0 -0.1334360391
C  C216  1  0.15310000  0.87303000  0.06561000  1.0 -0.0992110198
C  C217  1  0.97220000  0.00238000  0.84905000  1.0 0.1311872086
C  C218  1  0.91030000  0.93207000  0.87015000  1.0 0.1126893885
C  C219  1  0.72970000  0.96604000  0.86053000  1.0 0.0596424232
C  C220  1  0.68570000  0.91971000  0.87587000  1.0 0.1126893885
C  C221  1  0.57810000  0.91889000  0.87609000  1.0 0.1126893885
C  C222  1  0.51626000  0.96452000  0.86115000  1.0 0.0684609943
C  C223  1  0.56257000  0.00843000  0.84763000  1.0 -0.1504875103
C  C224  1  0.66850000  0.00927000  0.84747000  1.0 -0.1504875103
C  C225  1  0.26640000  0.00002000  0.85948000  1.0 0.1311872086
C  C226  1  0.34540000  0.92699000  0.86669000  1.0 0.1188016917
C  C227  1  0.15500000  0.83352000  0.79992000  1.0 0.5560599044
C  C228  1  0.14130000  0.79913000  0.75147000  1.0 -0.0286983592
C  C229  1  0.20020000  0.75379000  0.75387000  1.0 -0.0914391558
C  C230  1  0.19380000  0.72329000  0.70864000  1.0 -0.1416582398
C  C231  1  0.12760000  0.73815000  0.65932000  1.0 0.0684609943
C  C232  1  0.06590000  0.78302000  0.65731000  1.0 -0.1504875103
C  C233  1  0.07240000  0.81309000  0.70271000  1.0 -0.0992110198
C  C234  1  0.13850000  0.62516000  0.46618000  1.0 0.5415902212
C  C235  1  0.13280000  0.65328000  0.51653000  1.0 -0.0150883095
C  C236  1  0.10850000  0.70603000  0.51469000  1.0 -0.1055163518
C  C237  1  0.10590000  0.73316000  0.56062000  1.0 -0.1504875103
C  C238  1  0.12680000  0.70828000  0.60975000  1.0 0.0684609943
C  C239  1  0.14920000  0.65401000  0.61180000  1.0 -0.1334360391
C  C240  1  0.15310000  0.62697000  0.56561000  1.0 -0.0992110198
C  C241  1  0.39780000  0.99625000  0.71464000  1.0 0.1188016917
C  C242  1  0.32650000  0.06886000  0.72241000  1.0 0.1126893885
C  C243  1  0.15040000  0.03123000  0.71962000  1.0 0.0596424232
C  C244  1  0.10100000  0.07938000  0.72673000  1.0 0.0988171585
C  C245  1  0.99270000  0.07914000  0.72610000  1.0 0.0888648257
C  C246  1  0.93600000  0.03142000  0.71784000  1.0 0.0533613339
C  C247  1  0.98600000  0.98587000  0.71174000  1.0 -0.1504875103
C  C248  1  0.09320000  0.98606000  0.71283000  1.0 -0.1579742804
C  C249  1  0.68530000  0.99584000  0.71467000  1.0 0.1311872086
C  C250  1  0.76063000  0.06903000  0.71575000  1.0 0.1188016917
C  C251  1  0.55330000  0.15999000  0.64323000  1.0 0.5521631315
C  C252  1  0.54350000  0.19216000  0.59380000  1.0 -0.0286983592
C  C253  1  0.60420000  0.23649000  0.59473000  1.0 -0.0914391558
C  C254  1  0.60330000  0.26349000  0.54832000  1.0 -0.1416582398
C  C255  1  0.53930000  0.24724000  0.49888000  1.0 0.0596424232
C  C256  1  0.47290000  0.20482000  0.49886000  1.0 -0.1416582398
C  C257  1  0.47550000  0.17712000  0.54547000  1.0 -0.0992110198
C  C258  1  0.53630000  0.34803000  0.29788000  1.0 0.5521631315
C  C259  1  0.54460000  0.32149000  0.35024000  1.0 -0.0286983592
C  C260  1  0.50780000  0.27052000  0.35092000  1.0 -0.0992110198
C  C261  1  0.50720000  0.24661000  0.39905000  1.0 -0.1671080813
C  C262  1  0.54310000  0.27300000  0.44793000  1.0 0.0684609943
C  C263  1  0.58590000  0.32248000  0.44629000  1.0 -0.1334360391
C  C264  1  0.58760000  0.34611000  0.39814000  1.0 -0.0914391558
C  C265  1  0.39780000  0.50375000  0.21464000  1.0 0.1188016917
C  C266  1  0.32650000  0.43114000  0.22241000  1.0 0.1126893885
C  C267  1  0.15040000  0.46877000  0.21962000  1.0 0.0596424232
C  C268  1  0.10100000  0.42062000  0.22673000  1.0 0.0988171585
C  C269  1  0.99270000  0.42086000  0.22610000  1.0 0.0888648257
C  C270  1  0.93600000  0.46858000  0.21784000  1.0 0.0533613339
C  C271  1  0.98600000  0.51413000  0.21174000  1.0 -0.1504875103
C  C272  1  0.09320000  0.51394000  0.21283000  1.0 -0.1579742804
C  C273  1  0.68530000  0.50416000  0.21467000  1.0 0.1311872086
C  C274  1  0.76063000  0.43097000  0.21575000  1.0 0.1188016917
C  C275  1  0.55330000  0.34001000  0.14323000  1.0 0.5521631315
C  C276  1  0.54350000  0.30784000  0.09380000  1.0 -0.0286983592
C  C277  1  0.60420000  0.26351000  0.09473000  1.0 -0.0914391558
C  C278  1  0.60330000  0.23651000  0.04832000  1.0 -0.1416582398
C  C279  1  0.53930000  0.25276000  0.99888000  1.0 0.0596424232
C  C280  1  0.47290000  0.29518000  0.99886000  1.0 -0.1416582398
C  C281  1  0.47550000  0.32288000  0.04547000  1.0 -0.0992110198
C  C282  1  0.53630000  0.15197000  0.79788000  1.0 0.5521631315
C  C283  1  0.54460000  0.17851000  0.85024000  1.0 -0.0286983592
C  C284  1  0.50780000  0.22948000  0.85092000  1.0 -0.0992110198
C  C285  1  0.50720000  0.25339000  0.89905000  1.0 -0.1671080813
C  C286  1  0.54310000  0.22700000  0.94793000  1.0 0.0684609943
C  C287  1  0.58590000  0.17752000  0.94629000  1.0 -0.1334360391
C  C288  1  0.58760000  0.15389000  0.89814000  1.0 -0.0914391558
S  S1  1  0.71560000  0.33552000  0.95428000  1.0 0.3818114326
S  S2  1  0.70290000  0.33376000  0.92319000  1.0 0.3923638985
S  S3  1  0.71560000  0.16448000  0.45428000  1.0 0.3818114326
S  S4  1  0.70290000  0.16624000  0.42319000  1.0 0.3923638985
S  S5  1  0.28440000  0.83552000  0.54572000  1.0 0.3818114326
S  S6  1  0.29710000  0.83376000  0.57681000  1.0 0.3923638985
S  S7  1  0.28440000  0.66448000  0.04572000  1.0 0.3818114326
S  S8  1  0.29710000  0.66624000  0.07681000  1.0 0.3923638985
S  S9  1  0.35055000  0.16489000  0.09414000  1.0 0.4539185837
S  S10  1  0.35055000  0.33511000  0.59414000  1.0 0.4539185837
S  S11  1  0.94560000  0.66689000  0.75786000  1.0 0.4400341809
S  S12  1  0.94560000  0.83311000  0.25786000  1.0 0.4400341809
S  S13  1  0.64945000  0.66489000  0.40586000  1.0 0.4539185837
S  S14  1  0.64945000  0.83511000  0.90586000  1.0 0.4539185837
S  S15  1  0.05440000  0.16689000  0.74214000  1.0 0.4400341809
S  S16  1  0.05440000  0.33311000  0.24214000  1.0 0.4400341809
N  N1  1  0.80180000  0.37419000  0.93620000  1.0 -0.3707461748
N  N2  1  0.07830000  0.45294000  0.92931000  1.0 -0.309110856
N  N3  1  0.49084000  0.47241000  0.92828000  1.0 0.1311872086
N  N4  1  0.33057000  0.45360000  0.92673000  1.0 -0.309110856
N  N5  1  0.44735000  0.51909000  0.93596000  1.0 -0.2334319427
N  N6  1  0.91917000  0.47154000  0.92959000  1.0 0.1311872086
N  N7  1  0.96690000  0.51909000  0.93053000  1.0 -0.2406110391
N  N8  1  0.61440000  0.37453000  0.93540000  1.0 -0.3707461748
N  N9  1  0.80180000  0.12581000  0.43620000  1.0 -0.3707461748
N  N10  1  0.07830000  0.04706000  0.42931000  1.0 -0.309110856
N  N11  1  0.49084000  0.02759000  0.42828000  1.0 0.1311872086
N  N12  1  0.33057000  0.04640000  0.42673000  1.0 -0.309110856
N  N13  1  0.44735000  0.98091000  0.43596000  1.0 -0.2334319427
N  N14  1  0.91917000  0.02846000  0.42959000  1.0 0.1311872086
N  N15  1  0.96690000  0.98091000  0.43053000  1.0 -0.2406110391
N  N16  1  0.61440000  0.12547000  0.43540000  1.0 -0.3707461748
N  N17  1  0.19820000  0.87419000  0.56380000  1.0 -0.3707461748
N  N18  1  0.92170000  0.95294000  0.57069000  1.0 -0.309110856
N  N19  1  0.50916000  0.97241000  0.57172000  1.0 0.1311872086
N  N20  1  0.66943000  0.95360000  0.57327000  1.0 -0.309110856
N  N21  1  0.55265000  0.01909000  0.56404000  1.0 -0.2334319427
N  N22  1  0.08083000  0.97154000  0.57041000  1.0 0.1311872086
N  N23  1  0.03310000  0.01909000  0.56947000  1.0 -0.2406110391
N  N24  1  0.38560000  0.87453000  0.56460000  1.0 -0.3707461748
N  N25  1  0.19820000  0.62581000  0.06380000  1.0 -0.3707461748
N  N26  1  0.92170000  0.54706000  0.07069000  1.0 -0.309110856
N  N27  1  0.50916000  0.52759000  0.07172000  1.0 0.1311872086
N  N28  1  0.66943000  0.54640000  0.07327000  1.0 -0.309110856
N  N29  1  0.55265000  0.48091000  0.06404000  1.0 -0.2334319427
N  N30  1  0.08083000  0.52846000  0.07041000  1.0 0.1311872086
N  N31  1  0.03310000  0.48091000  0.06947000  1.0 -0.2406110391
N  N32  1  0.38560000  0.62547000  0.06460000  1.0 -0.3707461748
N  N33  1  0.00245000  0.04824000  0.13716000  1.0 -0.3033889756
N  N34  1  0.58970000  0.03422000  0.13830000  1.0 0.1478805132
N  N35  1  0.16393000  0.03144000  0.14007000  1.0 0.1478805132
N  N36  1  0.12470000  0.98544000  0.15341000  1.0 -0.2406110391
N  N37  1  0.74704000  0.05255000  0.13459000  1.0 -0.309110856
N  N38  1  0.64022000  0.98679000  0.14314000  1.0 -0.2406110391
N  N39  1  0.26538000  0.12625000  0.10855000  1.0 -0.3707461748
N  N40  1  0.45188000  0.12744000  0.10747000  1.0 -0.3762918859
N  N41  1  0.00245000  0.45176000  0.63716000  1.0 -0.3033889756
N  N42  1  0.58970000  0.46578000  0.63830000  1.0 0.1478805132
N  N43  1  0.16393000  0.46856000  0.64007000  1.0 0.1478805132
N  N44  1  0.12470000  0.51456000  0.65341000  1.0 -0.2406110391
N  N45  1  0.74704000  0.44745000  0.63459000  1.0 -0.309110856
N  N46  1  0.64022000  0.51321000  0.64314000  1.0 -0.2406110391
N  N47  1  0.26538000  0.37375000  0.60855000  1.0 -0.3707461748
N  N48  1  0.45188000  0.37256000  0.60747000  1.0 -0.3762918859
N  N49  1  0.17135000  0.53035000  0.78329000  1.0 0.1311872086
N  N50  1  0.58362000  0.54880000  0.78064000  1.0 -0.309110856
N  N51  1  0.74306000  0.53004000  0.78081000  1.0 0.1394023672
N  N52  1  0.69741000  0.48267000  0.78534000  1.0 -0.2481125817
N  N53  1  0.33203000  0.54887000  0.78606000  1.0 -0.309110856
N  N54  1  0.21902000  0.48254000  0.78356000  1.0 -0.2334319427
N  N55  1  0.85576000  0.62723000  0.76499000  1.0 -0.3707461748
N  N56  1  0.04264000  0.62721000  0.76559000  1.0 -0.3762918859
N  N57  1  0.17135000  0.96965000  0.28329000  1.0 0.1188016917
N  N58  1  0.58362000  0.95120000  0.28064000  1.0 -0.309110856
N  N59  1  0.74306000  0.96996000  0.28081000  1.0 0.1394023672
N  N60  1  0.69741000  0.01733000  0.28534000  1.0 -0.2481125817
N  N61  1  0.33203000  0.95113000  0.28606000  1.0 -0.309110856
N  N62  1  0.21902000  0.01746000  0.28356000  1.0 -0.2334319427
N  N63  1  0.85576000  0.87277000  0.26499000  1.0 -0.3707461748
N  N64  1  0.04264000  0.87279000  0.26559000  1.0 -0.3762918859
N  N65  1  0.99755000  0.54824000  0.36284000  1.0 -0.3033889756
N  N66  1  0.41030000  0.53422000  0.36170000  1.0 0.1478805132
N  N67  1  0.83607000  0.53144000  0.35993000  1.0 0.1478805132
N  N68  1  0.87530000  0.48544000  0.34659000  1.0 -0.2406110391
N  N69  1  0.25296000  0.55255000  0.36541000  1.0 -0.309110856
N  N70  1  0.35978000  0.48679000  0.35686000  1.0 -0.2406110391
N  N71  1  0.73462000  0.62625000  0.39145000  1.0 -0.3707461748
N  N72  1  0.54812000  0.62744000  0.39253000  1.0 -0.3762918859
N  N73  1  0.99755000  0.95176000  0.86284000  1.0 -0.3033889756
N  N74  1  0.41030000  0.96578000  0.86170000  1.0 0.1478805132
N  N75  1  0.83607000  0.96856000  0.85993000  1.0 0.1478805132
N  N76  1  0.87530000  0.01456000  0.84659000  1.0 -0.2406110391
N  N77  1  0.25296000  0.94745000  0.86541000  1.0 -0.309110856
N  N78  1  0.35978000  0.01321000  0.85686000  1.0 -0.2406110391
N  N79  1  0.73462000  0.87375000  0.89145000  1.0 -0.3707461748
N  N80  1  0.54812000  0.87256000  0.89253000  1.0 -0.3762918859
N  N81  1  0.82865000  0.03035000  0.71671000  1.0 0.1311872086
N  N82  1  0.41638000  0.04880000  0.71936000  1.0 -0.309110856
N  N83  1  0.25694000  0.03004000  0.71919000  1.0 0.1394023672
N  N84  1  0.30259000  0.98267000  0.71466000  1.0 -0.2481125817
N  N85  1  0.66797000  0.04887000  0.71394000  1.0 -0.309110856
N  N86  1  0.78098000  0.98254000  0.71644000  1.0 -0.2334319427
N  N87  1  0.14424000  0.12723000  0.73501000  1.0 -0.3707461748
N  N88  1  0.95736000  0.12721000  0.73441000  1.0 -0.3762918859
N  N89  1  0.82865000  0.46965000  0.21671000  1.0 0.1311872086
N  N90  1  0.41638000  0.45120000  0.21936000  1.0 -0.309110856
N  N91  1  0.25694000  0.46996000  0.21919000  1.0 0.1394023672
N  N92  1  0.30259000  0.51733000  0.21466000  1.0 -0.2481125817
N  N93  1  0.66797000  0.45113000  0.21394000  1.0 -0.309110856
N  N94  1  0.78098000  0.51746000  0.21644000  1.0 -0.2334319427
N  N95  1  0.14424000  0.37277000  0.23501000  1.0 -0.3707461748
N  N96  1  0.95736000  0.37279000  0.23441000  1.0 -0.3762918859
O  O1  1  0.24426000  0.37758000  0.99914000  1.0 -0.5474750893
O  O2  1  0.14644000  0.11684000  0.34917000  1.0 -0.5401721833
O  O3  1  0.10820000  0.32942000  0.95881000  1.0 -0.5401721833
O  O4  1  0.28885000  0.16091000  0.38739000  1.0 -0.5474750893
O  O5  1  0.24426000  0.12242000  0.49914000  1.0 -0.5474750893
O  O6  1  0.14644000  0.38316000  0.84917000  1.0 -0.5401721833
O  O7  1  0.10820000  0.17058000  0.45881000  1.0 -0.5401721833
O  O8  1  0.28885000  0.33909000  0.88739000  1.0 -0.5474750893
O  O9  1  0.75574000  0.87758000  0.50086000  1.0 -0.5474750893
O  O10  1  0.85356000  0.61684000  0.15083000  1.0 -0.5401721833
O  O11  1  0.89180000  0.82942000  0.54119000  1.0 -0.5401721833
O  O12  1  0.71115000  0.66091000  0.11261000  1.0 -0.5474750893
O  O13  1  0.75574000  0.62242000  0.00086000  1.0 -0.5474750893
O  O14  1  0.85356000  0.88316000  0.65083000  1.0 -0.5401721833
O  O15  1  0.89180000  0.67058000  0.04119000  1.0 -0.5401721833
O  O16  1  0.71115000  0.83909000  0.61261000  1.0 -0.5474750893
O  O17  1  0.81410000  0.41712000  0.53129000  1.0 -0.5401721833
O  O18  1  0.77091000  0.17416000  0.15991000  1.0 -0.5474750893
O  O19  1  0.91044000  0.12926000  0.20230000  1.0 -0.5474750893
O  O20  1  0.90630000  0.35414000  0.57772000  1.0 -0.5276207849
O  O21  1  0.81410000  0.08288000  0.03129000  1.0 -0.5401721833
O  O22  1  0.77091000  0.32584000  0.65991000  1.0 -0.5474750893
O  O23  1  0.91044000  0.37074000  0.70230000  1.0 -0.5474750893
O  O24  1  0.90630000  0.14586000  0.07772000  1.0 -0.5276207849
O  O25  1  0.51301000  0.62380000  0.85738000  1.0 -0.5401721833
O  O26  1  0.39910000  0.88402000  0.20461000  1.0 -0.5474750893
O  O27  1  0.37201000  0.66768000  0.81653000  1.0 -0.5401721833
O  O28  1  0.53474000  0.83566000  0.24239000  1.0 -0.5401721833
O  O29  1  0.51301000  0.87620000  0.35738000  1.0 -0.5401721833
O  O30  1  0.39910000  0.61598000  0.70461000  1.0 -0.5474750893
O  O31  1  0.37201000  0.83232000  0.31653000  1.0 -0.5401721833
O  O32  1  0.53474000  0.66434000  0.74239000  1.0 -0.5401721833
O  O33  1  0.18590000  0.91712000  0.96871000  1.0 -0.5474750893
O  O34  1  0.22909000  0.67416000  0.34009000  1.0 -0.5474750893
O  O35  1  0.08956000  0.62926000  0.29770000  1.0 -0.5474750893
O  O36  1  0.09370000  0.85414000  0.92228000  1.0 -0.5276207849
O  O37  1  0.18590000  0.58288000  0.46871000  1.0 -0.5401721833
O  O38  1  0.22909000  0.82584000  0.84009000  1.0 -0.5474750893
O  O39  1  0.08956000  0.87074000  0.79770000  1.0 -0.5474750893
O  O40  1  0.09370000  0.64586000  0.42228000  1.0 -0.5276207849
O  O41  1  0.48699000  0.12380000  0.64262000  1.0 -0.5401721833
O  O42  1  0.60090000  0.38402000  0.29539000  1.0 -0.5474750893
O  O43  1  0.62799000  0.16768000  0.68347000  1.0 -0.5401721833
O  O44  1  0.46526000  0.33566000  0.25761000  1.0 -0.5401721833
O  O45  1  0.48699000  0.37620000  0.14262000  1.0 -0.5401721833
O  O46  1  0.60090000  0.11598000  0.79539000  1.0 -0.5474750893
O  O47  1  0.62799000  0.33232000  0.18347000  1.0 -0.5401721833
O  O48  1  0.46526000  0.16434000  0.75761000  1.0 -0.5401721833
