# DDEC6 charges by PACMAN v1.1 (https://github.com/mtap-research/PACMAN-charge/)
data_GAWJEV_ASR_pacman
_symmetry_space_group_name_H-M   'P 1'
_cell_length_a   12.65970000
_cell_length_b   12.65970000
_cell_length_c   27.57200000
_cell_angle_alpha   68.08630000
_cell_angle_beta   111.91400000
_cell_angle_gamma   130.39600000
_symmetry_Int_Tables_number   1
_chemical_formula_structural   Zn3H7(C2O)12
_chemical_formula_sum   'Zn12 H28 C96 O48'
_cell_volume   3067.78591169
_cell_formula_units_Z   4
loop_
 _symmetry_equiv_pos_site_id
 _symmetry_equiv_pos_as_xyz
  1  'x, y, z'
loop_
 _atom_site_type_symbol
 _atom_site_label
 _atom_site_symmetry_multiplicity
 _atom_site_fract_x
 _atom_site_fract_y
 _atom_site_fract_z
 _atom_site_occupancy
 _atom_site_charge
Zn  Zn1  1  0.93697000  0.93697000  0.75000000  1.0 0.9334902172
Zn  Zn2  1  0.06303000  0.06303000  0.25000000  1.0 0.9334902172
Zn  Zn3  1  0.50000000  0.50000000  0.00000000  1.0 0.98819387
Zn  Zn4  1  0.50000000  0.50000000  0.50000000  1.0 0.98819387
Zn  Zn5  1  0.75222000  0.17298000  0.11632000  1.0 0.9763991738
Zn  Zn6  1  0.17298000  0.75222000  0.38368000  1.0 0.9763991738
Zn  Zn7  1  0.24778000  0.82702000  0.88368000  1.0 0.9749456351
Zn  Zn8  1  0.82702000  0.24778000  0.61632000  1.0 0.9763991738
Zn  Zn9  1  0.28896000  0.49082000  0.04302000  1.0 0.9507495467
Zn  Zn10  1  0.49082000  0.28896000  0.45698000  1.0 0.9507495467
Zn  Zn11  1  0.71104000  0.50918000  0.95698000  1.0 0.9507495467
Zn  Zn12  1  0.50918000  0.71104000  0.54302000  1.0 0.9507495467
H  H1  1  0.45660000  0.75380000  0.77790000  1.0 0.1237398291
H  H2  1  0.75380000  0.45660000  0.72210000  1.0 0.1237398291
H  H3  1  0.54340000  0.24620000  0.22210000  1.0 0.1237398291
H  H4  1  0.24620000  0.54340000  0.27790000  1.0 0.1237398291
H  H5  1  0.94390000  0.87350000  0.07810000  1.0 0.1237398291
H  H6  1  0.87350000  0.94390000  0.42190000  1.0 0.1237398291
H  H7  1  0.05610000  0.12650000  0.92190000  1.0 0.1237398291
H  H8  1  0.12650000  0.05610000  0.57810000  1.0 0.1237398291
H  H9  1  0.92110000  0.02470000  0.09350000  1.0 0.131852115
H  H10  1  0.02470000  0.92110000  0.40650000  1.0 0.131852115
H  H11  1  0.07890000  0.97530000  0.90650000  1.0 0.131852115
H  H12  1  0.97530000  0.07890000  0.59350000  1.0 0.131852115
H  H13  1  0.19760000  0.39900000  0.85790000  1.0 0.1460064952
H  H14  1  0.39900000  0.19760000  0.64210000  1.0 0.1460064952
H  H15  1  0.80240000  0.60100000  0.14210000  1.0 0.1460064952
H  H16  1  0.60100000  0.80240000  0.35790000  1.0 0.1460064952
H  H17  1  0.33680000  0.69880000  0.83920000  1.0 0.1237398291
H  H18  1  0.69880000  0.33680000  0.66080000  1.0 0.1237398291
H  H19  1  0.66320000  0.30120000  0.16080000  1.0 0.1237398291
H  H20  1  0.30120000  0.66320000  0.33920000  1.0 0.1237398291
H  H21  1  0.41030000  0.31090000  0.82250000  1.0 0.1433191527
H  H22  1  0.31090000  0.41030000  0.67750000  1.0 0.1433191527
H  H23  1  0.58970000  0.68910000  0.17750000  1.0 0.1433191527
H  H24  1  0.68910000  0.58970000  0.32250000  1.0 0.1433191527
H  H25  1  0.81640000  0.90720000  0.88650000  1.0 0.131852115
H  H26  1  0.90720000  0.81640000  0.61350000  1.0 0.131852115
H  H27  1  0.18360000  0.09280000  0.11350000  1.0 0.131852115
H  H28  1  0.09280000  0.18360000  0.38650000  1.0 0.131852115
C  C1  1  0.10610000  0.32110000  0.79073000  1.0 0.0183203921
C  C2  1  0.32110000  0.10610000  0.70927000  1.0 0.0183203921
C  C3  1  0.89390000  0.67890000  0.20927000  1.0 0.0183203921
C  C4  1  0.67890000  0.89390000  0.29073000  1.0 0.0183203921
C  C5  1  0.00238000  0.21662000  0.71065000  1.0 0.6125164036
C  C6  1  0.21662000  0.00238000  0.78935000  1.0 0.6125164036
C  C7  1  0.99762000  0.78338000  0.28935000  1.0 0.6125164036
C  C8  1  0.78338000  0.99762000  0.21065000  1.0 0.6125164036
C  C9  1  0.50254000  0.76426000  0.90054000  1.0 -0.0918908599
C  C10  1  0.76426000  0.50254000  0.59946000  1.0 -0.0918908599
C  C11  1  0.49746000  0.23574000  0.09946000  1.0 -0.0918908599
C  C12  1  0.23574000  0.49746000  0.40054000  1.0 -0.0918908599
C  C13  1  0.50404000  0.77176000  0.81217000  1.0 -0.0999762653
C  C14  1  0.77176000  0.50404000  0.68783000  1.0 -0.0999762653
C  C15  1  0.49596000  0.22824000  0.18783000  1.0 -0.0999762653
C  C16  1  0.22824000  0.49596000  0.31217000  1.0 -0.0999762653
C  C17  1  0.32256000  0.36404000  0.84757000  1.0 0.0183203921
C  C18  1  0.36404000  0.32256000  0.65243000  1.0 0.0183203921
C  C19  1  0.67744000  0.63596000  0.15243000  1.0 0.0183203921
C  C20  1  0.63596000  0.67744000  0.34757000  1.0 0.0183203921
C  C21  1  0.43555000  0.42085000  0.89482000  1.0 0.6125164036
C  C22  1  0.42085000  0.43555000  0.60518000  1.0 0.6125164036
C  C23  1  0.56445000  0.57915000  0.10518000  1.0 0.6125164036
C  C24  1  0.57915000  0.56445000  0.39482000  1.0 0.6125164036
C  C25  1  0.81508000  0.72752000  0.00345000  1.0 0.5874377419
C  C26  1  0.72752000  0.81508000  0.49655000  1.0 0.5874377419
C  C27  1  0.18492000  0.27248000  0.99655000  1.0 0.5874377419
C  C28  1  0.27248000  0.18492000  0.50345000  1.0 0.5874377419
C  C29  1  0.77620000  0.12920000  0.03081000  1.0 0.5874377419
C  C30  1  0.12920000  0.77620000  0.46919000  1.0 0.5874377419
C  C31  1  0.22380000  0.87080000  0.96919000  1.0 0.5874377419
C  C32  1  0.87080000  0.22380000  0.53081000  1.0 0.5874377419
C  C33  1  0.41368000  0.70232000  0.94036000  1.0 0.6342702513
C  C34  1  0.70232000  0.41368000  0.55964000  1.0 0.6342702513
C  C35  1  0.58632000  0.29768000  0.05964000  1.0 0.6342702513
C  C36  1  0.29768000  0.58632000  0.44036000  1.0 0.6342702513
C  C37  1  0.88632000  0.89808000  0.05288000  1.0 -0.1171261664
C  C38  1  0.89808000  0.88632000  0.44712000  1.0 -0.1171261664
C  C39  1  0.11368000  0.10192000  0.94712000  1.0 -0.1171261664
C  C40  1  0.10192000  0.11368000  0.55288000  1.0 -0.1171261664
C  C41  1  0.64965000  0.83235000  0.91491000  1.0 0.0803997111
C  C42  1  0.83235000  0.64965000  0.58509000  1.0 0.0803997111
C  C43  1  0.35035000  0.16765000  0.08509000  1.0 0.0803997111
C  C44  1  0.16765000  0.35035000  0.41491000  1.0 0.0803997111
C  C45  1  0.87506000  0.99054000  0.06179000  1.0 -0.0837899386
C  C46  1  0.99054000  0.87506000  0.43821000  1.0 -0.0837899386
C  C47  1  0.12494000  0.00946000  0.93821000  1.0 -0.0837899386
C  C48  1  0.00946000  0.12494000  0.56179000  1.0 -0.0837899386
C  C49  1  0.73012000  0.88108000  0.96749000  1.0 0.0261257463
C  C50  1  0.88108000  0.73012000  0.53251000  1.0 0.0261257463
C  C51  1  0.26988000  0.11892000  0.03251000  1.0 0.0261257463
C  C52  1  0.11892000  0.26988000  0.46749000  1.0 0.0261257463
C  C53  1  0.23323000  0.26557000  0.76904000  1.0 0.0664111138
C  C54  1  0.26557000  0.23323000  0.73096000  1.0 0.0664111138
C  C55  1  0.76677000  0.73443000  0.23096000  1.0 0.0664111138
C  C56  1  0.73443000  0.76677000  0.26904000  1.0 0.0664111138
C  C57  1  0.79425000  0.03155000  0.02300000  1.0 -0.0223150226
C  C58  1  0.03155000  0.79425000  0.47700000  1.0 -0.0223150226
C  C59  1  0.20575000  0.96845000  0.97700000  1.0 -0.0223150226
C  C60  1  0.96845000  0.20575000  0.52300000  1.0 -0.0223150226
C  C61  1  0.64754000  0.83206000  0.82673000  1.0 0.0072169094
C  C62  1  0.83206000  0.64754000  0.67327000  1.0 0.0072169094
C  C63  1  0.35246000  0.16794000  0.17327000  1.0 0.0072169094
C  C64  1  0.16794000  0.35246000  0.32673000  1.0 0.0072169094
C  C65  1  0.20664000  0.36656000  0.83556000  1.0 -0.1417353
C  C66  1  0.36656000  0.20664000  0.66444000  1.0 -0.1417353
C  C67  1  0.79336000  0.63344000  0.16444000  1.0 -0.1417353
C  C68  1  0.63344000  0.79336000  0.33556000  1.0 -0.1417353
C  C69  1  0.43273000  0.73867000  0.84893000  1.0 -0.1119043469
C  C70  1  0.73867000  0.43273000  0.65107000  1.0 -0.1119043469
C  C71  1  0.56727000  0.26133000  0.15107000  1.0 -0.1119043469
C  C72  1  0.26133000  0.56727000  0.34893000  1.0 -0.1119043469
C  C73  1  0.33344000  0.31316000  0.81421000  1.0 -0.1480805106
C  C74  1  0.31316000  0.33344000  0.68579000  1.0 -0.1480805106
C  C75  1  0.66656000  0.68684000  0.18579000  1.0 -0.1480805106
C  C76  1  0.68684000  0.66656000  0.31421000  1.0 -0.1480805106
C  C77  1  0.71975000  0.86405000  0.87759000  1.0 -0.1480805106
C  C78  1  0.86405000  0.71975000  0.62241000  1.0 -0.1480805106
C  C79  1  0.28025000  0.13595000  0.12241000  1.0 -0.1480805106
C  C80  1  0.13595000  0.28025000  0.37759000  1.0 -0.1480805106
C  C81  1  0.72430000  0.86230000  0.78747000  1.0 0.5551539366
C  C82  1  0.86230000  0.72430000  0.71253000  1.0 0.5551539366
C  C83  1  0.27570000  0.13770000  0.21253000  1.0 0.5551539366
C  C84  1  0.13770000  0.27570000  0.28747000  1.0 0.5551539366
C  C85  1  0.72389000  0.98011000  0.97516000  1.0 -0.003334201
C  C86  1  0.98011000  0.72389000  0.52484000  1.0 -0.003334201
C  C87  1  0.27611000  0.01989000  0.02484000  1.0 -0.003334201
C  C88  1  0.01989000  0.27611000  0.47516000  1.0 -0.003334201
C  C89  1  0.11804000  0.26876000  0.75759000  1.0 -0.1119043469
C  C90  1  0.26876000  0.11804000  0.74241000  1.0 -0.1119043469
C  C91  1  0.88196000  0.73124000  0.24241000  1.0 -0.1119043469
C  C92  1  0.73124000  0.88196000  0.25759000  1.0 -0.1119043469
C  C93  1  0.81294000  0.84126000  0.00682000  1.0 -0.0475249882
C  C94  1  0.84126000  0.81294000  0.49318000  1.0 -0.0475249882
C  C95  1  0.18706000  0.15874000  0.99318000  1.0 -0.0475249882
C  C96  1  0.15874000  0.18706000  0.50682000  1.0 -0.0475249882
O  O1  1  0.85462000  0.18798000  0.07212000  1.0 -0.5800106819
O  O2  1  0.18798000  0.85462000  0.42788000  1.0 -0.5800106819
O  O3  1  0.14538000  0.81202000  0.92788000  1.0 -0.5800106819
O  O4  1  0.81202000  0.14538000  0.57212000  1.0 -0.5800106819
O  O5  1  0.43869000  0.63563000  0.98477000  1.0 -0.5483594458
O  O6  1  0.63563000  0.43869000  0.51523000  1.0 -0.5483594458
O  O7  1  0.56131000  0.36437000  0.01523000  1.0 -0.5483594458
O  O8  1  0.36437000  0.56131000  0.48477000  1.0 -0.5483594458
O  O9  1  0.95527000  0.28853000  0.68566000  1.0 -0.5294686775
O  O10  1  0.28853000  0.95527000  0.81434000  1.0 -0.5294686775
O  O11  1  0.04473000  0.71147000  0.31434000  1.0 -0.5294686775
O  O12  1  0.71147000  0.04473000  0.18566000  1.0 -0.5294686775
O  O13  1  0.84092000  0.87628000  0.80681000  1.0 -0.5483594458
O  O14  1  0.87628000  0.84092000  0.69319000  1.0 -0.5483594458
O  O15  1  0.15908000  0.12372000  0.19319000  1.0 -0.5483594458
O  O16  1  0.12372000  0.15908000  0.30681000  1.0 -0.5483594458
O  O17  1  0.95548000  0.10452000  0.69849000  1.0 -0.5442432161
O  O18  1  0.10452000  0.95548000  0.80151000  1.0 -0.5442432161
O  O19  1  0.04452000  0.89548000  0.30151000  1.0 -0.5442432161
O  O20  1  0.89548000  0.04452000  0.19849000  1.0 -0.5442432161
O  O21  1  0.54832000  0.43828000  0.89845000  1.0 -0.5294686775
O  O22  1  0.43828000  0.54832000  0.60155000  1.0 -0.5294686775
O  O23  1  0.45168000  0.56172000  0.10155000  1.0 -0.5294686775
O  O24  1  0.56172000  0.45168000  0.39845000  1.0 -0.5294686775
O  O25  1  0.41028000  0.44912000  0.92662000  1.0 -0.5557542737
O  O26  1  0.44912000  0.41028000  0.57338000  1.0 -0.5557542737
O  O27  1  0.58972000  0.55088000  0.07338000  1.0 -0.5557542737
O  O28  1  0.55088000  0.58972000  0.42662000  1.0 -0.5557542737
O  O29  1  0.91474000  0.72046000  0.02533000  1.0 -0.484602123
O  O30  1  0.72046000  0.91474000  0.47467000  1.0 -0.4887841439
O  O31  1  0.08526000  0.27954000  0.97467000  1.0 -0.4887841439
O  O32  1  0.27954000  0.08526000  0.52533000  1.0 -0.4887841439
O  O33  1  0.67562000  0.87318000  0.73912000  1.0 -0.5242682393
O  O34  1  0.87318000  0.67562000  0.76088000  1.0 -0.5242682393
O  O35  1  0.32438000  0.12682000  0.26088000  1.0 -0.5242682393
O  O36  1  0.12682000  0.32438000  0.23912000  1.0 -0.5242682393
O  O37  1  0.68710000  0.14710000  0.99888000  1.0 -0.5048867758
O  O38  1  0.14710000  0.68710000  0.50112000  1.0 -0.5048867758
O  O39  1  0.31290000  0.85290000  0.00112000  1.0 -0.5060953195
O  O40  1  0.85290000  0.31290000  0.49888000  1.0 -0.5060953195
O  O41  1  0.31207000  0.70833000  0.92850000  1.0 -0.5442432161
O  O42  1  0.70833000  0.31207000  0.57150000  1.0 -0.5442432161
O  O43  1  0.68793000  0.29167000  0.07150000  1.0 -0.5442432161
O  O44  1  0.29167000  0.68793000  0.42850000  1.0 -0.5442432161
O  O45  1  0.69969000  0.63523000  0.97589000  1.0 -0.5929354723
O  O46  1  0.63523000  0.69969000  0.52411000  1.0 -0.5929354723
O  O47  1  0.30031000  0.36477000  0.02411000  1.0 -0.5929354723
O  O48  1  0.36477000  0.30031000  0.47589000  1.0 -0.5929354723
