# DDEC6 charges by PACMAN v1.1 (https://github.com/mtap-research/PACMAN-charge/)
data_GAWKEW_ASR_pacman
_symmetry_space_group_name_H-M   'P 1'
_cell_length_a   18.43200000
_cell_length_b   14.90700000
_cell_length_c   33.28400000
_cell_angle_alpha   90.00000000
_cell_angle_beta   97.89000000
_cell_angle_gamma   90.00000000
_symmetry_Int_Tables_number   1
_chemical_formula_structural   Cu8P2H12W18C12N18O53
_chemical_formula_sum   'Cu32 P8 H48 W72 C48 N72 O212'
_cell_volume   9058.73107130
_cell_formula_units_Z   4
loop_
 _symmetry_equiv_pos_site_id
 _symmetry_equiv_pos_as_xyz
  1  'x, y, z'
loop_
 _atom_site_type_symbol
 _atom_site_label
 _atom_site_symmetry_multiplicity
 _atom_site_fract_x
 _atom_site_fract_y
 _atom_site_fract_z
 _atom_site_occupancy
 _atom_site_charge
Cu  Cu1  1  0.48059000  0.05247000  0.61290000  1.0 0.791084453
Cu  Cu2  1  0.51941000  0.55247000  0.88710000  1.0 0.791084453
Cu  Cu3  1  0.51941000  0.94753000  0.38710000  1.0 0.791084453
Cu  Cu4  1  0.48059000  0.44753000  0.11290000  1.0 0.791084453
Cu  Cu5  1  0.31622000  0.13861000  0.62394000  1.0 0.5558423693
Cu  Cu6  1  0.68378000  0.63861000  0.87606000  1.0 0.5558423693
Cu  Cu7  1  0.68378000  0.86139000  0.37606000  1.0 0.5558423693
Cu  Cu8  1  0.31622000  0.36139000  0.12394000  1.0 0.5558423693
Cu  Cu9  1  0.04798000  0.74440000  0.77338000  1.0 0.791084453
Cu  Cu10  1  0.95202000  0.24440000  0.72662000  1.0 0.791084453
Cu  Cu11  1  0.95202000  0.25560000  0.22662000  1.0 0.791084453
Cu  Cu12  1  0.04798000  0.75560000  0.27338000  1.0 0.791084453
Cu  Cu13  1  0.94814000  0.30310000  0.62883000  1.0 0.7215411956
Cu  Cu14  1  0.05186000  0.80310000  0.87117000  1.0 0.7215411956
Cu  Cu15  1  0.05186000  0.69690000  0.37117000  1.0 0.7215411956
Cu  Cu16  1  0.94814000  0.19690000  0.12883000  1.0 0.7215411956
Cu  Cu17  1  0.77062000  0.96591000  0.79261000  1.0 0.3435094649
Cu  Cu18  1  0.22938000  0.46591000  0.70739000  1.0 0.3435094649
Cu  Cu19  1  0.22938000  0.03409000  0.20739000  1.0 0.3435094649
Cu  Cu20  1  0.77062000  0.53409000  0.29261000  1.0 0.3435094649
Cu  Cu21  1  0.79529000  0.21165000  0.65805000  1.0 0.6751507218
Cu  Cu22  1  0.20471000  0.71165000  0.84195000  1.0 0.6734071866
Cu  Cu23  1  0.20471000  0.78835000  0.34195000  1.0 0.6734071866
Cu  Cu24  1  0.79529000  0.28835000  0.15805000  1.0 0.6734071866
Cu  Cu25  1  0.47138000  0.26234000  0.64984000  1.0 0.7589300568
Cu  Cu26  1  0.52862000  0.76234000  0.85016000  1.0 0.7589300568
Cu  Cu27  1  0.52862000  0.73766000  0.35016000  1.0 0.7589300568
Cu  Cu28  1  0.47138000  0.23766000  0.14984000  1.0 0.7589300568
Cu  Cu29  1  0.25487000  0.80940000  0.52040000  1.0 0.1795969116
Cu  Cu30  1  0.74513000  0.30940000  0.97960000  1.0 0.1795969116
Cu  Cu31  1  0.74513000  0.19060000  0.47960000  1.0 0.1795969116
Cu  Cu32  1  0.25487000  0.69060000  0.02040000  1.0 0.1795969116
P  P1  1  0.83400000  0.73730000  0.57840000  1.0 1.2996323849
P  P2  1  0.16600000  0.23730000  0.92160000  1.0 1.2996323849
P  P3  1  0.16600000  0.26270000  0.42160000  1.0 1.2996323849
P  P4  1  0.83400000  0.76270000  0.07840000  1.0 1.2996323849
P  P5  1  0.66490000  0.66170000  0.63199000  1.0 1.2996323849
P  P6  1  0.33510000  0.16170000  0.86801000  1.0 1.2996323849
P  P7  1  0.33510000  0.33830000  0.36801000  1.0 1.2996323849
P  P8  1  0.66490000  0.83830000  0.13199000  1.0 1.2996323849
H  H1  1  0.66320000  0.06130000  0.61970000  1.0 0.0930362171
H  H2  1  0.33680000  0.56130000  0.88030000  1.0 0.0930362171
H  H3  1  0.33680000  0.93870000  0.38030000  1.0 0.0930362171
H  H4  1  0.66320000  0.43870000  0.11970000  1.0 0.0930362171
H  H5  1  0.90000000  0.90570000  0.85640000  1.0 0.1061938251
H  H6  1  0.10000000  0.40570000  0.64360000  1.0 0.1061938251
H  H7  1  0.10000000  0.09430000  0.14360000  1.0 0.1061938251
H  H8  1  0.90000000  0.59430000  0.35640000  1.0 0.1061938251
H  H9  1  0.41080000  0.87060000  0.57040000  1.0 0.1061938251
H  H10  1  0.58920000  0.37060000  0.92960000  1.0 0.1061938251
H  H11  1  0.58920000  0.12940000  0.42960000  1.0 0.1061938251
H  H12  1  0.41080000  0.62940000  0.07040000  1.0 0.1061938251
H  H13  1  0.21420000  0.26930000  0.66720000  1.0 0.0930362171
H  H14  1  0.78580000  0.76930000  0.83280000  1.0 0.0930362171
H  H15  1  0.78580000  0.73070000  0.33280000  1.0 0.0930362171
H  H16  1  0.21420000  0.23070000  0.16720000  1.0 0.0930362171
H  H17  1  0.89080000  0.84810000  0.74390000  1.0 0.1018773971
H  H18  1  0.10920000  0.34810000  0.75610000  1.0 0.1018773971
H  H19  1  0.10920000  0.15190000  0.25610000  1.0 0.1018773971
H  H20  1  0.89080000  0.65190000  0.24390000  1.0 0.1018773971
H  H21  1  0.27640000  0.57880000  0.78490000  1.0 0.1061938251
H  H22  1  0.72360000  0.07880000  0.71510000  1.0 0.1061938251
H  H23  1  0.72360000  0.42120000  0.21510000  1.0 0.1061938251
H  H24  1  0.27640000  0.92120000  0.28490000  1.0 0.1061938251
H  H25  1  0.64470000  0.29520000  0.66730000  1.0 0.1061938251
H  H26  1  0.35530000  0.79520000  0.83270000  1.0 0.1061938251
H  H27  1  0.35530000  0.70480000  0.33270000  1.0 0.1061938251
H  H28  1  0.64470000  0.20480000  0.16730000  1.0 0.1061938251
H  H29  1  0.09280000  0.59430000  0.71160000  1.0 0.1061938251
H  H30  1  0.90720000  0.09430000  0.78840000  1.0 0.1061938251
H  H31  1  0.90720000  0.40570000  0.28840000  1.0 0.1061938251
H  H32  1  0.09280000  0.90570000  0.21160000  1.0 0.1061938251
H  H33  1  0.28650000  0.81050000  0.43040000  1.0 0.0930362171
H  H34  1  0.71350000  0.31050000  0.06960000  1.0 0.0930362171
H  H35  1  0.71350000  0.18950000  0.56960000  1.0 0.0930362171
H  H36  1  0.28650000  0.68950000  0.93040000  1.0 0.0930362171
H  H37  1  0.22130000  0.98750000  0.56900000  1.0 0.0930362171
H  H38  1  0.77870000  0.48750000  0.93100000  1.0 0.0930362171
H  H39  1  0.77870000  0.01250000  0.43100000  1.0 0.0930362171
H  H40  1  0.22130000  0.51250000  0.06900000  1.0 0.0930362171
H  H41  1  0.11820000  0.69740000  0.46670000  1.0 0.1018773971
H  H42  1  0.88180000  0.19740000  0.03330000  1.0 0.1018773971
H  H43  1  0.88180000  0.30260000  0.53330000  1.0 0.1018773971
H  H44  1  0.11820000  0.80260000  0.96670000  1.0 0.1018773971
H  H45  1  0.38310000  0.42460000  0.68600000  1.0 0.1170449736
H  H46  1  0.61690000  0.92460000  0.81400000  1.0 0.1170449736
H  H47  1  0.61690000  0.57540000  0.31400000  1.0 0.1170449736
H  H48  1  0.38310000  0.07540000  0.18600000  1.0 0.1170449736
W  W1  1  0.89803000  0.86075000  0.49960000  1.0 2.4285592432
W  W2  1  0.10197000  0.36075000  0.00040000  1.0 2.4285592432
W  W3  1  0.10197000  0.13925000  0.50040000  1.0 2.4285592432
W  W4  1  0.89803000  0.63925000  0.99960000  1.0 2.4285592432
W  W5  1  0.58122000  0.66606000  0.72264000  1.0 2.4555751379
W  W6  1  0.41878000  0.16606000  0.77736000  1.0 2.4555751379
W  W7  1  0.41878000  0.33394000  0.27736000  1.0 2.4555751379
W  W8  1  0.58122000  0.83394000  0.22264000  1.0 2.4555751379
W  W9  1  0.00597000  0.84403000  0.59024000  1.0 2.479050606
W  W10  1  0.99403000  0.34403000  0.90976000  1.0 2.479050606
W  W11  1  0.99403000  0.15597000  0.40976000  1.0 2.479050606
W  W12  1  0.00597000  0.65597000  0.09024000  1.0 2.479050606
W  W13  1  0.55616000  0.48509000  0.65974000  1.0 2.4447432851
W  W14  1  0.44384000  0.98509000  0.84026000  1.0 2.4447432851
W  W15  1  0.44384000  0.51491000  0.34026000  1.0 2.4447432851
W  W16  1  0.55616000  0.01491000  0.15974000  1.0 2.4506512816
W  W17  1  0.74706000  0.94147000  0.55248000  1.0 2.3620950873
W  W18  1  0.25294000  0.44147000  0.94752000  1.0 2.3620950873
W  W19  1  0.25294000  0.05853000  0.44752000  1.0 2.3620950873
W  W20  1  0.74706000  0.55853000  0.05248000  1.0 2.3620950873
W  W21  1  0.47296000  0.68226000  0.63113000  1.0 2.4555751379
W  W22  1  0.52704000  0.18226000  0.86887000  1.0 2.4555751379
W  W23  1  0.52704000  0.31774000  0.36887000  1.0 2.4555751379
W  W24  1  0.47296000  0.81774000  0.13113000  1.0 2.4555751379
W  W25  1  0.85336000  0.92768000  0.64219000  1.0 2.3933043574
W  W26  1  0.14664000  0.42768000  0.85781000  1.0 2.3933043574
W  W27  1  0.14664000  0.07232000  0.35781000  1.0 2.39909475
W  W28  1  0.85336000  0.57232000  0.14219000  1.0 2.39909475
W  W29  1  0.91615000  0.53478000  0.61055000  1.0 2.4197097714
W  W30  1  0.08385000  0.03478000  0.88945000  1.0 2.4197097714
W  W31  1  0.08385000  0.46522000  0.38945000  1.0 2.4197097714
W  W32  1  0.91615000  0.96522000  0.11055000  1.0 2.4197097714
W  W33  1  0.71679000  0.74411000  0.48601000  1.0 2.4506512816
W  W34  1  0.28321000  0.24411000  0.01399000  1.0 2.4506512816
W  W35  1  0.28321000  0.25589000  0.51399000  1.0 2.4506512816
W  W36  1  0.71679000  0.75589000  0.98601000  1.0 2.4506512816
W  W37  1  0.58924000  0.86755000  0.60376000  1.0 2.4447432851
W  W38  1  0.41076000  0.36755000  0.89624000  1.0 2.4447432851
W  W39  1  0.41076000  0.13245000  0.39624000  1.0 2.4506512816
W  W40  1  0.58924000  0.63245000  0.10376000  1.0 2.4447432851
W  W41  1  0.97966000  0.66250000  0.52777000  1.0 2.4197097714
W  W42  1  0.02034000  0.16250000  0.97223000  1.0 2.4197097714
W  W43  1  0.02034000  0.33750000  0.47223000  1.0 2.4197097714
W  W44  1  0.97966000  0.83750000  0.02777000  1.0 2.4197097714
W  W45  1  0.94094000  0.71132000  0.67259000  1.0 2.4506512816
W  W46  1  0.05906000  0.21132000  0.82741000  1.0 2.4506512816
W  W47  1  0.05906000  0.28868000  0.32741000  1.0 2.4506512816
W  W48  1  0.94094000  0.78868000  0.17259000  1.0 2.4506512816
W  W49  1  0.75757000  0.46574000  0.66219000  1.0 2.4197097714
W  W50  1  0.24243000  0.96574000  0.83781000  1.0 2.4197097714
W  W51  1  0.24243000  0.53426000  0.33781000  1.0 2.4197097714
W  W52  1  0.75757000  0.03426000  0.16219000  1.0 2.4197097714
W  W53  1  0.69410000  0.85531000  0.69394000  1.0 2.3933043574
W  W54  1  0.30590000  0.35531000  0.80606000  1.0 2.3933043574
W  W55  1  0.30590000  0.14469000  0.30606000  1.0 2.3933043574
W  W56  1  0.69410000  0.64469000  0.19394000  1.0 2.3933043574
W  W57  1  0.79870000  0.54995000  0.51366000  1.0 2.4093632991
W  W58  1  0.20130000  0.04995000  0.98634000  1.0 2.4093632991
W  W59  1  0.20130000  0.45005000  0.48634000  1.0 2.4093632991
W  W60  1  0.79870000  0.95005000  0.01366000  1.0 2.4093632991
W  W61  1  0.78187000  0.64172000  0.72460000  1.0 2.4093632991
W  W62  1  0.21813000  0.14172000  0.77540000  1.0 2.4093632991
W  W63  1  0.21813000  0.35828000  0.27540000  1.0 2.4093632991
W  W64  1  0.78187000  0.85828000  0.22460000  1.0 2.4093632991
W  W65  1  0.64011000  0.48128000  0.56433000  1.0 2.39909475
W  W66  1  0.35989000  0.98128000  0.93567000  1.0 2.39909475
W  W67  1  0.35989000  0.51872000  0.43567000  1.0 2.39909475
W  W68  1  0.64011000  0.01872000  0.06433000  1.0 2.39909475
W  W69  1  0.55802000  0.67395000  0.53716000  1.0 2.4285592432
W  W70  1  0.44198000  0.17395000  0.96284000  1.0 2.4285592432
W  W71  1  0.44198000  0.32605000  0.46284000  1.0 2.4285592432
W  W72  1  0.55802000  0.82605000  0.03716000  1.0 2.4285592432
C  C1  1  0.64340000  0.11130000  0.63080000  1.0 0.1303914289
C  C2  1  0.35660000  0.61130000  0.86920000  1.0 0.1303914289
C  C3  1  0.35660000  0.88870000  0.36920000  1.0 0.1303914289
C  C4  1  0.64340000  0.38870000  0.13080000  1.0 0.1303914289
C  C5  1  0.91040000  0.88300000  0.83190000  1.0 0.1303914289
C  C6  1  0.08960000  0.38300000  0.66810000  1.0 0.1303914289
C  C7  1  0.08960000  0.11700000  0.16810000  1.0 0.1303914289
C  C8  1  0.91040000  0.61700000  0.33190000  1.0 0.1303914289
C  C9  1  0.37440000  0.91090000  0.57520000  1.0 0.1170449736
C  C10  1  0.62560000  0.41090000  0.92480000  1.0 0.1170449736
C  C11  1  0.62560000  0.08910000  0.42480000  1.0 0.1170449736
C  C12  1  0.37440000  0.58910000  0.07520000  1.0 0.1170449736
C  C13  1  0.26080000  0.29310000  0.66720000  1.0 0.1061938251
C  C14  1  0.73920000  0.79310000  0.83280000  1.0 0.1061938251
C  C15  1  0.73920000  0.70690000  0.33280000  1.0 0.1061938251
C  C16  1  0.26080000  0.20690000  0.16720000  1.0 0.1061938251
C  C17  1  0.90610000  0.85010000  0.77170000  1.0 0.1303914289
C  C18  1  0.09390000  0.35010000  0.72830000  1.0 0.1303914289
C  C19  1  0.09390000  0.14990000  0.22830000  1.0 0.1303914289
C  C20  1  0.90610000  0.64990000  0.27170000  1.0 0.1303914289
C  C21  1  0.23020000  0.59720000  0.77290000  1.0 0.1303914289
C  C22  1  0.76980000  0.09720000  0.72710000  1.0 0.1303914289
C  C23  1  0.76980000  0.40280000  0.22710000  1.0 0.1303914289
C  C24  1  0.23020000  0.90280000  0.27290000  1.0 0.1303914289
C  C25  1  0.63400000  0.23840000  0.65660000  1.0 0.1743480782
C  C26  1  0.36600000  0.73840000  0.84340000  1.0 0.1743480782
C  C27  1  0.36600000  0.76160000  0.34340000  1.0 0.1743480782
C  C28  1  0.63400000  0.26160000  0.15660000  1.0 0.1743480782
C  C29  1  0.13010000  0.60460000  0.73290000  1.0 0.1418760265
C  C30  1  0.86990000  0.10460000  0.76710000  1.0 0.1418760265
C  C31  1  0.86990000  0.39540000  0.26710000  1.0 0.1418760265
C  C32  1  0.13010000  0.89540000  0.23290000  1.0 0.1418760265
C  C33  1  0.24180000  0.78210000  0.43100000  1.0 0.1061938251
C  C34  1  0.75820000  0.28210000  0.06900000  1.0 0.1061938251
C  C35  1  0.75820000  0.21790000  0.56900000  1.0 0.1061938251
C  C36  1  0.24180000  0.71790000  0.93100000  1.0 0.1061938251
C  C37  1  0.27090000  0.97390000  0.57410000  1.0 0.1018773971
C  C38  1  0.72910000  0.47390000  0.92590000  1.0 0.1018773971
C  C39  1  0.72910000  0.02610000  0.42590000  1.0 0.1018773971
C  C40  1  0.27090000  0.52610000  0.07410000  1.0 0.1018773971
C  C41  1  0.15100000  0.72110000  0.45060000  1.0 0.1303914289
C  C42  1  0.84900000  0.22110000  0.04940000  1.0 0.1303914289
C  C43  1  0.84900000  0.27890000  0.54940000  1.0 0.1303914289
C  C44  1  0.15100000  0.77890000  0.95060000  1.0 0.1303914289
C  C45  1  0.35280000  0.37650000  0.67750000  1.0 0.1578683475
C  C46  1  0.64720000  0.87650000  0.82250000  1.0 0.1578683475
C  C47  1  0.64720000  0.62350000  0.32250000  1.0 0.1578683475
C  C48  1  0.35280000  0.12350000  0.17750000  1.0 0.1578683475
N  N1  1  0.97010000  0.83630000  0.82780000  1.0 -0.1969350395
N  N2  1  0.02990000  0.33630000  0.67220000  1.0 -0.1969350395
N  N3  1  0.02990000  0.16370000  0.17220000  1.0 -0.1969350395
N  N4  1  0.97010000  0.66370000  0.32780000  1.0 -0.1969350395
N  N5  1  0.57440000  0.12270000  0.63140000  1.0 -0.2295036004
N  N6  1  0.42560000  0.62270000  0.86860000  1.0 -0.2295036004
N  N7  1  0.42560000  0.87730000  0.36860000  1.0 -0.2295036004
N  N8  1  0.57440000  0.37730000  0.13140000  1.0 -0.2295036004
N  N9  1  0.12670000  0.66460000  0.76210000  1.0 -0.208410876
N  N10  1  0.87330000  0.16460000  0.73790000  1.0 -0.208410876
N  N11  1  0.87330000  0.33540000  0.23790000  1.0 -0.208410876
N  N12  1  0.12670000  0.83540000  0.26210000  1.0 -0.208410876
N  N13  1  0.86860000  0.89310000  0.79810000  1.0 -0.3210044695
N  N14  1  0.13140000  0.39310000  0.70190000  1.0 -0.3210044695
N  N15  1  0.13140000  0.10690000  0.20190000  1.0 -0.3210044695
N  N16  1  0.86860000  0.60690000  0.29810000  1.0 -0.3210044695
N  N17  1  0.19280000  0.66060000  0.78770000  1.0 -0.208410876
N  N18  1  0.80720000  0.16060000  0.71230000  1.0 -0.208410876
N  N19  1  0.80720000  0.33940000  0.21230000  1.0 -0.208410876
N  N20  1  0.19280000  0.83940000  0.28770000  1.0 -0.208410876
N  N21  1  0.56780000  0.20830000  0.64820000  1.0 -0.239516527
N  N22  1  0.43220000  0.70830000  0.85180000  1.0 -0.239516527
N  N23  1  0.43220000  0.79170000  0.35180000  1.0 -0.239516527
N  N24  1  0.56780000  0.29170000  0.14820000  1.0 -0.239516527
N  N25  1  0.28340000  0.37410000  0.68140000  1.0 -0.3127650921
N  N26  1  0.71660000  0.87410000  0.81860000  1.0 -0.3127650921
N  N27  1  0.71660000  0.62590000  0.31860000  1.0 -0.3127650921
N  N28  1  0.28340000  0.12590000  0.18140000  1.0 -0.3127650921
N  N29  1  0.31610000  0.25270000  0.65310000  1.0 -0.1805873704
N  N30  1  0.68390000  0.75270000  0.84690000  1.0 -0.1805873704
N  N31  1  0.68390000  0.74730000  0.34690000  1.0 -0.1805873704
N  N32  1  0.31610000  0.24730000  0.15310000  1.0 -0.1805873704
N  N33  1  0.32050000  0.02660000  0.59460000  1.0 -0.2295036004
N  N34  1  0.67950000  0.52660000  0.90540000  1.0 -0.2295036004
N  N35  1  0.67950000  0.97340000  0.40540000  1.0 -0.2295036004
N  N36  1  0.32050000  0.47340000  0.09460000  1.0 -0.2295036004
N  N37  1  0.21580000  0.75880000  0.46590000  1.0 -0.3210044695
N  N38  1  0.78420000  0.25880000  0.03410000  1.0 -0.3210044695
N  N39  1  0.78420000  0.24120000  0.53410000  1.0 -0.3210044695
N  N40  1  0.21580000  0.74120000  0.96590000  1.0 -0.3210044695
N  N41  1  0.13930000  0.72140000  0.41180000  1.0 -0.208410876
N  N42  1  0.86070000  0.22140000  0.08820000  1.0 -0.208410876
N  N43  1  0.86070000  0.27860000  0.58820000  1.0 -0.208410876
N  N44  1  0.13930000  0.77860000  0.91180000  1.0 -0.208410876
N  N45  1  0.19850000  0.76110000  0.39950000  1.0 -0.1879253392
N  N46  1  0.80150000  0.26110000  0.10050000  1.0 -0.1879253392
N  N47  1  0.80150000  0.23890000  0.60050000  1.0 -0.1879253392
N  N48  1  0.19850000  0.73890000  0.89950000  1.0 -0.1879253392
N  N49  1  0.30060000  0.89830000  0.56140000  1.0 -0.3350586896
N  N50  1  0.69940000  0.39830000  0.93860000  1.0 -0.3350586896
N  N51  1  0.69940000  0.10170000  0.43860000  1.0 -0.3350586896
N  N52  1  0.30060000  0.60170000  0.06140000  1.0 -0.3350586896
N  N53  1  0.37610000  0.30400000  0.66020000  1.0 -0.1969350395
N  N54  1  0.62390000  0.80400000  0.83980000  1.0 -0.1969350395
N  N55  1  0.62390000  0.69600000  0.33980000  1.0 -0.1969350395
N  N56  1  0.37610000  0.19600000  0.16020000  1.0 -0.1969350395
N  N57  1  0.68470000  0.18160000  0.64860000  1.0 -0.3957318669
N  N58  1  0.31530000  0.68160000  0.85140000  1.0 -0.3957318669
N  N59  1  0.31530000  0.81840000  0.35140000  1.0 -0.3957318669
N  N60  1  0.68470000  0.31840000  0.14860000  1.0 -0.3957318669
N  N61  1  0.38710000  0.98400000  0.59500000  1.0 -0.208410876
N  N62  1  0.61290000  0.48400000  0.90500000  1.0 -0.208410876
N  N63  1  0.61290000  0.01600000  0.40500000  1.0 -0.208410876
N  N64  1  0.38710000  0.51600000  0.09500000  1.0 -0.208410876
N  N65  1  0.19420000  0.56050000  0.73790000  1.0 -0.3272500937
N  N66  1  0.80580000  0.06050000  0.76210000  1.0 -0.3272500937
N  N67  1  0.80580000  0.43950000  0.26210000  1.0 -0.3272500937
N  N68  1  0.19420000  0.93950000  0.23790000  1.0 -0.3272500937
N  N69  1  0.96580000  0.81190000  0.78920000  1.0 -0.208410876
N  N70  1  0.03420000  0.31190000  0.71080000  1.0 -0.208410876
N  N71  1  0.03420000  0.18810000  0.21080000  1.0 -0.208410876
N  N72  1  0.96580000  0.68810000  0.28920000  1.0 -0.208410876
O  O1  1  0.67470000  0.77780000  0.43890000  1.0 -0.7615556126
O  O2  1  0.32530000  0.27780000  0.06110000  1.0 -0.7615556126
O  O3  1  0.32530000  0.22220000  0.56110000  1.0 -0.7615556126
O  O4  1  0.67470000  0.72220000  0.93890000  1.0 -0.7615556126
O  O5  1  0.09630000  0.73720000  0.83190000  1.0 -0.8583187019
O  O6  1  0.90370000  0.23720000  0.66810000  1.0 -0.8583187019
O  O7  1  0.90370000  0.26280000  0.16810000  1.0 -0.8583187019
O  O8  1  0.09630000  0.76280000  0.33190000  1.0 -0.8583187019
O  O9  1  0.42600000  0.13990000  0.64140000  1.0 -0.882237867
O  O10  1  0.57400000  0.63990000  0.85860000  1.0 -0.882237867
O  O11  1  0.57400000  0.86010000  0.35860000  1.0 -0.882237867
O  O12  1  0.42600000  0.36010000  0.14140000  1.0 -0.882237867
O  O13  1  0.93630000  0.91670000  0.61170000  1.0 -1.0016004945
O  O14  1  0.06370000  0.41670000  0.88830000  1.0 -1.009682494
O  O15  1  0.06370000  0.08330000  0.38830000  1.0 -1.009682494
O  O16  1  0.93630000  0.58330000  0.11170000  1.0 -1.0016004945
O  O17  1  0.65690000  0.46120000  0.67530000  1.0 -0.958031476
O  O18  1  0.34310000  0.96120000  0.82470000  1.0 -0.958031476
O  O19  1  0.34310000  0.53880000  0.32470000  1.0 -0.958031476
O  O20  1  0.65690000  0.03880000  0.17530000  1.0 -0.958031476
O  O21  1  0.61780000  0.77970000  0.71180000  1.0 -0.958031476
O  O22  1  0.38220000  0.27970000  0.78820000  1.0 -0.958031476
O  O23  1  0.38220000  0.22030000  0.28820000  1.0 -0.958031476
O  O24  1  0.61780000  0.72030000  0.21180000  1.0 -0.958031476
O  O25  1  0.49180000  0.69530000  0.69090000  1.0 -0.9902529498
O  O26  1  0.50820000  0.19530000  0.80910000  1.0 -0.9902529498
O  O27  1  0.50820000  0.30470000  0.30910000  1.0 -0.9902529498
O  O28  1  0.49180000  0.80470000  0.19090000  1.0 -0.9902529498
O  O29  1  0.73240000  0.61610000  0.65630000  1.0 -0.9126651851
O  O30  1  0.26760000  0.11610000  0.84370000  1.0 -0.9126651851
O  O31  1  0.26760000  0.38390000  0.34370000  1.0 -0.9126651851
O  O32  1  0.73240000  0.88390000  0.15630000  1.0 -0.9126651851
O  O33  1  0.66960000  0.76610000  0.63510000  1.0 -0.9045660501
O  O34  1  0.33040000  0.26610000  0.86490000  1.0 -0.9045660501
O  O35  1  0.33040000  0.23390000  0.36490000  1.0 -0.9045660501
O  O36  1  0.66960000  0.73390000  0.13510000  1.0 -0.9045660501
O  O37  1  0.71490000  0.45970000  0.60780000  1.0 -0.9217251805
O  O38  1  0.28510000  0.95970000  0.89220000  1.0 -0.9217251805
O  O39  1  0.28510000  0.54030000  0.39220000  1.0 -0.9217251805
O  O40  1  0.71490000  0.04030000  0.10780000  1.0 -0.9217251805
O  O41  1  0.90180000  0.76530000  0.55840000  1.0 -1.0369885271
O  O42  1  0.09820000  0.26530000  0.94160000  1.0 -1.0369885271
O  O43  1  0.09820000  0.23470000  0.44160000  1.0 -1.0369885271
O  O44  1  0.90180000  0.73470000  0.05840000  1.0 -1.0369885271
O  O45  1  0.96230000  0.43210000  0.61020000  1.0 -0.8134873812
O  O46  1  0.03770000  0.93210000  0.88980000  1.0 -0.8134873812
O  O47  1  0.03770000  0.56790000  0.38980000  1.0 -0.8134873812
O  O48  1  0.96230000  0.06790000  0.11020000  1.0 -0.8134873812
O  O49  1  0.55570000  0.54140000  0.71230000  1.0 -0.9691639696
O  O50  1  0.44430000  0.04140000  0.78770000  1.0 -0.9691639696
O  O51  1  0.44430000  0.45860000  0.28770000  1.0 -0.9691639696
O  O52  1  0.55570000  0.95860000  0.21230000  1.0 -0.9691639696
O  O53  1  0.70070000  0.92910000  0.73360000  1.0 -0.7297708546
O  O54  1  0.29930000  0.42910000  0.76640000  1.0 -0.7297708546
O  O55  1  0.29930000  0.07090000  0.26640000  1.0 -0.7297708546
O  O56  1  0.70070000  0.57090000  0.23360000  1.0 -0.7297708546
O  O57  1  0.00410000  0.73070000  0.71590000  1.0 -0.8368124669
O  O58  1  0.99590000  0.23070000  0.78410000  1.0 -0.8368124669
O  O59  1  0.99590000  0.26930000  0.28410000  1.0 -0.8368124669
O  O60  1  0.00410000  0.76930000  0.21590000  1.0 -0.8368124669
O  O61  1  0.84730000  0.49880000  0.64570000  1.0 -0.9126651851
O  O62  1  0.15270000  0.99880000  0.85430000  1.0 -0.9126651851
O  O63  1  0.15270000  0.50120000  0.35430000  1.0 -0.9126651851
O  O64  1  0.84730000  0.00120000  0.14570000  1.0 -0.9126651851
O  O65  1  0.86310000  0.67520000  0.61330000  1.0 -0.9126651851
O  O66  1  0.13690000  0.17520000  0.88670000  1.0 -0.9126651851
O  O67  1  0.13690000  0.32480000  0.38670000  1.0 -0.9126651851
O  O68  1  0.86310000  0.82480000  0.11330000  1.0 -0.9126651851
O  O69  1  0.97490000  0.59610000  0.57550000  1.0 -0.958031476
O  O70  1  0.02510000  0.09610000  0.92450000  1.0 -0.958031476
O  O71  1  0.02510000  0.40390000  0.42450000  1.0 -0.958031476
O  O72  1  0.97490000  0.90390000  0.07550000  1.0 -0.958031476
O  O73  1  0.63610000  0.69600000  0.50630000  1.0 -0.9296291595
O  O74  1  0.36390000  0.19600000  0.99370000  1.0 -0.9296291595
O  O75  1  0.36390000  0.30400000  0.49370000  1.0 -0.9296291595
O  O76  1  0.63610000  0.80400000  0.00630000  1.0 -0.9296291595
O  O77  1  0.86940000  0.65990000  0.70000000  1.0 -0.9474387869
O  O78  1  0.13060000  0.15990000  0.80000000  1.0 -0.9474387869
O  O79  1  0.13060000  0.34010000  0.30000000  1.0 -0.9474387869
O  O80  1  0.86940000  0.84010000  0.20000000  1.0 -0.9474387869
O  O81  1  0.62090000  0.91370000  0.65860000  1.0 -0.9126651851
O  O82  1  0.37910000  0.41370000  0.84140000  1.0 -0.9126651851
O  O83  1  0.37910000  0.08630000  0.34140000  1.0 -0.9126651851
O  O84  1  0.62090000  0.58630000  0.15860000  1.0 -0.9126651851
O  O85  1  0.76690000  0.90810000  0.66480000  1.0 -0.9296291595
O  O86  1  0.23310000  0.40810000  0.83520000  1.0 -0.9296291595
O  O87  1  0.23310000  0.09190000  0.33520000  1.0 -0.9296291595
O  O88  1  0.76690000  0.59190000  0.16480000  1.0 -0.9296291595
O  O89  1  0.51710000  0.79560000  0.62700000  1.0 -0.984038577
O  O90  1  0.48290000  0.29560000  0.87300000  1.0 -0.984038577
O  O91  1  0.48290000  0.20440000  0.37300000  1.0 -0.984038577
O  O92  1  0.51710000  0.70440000  0.12700000  1.0 -0.984038577
O  O93  1  0.83360000  0.93110000  0.52890000  1.0 -0.9691639696
O  O94  1  0.16640000  0.43110000  0.97110000  1.0 -0.9691639696
O  O95  1  0.16640000  0.06890000  0.47110000  1.0 -0.9691639696
O  O96  1  0.83360000  0.56890000  0.02890000  1.0 -0.9691639696
O  O97  1  0.97160000  0.59540000  0.65690000  1.0 -0.9217251805
O  O98  1  0.02840000  0.09540000  0.84310000  1.0 -0.9217251805
O  O99  1  0.02840000  0.40460000  0.34310000  1.0 -0.9217251805
O  O100  1  0.97160000  0.90460000  0.15690000  1.0 -0.9217251805
O  O101  1  0.70790000  0.85190000  0.51740000  1.0 -0.9126651851
O  O102  1  0.29210000  0.35190000  0.98260000  1.0 -0.9126651851
O  O103  1  0.29210000  0.14810000  0.48260000  1.0 -0.9126651851
O  O104  1  0.70790000  0.64810000  0.01740000  1.0 -0.9126651851
O  O105  1  0.70820000  0.52020000  0.53120000  1.0 -0.9474387869
O  O106  1  0.29180000  0.02020000  0.96880000  1.0 -0.9474387869
O  O107  1  0.29180000  0.47980000  0.46880000  1.0 -0.9474387869
O  O108  1  0.70820000  0.97980000  0.03120000  1.0 -0.9474387869
O  O109  1  0.76000000  0.76570000  0.71290000  1.0 -0.9296291595
O  O110  1  0.24000000  0.26570000  0.78710000  1.0 -0.9296291595
O  O111  1  0.24000000  0.23430000  0.28710000  1.0 -0.9296291595
O  O112  1  0.76000000  0.73430000  0.21290000  1.0 -0.9296291595
O  O113  1  0.57580000  0.79160000  0.55970000  1.0 -0.9296291595
O  O114  1  0.42420000  0.29160000  0.94030000  1.0 -0.9296291595
O  O115  1  0.42420000  0.20840000  0.44030000  1.0 -0.9296291595
O  O116  1  0.57580000  0.70840000  0.05970000  1.0 -0.9296291595
O  O117  1  0.56640000  0.54630000  0.53160000  1.0 -0.9391632939
O  O118  1  0.43360000  0.04630000  0.96840000  1.0 -0.9391632939
O  O119  1  0.43360000  0.45370000  0.46840000  1.0 -0.9391632939
O  O120  1  0.56640000  0.95370000  0.03160000  1.0 -0.9391632939
O  O121  1  0.80380000  0.99480000  0.59920000  1.0 -0.9217251805
O  O122  1  0.19620000  0.49480000  0.90080000  1.0 -0.9217251805
O  O123  1  0.19620000  0.00520000  0.40080000  1.0 -0.9217251805
O  O124  1  0.80380000  0.50520000  0.09920000  1.0 -0.9217251805
O  O125  1  0.80200000  0.82400000  0.59440000  1.0 -0.9126651851
O  O126  1  0.19800000  0.32400000  0.90560000  1.0 -0.9126651851
O  O127  1  0.19800000  0.17600000  0.40560000  1.0 -0.9126651851
O  O128  1  0.80200000  0.67600000  0.09440000  1.0 -0.9126651851
O  O129  1  0.68170000  0.62800000  0.73370000  1.0 -1.009682494
O  O130  1  0.31830000  0.12800000  0.76630000  1.0 -1.009682494
O  O131  1  0.31830000  0.37200000  0.26630000  1.0 -1.009682494
O  O132  1  0.68170000  0.87200000  0.23370000  1.0 -1.009682494
O  O133  1  0.95970000  0.76060000  0.48930000  1.0 -0.9902529498
O  O134  1  0.04030000  0.26060000  0.01070000  1.0 -0.9902529498
O  O135  1  0.04030000  0.23940000  0.51070000  1.0 -0.9902529498
O  O136  1  0.95970000  0.73940000  0.98930000  1.0 -0.9902529498
O  O137  1  0.67240000  0.91780000  0.58530000  1.0 -0.9391632939
O  O138  1  0.32760000  0.41780000  0.91470000  1.0 -0.9391632939
O  O139  1  0.32760000  0.08220000  0.41470000  1.0 -0.9391632939
O  O140  1  0.67240000  0.58220000  0.08530000  1.0 -0.9391632939
O  O141  1  0.04350000  0.74880000  0.55980000  1.0 -1.009682494
O  O142  1  0.95650000  0.24880000  0.94020000  1.0 -1.009682494
O  O143  1  0.95650000  0.25120000  0.44020000  1.0 -1.009682494
O  O144  1  0.04350000  0.75120000  0.05980000  1.0 -1.009682494
O  O145  1  0.78920000  0.51610000  0.71530000  1.0 -0.9391632939
O  O146  1  0.21080000  0.01610000  0.78470000  1.0 -0.9391632939
O  O147  1  0.21080000  0.48390000  0.28470000  1.0 -0.9474387869
O  O148  1  0.78920000  0.98390000  0.21530000  1.0 -0.9391632939
O  O149  1  0.49630000  0.65500000  0.57950000  1.0 -1.009682494
O  O150  1  0.50370000  0.15500000  0.92050000  1.0 -1.009682494
O  O151  1  0.50370000  0.34500000  0.42050000  1.0 -1.009682494
O  O152  1  0.49630000  0.84500000  0.07950000  1.0 -1.009682494
O  O153  1  0.47070000  0.55420000  0.64160000  1.0 -0.9691639696
O  O154  1  0.52930000  0.05420000  0.85840000  1.0 -0.9691639696
O  O155  1  0.52930000  0.44580000  0.35840000  1.0 -0.9691639696
O  O156  1  0.47070000  0.94580000  0.14160000  1.0 -0.9691639696
O  O157  1  0.65170000  0.62900000  0.58830000  1.0 -0.9126651851
O  O158  1  0.34830000  0.12900000  0.91170000  1.0 -0.9126651851
O  O159  1  0.34830000  0.37100000  0.41170000  1.0 -0.9126651851
O  O160  1  0.65170000  0.87100000  0.08830000  1.0 -0.9126651851
O  O161  1  0.89060000  0.82270000  0.66910000  1.0 -0.9217251805
O  O162  1  0.10940000  0.32270000  0.83090000  1.0 -0.9217251805
O  O163  1  0.10940000  0.17730000  0.33090000  1.0 -0.9217251805
O  O164  1  0.89060000  0.67730000  0.16910000  1.0 -0.9217251805
O  O165  1  0.97820000  0.90200000  0.53840000  1.0 -1.0016004945
O  O166  1  0.02180000  0.40200000  0.96160000  1.0 -1.0016004945
O  O167  1  0.02180000  0.09800000  0.46160000  1.0 -1.0016004945
O  O168  1  0.97820000  0.59800000  0.03840000  1.0 -1.0016004945
O  O169  1  0.77950000  0.68900000  0.54630000  1.0 -0.9126651851
O  O170  1  0.22050000  0.18900000  0.95370000  1.0 -0.9126651851
O  O171  1  0.22050000  0.31100000  0.45370000  1.0 -0.9126651851
O  O172  1  0.77950000  0.81100000  0.04630000  1.0 -0.9126651851
O  O173  1  0.74930000  0.62730000  0.47330000  1.0 -0.9391632939
O  O174  1  0.25070000  0.12730000  0.02670000  1.0 -0.9391632939
O  O175  1  0.25070000  0.37270000  0.52670000  1.0 -0.9391632939
O  O176  1  0.74930000  0.87270000  0.97330000  1.0 -0.9391632939
O  O177  1  0.99720000  0.76380000  0.63270000  1.0 -0.984038577
O  O178  1  0.00280000  0.26380000  0.86730000  1.0 -0.984038577
O  O179  1  0.00280000  0.23620000  0.36730000  1.0 -0.984038577
O  O180  1  0.99720000  0.73620000  0.13270000  1.0 -0.984038577
O  O181  1  0.84640000  0.51630000  0.56560000  1.0 -0.9296291595
O  O182  1  0.15360000  0.01630000  0.93440000  1.0 -0.9296291595
O  O183  1  0.15360000  0.48370000  0.43440000  1.0 -0.9296291595
O  O184  1  0.84640000  0.98370000  0.06560000  1.0 -0.9296291595
O  O185  1  0.53090000  0.95900000  0.58720000  1.0 -0.8583187019
O  O186  1  0.46910000  0.45900000  0.91280000  1.0 -0.8583187019
O  O187  1  0.46910000  0.04100000  0.41280000  1.0 -0.8583187019
O  O188  1  0.53090000  0.54100000  0.08720000  1.0 -0.8583187019
O  O189  1  0.51710000  0.37980000  0.66830000  1.0 -0.8583187019
O  O190  1  0.48290000  0.87980000  0.83170000  1.0 -0.8583187019
O  O191  1  0.48290000  0.62020000  0.33170000  1.0 -0.8583187019
O  O192  1  0.51710000  0.12020000  0.16830000  1.0 -0.8583187019
O  O193  1  0.57460000  0.47270000  0.60530000  1.0 -0.9691639696
O  O194  1  0.42540000  0.97270000  0.89470000  1.0 -0.9691639696
O  O195  1  0.42540000  0.52730000  0.39470000  1.0 -0.9691639696
O  O196  1  0.57460000  0.02730000  0.10530000  1.0 -0.9691639696
O  O197  1  0.89110000  0.60920000  0.50680000  1.0 -0.9902529498
O  O198  1  0.10890000  0.10920000  0.99320000  1.0 -0.9902529498
O  O199  1  0.10890000  0.39080000  0.49320000  1.0 -0.9902529498
O  O200  1  0.89110000  0.89080000  0.00680000  1.0 -0.9902529498
O  O201  1  0.77740000  0.35450000  0.67340000  1.0 -0.7809055154
O  O202  1  0.22260000  0.85450000  0.82660000  1.0 -0.7809055154
O  O203  1  0.22260000  0.64550000  0.32660000  1.0 -0.7809055154
O  O204  1  0.77740000  0.14550000  0.17340000  1.0 -0.7809055154
O  O205  1  0.59580000  0.63350000  0.65300000  1.0 -1.0224299734
O  O206  1  0.40420000  0.13350000  0.84700000  1.0 -1.0224299734
O  O207  1  0.40420000  0.36650000  0.34700000  1.0 -1.0224299734
O  O208  1  0.59580000  0.86650000  0.15300000  1.0 -1.0224299734
O  O209  1  0.81420000  0.79340000  0.48110000  1.0 -0.9902529498
O  O210  1  0.18580000  0.29340000  0.01890000  1.0 -0.9902529498
O  O211  1  0.18580000  0.20660000  0.51890000  1.0 -0.9902529498
O  O212  1  0.81420000  0.70660000  0.98110000  1.0 -0.9902529498
