# DDEC6 charges by PACMAN v1.1 (https://github.com/mtap-research/PACMAN-charge/)
data_GAXKOH_ASR_pacman
_symmetry_space_group_name_H-M   'P 1'
_cell_length_a   18.00700000
_cell_length_b   18.00700000
_cell_length_c   19.28800000
_cell_angle_alpha   90.00000000
_cell_angle_beta   90.00000000
_cell_angle_gamma   120.00000000
_symmetry_Int_Tables_number   1
_chemical_formula_structural   KCd3H48C72(NO2)6
_chemical_formula_sum   'K2 Cd6 H96 C144 N12 O24'
_cell_volume   5416.27314896
_cell_formula_units_Z   2
loop_
 _symmetry_equiv_pos_site_id
 _symmetry_equiv_pos_as_xyz
  1  'x, y, z'
loop_
 _atom_site_type_symbol
 _atom_site_label
 _atom_site_symmetry_multiplicity
 _atom_site_fract_x
 _atom_site_fract_y
 _atom_site_fract_z
 _atom_site_occupancy
 _atom_site_charge
K  K1  1  0.33333333  0.66666667  0.75000000  1.0 1.0492386354
K  K2  1  0.66666667  0.33333333  0.25000000  1.0 1.0492386354
Cd  Cd1  1  0.20723000  0.79277000  0.75000000  1.0 0.7995162142
Cd  Cd2  1  0.20723000  0.41446000  0.75000000  1.0 0.7995162142
Cd  Cd3  1  0.58554000  0.79277000  0.75000000  1.0 0.7995162142
Cd  Cd4  1  0.79277000  0.20723000  0.25000000  1.0 0.7995162142
Cd  Cd5  1  0.79277000  0.58554000  0.25000000  1.0 0.7995162142
Cd  Cd6  1  0.41446000  0.20723000  0.25000000  1.0 0.7995162142
H  H1  1  0.07110000  0.66270000  0.53770000  1.0 0.1123828976
H  H2  1  0.33730000  0.40840000  0.53770000  1.0 0.1123828976
H  H3  1  0.59160000  0.92890000  0.53770000  1.0 0.1123828976
H  H4  1  0.33730000  0.92890000  0.96230000  1.0 0.1123828976
H  H5  1  0.59160000  0.66270000  0.96230000  1.0 0.1123828976
H  H6  1  0.07110000  0.40840000  0.96230000  1.0 0.1123828976
H  H7  1  0.92890000  0.33730000  0.46230000  1.0 0.1123828976
H  H8  1  0.66270000  0.59160000  0.46230000  1.0 0.1123828976
H  H9  1  0.40840000  0.07110000  0.46230000  1.0 0.1123828976
H  H10  1  0.66270000  0.07110000  0.03770000  1.0 0.1123828976
H  H11  1  0.40840000  0.33730000  0.03770000  1.0 0.1123828976
H  H12  1  0.92890000  0.59160000  0.03770000  1.0 0.1123828976
H  H13  1  0.12610000  0.53050000  0.40120000  1.0 0.1123828976
H  H14  1  0.46950000  0.59560000  0.40120000  1.0 0.1123828976
H  H15  1  0.40440000  0.87390000  0.40120000  1.0 0.1123828976
H  H16  1  0.46950000  0.87390000  0.09880000  1.0 0.1123828976
H  H17  1  0.40440000  0.53050000  0.09880000  1.0 0.1123828976
H  H18  1  0.12610000  0.59560000  0.09880000  1.0 0.1123828976
H  H19  1  0.87390000  0.46950000  0.59880000  1.0 0.1123828976
H  H20  1  0.53050000  0.40440000  0.59880000  1.0 0.1123828976
H  H21  1  0.59560000  0.12610000  0.59880000  1.0 0.1123828976
H  H22  1  0.53050000  0.12610000  0.90120000  1.0 0.1123828976
H  H23  1  0.59560000  0.46950000  0.90120000  1.0 0.1123828976
H  H24  1  0.87390000  0.40440000  0.90120000  1.0 0.1123828976
H  H25  1  0.22260000  0.52880000  0.47840000  1.0 0.1123828976
H  H26  1  0.47120000  0.69380000  0.47840000  1.0 0.1123828976
H  H27  1  0.30620000  0.77740000  0.47840000  1.0 0.1123828976
H  H28  1  0.47120000  0.77740000  0.02160000  1.0 0.1123828976
H  H29  1  0.30620000  0.52880000  0.02160000  1.0 0.1123828976
H  H30  1  0.22260000  0.69380000  0.02160000  1.0 0.1123828976
H  H31  1  0.77740000  0.47120000  0.52160000  1.0 0.1123828976
H  H32  1  0.52880000  0.30620000  0.52160000  1.0 0.1123828976
H  H33  1  0.69380000  0.22260000  0.52160000  1.0 0.1123828976
H  H34  1  0.52880000  0.22260000  0.97840000  1.0 0.1123828976
H  H35  1  0.69380000  0.47120000  0.97840000  1.0 0.1123828976
H  H36  1  0.77740000  0.30620000  0.97840000  1.0 0.1123828976
H  H37  1  0.24030000  0.58970000  0.58650000  1.0 0.1123828976
H  H38  1  0.41030000  0.65060000  0.58650000  1.0 0.1123828976
H  H39  1  0.34940000  0.75970000  0.58650000  1.0 0.1123828976
H  H40  1  0.41030000  0.75970000  0.91350000  1.0 0.1123828976
H  H41  1  0.34940000  0.58970000  0.91350000  1.0 0.1123828976
H  H42  1  0.24030000  0.65060000  0.91350000  1.0 0.1123828976
H  H43  1  0.75970000  0.41030000  0.41350000  1.0 0.1123828976
H  H44  1  0.58970000  0.34940000  0.41350000  1.0 0.1123828976
H  H45  1  0.65060000  0.24030000  0.41350000  1.0 0.1123828976
H  H46  1  0.58970000  0.24030000  0.08650000  1.0 0.1123828976
H  H47  1  0.65060000  0.41030000  0.08650000  1.0 0.1123828976
H  H48  1  0.75970000  0.34940000  0.08650000  1.0 0.1123828976
H  H49  1  0.94020000  0.53650000  0.26220000  1.0 0.1030804306
H  H50  1  0.46350000  0.40370000  0.26220000  1.0 0.1030804306
H  H51  1  0.59630000  0.05980000  0.26220000  1.0 0.1030804306
H  H52  1  0.46350000  0.05980000  0.23780000  1.0 0.1030804306
H  H53  1  0.59630000  0.53650000  0.23780000  1.0 0.1030804306
H  H54  1  0.94020000  0.40370000  0.23780000  1.0 0.1030804306
H  H55  1  0.05980000  0.46350000  0.73780000  1.0 0.1030804306
H  H56  1  0.53650000  0.59630000  0.73780000  1.0 0.1030804306
H  H57  1  0.40370000  0.94020000  0.73780000  1.0 0.1030804306
H  H58  1  0.53650000  0.94020000  0.76220000  1.0 0.1030804306
H  H59  1  0.40370000  0.46350000  0.76220000  1.0 0.1030804306
H  H60  1  0.05980000  0.59630000  0.76220000  1.0 0.1030804306
H  H61  1  0.03930000  0.53450000  0.33260000  1.0 0.1294875277
H  H62  1  0.46550000  0.50480000  0.33260000  1.0 0.1294875277
H  H63  1  0.49520000  0.96070000  0.33260000  1.0 0.1294875277
H  H64  1  0.46550000  0.96070000  0.16740000  1.0 0.1294875277
H  H65  1  0.49520000  0.53450000  0.16740000  1.0 0.1294875277
H  H66  1  0.03930000  0.50480000  0.16740000  1.0 0.1294875277
H  H67  1  0.96070000  0.46550000  0.66740000  1.0 0.1294875277
H  H68  1  0.53450000  0.49520000  0.66740000  1.0 0.1294875277
H  H69  1  0.50480000  0.03930000  0.66740000  1.0 0.1294875277
H  H70  1  0.53450000  0.03930000  0.83260000  1.0 0.1294875277
H  H71  1  0.50480000  0.46550000  0.83260000  1.0 0.1294875277
H  H72  1  0.96070000  0.49520000  0.83260000  1.0 0.1294875277
H  H73  1  0.97590000  0.65080000  0.47370000  1.0 0.1294875277
H  H74  1  0.34920000  0.32510000  0.47370000  1.0 0.1294875277
H  H75  1  0.67490000  0.02410000  0.47370000  1.0 0.1294875277
H  H76  1  0.34920000  0.02410000  0.02630000  1.0 0.1294875277
H  H77  1  0.67490000  0.65080000  0.02630000  1.0 0.1294875277
H  H78  1  0.97590000  0.32510000  0.02630000  1.0 0.1294875277
H  H79  1  0.02410000  0.34920000  0.52630000  1.0 0.1294875277
H  H80  1  0.65080000  0.67490000  0.52630000  1.0 0.1294875277
H  H81  1  0.32510000  0.97590000  0.52630000  1.0 0.1294875277
H  H82  1  0.65080000  0.97590000  0.97370000  1.0 0.1294875277
H  H83  1  0.32510000  0.34920000  0.97370000  1.0 0.1294875277
H  H84  1  0.02410000  0.67490000  0.97370000  1.0 0.1294875277
H  H85  1  0.87590000  0.64620000  0.39990000  1.0 0.1123828976
H  H86  1  0.35380000  0.22970000  0.39990000  1.0 0.1123828976
H  H87  1  0.77030000  0.12410000  0.39990000  1.0 0.1123828976
H  H88  1  0.35380000  0.12410000  0.10010000  1.0 0.1123828976
H  H89  1  0.77030000  0.64620000  0.10010000  1.0 0.1123828976
H  H90  1  0.87590000  0.22970000  0.10010000  1.0 0.1123828976
H  H91  1  0.12410000  0.35380000  0.60010000  1.0 0.1123828976
H  H92  1  0.64620000  0.77030000  0.60010000  1.0 0.1123828976
H  H93  1  0.22970000  0.87590000  0.60010000  1.0 0.1123828976
H  H94  1  0.64620000  0.87590000  0.89990000  1.0 0.1123828976
H  H95  1  0.22970000  0.35380000  0.89990000  1.0 0.1123828976
H  H96  1  0.12410000  0.77030000  0.89990000  1.0 0.1123828976
C  C1  1  0.15940000  0.63420000  0.57200000  1.0 -0.0225387431
C  C2  1  0.36580000  0.52520000  0.57200000  1.0 -0.0225387431
C  C3  1  0.47480000  0.84060000  0.57200000  1.0 -0.0225387431
C  C4  1  0.36580000  0.84060000  0.92800000  1.0 -0.0225387431
C  C5  1  0.47480000  0.63420000  0.92800000  1.0 -0.0225387431
C  C6  1  0.15940000  0.52520000  0.92800000  1.0 -0.0225387431
C  C7  1  0.84060000  0.36580000  0.42800000  1.0 -0.0225387431
C  C8  1  0.63420000  0.47480000  0.42800000  1.0 -0.0225387431
C  C9  1  0.52520000  0.15940000  0.42800000  1.0 -0.0225387431
C  C10  1  0.63420000  0.15940000  0.07200000  1.0 -0.0225387431
C  C11  1  0.52520000  0.36580000  0.07200000  1.0 -0.0225387431
C  C12  1  0.84060000  0.47480000  0.07200000  1.0 -0.0225387431
C  C13  1  0.10140000  0.63530000  0.52540000  1.0 -0.1692795547
C  C14  1  0.36470000  0.46610000  0.52540000  1.0 -0.1692795547
C  C15  1  0.53390000  0.89860000  0.52540000  1.0 -0.1692795547
C  C16  1  0.36470000  0.89860000  0.97460000  1.0 -0.1692795547
C  C17  1  0.53390000  0.63530000  0.97460000  1.0 -0.1692795547
C  C18  1  0.10140000  0.46610000  0.97460000  1.0 -0.1692795547
C  C19  1  0.89860000  0.36470000  0.47460000  1.0 -0.1692795547
C  C20  1  0.63530000  0.53390000  0.47460000  1.0 -0.1692795547
C  C21  1  0.46610000  0.10140000  0.47460000  1.0 -0.1692795547
C  C22  1  0.63530000  0.10140000  0.02540000  1.0 -0.1692795547
C  C23  1  0.46610000  0.36470000  0.02540000  1.0 -0.1692795547
C  C24  1  0.89860000  0.53390000  0.02540000  1.0 -0.1692795547
C  C25  1  0.08760000  0.59650000  0.46080000  1.0 0.0639195836
C  C26  1  0.40350000  0.49110000  0.46080000  1.0 0.0639195836
C  C27  1  0.50890000  0.91240000  0.46080000  1.0 0.0639195836
C  C28  1  0.40350000  0.91240000  0.03920000  1.0 0.0639195836
C  C29  1  0.50890000  0.59650000  0.03920000  1.0 0.0639195836
C  C30  1  0.08760000  0.49110000  0.03920000  1.0 0.0639195836
C  C31  1  0.91240000  0.40350000  0.53920000  1.0 0.0639195836
C  C32  1  0.59650000  0.50890000  0.53920000  1.0 0.0639195836
C  C33  1  0.49110000  0.08760000  0.53920000  1.0 0.0639195836
C  C34  1  0.59650000  0.08760000  0.96080000  1.0 0.0639195836
C  C35  1  0.49110000  0.40350000  0.96080000  1.0 0.0639195836
C  C36  1  0.91240000  0.50890000  0.96080000  1.0 0.0639195836
C  C37  1  0.13390000  0.55670000  0.44420000  1.0 -0.1450737583
C  C38  1  0.44330000  0.57720000  0.44420000  1.0 -0.1450737583
C  C39  1  0.42280000  0.86610000  0.44420000  1.0 -0.1450737583
C  C40  1  0.44330000  0.86610000  0.05580000  1.0 -0.1448229568
C  C41  1  0.42280000  0.55670000  0.05580000  1.0 -0.1448229568
C  C42  1  0.13390000  0.57720000  0.05580000  1.0 -0.1448229568
C  C43  1  0.86610000  0.44330000  0.55580000  1.0 -0.1448229568
C  C44  1  0.55670000  0.42280000  0.55580000  1.0 -0.1450737583
C  C45  1  0.57720000  0.13390000  0.55580000  1.0 -0.1448229568
C  C46  1  0.55670000  0.13390000  0.94420000  1.0 -0.1450737583
C  C47  1  0.57720000  0.44330000  0.94420000  1.0 -0.1450737583
C  C48  1  0.86610000  0.42280000  0.94420000  1.0 -0.1448229568
C  C49  1  0.19140000  0.55530000  0.49060000  1.0 -0.0987328531
C  C50  1  0.44470000  0.63610000  0.49060000  1.0 -0.0987328531
C  C51  1  0.36390000  0.80860000  0.49060000  1.0 -0.0987328531
C  C52  1  0.44470000  0.80860000  0.00940000  1.0 -0.0987328531
C  C53  1  0.36390000  0.55530000  0.00940000  1.0 -0.0987328531
C  C54  1  0.19140000  0.63610000  0.00940000  1.0 -0.0987328531
C  C55  1  0.80860000  0.44470000  0.50940000  1.0 -0.0987328531
C  C56  1  0.55530000  0.36390000  0.50940000  1.0 -0.0987328531
C  C57  1  0.63610000  0.19140000  0.50940000  1.0 -0.0987328531
C  C58  1  0.55530000  0.19140000  0.99060000  1.0 -0.0987328531
C  C59  1  0.63610000  0.44470000  0.99060000  1.0 -0.0987328531
C  C60  1  0.80860000  0.36390000  0.99060000  1.0 -0.0987328531
C  C61  1  0.20290000  0.59260000  0.55480000  1.0 -0.1164684014
C  C62  1  0.40740000  0.61030000  0.55480000  1.0 -0.1164684014
C  C63  1  0.38970000  0.79710000  0.55480000  1.0 -0.1164684014
C  C64  1  0.40740000  0.79710000  0.94520000  1.0 -0.1164684014
C  C65  1  0.38970000  0.59260000  0.94520000  1.0 -0.1164684014
C  C66  1  0.20290000  0.61030000  0.94520000  1.0 -0.1164684014
C  C67  1  0.79710000  0.40740000  0.44520000  1.0 -0.1164684014
C  C68  1  0.59260000  0.38970000  0.44520000  1.0 -0.1164684014
C  C69  1  0.61030000  0.20290000  0.44520000  1.0 -0.1164684014
C  C70  1  0.59260000  0.20290000  0.05480000  1.0 -0.1164684014
C  C71  1  0.61030000  0.40740000  0.05480000  1.0 -0.1164684014
C  C72  1  0.79710000  0.38970000  0.05480000  1.0 -0.1164684014
C  C73  1  0.17440000  0.67980000  0.64080000  1.0 0.5403340591
C  C74  1  0.32020000  0.49460000  0.64080000  1.0 0.5403340591
C  C75  1  0.50540000  0.82560000  0.64080000  1.0 0.5403340591
C  C76  1  0.32020000  0.82560000  0.85920000  1.0 0.5403340591
C  C77  1  0.50540000  0.67980000  0.85920000  1.0 0.5403340591
C  C78  1  0.17440000  0.49460000  0.85920000  1.0 0.5403340591
C  C79  1  0.82560000  0.32020000  0.35920000  1.0 0.5403340591
C  C80  1  0.67980000  0.50540000  0.35920000  1.0 0.5403340591
C  C81  1  0.49460000  0.17440000  0.35920000  1.0 0.5403340591
C  C82  1  0.67980000  0.17440000  0.14080000  1.0 0.5403340591
C  C83  1  0.49460000  0.32020000  0.14080000  1.0 0.5403340591
C  C84  1  0.82560000  0.50540000  0.14080000  1.0 0.5403340591
C  C85  1  0.94730000  0.56060000  0.30610000  1.0 0.0734053349
C  C86  1  0.43940000  0.38670000  0.30610000  1.0 0.0734053349
C  C87  1  0.61330000  0.05270000  0.30610000  1.0 0.0734053349
C  C88  1  0.43940000  0.05270000  0.19390000  1.0 0.0734053349
C  C89  1  0.61330000  0.56060000  0.19390000  1.0 0.0734053349
C  C90  1  0.94730000  0.38670000  0.19390000  1.0 0.0734053349
C  C91  1  0.05270000  0.43940000  0.69390000  1.0 0.0734053349
C  C92  1  0.56060000  0.61330000  0.69390000  1.0 0.0734053349
C  C93  1  0.38670000  0.94730000  0.69390000  1.0 0.0734053349
C  C94  1  0.56060000  0.94730000  0.80610000  1.0 0.0734053349
C  C95  1  0.38670000  0.43940000  0.80610000  1.0 0.0734053349
C  C96  1  0.05270000  0.61330000  0.80610000  1.0 0.0734053349
C  C97  1  0.00810000  0.55980000  0.34800000  1.0 -0.2200822661
C  C98  1  0.44020000  0.44830000  0.34800000  1.0 -0.2200822661
C  C99  1  0.55170000  0.99190000  0.34800000  1.0 -0.2200822661
C  C100  1  0.44020000  0.99190000  0.15200000  1.0 -0.2200822661
C  C101  1  0.55170000  0.55980000  0.15200000  1.0 -0.2200822661
C  C102  1  0.00810000  0.44830000  0.15200000  1.0 -0.2200822661
C  C103  1  0.99190000  0.44020000  0.65200000  1.0 -0.2200822661
C  C104  1  0.55980000  0.55170000  0.65200000  1.0 -0.2200822661
C  C105  1  0.44830000  0.00810000  0.65200000  1.0 -0.2200822661
C  C106  1  0.55980000  0.00810000  0.84800000  1.0 -0.2200822661
C  C107  1  0.44830000  0.44020000  0.84800000  1.0 -0.2200822661
C  C108  1  0.99190000  0.55170000  0.84800000  1.0 -0.2200822661
C  C109  1  0.02320000  0.59610000  0.41250000  1.0 0.1123828976
C  C110  1  0.40390000  0.42710000  0.41250000  1.0 0.1152219383
C  C111  1  0.57290000  0.97680000  0.41250000  1.0 0.1152219383
C  C112  1  0.40390000  0.97680000  0.08750000  1.0 0.1152219383
C  C113  1  0.57290000  0.59610000  0.08750000  1.0 0.1152219383
C  C114  1  0.02320000  0.42710000  0.08750000  1.0 0.1152219383
C  C115  1  0.97680000  0.40390000  0.58750000  1.0 0.1152219383
C  C116  1  0.59610000  0.57290000  0.58750000  1.0 0.1152219383
C  C117  1  0.42710000  0.02320000  0.58750000  1.0 0.1152219383
C  C118  1  0.59610000  0.02320000  0.91250000  1.0 0.1152219383
C  C119  1  0.42710000  0.40390000  0.91250000  1.0 0.1152219383
C  C120  1  0.97680000  0.57290000  0.91250000  1.0 0.1152219383
C  C121  1  0.97070000  0.62700000  0.42990000  1.0 -0.2044146227
C  C122  1  0.37300000  0.34370000  0.42990000  1.0 -0.2044146227
C  C123  1  0.65630000  0.02930000  0.42990000  1.0 -0.2044146227
C  C124  1  0.37300000  0.02930000  0.07010000  1.0 -0.2044146227
C  C125  1  0.65630000  0.62700000  0.07010000  1.0 -0.2044146227
C  C126  1  0.97070000  0.34370000  0.07010000  1.0 -0.2044146227
C  C127  1  0.02930000  0.37300000  0.57010000  1.0 -0.2044146227
C  C128  1  0.62700000  0.65630000  0.57010000  1.0 -0.2044146227
C  C129  1  0.34370000  0.97070000  0.57010000  1.0 -0.2044146227
C  C130  1  0.62700000  0.97070000  0.92990000  1.0 -0.2044146227
C  C131  1  0.34370000  0.37300000  0.92990000  1.0 -0.2044146227
C  C132  1  0.02930000  0.65630000  0.92990000  1.0 -0.2044146227
C  C133  1  0.91020000  0.62430000  0.38510000  1.0 0.0639195836
C  C134  1  0.37570000  0.28590000  0.38510000  1.0 0.0639195836
C  C135  1  0.71410000  0.08980000  0.38510000  1.0 0.0639195836
C  C136  1  0.37570000  0.08980000  0.11490000  1.0 0.0639195836
C  C137  1  0.71410000  0.62430000  0.11490000  1.0 0.0639195836
C  C138  1  0.91020000  0.28590000  0.11490000  1.0 0.0639195836
C  C139  1  0.08980000  0.37570000  0.61490000  1.0 0.0639195836
C  C140  1  0.62430000  0.71410000  0.61490000  1.0 0.0639195836
C  C141  1  0.28590000  0.91020000  0.61490000  1.0 0.0639195836
C  C142  1  0.62430000  0.91020000  0.88510000  1.0 0.0639195836
C  C143  1  0.28590000  0.37570000  0.88510000  1.0 0.0639195836
C  C144  1  0.08980000  0.71410000  0.88510000  1.0 0.0639195836
N  N1  1  0.89840000  0.59210000  0.32220000  1.0 -0.2258596288
N  N2  1  0.40790000  0.30630000  0.32220000  1.0 -0.2258596288
N  N3  1  0.69370000  0.10160000  0.32220000  1.0 -0.2258596288
N  N4  1  0.40790000  0.10160000  0.17780000  1.0 -0.2258596288
N  N5  1  0.69370000  0.59210000  0.17780000  1.0 -0.2258596288
N  N6  1  0.89840000  0.30630000  0.17780000  1.0 -0.2258596288
N  N7  1  0.10160000  0.40790000  0.67780000  1.0 -0.2258596288
N  N8  1  0.59210000  0.69370000  0.67780000  1.0 -0.2258596288
N  N9  1  0.30630000  0.89840000  0.67780000  1.0 -0.2258596288
N  N10  1  0.59210000  0.89840000  0.82220000  1.0 -0.2258596288
N  N11  1  0.30630000  0.40790000  0.82220000  1.0 -0.2258596288
N  N12  1  0.10160000  0.69370000  0.82220000  1.0 -0.2258596288
O  O1  1  0.13320000  0.71720000  0.65283000  1.0 -0.5501039939
O  O2  1  0.28280000  0.41600000  0.65283000  1.0 -0.5501039939
O  O3  1  0.58400000  0.86680000  0.65283000  1.0 -0.5501039939
O  O4  1  0.28280000  0.86680000  0.84717000  1.0 -0.5501039939
O  O5  1  0.58400000  0.71720000  0.84717000  1.0 -0.5501039939
O  O6  1  0.13320000  0.41600000  0.84717000  1.0 -0.5501039939
O  O7  1  0.86680000  0.28280000  0.34717000  1.0 -0.5501039939
O  O8  1  0.71720000  0.58400000  0.34717000  1.0 -0.5501039939
O  O9  1  0.41600000  0.13320000  0.34717000  1.0 -0.5501039939
O  O10  1  0.71720000  0.13320000  0.15283000  1.0 -0.5501039939
O  O11  1  0.41600000  0.28280000  0.15283000  1.0 -0.5501039939
O  O12  1  0.86680000  0.58400000  0.15283000  1.0 -0.5501039939
O  O13  1  0.22710000  0.67980000  0.68219000  1.0 -0.6027366784
O  O14  1  0.32020000  0.54730000  0.68219000  1.0 -0.6027366784
O  O15  1  0.45270000  0.77290000  0.68219000  1.0 -0.6027366784
O  O16  1  0.32020000  0.77290000  0.81781000  1.0 -0.6027366784
O  O17  1  0.45270000  0.67980000  0.81781000  1.0 -0.6027366784
O  O18  1  0.22710000  0.54730000  0.81781000  1.0 -0.6027366784
O  O19  1  0.77290000  0.32020000  0.31781000  1.0 -0.6027366784
O  O20  1  0.67980000  0.45270000  0.31781000  1.0 -0.6027366784
O  O21  1  0.54730000  0.22710000  0.31781000  1.0 -0.6027366784
O  O22  1  0.67980000  0.22710000  0.18219000  1.0 -0.6027366784
O  O23  1  0.54730000  0.32020000  0.18219000  1.0 -0.6027366784
O  O24  1  0.77290000  0.45270000  0.18219000  1.0 -0.6027366784
