# DDEC6 charges by PACMAN v1.1 (https://github.com/mtap-research/PACMAN-charge/)
data_GAYGAQ_FSR_pacman
_symmetry_space_group_name_H-M   'P 1'
_cell_length_a   9.69839000
_cell_length_b   9.69839000
_cell_length_c   9.69839000
_cell_angle_alpha   136.84900000
_cell_angle_beta   126.56500000
_cell_angle_gamma   71.01740000
_symmetry_Int_Tables_number   1
_chemical_formula_structural   CuH4(C3N2)2
_chemical_formula_sum   'Cu2 H8 C12 N8'
_cell_volume   491.06816887
_cell_formula_units_Z   2
loop_
 _symmetry_equiv_pos_site_id
 _symmetry_equiv_pos_as_xyz
  1  'x, y, z'
loop_
 _atom_site_type_symbol
 _atom_site_label
 _atom_site_symmetry_multiplicity
 _atom_site_fract_x
 _atom_site_fract_y
 _atom_site_fract_z
 _atom_site_occupancy
 _atom_site_charge
Cu  Cu1  1  0.00000000  0.50000000  0.00000000  1.0 0.4310507181
Cu  Cu2  1  0.00000000  0.00000000  0.50000000  1.0 0.4310507181
H  H1  1  0.64016000  0.34853000  0.85347000  1.0 0.1203372406
H  H2  1  0.99506000  0.28669000  0.14653000  1.0 0.1203372406
H  H3  1  0.35984000  0.21331000  0.70837000  1.0 0.1203372406
H  H4  1  0.00494000  0.15147000  0.29163000  1.0 0.1203372406
H  H5  1  0.35984000  0.65147000  0.14653000  1.0 0.1203372406
H  H6  1  0.00494000  0.71331000  0.85347000  1.0 0.1203372406
H  H7  1  0.64016000  0.78669000  0.29163000  1.0 0.1203372406
H  H8  1  0.99506000  0.84853000  0.70837000  1.0 0.1203372406
C  C1  1  0.00379000  0.57012000  0.74219000  1.0 -0.0822648804
C  C2  1  0.32793000  0.76160000  0.25781000  1.0 -0.0822648804
C  C3  1  0.99621000  0.73840000  0.56633000  1.0 -0.0822648804
C  C4  1  0.67207000  0.92988000  0.43367000  1.0 -0.0822648804
C  C5  1  0.99621000  0.42988000  0.25781000  1.0 -0.0822648804
C  C6  1  0.67207000  0.23840000  0.74219000  1.0 -0.0822648804
C  C7  1  0.00379000  0.26160000  0.43367000  1.0 -0.0822648804
C  C8  1  0.32793000  0.07012000  0.56633000  1.0 -0.0822648804
C  C9  1  0.00694000  0.46089000  0.54605000  1.0 0.0009770433
C  C10  1  0.41484000  0.96089000  0.45395000  1.0 0.0009770433
C  C11  1  0.99306000  0.53911000  0.45395000  1.0 0.0009770433
C  C12  1  0.58516000  0.03911000  0.54605000  1.0 0.0009770433
N  N1  1  0.99870000  0.43832000  0.75104000  1.0 -0.1463235614
N  N2  1  0.18728000  0.74766000  0.24896000  1.0 -0.1463235614
N  N3  1  0.00130000  0.75234000  0.43962000  1.0 -0.1463235614
N  N4  1  0.81272000  0.06168000  0.56038000  1.0 -0.1463235614
N  N5  1  0.00130000  0.56168000  0.24896000  1.0 -0.1463235614
N  N6  1  0.81272000  0.25234000  0.75104000  1.0 -0.1463235614
N  N7  1  0.99870000  0.24766000  0.56038000  1.0 -0.1463235614
N  N8  1  0.18728000  0.93832000  0.43962000  1.0 -0.1463235614
