# DDEC6 charges by PACMAN v1.1 (https://github.com/mtap-research/PACMAN-charge/)
data_GAZLAW_ASR_pacman
_symmetry_space_group_name_H-M   'P 1'
_cell_length_a   14.94140000
_cell_length_b   15.99180000
_cell_length_c   16.03810000
_cell_angle_alpha   90.00000000
_cell_angle_beta   90.00000000
_cell_angle_gamma   90.00000000
_symmetry_Int_Tables_number   1
_chemical_formula_structural   NaCoH33(C7O6)3
_chemical_formula_sum   'Na4 Co4 H132 C84 O72'
_cell_volume   3832.14169777
_cell_formula_units_Z   4
loop_
 _symmetry_equiv_pos_site_id
 _symmetry_equiv_pos_as_xyz
  1  'x, y, z'
loop_
 _atom_site_type_symbol
 _atom_site_label
 _atom_site_symmetry_multiplicity
 _atom_site_fract_x
 _atom_site_fract_y
 _atom_site_fract_z
 _atom_site_occupancy
 _atom_site_charge
Na  Na1  1  0.43793000  0.94699000  0.03770000  1.0 0.813475234
Na  Na2  1  0.06207000  0.05301000  0.53770000  1.0 0.813475234
Na  Na3  1  0.56207000  0.44699000  0.46230000  1.0 0.813475234
Na  Na4  1  0.93793000  0.55301000  0.96230000  1.0 0.813475234
Co  Co1  1  0.85579000  0.86676000  0.35489000  1.0 0.9481170006
Co  Co2  1  0.64421000  0.13324000  0.85489000  1.0 0.9481170006
Co  Co3  1  0.14421000  0.36676000  0.14511000  1.0 0.9481170006
Co  Co4  1  0.35579000  0.63324000  0.64511000  1.0 0.9481170006
H  H1  1  0.40890000  0.31330000  0.03990000  1.0 0.3505022622
H  H2  1  0.09110000  0.68670000  0.53990000  1.0 0.3505022622
H  H3  1  0.59110000  0.81330000  0.46010000  1.0 0.3505022622
H  H4  1  0.90890000  0.18670000  0.96010000  1.0 0.3505022622
H  H5  1  0.35520000  0.09360000  0.94900000  1.0 0.0877344709
H  H6  1  0.14480000  0.90640000  0.44900000  1.0 0.0877344709
H  H7  1  0.64480000  0.59360000  0.55100000  1.0 0.0877344709
H  H8  1  0.85520000  0.40640000  0.05100000  1.0 0.0877344709
H  H9  1  0.42020000  0.22410000  0.93630000  1.0 0.0815287363
H  H10  1  0.07980000  0.77590000  0.43630000  1.0 0.0815287363
H  H11  1  0.57980000  0.72410000  0.56370000  1.0 0.0815287363
H  H12  1  0.92020000  0.27590000  0.06370000  1.0 0.0815287363
H  H13  1  0.18740000  0.11450000  0.98530000  1.0 0.1302390052
H  H14  1  0.31260000  0.88550000  0.48530000  1.0 0.1302390052
H  H15  1  0.81260000  0.61450000  0.51470000  1.0 0.1302390052
H  H16  1  0.68740000  0.38550000  0.01470000  1.0 0.1302390052
H  H17  1  0.16230000  0.13230000  0.07850000  1.0 0.1237820978
H  H18  1  0.33770000  0.86770000  0.57850000  1.0 0.1237820978
H  H19  1  0.83770000  0.63230000  0.42150000  1.0 0.1237820978
H  H20  1  0.66230000  0.36770000  0.92150000  1.0 0.1237820978
H  H21  1  0.31300000  0.12910000  0.11770000  1.0 0.0815287363
H  H22  1  0.18700000  0.87090000  0.61770000  1.0 0.0815287363
H  H23  1  0.68700000  0.62910000  0.38230000  1.0 0.0815287363
H  H24  1  0.81300000  0.37090000  0.88230000  1.0 0.0815287363
H  H25  1  0.53680000  0.88240000  0.88520000  1.0 0.0980913523
H  H26  1  0.96320000  0.11760000  0.38520000  1.0 0.0980913523
H  H27  1  0.46320000  0.38240000  0.61480000  1.0 0.0980913523
H  H28  1  0.03680000  0.61760000  0.11480000  1.0 0.0980913523
H  H29  1  0.59300000  0.80260000  0.75860000  1.0 0.1392819754
H  H30  1  0.90700000  0.19740000  0.25860000  1.0 0.1392819754
H  H31  1  0.40700000  0.30260000  0.74140000  1.0 0.1392819754
H  H32  1  0.09300000  0.69740000  0.24140000  1.0 0.1392819754
H  H33  1  0.53830000  0.80650000  0.67510000  1.0 0.1302390052
H  H34  1  0.96170000  0.19350000  0.17510000  1.0 0.1302390052
H  H35  1  0.46170000  0.30650000  0.82490000  1.0 0.1302390052
H  H36  1  0.03830000  0.69350000  0.32490000  1.0 0.1302390052
H  H37  1  0.36240000  0.81390000  0.86510000  1.0 0.0815287363
H  H38  1  0.13760000  0.18610000  0.36510000  1.0 0.0815287363
H  H39  1  0.63760000  0.31390000  0.63490000  1.0 0.0815287363
H  H40  1  0.86240000  0.68610000  0.13490000  1.0 0.0815287363
H  H41  1  0.60950000  0.03940000  0.10250000  1.0 0.0980913523
H  H42  1  0.89050000  0.96060000  0.60250000  1.0 0.0980913523
H  H43  1  0.39050000  0.53940000  0.39750000  1.0 0.0980913523
H  H44  1  0.10950000  0.46060000  0.89750000  1.0 0.0980913523
H  H45  1  0.52520000  0.93310000  0.74800000  1.0 0.0877344709
H  H46  1  0.97480000  0.06690000  0.24800000  1.0 0.0877344709
H  H47  1  0.47480000  0.43310000  0.75200000  1.0 0.0877344709
H  H48  1  0.02520000  0.56690000  0.25200000  1.0 0.0877344709
H  H49  1  0.60170000  0.03190000  0.26210000  1.0 0.1302390052
H  H50  1  0.89830000  0.96810000  0.76210000  1.0 0.1302390052
H  H51  1  0.39830000  0.53190000  0.23790000  1.0 0.1302390052
H  H52  1  0.10170000  0.46810000  0.73790000  1.0 0.1302390052
H  H53  1  0.60390000  0.94380000  0.30500000  1.0 0.1302390052
H  H54  1  0.89610000  0.05620000  0.80500000  1.0 0.1302390052
H  H55  1  0.39610000  0.44380000  0.19500000  1.0 0.1302390052
H  H56  1  0.10390000  0.55620000  0.69500000  1.0 0.1302390052
H  H57  1  0.61510000  0.87710000  0.17530000  1.0 0.0815287363
H  H58  1  0.88490000  0.12290000  0.67530000  1.0 0.0815287363
H  H59  1  0.38490000  0.37710000  0.32470000  1.0 0.0815287363
H  H60  1  0.11510000  0.62290000  0.82470000  1.0 0.0815287363
H  H61  1  0.74540000  0.08450000  0.18850000  1.0 0.1392819754
H  H62  1  0.75460000  0.91550000  0.68850000  1.0 0.1392819754
H  H63  1  0.25460000  0.58450000  0.31150000  1.0 0.1392819754
H  H64  1  0.24540000  0.41550000  0.81150000  1.0 0.1392819754
H  H65  1  0.83040000  0.02690000  0.19010000  1.0 0.1392819754
H  H66  1  0.66960000  0.97310000  0.69010000  1.0 0.1392819754
H  H67  1  0.16960000  0.52690000  0.30990000  1.0 0.1392819754
H  H68  1  0.33040000  0.47310000  0.80990000  1.0 0.1392819754
H  H69  1  0.42820000  0.68190000  0.87310000  1.0 0.1302390052
H  H70  1  0.07180000  0.31810000  0.37310000  1.0 0.1302390052
H  H71  1  0.57180000  0.18190000  0.62690000  1.0 0.1302390052
H  H72  1  0.92820000  0.81810000  0.12690000  1.0 0.1302390052
H  H73  1  0.52350000  0.72150000  0.88450000  1.0 0.1392819754
H  H74  1  0.97650000  0.27850000  0.38450000  1.0 0.1392819754
H  H75  1  0.47650000  0.22150000  0.61550000  1.0 0.1392819754
H  H76  1  0.02350000  0.77850000  0.11550000  1.0 0.1392819754
H  H77  1  0.37770000  0.93210000  0.73590000  1.0 0.3505022622
H  H78  1  0.12230000  0.06790000  0.23590000  1.0 0.3505022622
H  H79  1  0.62230000  0.43210000  0.76410000  1.0 0.3505022622
H  H80  1  0.87770000  0.56790000  0.26410000  1.0 0.3505022622
H  H81  1  0.76050000  0.87910000  0.06430000  1.0 0.3555433578
H  H82  1  0.73950000  0.12090000  0.56430000  1.0 0.3555433578
H  H83  1  0.23950000  0.37910000  0.43570000  1.0 0.3555433578
H  H84  1  0.26050000  0.62090000  0.93570000  1.0 0.3555433578
H  H85  1  0.26880000  0.22730000  0.90050000  1.0 0.1493666782
H  H86  1  0.23120000  0.77270000  0.40050000  1.0 0.1493666782
H  H87  1  0.73120000  0.72730000  0.59950000  1.0 0.1493666782
H  H88  1  0.76880000  0.27270000  0.09950000  1.0 0.1493666782
H  H89  1  0.29200000  0.31250000  0.94430000  1.0 0.1237820978
H  H90  1  0.20800000  0.68750000  0.44430000  1.0 0.1237820978
H  H91  1  0.70800000  0.81250000  0.55570000  1.0 0.1237820978
H  H92  1  0.79200000  0.18750000  0.05570000  1.0 0.1237820978
H  H93  1  0.75840000  0.01800000  0.05900000  1.0 0.0877344709
H  H94  1  0.74160000  0.98200000  0.55900000  1.0 0.0877344709
H  H95  1  0.24160000  0.51800000  0.44100000  1.0 0.0877344709
H  H96  1  0.25840000  0.48200000  0.94100000  1.0 0.0877344709
H  H97  1  0.38930000  0.78220000  0.99370000  1.0 0.3412036768
H  H98  1  0.11070000  0.21780000  0.49370000  1.0 0.3412036768
H  H99  1  0.61070000  0.28220000  0.50630000  1.0 0.3412036768
H  H100  1  0.88930000  0.71780000  0.00630000  1.0 0.3412036768
H  H101  1  0.62810000  0.96180000  0.99580000  1.0 0.3245630092
H  H102  1  0.87190000  0.03820000  0.49580000  1.0 0.3245630092
H  H103  1  0.37190000  0.46180000  0.50420000  1.0 0.3245630092
H  H104  1  0.12810000  0.53820000  0.00420000  1.0 0.3245630092
H  H105  1  0.27840000  0.00310000  0.11680000  1.0 0.3412036768
H  H106  1  0.22160000  0.99690000  0.61680000  1.0 0.3412036768
H  H107  1  0.72160000  0.50310000  0.38320000  1.0 0.3412036768
H  H108  1  0.77840000  0.49690000  0.88320000  1.0 0.3412036768
H  H109  1  0.76500000  0.88000000  0.21900000  1.0 0.3412036768
H  H110  1  0.73500000  0.12000000  0.71900000  1.0 0.3412036768
H  H111  1  0.23500000  0.38000000  0.28100000  1.0 0.3412036768
H  H112  1  0.26500000  0.62000000  0.78100000  1.0 0.3412036768
H  H113  1  0.37450000  0.78140000  0.72190000  1.0 0.3505022622
H  H114  1  0.12550000  0.21860000  0.22190000  1.0 0.3505022622
H  H115  1  0.62550000  0.28140000  0.77810000  1.0 0.3505022622
H  H116  1  0.87450000  0.71860000  0.27810000  1.0 0.3505022622
H  H117  1  0.28900000  0.27600000  0.10800000  1.0 0.3412036768
H  H118  1  0.21100000  0.72400000  0.60800000  1.0 0.3412036768
H  H119  1  0.71100000  0.77600000  0.39200000  1.0 0.3412036768
H  H120  1  0.78900000  0.22400000  0.89200000  1.0 0.3412036768
H  H121  1  0.48100000  0.91400000  0.20500000  1.0 0.3412036768
H  H122  1  0.01900000  0.08600000  0.70500000  1.0 0.3412036768
H  H123  1  0.51900000  0.41400000  0.29500000  1.0 0.3412036768
H  H124  1  0.98100000  0.58600000  0.79500000  1.0 0.3412036768
H  H125  1  0.45850000  0.00150000  0.86870000  1.0 0.3505022622
H  H126  1  0.04150000  0.99850000  0.36870000  1.0 0.3505022622
H  H127  1  0.54150000  0.50150000  0.63130000  1.0 0.3505022622
H  H128  1  0.95850000  0.49850000  0.13130000  1.0 0.3505022622
H  H129  1  0.49970000  0.11230000  0.01320000  1.0 0.3505022622
H  H130  1  0.00030000  0.88770000  0.51320000  1.0 0.3505022622
H  H131  1  0.50030000  0.61230000  0.48680000  1.0 0.3505022622
H  H132  1  0.99970000  0.38770000  0.98680000  1.0 0.3505022622
C  C1  1  0.36885000  0.12356000  0.00075000  1.0 0.0621248852
C  C2  1  0.13115000  0.87644000  0.50075000  1.0 0.0621248852
C  C3  1  0.63115000  0.62356000  0.49925000  1.0 0.0621248852
C  C4  1  0.86885000  0.37644000  0.99925000  1.0 0.0621248852
C  C5  1  0.37653000  0.21662000  0.98135000  1.0 0.1302390052
C  C6  1  0.12347000  0.78338000  0.48135000  1.0 0.1302390052
C  C7  1  0.62347000  0.71662000  0.51865000  1.0 0.1302390052
C  C8  1  0.87653000  0.28338000  0.01865000  1.0 0.1302390052
C  C9  1  0.20699000  0.14226000  0.03583000  1.0 -0.351322847
C  C10  1  0.29301000  0.85774000  0.53583000  1.0 -0.351322847
C  C11  1  0.79301000  0.64226000  0.46417000  1.0 -0.351322847
C  C12  1  0.70699000  0.35774000  0.96417000  1.0 -0.351322847
C  C13  1  0.29616000  0.10490000  0.06380000  1.0 0.1493666782
C  C14  1  0.20384000  0.89510000  0.56380000  1.0 0.1493666782
C  C15  1  0.70384000  0.60490000  0.43620000  1.0 0.1493666782
C  C16  1  0.79616000  0.39510000  0.93620000  1.0 0.1493666782
C  C17  1  0.47742000  0.88513000  0.85938000  1.0 0.0447362676
C  C18  1  0.02258000  0.11487000  0.35938000  1.0 0.0451465226
C  C19  1  0.52258000  0.38513000  0.64062000  1.0 0.0447362676
C  C20  1  0.97742000  0.61487000  0.14062000  1.0 0.0447362676
C  C21  1  0.53314000  0.80573000  0.73540000  1.0 -0.351322847
C  C22  1  0.96686000  0.19427000  0.23540000  1.0 -0.351322847
C  C23  1  0.46686000  0.30573000  0.76460000  1.0 -0.351322847
C  C24  1  0.03314000  0.69427000  0.26460000  1.0 -0.351322847
C  C25  1  0.42327000  0.80968000  0.88754000  1.0 0.1392819754
C  C26  1  0.07673000  0.19032000  0.38754000  1.0 0.1392819754
C  C27  1  0.57673000  0.30968000  0.61246000  1.0 0.1392819754
C  C28  1  0.92327000  0.69032000  0.11246000  1.0 0.1392819754
C  C29  1  0.63310000  0.98219000  0.10229000  1.0 0.0242692624
C  C30  1  0.86690000  0.01781000  0.60229000  1.0 0.0242692624
C  C31  1  0.36690000  0.48219000  0.39771000  1.0 0.0242692624
C  C32  1  0.13310000  0.51781000  0.89771000  1.0 0.0242692624
C  C33  1  0.48851000  0.88513000  0.76450000  1.0 0.1302390052
C  C34  1  0.01149000  0.11487000  0.26450000  1.0 0.1302390052
C  C35  1  0.51149000  0.38513000  0.73550000  1.0 0.1302390052
C  C36  1  0.98851000  0.61487000  0.23550000  1.0 0.1302390052
C  C37  1  0.62636000  0.97594000  0.25820000  1.0 -0.351322847
C  C38  1  0.87364000  0.02406000  0.75820000  1.0 -0.351322847
C  C39  1  0.37364000  0.47594000  0.24180000  1.0 -0.351322847
C  C40  1  0.12636000  0.52406000  0.74180000  1.0 -0.351322847
C  C41  1  0.59525000  0.93548000  0.17692000  1.0 0.1493666782
C  C42  1  0.90475000  0.06452000  0.67692000  1.0 0.1493666782
C  C43  1  0.40475000  0.43548000  0.32308000  1.0 0.1493666782
C  C44  1  0.09525000  0.56452000  0.82308000  1.0 0.1493666782
C  C45  1  0.76551000  0.02687000  0.18745000  1.0 -0.3584815659
C  C46  1  0.73449000  0.97313000  0.68745000  1.0 -0.3584815659
C  C47  1  0.23449000  0.52687000  0.31255000  1.0 -0.3584815659
C  C48  1  0.26551000  0.47313000  0.81255000  1.0 -0.3584815659
C  C49  1  0.46598000  0.72865000  0.85739000  1.0 -0.3432430947
C  C50  1  0.03402000  0.27135000  0.35739000  1.0 -0.3432430947
C  C51  1  0.53402000  0.22865000  0.64261000  1.0 -0.3432430947
C  C52  1  0.96598000  0.77135000  0.14261000  1.0 -0.3432430947
C  C53  1  0.28634000  0.25272000  0.95295000  1.0 -0.3674732321
C  C54  1  0.21366000  0.74728000  0.45295000  1.0 -0.3674732321
C  C55  1  0.71366000  0.75272000  0.54705000  1.0 -0.3674732321
C  C56  1  0.78634000  0.24728000  0.04705000  1.0 -0.3674732321
C  C57  1  0.73542000  0.98592000  0.10655000  1.0 0.1302390052
C  C58  1  0.76458000  0.01408000  0.60655000  1.0 0.1302390052
C  C59  1  0.26458000  0.48592000  0.39345000  1.0 0.1302390052
C  C60  1  0.23542000  0.51408000  0.89345000  1.0 0.1302390052
C  C61  1  0.75982000  0.02400000  0.34366000  1.0 0.5332009521
C  C62  1  0.74018000  0.97600000  0.84366000  1.0 0.5332009521
C  C63  1  0.24018000  0.52400000  0.15634000  1.0 0.5332009521
C  C64  1  0.25982000  0.47600000  0.65634000  1.0 0.5332009521
C  C65  1  0.12407000  0.27098000  0.99069000  1.0 0.5332009521
C  C66  1  0.37593000  0.72902000  0.49069000  1.0 0.5332009521
C  C67  1  0.87593000  0.77098000  0.50931000  1.0 0.5332009521
C  C68  1  0.62407000  0.22902000  0.00931000  1.0 0.5332009521
C  C69  1  0.21423000  0.23532000  0.01981000  1.0 0.2164119664
C  C70  1  0.28577000  0.76468000  0.51981000  1.0 0.2164119664
C  C71  1  0.78577000  0.73532000  0.48019000  1.0 0.2164119664
C  C72  1  0.71423000  0.26468000  0.98019000  1.0 0.2164119664
C  C73  1  0.52570000  0.64786000  0.73417000  1.0 0.5332009521
C  C74  1  0.97430000  0.35214000  0.23417000  1.0 0.5332009521
C  C75  1  0.47430000  0.14786000  0.76583000  1.0 0.5332009521
C  C76  1  0.02570000  0.85214000  0.26583000  1.0 0.5332009521
C  C77  1  0.47932000  0.72826000  0.76243000  1.0 0.227243898
C  C78  1  0.02068000  0.27174000  0.26243000  1.0 0.227243898
C  C79  1  0.52068000  0.22826000  0.73757000  1.0 0.227243898
C  C80  1  0.97932000  0.77174000  0.23757000  1.0 0.227243898
C  C81  1  0.72796000  0.98060000  0.26327000  1.0 0.2164119664
C  C82  1  0.77204000  0.01940000  0.76327000  1.0 0.2164119664
C  C83  1  0.27204000  0.48060000  0.23673000  1.0 0.2164119664
C  C84  1  0.22796000  0.51940000  0.73673000  1.0 0.2164119664
O  O1  1  0.73188000  0.09589000  0.35551000  1.0 -0.5398604175
O  O2  1  0.76812000  0.90411000  0.85551000  1.0 -0.5398604175
O  O3  1  0.26812000  0.59589000  0.14449000  1.0 -0.5398604175
O  O4  1  0.23188000  0.40411000  0.64449000  1.0 -0.5398604175
O  O5  1  0.60412000  0.63816000  0.75657000  1.0 -0.5398604175
O  O6  1  0.89588000  0.36184000  0.25657000  1.0 -0.5398604175
O  O7  1  0.39588000  0.13816000  0.74343000  1.0 -0.5486373001
O  O8  1  0.10412000  0.86184000  0.24343000  1.0 -0.5398604175
O  O9  1  0.08732000  0.23993000  0.92927000  1.0 -0.5123604708
O  O10  1  0.41268000  0.76007000  0.42927000  1.0 -0.5123604708
O  O11  1  0.91268000  0.73993000  0.57073000  1.0 -0.5123604708
O  O12  1  0.58732000  0.26007000  0.07073000  1.0 -0.5123604708
O  O13  1  0.40565000  0.26372000  0.05233000  1.0 -0.4441580721
O  O14  1  0.09435000  0.73628000  0.55233000  1.0 -0.4441580721
O  O15  1  0.59435000  0.76372000  0.44767000  1.0 -0.4441580721
O  O16  1  0.90565000  0.23628000  0.94767000  1.0 -0.4441580721
O  O17  1  0.45026000  0.09150000  0.03428000  1.0 -0.5486373001
O  O18  1  0.04974000  0.90850000  0.53428000  1.0 -0.5486373001
O  O19  1  0.54974000  0.59150000  0.46572000  1.0 -0.5486373001
O  O20  1  0.95026000  0.40850000  0.96572000  1.0 -0.5486373001
O  O21  1  0.60320000  0.94094000  0.02874000  1.0 -0.4604405411
O  O22  1  0.89680000  0.05906000  0.52874000  1.0 -0.4604405411
O  O23  1  0.39680000  0.44094000  0.47126000  1.0 -0.4604405411
O  O24  1  0.10320000  0.55906000  0.97126000  1.0 -0.4604405411
O  O25  1  0.40398000  0.88930000  0.72215000  1.0 -0.4714166247
O  O26  1  0.09602000  0.11070000  0.22215000  1.0 -0.4714166247
O  O27  1  0.59602000  0.38930000  0.77785000  1.0 -0.4714166247
O  O28  1  0.90398000  0.61070000  0.27785000  1.0 -0.4714166247
O  O29  1  0.77501000  0.90408000  0.10683000  1.0 -0.4604405411
O  O30  1  0.72499000  0.09592000  0.60683000  1.0 -0.4604405411
O  O31  1  0.22499000  0.40408000  0.39317000  1.0 -0.4604405411
O  O32  1  0.27501000  0.59592000  0.89317000  1.0 -0.4604405411
O  O33  1  0.41967000  0.81188000  0.97733000  1.0 -0.4840316349
O  O34  1  0.08033000  0.18812000  0.47733000  1.0 -0.4840316349
O  O35  1  0.58033000  0.31188000  0.52267000  1.0 -0.4840316349
O  O36  1  0.91967000  0.68812000  0.02267000  1.0 -0.4840316349
O  O37  1  0.49901000  0.93869000  0.17027000  1.0 -0.5038979226
O  O38  1  0.00099000  0.06131000  0.67027000  1.0 -0.5038979226
O  O39  1  0.50099000  0.43869000  0.32973000  1.0 -0.5038979226
O  O40  1  0.99901000  0.56131000  0.82973000  1.0 -0.5038979226
O  O41  1  0.43364000  0.95853000  0.88725000  1.0 -0.5171455615
O  O42  1  0.06636000  0.04147000  0.38725000  1.0 -0.5171455615
O  O43  1  0.56636000  0.45853000  0.61275000  1.0 -0.5171455615
O  O44  1  0.93364000  0.54147000  0.11275000  1.0 -0.5171455615
O  O45  1  0.29120000  0.01583000  0.07182000  1.0 -0.4864869141
O  O46  1  0.20880000  0.98417000  0.57182000  1.0 -0.4864869141
O  O47  1  0.70880000  0.51583000  0.42818000  1.0 -0.4864869141
O  O48  1  0.79120000  0.48417000  0.92818000  1.0 -0.4864869141
O  O49  1  0.81476000  0.98478000  0.39059000  1.0 -0.6001117998
O  O50  1  0.68524000  0.01522000  0.89059000  1.0 -0.6001117998
O  O51  1  0.18524000  0.48478000  0.10941000  1.0 -0.6001117998
O  O52  1  0.31476000  0.51522000  0.60941000  1.0 -0.6001117998
O  O53  1  0.23644000  0.27855000  0.09577000  1.0 -0.5398604175
O  O54  1  0.26356000  0.72145000  0.59577000  1.0 -0.5398604175
O  O55  1  0.76356000  0.77855000  0.40423000  1.0 -0.5398604175
O  O56  1  0.73644000  0.22145000  0.90423000  1.0 -0.5398604175
O  O57  1  0.48170000  0.59661000  0.68861000  1.0 -0.6001117998
O  O58  1  0.01830000  0.40339000  0.18861000  1.0 -0.6001117998
O  O59  1  0.51830000  0.09661000  0.81139000  1.0 -0.6001117998
O  O60  1  0.98170000  0.90339000  0.31139000  1.0 -0.6001117998
O  O61  1  0.76323000  0.89586000  0.26588000  1.0 -0.527369874
O  O62  1  0.73677000  0.10414000  0.76588000  1.0 -0.527369874
O  O63  1  0.23677000  0.39586000  0.23412000  1.0 -0.527369874
O  O64  1  0.26323000  0.60414000  0.73412000  1.0 -0.527369874
O  O65  1  0.39216000  0.72993000  0.72345000  1.0 -0.5670803063
O  O66  1  0.10784000  0.27007000  0.22345000  1.0 -0.5670803063
O  O67  1  0.60784000  0.22993000  0.77655000  1.0 -0.5670803063
O  O68  1  0.89216000  0.77007000  0.27655000  1.0 -0.5670803063
O  O69  1  0.09101000  0.33078000  0.03343000  1.0 -0.5819879049
O  O70  1  0.40899000  0.66922000  0.53343000  1.0 -0.5819879049
O  O71  1  0.90899000  0.83078000  0.46657000  1.0 -0.5819879049
O  O72  1  0.59101000  0.16922000  0.96657000  1.0 -0.5819879049
