# DDEC6 charges by PACMAN v1.1 (https://github.com/mtap-research/PACMAN-charge/)
data_GECRIS_ASR_pacman
_symmetry_space_group_name_H-M   'P 1'
_cell_length_a   24.96560000
_cell_length_b   24.96560000
_cell_length_c   24.48200000
_cell_angle_alpha   63.58270000
_cell_angle_beta   116.41700000
_cell_angle_gamma   120.60500000
_symmetry_Int_Tables_number   1
_chemical_formula_structural   Mn3Zn4Mo18H68C62(NO7)6
_chemical_formula_sum   'Mn6 Zn8 Mo36 H136 C124 N12 O84'
_cell_volume   11280.13405458
_cell_formula_units_Z   2
loop_
 _symmetry_equiv_pos_site_id
 _symmetry_equiv_pos_as_xyz
  1  'x, y, z'
loop_
 _atom_site_type_symbol
 _atom_site_label
 _atom_site_symmetry_multiplicity
 _atom_site_fract_x
 _atom_site_fract_y
 _atom_site_fract_z
 _atom_site_occupancy
 _atom_site_charge
Mn  Mn1  1  0.00000000  0.50000000  0.00000000  1.0 0.8892758613
Mn  Mn2  1  0.50000000  0.00000000  0.50000000  1.0 0.8892758613
Mn  Mn3  1  0.00000000  0.00000000  0.00000000  1.0 0.8892758613
Mn  Mn4  1  0.00000000  0.00000000  0.50000000  1.0 0.8892758613
Mn  Mn5  1  0.50000000  0.00000000  0.00000000  1.0 0.8823066628
Mn  Mn6  1  0.00000000  0.50000000  0.50000000  1.0 0.8823066628
Zn  Zn1  1  0.62307000  0.24763000  0.62192000  1.0 0.5525492107
Zn  Zn2  1  0.79464000  0.05076000  0.05829000  1.0 0.5379415428
Zn  Zn3  1  0.24763000  0.62307000  0.87808000  1.0 0.5525492107
Zn  Zn4  1  0.05076000  0.79464000  0.44171000  1.0 0.5379415428
Zn  Zn5  1  0.37693000  0.75237000  0.37808000  1.0 0.5525492107
Zn  Zn6  1  0.20536000  0.94924000  0.94171000  1.0 0.5379415428
Zn  Zn7  1  0.75237000  0.37693000  0.12192000  1.0 0.5525492107
Zn  Zn8  1  0.94924000  0.20536000  0.55829000  1.0 0.5379415428
Mo  Mo1  1  0.86494000  0.51700000  0.88529000  1.0 1.3669737851
Mo  Mo2  1  0.98414000  0.53168000  0.84569000  1.0 1.2579158818
Mo  Mo3  1  0.88193000  0.48747000  0.03854000  1.0 1.8969967043
Mo  Mo4  1  0.03820000  0.14016000  0.01961000  1.0 1.1724963462
Mo  Mo5  1  0.15696000  0.10340000  0.03464000  1.0 1.4700981652
Mo  Mo6  1  0.88129000  0.03881000  0.97995000  1.0 1.9104938185
Mo  Mo7  1  0.53953000  0.87587000  0.03095000  1.0 1.4391652321
Mo  Mo8  1  0.60876000  0.12442000  0.05864000  1.0 1.2478883937
Mo  Mo9  1  0.64617000  0.99823000  0.09343000  1.0 1.70842241
Mo  Mo10  1  0.51700000  0.86494000  0.61471000  1.0 1.3669737851
Mo  Mo11  1  0.53168000  0.98414000  0.65431000  1.0 1.2579158818
Mo  Mo12  1  0.48747000  0.88193000  0.46146000  1.0 1.8969967043
Mo  Mo13  1  0.14016000  0.03820000  0.48039000  1.0 1.1724963462
Mo  Mo14  1  0.10340000  0.15696000  0.46536000  1.0 1.4700981652
Mo  Mo15  1  0.03881000  0.88129000  0.52005000  1.0 1.9104938185
Mo  Mo16  1  0.87587000  0.53953000  0.46905000  1.0 1.4391652321
Mo  Mo17  1  0.12442000  0.60876000  0.44136000  1.0 1.2442270791
Mo  Mo18  1  0.99823000  0.64617000  0.40657000  1.0 1.70842241
Mo  Mo19  1  0.13506000  0.48300000  0.11471000  1.0 1.3669737851
Mo  Mo20  1  0.01586000  0.46832000  0.15431000  1.0 1.2579158818
Mo  Mo21  1  0.11807000  0.51253000  0.96146000  1.0 1.8895982182
Mo  Mo22  1  0.96180000  0.85984000  0.98039000  1.0 1.1763220107
Mo  Mo23  1  0.84304000  0.89660000  0.96536000  1.0 1.4700981652
Mo  Mo24  1  0.11871000  0.96119000  0.02005000  1.0 1.9104938185
Mo  Mo25  1  0.46047000  0.12413000  0.96905000  1.0 1.4391652321
Mo  Mo26  1  0.39124000  0.87558000  0.94136000  1.0 1.2478883937
Mo  Mo27  1  0.35383000  0.00177000  0.90657000  1.0 1.70842241
Mo  Mo28  1  0.48300000  0.13506000  0.38529000  1.0 1.3669737851
Mo  Mo29  1  0.46832000  0.01586000  0.34569000  1.0 1.2579158818
Mo  Mo30  1  0.51253000  0.11807000  0.53854000  1.0 1.8895982182
Mo  Mo31  1  0.85984000  0.96180000  0.51961000  1.0 1.1763220107
Mo  Mo32  1  0.89660000  0.84304000  0.53464000  1.0 1.4793916022
Mo  Mo33  1  0.96119000  0.11871000  0.47995000  1.0 1.9104938185
Mo  Mo34  1  0.12413000  0.46047000  0.53095000  1.0 1.4391652321
Mo  Mo35  1  0.87558000  0.39124000  0.55864000  1.0 1.2478883937
Mo  Mo36  1  0.00177000  0.35383000  0.59343000  1.0 1.7032317197
H  H1  1  0.76085000  0.16887000  0.01417000  1.0 0.0982331162
H  H2  1  0.81195000  0.27879000  0.99996000  1.0 0.1104164919
H  H3  1  0.97974000  0.26776000  0.03465000  1.0 0.1104164919
H  H4  1  0.92435000  0.15825000  0.04706000  1.0 0.0882755852
H  H5  1  0.85966000  0.37504000  0.93076000  1.0 0.0809316369
H  H6  1  0.91624000  0.38118000  0.91140000  1.0 0.0882755852
H  H7  1  0.93757000  0.34409000  0.10132000  1.0 0.0882755852
H  H8  1  0.87352000  0.35348000  0.04860000  1.0 0.0882755852
H  H9  1  0.01865000  0.37063000  0.99660000  1.0 0.0809316369
H  H10  1  0.02483000  0.35373000  0.06971000  1.0 0.0809316369
H  H11  1  0.93754000  0.20992000  0.67438000  1.0 0.0708497123
H  H12  1  0.95046000  0.16210000  0.78143000  1.0 0.0982331162
H  H13  1  0.00329000  0.04077000  0.76925000  1.0 0.0518759218
H  H14  1  0.98523000  0.09075000  0.66130000  1.0 0.0593091722
H  H15  1  0.88457000  0.00117000  0.84385000  1.0 0.0882755852
H  H16  1  0.90014000  0.06940000  0.84938000  1.0 0.0809316369
H  H17  1  0.01555000  0.14785000  0.87947000  1.0 0.0809316369
H  H18  1  0.07434000  0.13542000  0.88379000  1.0 0.0882755852
H  H19  1  0.05085000  0.02679000  0.87328000  1.0 0.0882755852
H  H20  1  0.97766000  0.97560000  0.85735000  1.0 0.0708497123
H  H21  1  0.65961000  0.24985000  0.75527000  1.0 0.0809316369
H  H22  1  0.63266000  0.18970000  0.84944000  1.0 0.1104164919
H  H23  1  0.50814000  0.04148000  0.77391000  1.0 0.1104164919
H  H24  1  0.53539000  0.10627000  0.68042000  1.0 0.0882755852
H  H25  1  0.62091000  0.13751000  0.93116000  1.0 0.0708497123
H  H26  1  0.63671000  0.07775000  0.94378000  1.0 0.0882755852
H  H27  1  0.45670000  0.08382000  0.82998000  1.0 0.0809316369
H  H28  1  0.51019000  0.14109000  0.86176000  1.0 0.0882755852
H  H29  1  0.55017000  0.98617000  0.89327000  1.0 0.0882755852
H  H30  1  0.47921000  0.98673000  0.85459000  1.0 0.0809316369
H  H31  1  0.01503000  0.23099000  0.68328000  1.0 0.0518759218
H  H32  1  0.02496000  0.18522000  0.79301000  1.0 0.0882755852
H  H33  1  0.94087000  0.00915000  0.76467000  1.0 0.0593091722
H  H34  1  0.91859000  0.05811000  0.65555000  1.0 0.0593091722
H  H35  1  0.16887000  0.76085000  0.48583000  1.0 0.0982331162
H  H36  1  0.27879000  0.81195000  0.50004000  1.0 0.1104164919
H  H37  1  0.26776000  0.97974000  0.46535000  1.0 0.1104164919
H  H38  1  0.15825000  0.92435000  0.45294000  1.0 0.0882755852
H  H39  1  0.37504000  0.85966000  0.56924000  1.0 0.0809316369
H  H40  1  0.38118000  0.91624000  0.58860000  1.0 0.0882755852
H  H41  1  0.34409000  0.93757000  0.39868000  1.0 0.0882755852
H  H42  1  0.35348000  0.87352000  0.45140000  1.0 0.0882755852
H  H43  1  0.37063000  0.01865000  0.50340000  1.0 0.0809316369
H  H44  1  0.35373000  0.02483000  0.43029000  1.0 0.0809316369
H  H45  1  0.20992000  0.93754000  0.82562000  1.0 0.0708497123
H  H46  1  0.16210000  0.95046000  0.71857000  1.0 0.0982331162
H  H47  1  0.04077000  0.00329000  0.73075000  1.0 0.0518759218
H  H48  1  0.09075000  0.98523000  0.83870000  1.0 0.0593091722
H  H49  1  0.00117000  0.88457000  0.65615000  1.0 0.0882755852
H  H50  1  0.06940000  0.90014000  0.65062000  1.0 0.0809316369
H  H51  1  0.14785000  0.01555000  0.62053000  1.0 0.0809316369
H  H52  1  0.13542000  0.07434000  0.61621000  1.0 0.0882755852
H  H53  1  0.02679000  0.05085000  0.62672000  1.0 0.0882755852
H  H54  1  0.97560000  0.97766000  0.64265000  1.0 0.0708497123
H  H55  1  0.24985000  0.65961000  0.74473000  1.0 0.0809316369
H  H56  1  0.18970000  0.63266000  0.65056000  1.0 0.1104164919
H  H57  1  0.04148000  0.50814000  0.72609000  1.0 0.1104164919
H  H58  1  0.10627000  0.53539000  0.81958000  1.0 0.0809316369
H  H59  1  0.13751000  0.62091000  0.56884000  1.0 0.0708497123
H  H60  1  0.07775000  0.63671000  0.55622000  1.0 0.0882755852
H  H61  1  0.08382000  0.45670000  0.67002000  1.0 0.0809316369
H  H62  1  0.14109000  0.51019000  0.63824000  1.0 0.0882755852
H  H63  1  0.98617000  0.55017000  0.60673000  1.0 0.0882755852
H  H64  1  0.98673000  0.47921000  0.64541000  1.0 0.0809316369
H  H65  1  0.23099000  0.01503000  0.81672000  1.0 0.0518759218
H  H66  1  0.18522000  0.02496000  0.70699000  1.0 0.0882755852
H  H67  1  0.00915000  0.94087000  0.73533000  1.0 0.0593091722
H  H68  1  0.05811000  0.91859000  0.84445000  1.0 0.0593091722
H  H69  1  0.23915000  0.83113000  0.98583000  1.0 0.0982331162
H  H70  1  0.18805000  0.72121000  0.00004000  1.0 0.1104164919
H  H71  1  0.02026000  0.73224000  0.96535000  1.0 0.1104164919
H  H72  1  0.07565000  0.84175000  0.95294000  1.0 0.0882755852
H  H73  1  0.14034000  0.62496000  0.06924000  1.0 0.0809316369
H  H74  1  0.08376000  0.61882000  0.08860000  1.0 0.0882755852
H  H75  1  0.06243000  0.65591000  0.89868000  1.0 0.0882755852
H  H76  1  0.12648000  0.64652000  0.95140000  1.0 0.0882755852
H  H77  1  0.98135000  0.62937000  0.00340000  1.0 0.0809316369
H  H78  1  0.97517000  0.64627000  0.93029000  1.0 0.0809316369
H  H79  1  0.06246000  0.79008000  0.32562000  1.0 0.0708497123
H  H80  1  0.04954000  0.83790000  0.21857000  1.0 0.0982331162
H  H81  1  0.99671000  0.95923000  0.23075000  1.0 0.0518759218
H  H82  1  0.01477000  0.90925000  0.33870000  1.0 0.0593091722
H  H83  1  0.11543000  0.99883000  0.15615000  1.0 0.0882755852
H  H84  1  0.09986000  0.93060000  0.15062000  1.0 0.0809316369
H  H85  1  0.98445000  0.85215000  0.12053000  1.0 0.0809316369
H  H86  1  0.92566000  0.86458000  0.11621000  1.0 0.0882755852
H  H87  1  0.94915000  0.97321000  0.12672000  1.0 0.0882755852
H  H88  1  0.02234000  0.02440000  0.14265000  1.0 0.0708497123
H  H89  1  0.34039000  0.75015000  0.24473000  1.0 0.0809316369
H  H90  1  0.36734000  0.81030000  0.15056000  1.0 0.1104164919
H  H91  1  0.49186000  0.95852000  0.22609000  1.0 0.1104164919
H  H92  1  0.46461000  0.89373000  0.31958000  1.0 0.0882755852
H  H93  1  0.37909000  0.86249000  0.06884000  1.0 0.0708497123
H  H94  1  0.36329000  0.92225000  0.05622000  1.0 0.0882755852
H  H95  1  0.54330000  0.91618000  0.17002000  1.0 0.0809316369
H  H96  1  0.48981000  0.85891000  0.13824000  1.0 0.0882755852
H  H97  1  0.44983000  0.01383000  0.10673000  1.0 0.0882755852
H  H98  1  0.52079000  0.01327000  0.14541000  1.0 0.0809316369
H  H99  1  0.98497000  0.76901000  0.31672000  1.0 0.0518759218
H  H100  1  0.97504000  0.81478000  0.20699000  1.0 0.0882755852
H  H101  1  0.05913000  0.99085000  0.23533000  1.0 0.0593091722
H  H102  1  0.08141000  0.94189000  0.34445000  1.0 0.0593091722
H  H103  1  0.83113000  0.23915000  0.51417000  1.0 0.0982331162
H  H104  1  0.72121000  0.18805000  0.49996000  1.0 0.1104164919
H  H105  1  0.73224000  0.02026000  0.53465000  1.0 0.1104164919
H  H106  1  0.84175000  0.07565000  0.54706000  1.0 0.0882755852
H  H107  1  0.62496000  0.14034000  0.43076000  1.0 0.0809316369
H  H108  1  0.61882000  0.08376000  0.41140000  1.0 0.0882755852
H  H109  1  0.65591000  0.06243000  0.60132000  1.0 0.0882755852
H  H110  1  0.64652000  0.12648000  0.54860000  1.0 0.0882755852
H  H111  1  0.62937000  0.98135000  0.49660000  1.0 0.0809316369
H  H112  1  0.64627000  0.97517000  0.56971000  1.0 0.0809316369
H  H113  1  0.79008000  0.06246000  0.17438000  1.0 0.0708497123
H  H114  1  0.83790000  0.04954000  0.28143000  1.0 0.0982331162
H  H115  1  0.95923000  0.99671000  0.26925000  1.0 0.0518759218
H  H116  1  0.90925000  0.01477000  0.16130000  1.0 0.0593091722
H  H117  1  0.99883000  0.11543000  0.34385000  1.0 0.0882755852
H  H118  1  0.93060000  0.09986000  0.34938000  1.0 0.0809316369
H  H119  1  0.85215000  0.98445000  0.37947000  1.0 0.0809316369
H  H120  1  0.86458000  0.92566000  0.38379000  1.0 0.0882755852
H  H121  1  0.97321000  0.94915000  0.37328000  1.0 0.0882755852
H  H122  1  0.02440000  0.02234000  0.35735000  1.0 0.0708497123
H  H123  1  0.75015000  0.34039000  0.25527000  1.0 0.0809316369
H  H124  1  0.81030000  0.36734000  0.34944000  1.0 0.1104164919
H  H125  1  0.95852000  0.49186000  0.27391000  1.0 0.1104164919
H  H126  1  0.89373000  0.46461000  0.18042000  1.0 0.0882755852
H  H127  1  0.86249000  0.37909000  0.43116000  1.0 0.0708497123
H  H128  1  0.92225000  0.36329000  0.44378000  1.0 0.0882755852
H  H129  1  0.91618000  0.54330000  0.32998000  1.0 0.0809316369
H  H130  1  0.85891000  0.48981000  0.36176000  1.0 0.0882755852
H  H131  1  0.01383000  0.44983000  0.39327000  1.0 0.0882755852
H  H132  1  0.01327000  0.52079000  0.35459000  1.0 0.0809316369
H  H133  1  0.76901000  0.98497000  0.18328000  1.0 0.0518759218
H  H134  1  0.81478000  0.97504000  0.29301000  1.0 0.0882755852
H  H135  1  0.99085000  0.05913000  0.26467000  1.0 0.0593091722
H  H136  1  0.94189000  0.08141000  0.15555000  1.0 0.0593091722
C  C1  1  0.80619000  0.18921000  0.01889000  1.0 0.0518759218
C  C2  1  0.83662000  0.25478000  0.01042000  1.0 -0.2381808161
C  C3  1  0.90271000  0.28689000  0.01681000  1.0 0.0593091722
C  C4  1  0.93456000  0.24864000  0.03046000  1.0 -0.2324081957
C  C5  1  0.90120000  0.18320000  0.03810000  1.0 0.0593091722
C  C6  1  0.93664000  0.35956000  0.00954000  1.0 0.0281269074
C  C7  1  0.90737000  0.39263000  0.93957000  1.0 -0.0712044144
C  C8  1  0.92118000  0.37002000  0.05818000  1.0 -0.0638105093
C  C9  1  0.00985000  0.38015000  0.02625000  1.0 -0.0803851009
C  C10  1  0.94960000  0.17360000  0.69420000  1.0 -0.0528579993
C  C11  1  0.95760000  0.14560000  0.75810000  1.0 -0.1157356339
C  C12  1  0.97638000  0.09282000  0.78908000  1.0 0.008215825
C  C13  1  0.98790000  0.07470000  0.75080000  1.0 -0.104732799
C  C14  1  0.97750000  0.10530000  0.68590000  1.0 -0.0186878502
C  C15  1  0.98414000  0.06046000  0.86084000  1.0 0.0389315536
C  C16  1  0.91505000  0.03335000  0.86825000  1.0 -0.0887071027
C  C17  1  0.03321000  0.11439000  0.89501000  1.0 -0.0887071027
C  C18  1  0.00880000  0.00700000  0.88250000  1.0 -0.146628982
C  C19  1  0.62750000  0.20690000  0.75870000  1.0 0.0281269074
C  C20  1  0.61170000  0.17110000  0.81520000  1.0 -0.2381808161
C  C21  1  0.56529000  0.10811000  0.82239000  1.0 0.0518759218
C  C22  1  0.53885000  0.08495000  0.77115000  1.0 -0.2381808161
C  C23  1  0.55603000  0.12377000  0.71543000  1.0 0.0593091722
C  C24  1  0.54429000  0.07051000  0.88329000  1.0 0.0389315536
C  C25  1  0.60277000  0.08983000  0.93987000  1.0 -0.0887071027
C  C26  1  0.49072000  0.09348000  0.86942000  1.0 -0.0638105093
C  C27  1  0.51663000  0.99717000  0.89193000  1.0 -0.0803851009
C  C28  1  0.99340000  0.18540000  0.69880000  1.0 -0.0129742615
C  C29  1  0.00190000  0.15810000  0.76560000  1.0 -0.1092576371
C  C30  1  0.95050000  0.05450000  0.74820000  1.0 -0.1092576371
C  C31  1  0.93950000  0.08430000  0.68360000  1.0 -0.0712044144
C  C32  1  0.18921000  0.80619000  0.48111000  1.0 0.0518759218
C  C33  1  0.25478000  0.83662000  0.48958000  1.0 -0.2381808161
C  C34  1  0.28689000  0.90271000  0.48319000  1.0 0.0593091722
C  C35  1  0.24864000  0.93456000  0.46954000  1.0 -0.2324081957
C  C36  1  0.18320000  0.90120000  0.46190000  1.0 0.0593091722
C  C37  1  0.35956000  0.93664000  0.49046000  1.0 0.0281269074
C  C38  1  0.39263000  0.90737000  0.56043000  1.0 -0.0712044144
C  C39  1  0.37002000  0.92118000  0.44182000  1.0 -0.0638105093
C  C40  1  0.38015000  0.00985000  0.47375000  1.0 -0.0803851009
C  C41  1  0.17360000  0.94960000  0.80580000  1.0 -0.0528579993
C  C42  1  0.14560000  0.95760000  0.74190000  1.0 -0.1157356339
C  C43  1  0.09282000  0.97638000  0.71092000  1.0 0.008215825
C  C44  1  0.07470000  0.98790000  0.74920000  1.0 -0.104732799
C  C45  1  0.10530000  0.97750000  0.81410000  1.0 -0.0186878502
C  C46  1  0.06046000  0.98414000  0.63916000  1.0 0.0389315536
C  C47  1  0.03335000  0.91505000  0.63175000  1.0 -0.0803851009
C  C48  1  0.11439000  0.03321000  0.60499000  1.0 -0.0887071027
C  C49  1  0.00700000  0.00880000  0.61750000  1.0 -0.146628982
C  C50  1  0.20690000  0.62750000  0.74130000  1.0 0.0281269074
C  C51  1  0.17110000  0.61170000  0.68480000  1.0 -0.2381808161
C  C52  1  0.10811000  0.56529000  0.67761000  1.0 0.0518759218
C  C53  1  0.08495000  0.53885000  0.72885000  1.0 -0.2381808161
C  C54  1  0.12377000  0.55603000  0.78457000  1.0 0.0593091722
C  C55  1  0.07051000  0.54429000  0.61671000  1.0 0.0389315536
C  C56  1  0.08983000  0.60277000  0.56013000  1.0 -0.0887071027
C  C57  1  0.09348000  0.49072000  0.63058000  1.0 -0.0638105093
C  C58  1  0.99717000  0.51663000  0.60807000  1.0 -0.0712044144
C  C59  1  0.18540000  0.99340000  0.80120000  1.0 -0.0129742615
C  C60  1  0.15810000  0.00190000  0.73440000  1.0 -0.1092576371
C  C61  1  0.05450000  0.95050000  0.75180000  1.0 -0.1092576371
C  C62  1  0.08430000  0.93950000  0.81640000  1.0 -0.0712044144
C  C63  1  0.19381000  0.81079000  0.98111000  1.0 0.0518759218
C  C64  1  0.16338000  0.74522000  0.98958000  1.0 -0.2381808161
C  C65  1  0.09729000  0.71311000  0.98319000  1.0 0.0593091722
C  C66  1  0.06544000  0.75136000  0.96954000  1.0 -0.2324081957
C  C67  1  0.09880000  0.81680000  0.96190000  1.0 0.0593091722
C  C68  1  0.06336000  0.64044000  0.99046000  1.0 0.0281269074
C  C69  1  0.09263000  0.60737000  0.06043000  1.0 -0.0712044144
C  C70  1  0.07882000  0.62998000  0.94182000  1.0 -0.0638105093
C  C71  1  0.99015000  0.61985000  0.97375000  1.0 -0.0803851009
C  C72  1  0.05040000  0.82640000  0.30580000  1.0 -0.0528579993
C  C73  1  0.04240000  0.85440000  0.24190000  1.0 -0.1157356339
C  C74  1  0.02362000  0.90718000  0.21092000  1.0 0.008215825
C  C75  1  0.01210000  0.92530000  0.24920000  1.0 -0.104732799
C  C76  1  0.02250000  0.89470000  0.31410000  1.0 -0.0186878502
C  C77  1  0.01586000  0.93954000  0.13916000  1.0 0.0389315536
C  C78  1  0.08495000  0.96665000  0.13175000  1.0 -0.0887071027
C  C79  1  0.96679000  0.88561000  0.10499000  1.0 -0.0887071027
C  C80  1  0.99120000  0.99300000  0.11750000  1.0 -0.146628982
C  C81  1  0.37250000  0.79310000  0.24130000  1.0 0.0281269074
C  C82  1  0.38830000  0.82890000  0.18480000  1.0 -0.2381808161
C  C83  1  0.43471000  0.89189000  0.17761000  1.0 0.0518759218
C  C84  1  0.46115000  0.91505000  0.22885000  1.0 -0.2381808161
C  C85  1  0.44397000  0.87623000  0.28457000  1.0 0.0593091722
C  C86  1  0.45571000  0.92949000  0.11671000  1.0 0.0389315536
C  C87  1  0.39723000  0.91017000  0.06013000  1.0 -0.0887071027
C  C88  1  0.50928000  0.90652000  0.13058000  1.0 -0.0638105093
C  C89  1  0.48337000  0.00283000  0.10807000  1.0 -0.0712044144
C  C90  1  0.00660000  0.81460000  0.30120000  1.0 -0.0129742615
C  C91  1  0.99810000  0.84190000  0.23440000  1.0 -0.1092576371
C  C92  1  0.04950000  0.94550000  0.25180000  1.0 -0.1092576371
C  C93  1  0.06050000  0.91570000  0.31640000  1.0 -0.0712044144
C  C94  1  0.81079000  0.19381000  0.51889000  1.0 0.0518759218
C  C95  1  0.74522000  0.16338000  0.51042000  1.0 -0.2381808161
C  C96  1  0.71311000  0.09729000  0.51681000  1.0 0.0593091722
C  C97  1  0.75136000  0.06544000  0.53046000  1.0 -0.2324081957
C  C98  1  0.81680000  0.09880000  0.53810000  1.0 0.0593091722
C  C99  1  0.64044000  0.06336000  0.50954000  1.0 0.0281269074
C  C100  1  0.60737000  0.09263000  0.43957000  1.0 -0.0712044144
C  C101  1  0.62998000  0.07882000  0.55818000  1.0 -0.0638105093
C  C102  1  0.61985000  0.99015000  0.52625000  1.0 -0.0803851009
C  C103  1  0.82640000  0.05040000  0.19420000  1.0 -0.0528579993
C  C104  1  0.85440000  0.04240000  0.25810000  1.0 -0.1157356339
C  C105  1  0.90718000  0.02362000  0.28908000  1.0 0.008215825
C  C106  1  0.92530000  0.01210000  0.25080000  1.0 -0.104732799
C  C107  1  0.89470000  0.02250000  0.18590000  1.0 -0.0186878502
C  C108  1  0.93954000  0.01586000  0.36084000  1.0 0.0389315536
C  C109  1  0.96665000  0.08495000  0.36825000  1.0 -0.0887071027
C  C110  1  0.88561000  0.96679000  0.39501000  1.0 -0.0887071027
C  C111  1  0.99300000  0.99120000  0.38250000  1.0 -0.146628982
C  C112  1  0.79310000  0.37250000  0.25870000  1.0 0.0281269074
C  C113  1  0.82890000  0.38830000  0.31520000  1.0 -0.2381808161
C  C114  1  0.89189000  0.43471000  0.32239000  1.0 0.0518759218
C  C115  1  0.91505000  0.46115000  0.27115000  1.0 -0.2381808161
C  C116  1  0.87623000  0.44397000  0.21543000  1.0 0.0593091722
C  C117  1  0.92949000  0.45571000  0.38329000  1.0 0.0389315536
C  C118  1  0.91017000  0.39723000  0.43987000  1.0 -0.0887071027
C  C119  1  0.90652000  0.50928000  0.36942000  1.0 -0.0638105093
C  C120  1  0.00283000  0.48337000  0.39193000  1.0 -0.0803851009
C  C121  1  0.81460000  0.00660000  0.19880000  1.0 -0.0129742615
C  C122  1  0.84190000  0.99810000  0.26560000  1.0 -0.1092576371
C  C123  1  0.94550000  0.04950000  0.24820000  1.0 -0.1092576371
C  C124  1  0.91570000  0.06050000  0.18360000  1.0 -0.0712044144
N  N1  1  0.83837000  0.15269000  0.03367000  1.0 -0.2324081957
N  N2  1  0.95788000  0.15212000  0.65739000  1.0 -0.1858592504
N  N3  1  0.59972000  0.18408000  0.70840000  1.0 -0.2324081957
N  N4  1  0.15269000  0.83837000  0.46633000  1.0 -0.2324081957
N  N5  1  0.15212000  0.95788000  0.84261000  1.0 -0.1858592504
N  N6  1  0.18408000  0.59972000  0.79160000  1.0 -0.2324081957
N  N7  1  0.16163000  0.84731000  0.96633000  1.0 -0.2324081957
N  N8  1  0.04212000  0.84788000  0.34261000  1.0 -0.1858592504
N  N9  1  0.40028000  0.81592000  0.29160000  1.0 -0.2324081957
N  N10  1  0.84731000  0.16163000  0.53367000  1.0 -0.2324081957
N  N11  1  0.84788000  0.04212000  0.15739000  1.0 -0.1858592504
N  N12  1  0.81592000  0.40028000  0.20840000  1.0 -0.2324081957
O  O1  1  0.93547000  0.56989000  0.84768000  1.0 -0.8900019104
O  O2  1  0.96037000  0.51641000  0.10260000  1.0 -0.9406918013
O  O3  1  0.57902000  0.16548000  0.58508000  1.0 -0.7802547613
O  O4  1  0.84283000  0.45979000  0.96384000  1.0 -0.9478151971
O  O5  1  0.11086000  0.11582000  0.07038000  1.0 -0.8838197464
O  O6  1  0.85294000  0.94622000  0.01318000  1.0 -0.9305637503
O  O7  1  0.95178000  0.11730000  0.96124000  1.0 -0.9032732869
O  O8  1  0.86760000  0.04848000  0.03804000  1.0 -0.7802547613
O  O9  1  0.61656000  0.95242000  0.03323000  1.0 -0.9305637503
O  O10  1  0.55194000  0.15690000  0.98165000  1.0 -0.9032732869
O  O11  1  0.62800000  0.04832000  0.11734000  1.0 -0.9072547381
O  O12  1  0.71879000  0.05297000  0.07559000  1.0 -0.7735822821
O  O13  1  0.93203000  0.46201000  0.92399000  1.0 -0.6403463656
O  O14  1  0.94853000  0.43587000  0.05807000  1.0 -0.6223302806
O  O15  1  0.04692000  0.44760000  0.02350000  1.0 -0.6403463656
O  O16  1  0.91248000  0.00360000  0.93219000  1.0 -0.6452163184
O  O17  1  0.04674000  0.08984000  0.96374000  1.0 -0.5882081712
O  O18  1  0.01725000  0.97235000  0.94950000  1.0 -0.5986782784
O  O19  1  0.58678000  0.05938000  0.99963000  1.0 -0.6073147381
O  O20  1  0.46087000  0.06389000  0.91937000  1.0 -0.6698867107
O  O21  1  0.49592000  0.95746000  0.94850000  1.0 -0.6073147381
O  O22  1  0.56989000  0.93547000  0.65232000  1.0 -0.8900019104
O  O23  1  0.51641000  0.96037000  0.39740000  1.0 -0.9406918013
O  O24  1  0.16548000  0.57902000  0.91492000  1.0 -0.7802547613
O  O25  1  0.45979000  0.84283000  0.53616000  1.0 -0.9478151971
O  O26  1  0.11582000  0.11086000  0.42962000  1.0 -0.8838197464
O  O27  1  0.94622000  0.85294000  0.48682000  1.0 -0.9305637503
O  O28  1  0.11730000  0.95178000  0.53876000  1.0 -0.9032732869
O  O29  1  0.04848000  0.86760000  0.46196000  1.0 -0.7802547613
O  O30  1  0.95242000  0.61656000  0.46677000  1.0 -0.9305637503
O  O31  1  0.15690000  0.55194000  0.51835000  1.0 -0.9032732869
O  O32  1  0.04832000  0.62800000  0.38266000  1.0 -0.9072547381
O  O33  1  0.05297000  0.71879000  0.42441000  1.0 -0.7735822821
O  O34  1  0.46201000  0.93203000  0.57601000  1.0 -0.6403463656
O  O35  1  0.43587000  0.94853000  0.44193000  1.0 -0.6223302806
O  O36  1  0.44760000  0.04692000  0.47650000  1.0 -0.6403463656
O  O37  1  0.00360000  0.91248000  0.56781000  1.0 -0.6452163184
O  O38  1  0.08984000  0.04674000  0.53626000  1.0 -0.5882081712
O  O39  1  0.97235000  0.01725000  0.55050000  1.0 -0.5986782784
O  O40  1  0.05938000  0.58678000  0.50037000  1.0 -0.6073147381
O  O41  1  0.06389000  0.46087000  0.58063000  1.0 -0.6698867107
O  O42  1  0.95746000  0.49592000  0.55150000  1.0 -0.6073147381
O  O43  1  0.06453000  0.43011000  0.15232000  1.0 -0.8900019104
O  O44  1  0.03963000  0.48359000  0.89740000  1.0 -0.9406918013
O  O45  1  0.42098000  0.83452000  0.41492000  1.0 -0.7802547613
O  O46  1  0.15717000  0.54021000  0.03616000  1.0 -0.9478151971
O  O47  1  0.88914000  0.88418000  0.92962000  1.0 -0.8838197464
O  O48  1  0.14706000  0.05378000  0.98682000  1.0 -0.9305637503
O  O49  1  0.04822000  0.88270000  0.03876000  1.0 -0.9032732869
O  O50  1  0.13240000  0.95152000  0.96196000  1.0 -0.7802547613
O  O51  1  0.38344000  0.04758000  0.96677000  1.0 -0.9305637503
O  O52  1  0.44806000  0.84310000  0.01835000  1.0 -0.9032732869
O  O53  1  0.37200000  0.95168000  0.88266000  1.0 -0.9072547381
O  O54  1  0.28121000  0.94703000  0.92441000  1.0 -0.7735822821
O  O55  1  0.06797000  0.53799000  0.07601000  1.0 -0.6403463656
O  O56  1  0.05147000  0.56413000  0.94193000  1.0 -0.6223302806
O  O57  1  0.95308000  0.55240000  0.97650000  1.0 -0.6403463656
O  O58  1  0.08752000  0.99640000  0.06781000  1.0 -0.6452163184
O  O59  1  0.95326000  0.91016000  0.03626000  1.0 -0.5882081712
O  O60  1  0.98275000  0.02765000  0.05050000  1.0 -0.5986782784
O  O61  1  0.41322000  0.94062000  0.00037000  1.0 -0.6073147381
O  O62  1  0.53913000  0.93611000  0.08063000  1.0 -0.6698867107
O  O63  1  0.50408000  0.04254000  0.05150000  1.0 -0.6073147381
O  O64  1  0.43011000  0.06453000  0.34768000  1.0 -0.8900019104
O  O65  1  0.48359000  0.03963000  0.60260000  1.0 -0.9406918013
O  O66  1  0.83452000  0.42098000  0.08508000  1.0 -0.7802547613
O  O67  1  0.54021000  0.15717000  0.46384000  1.0 -0.9478151971
O  O68  1  0.88418000  0.88914000  0.57038000  1.0 -0.8838197464
O  O69  1  0.05378000  0.14706000  0.51318000  1.0 -0.9305637503
O  O70  1  0.88270000  0.04822000  0.46124000  1.0 -0.9072547381
O  O71  1  0.95152000  0.13240000  0.53804000  1.0 -0.7802547613
O  O72  1  0.04758000  0.38344000  0.53323000  1.0 -0.9305637503
O  O73  1  0.84310000  0.44806000  0.48165000  1.0 -0.9072547381
O  O74  1  0.95168000  0.37200000  0.61734000  1.0 -0.9072547381
O  O75  1  0.94703000  0.28121000  0.57559000  1.0 -0.7735822821
O  O76  1  0.53799000  0.06797000  0.42399000  1.0 -0.6403463656
O  O77  1  0.56413000  0.05147000  0.55807000  1.0 -0.6223302806
O  O78  1  0.55240000  0.95308000  0.52350000  1.0 -0.6403463656
O  O79  1  0.99640000  0.08752000  0.43219000  1.0 -0.6452163184
O  O80  1  0.91016000  0.95326000  0.46374000  1.0 -0.5882081712
O  O81  1  0.02765000  0.98275000  0.44950000  1.0 -0.5986782784
O  O82  1  0.94062000  0.41322000  0.49963000  1.0 -0.6073147381
O  O83  1  0.93611000  0.53913000  0.41937000  1.0 -0.6698867107
O  O84  1  0.04254000  0.50408000  0.44850000  1.0 -0.6073147381
