# DDEC6 charges by PACMAN v1.1 (https://github.com/mtap-research/PACMAN-charge/)
data_GECRAI_FSR_pacman
_symmetry_space_group_name_H-M   'P 1'
_cell_length_a   8.90878000
_cell_length_b   8.90878000
_cell_length_c   18.78150000
_cell_angle_alpha   82.77860000
_cell_angle_beta   97.22140000
_cell_angle_gamma   109.82200000
_symmetry_Int_Tables_number   1
_chemical_formula_structural   V2P2H7C3O10
_chemical_formula_sum   'V8 P8 H28 C12 O40'
_cell_volume   1385.65503667
_cell_formula_units_Z   4
loop_
 _symmetry_equiv_pos_site_id
 _symmetry_equiv_pos_as_xyz
  1  'x, y, z'
loop_
 _atom_site_type_symbol
 _atom_site_label
 _atom_site_symmetry_multiplicity
 _atom_site_fract_x
 _atom_site_fract_y
 _atom_site_fract_z
 _atom_site_occupancy
 _atom_site_charge
V  V1  1  0.22350000  0.53288000  0.91151000  1.0 1.9185465274
V  V2  1  0.53288000  0.22350000  0.58849000  1.0 1.9185465274
V  V3  1  0.77650000  0.46712000  0.08849000  1.0 1.9185465274
V  V4  1  0.46712000  0.77650000  0.41151000  1.0 1.9185465274
V  V5  1  0.20689000  0.66639000  0.71706000  1.0 1.9057248829
V  V6  1  0.66639000  0.20689000  0.78294000  1.0 1.9045145112
V  V7  1  0.79311000  0.33361000  0.28294000  1.0 1.9045145112
V  V8  1  0.33361000  0.79311000  0.21706000  1.0 1.9045145112
P  P1  1  0.50041000  0.82071000  0.82852000  1.0 1.4197385607
P  P2  1  0.82071000  0.50041000  0.67148000  1.0 1.4197385607
P  P3  1  0.49959000  0.17929000  0.17148000  1.0 1.4197385607
P  P4  1  0.17929000  0.49959000  0.32852000  1.0 1.4197385607
P  P5  1  0.83708000  0.40110000  0.92608000  1.0 1.4330207703
P  P6  1  0.40110000  0.83708000  0.57392000  1.0 1.4330207703
P  P7  1  0.16292000  0.59890000  0.07392000  1.0 1.4330207703
P  P8  1  0.59890000  0.16292000  0.42608000  1.0 1.4330207703
H  H1  1  0.74900000  0.86160000  0.89230000  1.0 0.1576933114
H  H2  1  0.86160000  0.74900000  0.60770000  1.0 0.1576933114
H  H3  1  0.25100000  0.13840000  0.10770000  1.0 0.1576933114
H  H4  1  0.13840000  0.25100000  0.39230000  1.0 0.1576933114
H  H5  1  0.75750000  0.83470000  0.81050000  1.0 0.1518728582
H  H6  1  0.83470000  0.75750000  0.68950000  1.0 0.1518728582
H  H7  1  0.24250000  0.16530000  0.18950000  1.0 0.1518728582
H  H8  1  0.16530000  0.24250000  0.31050000  1.0 0.1518728582
H  H9  1  0.90370000  0.63170000  0.84760000  1.0 0.1422986945
H  H10  1  0.63170000  0.90370000  0.65240000  1.0 0.1422986945
H  H11  1  0.09630000  0.36830000  0.15240000  1.0 0.1422986945
H  H12  1  0.36830000  0.09630000  0.34760000  1.0 0.1422986945
H  H13  1  0.91010000  0.67650000  0.92800000  1.0 0.1518728582
H  H14  1  0.67650000  0.91010000  0.57200000  1.0 0.1518728582
H  H15  1  0.08990000  0.32350000  0.07200000  1.0 0.1518728582
H  H16  1  0.32350000  0.08990000  0.42800000  1.0 0.1518728582
H  H17  1  0.62210000  0.55370000  0.83600000  1.0 0.1133415957
H  H18  1  0.55370000  0.62210000  0.66400000  1.0 0.1133415957
H  H19  1  0.37790000  0.44630000  0.16400000  1.0 0.1133415957
H  H20  1  0.44630000  0.37790000  0.33600000  1.0 0.1133415957
H  H21  1  0.62160000  0.58280000  0.91840000  1.0 0.1133415957
H  H22  1  0.58280000  0.62160000  0.58160000  1.0 0.1133415957
H  H23  1  0.37840000  0.41720000  0.08160000  1.0 0.1133415957
H  H24  1  0.41720000  0.37840000  0.41840000  1.0 0.1133415957
H  H25  1  0.08900000  0.49900000  0.80400000  1.0 0.4141430927
H  H26  1  0.49900000  0.08900000  0.69600000  1.0 0.4141430927
H  H27  1  0.91100000  0.50100000  0.19600000  1.0 0.4141430927
H  H28  1  0.50100000  0.91100000  0.30400000  1.0 0.4141430927
C  C1  1  0.69275000  0.79525000  0.85229000  1.0 -0.4848853054
C  C2  1  0.79525000  0.69275000  0.64771000  1.0 -0.4848853054
C  C3  1  0.30725000  0.20475000  0.14771000  1.0 -0.4848853054
C  C4  1  0.20475000  0.30725000  0.35229000  1.0 -0.4848853054
C  C5  1  0.84697000  0.60183000  0.89197000  1.0 -0.5115535857
C  C6  1  0.60183000  0.84697000  0.60803000  1.0 -0.5115535857
C  C7  1  0.15303000  0.39817000  0.10803000  1.0 -0.5115535857
C  C8  1  0.39817000  0.15303000  0.39197000  1.0 -0.5115535857
C  C9  1  0.68193000  0.62107000  0.87515000  1.0 -0.0822241756
C  C10  1  0.62107000  0.68193000  0.62485000  1.0 -0.0822241756
C  C11  1  0.31807000  0.37893000  0.12485000  1.0 -0.0822241756
C  C12  1  0.37893000  0.31807000  0.37515000  1.0 -0.0822241756
O  O1  1  0.00172000  0.38388000  0.92443000  1.0 -0.8239419164
O  O2  1  0.38388000  0.00172000  0.57557000  1.0 -0.8239419164
O  O3  1  0.99828000  0.61612000  0.07557000  1.0 -0.8239419164
O  O4  1  0.61612000  0.99828000  0.42443000  1.0 -0.8239419164
O  O5  1  0.78555000  0.36865000  0.00276000  1.0 -0.7868542226
O  O6  1  0.36865000  0.78555000  0.49724000  1.0 -0.7868542226
O  O7  1  0.21445000  0.63135000  0.99724000  1.0 -0.7868542226
O  O8  1  0.63135000  0.21445000  0.50276000  1.0 -0.7868542226
O  O9  1  0.32106000  0.41074000  0.93082000  1.0 -0.6238817426
O  O10  1  0.41074000  0.32106000  0.56918000  1.0 -0.6238817426
O  O11  1  0.67894000  0.58926000  0.06918000  1.0 -0.6238817426
O  O12  1  0.58926000  0.67894000  0.43082000  1.0 -0.6238817426
O  O13  1  0.15060000  0.53780000  0.80960000  1.0 -0.8000684159
O  O14  1  0.53780000  0.15060000  0.69040000  1.0 -0.8000684159
O  O15  1  0.84940000  0.46220000  0.19040000  1.0 -0.8000684159
O  O16  1  0.46220000  0.84940000  0.30960000  1.0 -0.8000684159
O  O17  1  0.39395000  0.73647000  0.88976000  1.0 -0.8000684159
O  O18  1  0.73647000  0.39395000  0.61024000  1.0 -0.8000684159
O  O19  1  0.60605000  0.26353000  0.11024000  1.0 -0.8000684159
O  O20  1  0.26353000  0.60605000  0.38976000  1.0 -0.8000684159
O  O21  1  0.43299000  0.74661000  0.75751000  1.0 -0.8104753646
O  O22  1  0.74661000  0.43299000  0.74249000  1.0 -0.8104753646
O  O23  1  0.56701000  0.25339000  0.24249000  1.0 -0.8104753646
O  O24  1  0.25339000  0.56701000  0.25751000  1.0 -0.8104753646
O  O25  1  0.15747000  0.82253000  0.72416000  1.0 -0.6570311191
O  O26  1  0.82253000  0.15747000  0.77584000  1.0 -0.6570311191
O  O27  1  0.84253000  0.17747000  0.27584000  1.0 -0.6570311191
O  O28  1  0.17747000  0.84253000  0.22416000  1.0 -0.6570311191
O  O29  1  0.52151000  0.99859000  0.82440000  1.0 -0.7685111465
O  O30  1  0.99859000  0.52151000  0.67560000  1.0 -0.7685111465
O  O31  1  0.47849000  0.00141000  0.17560000  1.0 -0.7685111465
O  O32  1  0.00141000  0.47849000  0.32440000  1.0 -0.7685111465
O  O33  1  0.70979000  0.28037000  0.88075000  1.0 -0.7398942115
O  O34  1  0.28037000  0.70979000  0.61925000  1.0 -0.7398942115
O  O35  1  0.29021000  0.71963000  0.11925000  1.0 -0.7398942115
O  O36  1  0.71963000  0.29021000  0.38075000  1.0 -0.7398942115
O  O37  1  0.26970000  0.43030000  0.69983000  1.0 -0.0312973472
O  O38  1  0.43030000  0.26970000  0.80017000  1.0 -0.0312973472
O  O39  1  0.73030000  0.56970000  0.30017000  1.0 -0.0312973472
O  O40  1  0.56970000  0.73030000  0.19983000  1.0 -0.0312973472
