# DDEC6 charges by PACMAN v1.1 (https://github.com/mtap-research/PACMAN-charge/)
data_GECRUE_FSR_pacman
_symmetry_space_group_name_H-M   'P 1'
_cell_length_a   13.33800000
_cell_length_b   23.13600000
_cell_length_c   26.44400000
_cell_angle_alpha   87.17500000
_cell_angle_beta   85.64900000
_cell_angle_gamma   87.71200000
_symmetry_Int_Tables_number   1
_chemical_formula_structural   Mg2Mn2CuMo12H155C85(N5O16)4
_chemical_formula_sum   'Mg4 Mn4 Cu2 Mo24 H310 C170 N40 O128'
_cell_volume   8121.52820077
_cell_formula_units_Z   2
loop_
 _symmetry_equiv_pos_site_id
 _symmetry_equiv_pos_as_xyz
  1  'x, y, z'
loop_
 _atom_site_type_symbol
 _atom_site_label
 _atom_site_symmetry_multiplicity
 _atom_site_fract_x
 _atom_site_fract_y
 _atom_site_fract_z
 _atom_site_occupancy
 _atom_site_charge
Mg  Mg1  1  0.54190000  0.10930000  0.23113000  1.0 1.3172281175
Mg  Mg2  1  0.02080000  0.31630000  0.31610000  1.0 1.3172281175
Mg  Mg3  1  0.45810000  0.89070000  0.76887000  1.0 1.3172281175
Mg  Mg4  1  0.97920000  0.68370000  0.68390000  1.0 1.3172281175
Mn  Mn1  1  0.00000000  0.00000000  0.00000000  1.0 0.9607067892
Mn  Mn2  1  0.00000000  0.00000000  0.50000000  1.0 0.9704215317
Mn  Mn3  1  0.50000000  0.50000000  0.00000000  1.0 0.9607067892
Mn  Mn4  1  0.50000000  0.50000000  0.50000000  1.0 0.9607067892
Cu  Cu1  1  0.23036000  0.74405000  0.25089000  1.0 0.6261595278
Cu  Cu2  1  0.76964000  0.25595000  0.74911000  1.0 0.6261595278
Mo  Mo1  1  0.97383000  0.11009000  0.07760000  1.0 2.0307871341
Mo  Mo2  1  0.19496000  0.08511000  0.01192000  1.0 2.0480475217
Mo  Mo3  1  0.22019000  0.97504000  0.93383000  1.0 2.0187821179
Mo  Mo4  1  0.76932000  0.95313000  0.49393000  1.0 2.0307871341
Mo  Mo5  1  0.85119000  0.06205000  0.41382000  1.0 2.0307871341
Mo  Mo6  1  0.08456000  0.10708000  0.41794000  1.0 2.0141153126
Mo  Mo7  1  0.27858000  0.43288000  0.01281000  1.0 2.0307871341
Mo  Mo8  1  0.31305000  0.54214000  0.92638000  1.0 2.0307871341
Mo  Mo9  1  0.53243000  0.60964000  0.91471000  1.0 2.0307871341
Mo  Mo10  1  0.41316000  0.60043000  0.58223000  1.0 2.0353667527
Mo  Mo11  1  0.63965000  0.61107000  0.52155000  1.0 2.0307871341
Mo  Mo12  1  0.72655000  0.51147000  0.43836000  1.0 2.0307871341
Mo  Mo13  1  0.02617000  0.88991000  0.92240000  1.0 2.0307871341
Mo  Mo14  1  0.80504000  0.91489000  0.98808000  1.0 2.0480475217
Mo  Mo15  1  0.77981000  0.02496000  0.06617000  1.0 2.0187821179
Mo  Mo16  1  0.23068000  0.04687000  0.50607000  1.0 2.0307871341
Mo  Mo17  1  0.14881000  0.93795000  0.58618000  1.0 2.0307871341
Mo  Mo18  1  0.91544000  0.89292000  0.58206000  1.0 2.0141153126
Mo  Mo19  1  0.72142000  0.56712000  0.98719000  1.0 2.0307871341
Mo  Mo20  1  0.68695000  0.45786000  0.07362000  1.0 2.0307871341
Mo  Mo21  1  0.46757000  0.39036000  0.08529000  1.0 2.0307871341
Mo  Mo22  1  0.58684000  0.39957000  0.41777000  1.0 2.0353667527
Mo  Mo23  1  0.36035000  0.38893000  0.47845000  1.0 2.0307871341
Mo  Mo24  1  0.27345000  0.48853000  0.56164000  1.0 2.0307871341
H  H1  1  0.11148000  0.74353000  0.15983000  1.0 0.1099789352
H  H2  1  0.04742000  0.80656000  0.10315000  1.0 0.1406833521
H  H3  1  0.16405000  0.93613000  0.16999000  1.0 0.1406833521
H  H4  1  0.22451000  0.86930000  0.22777000  1.0 0.1099789352
H  H5  1  0.19492000  0.90114000  0.03647000  1.0 0.1099789352
H  H6  1  0.10679000  0.85788000  0.03003000  1.0 0.1099789352
H  H7  1  0.93982000  0.87382000  0.07519000  1.0 0.1099789352
H  H8  1  0.92146000  0.92121000  0.11716000  1.0 0.1015127591
H  H9  1  0.05745000  0.99449000  0.12649000  1.0 0.1015127591
H  H10  1  0.16616000  0.98394000  0.09793000  1.0 0.1015127591
H  H11  1  0.16456000  0.68036000  0.34561000  1.0 0.1099789352
H  H12  1  0.22709000  0.61809000  0.40546000  1.0 0.1299577106
H  H13  1  0.49706000  0.61891000  0.32687000  1.0 0.1406833521
H  H14  1  0.42642000  0.68207000  0.26841000  1.0 0.1099789352
H  H15  1  0.48757000  0.51491000  0.36451000  1.0 0.1099789352
H  H16  1  0.55681000  0.56659000  0.37673000  1.0 0.1015127591
H  H17  1  0.27542000  0.55419000  0.45304000  1.0 0.0904424565
H  H18  1  0.30972000  0.50757000  0.41192000  1.0 0.1015127591
H  H19  1  0.48761000  0.64209000  0.43896000  1.0 0.1099789352
H  H20  1  0.37854000  0.63470000  0.46732000  1.0 0.1015127591
H  H21  1  0.22707000  0.62242000  0.22257000  1.0 0.1099789352
H  H22  1  0.30144000  0.56227000  0.16368000  1.0 0.1299577106
H  H23  1  0.42490000  0.69822000  0.08781000  1.0 0.1299577106
H  H24  1  0.35430000  0.75641000  0.14877000  1.0 0.1015127591
H  H25  1  0.52115000  0.54872000  0.12217000  1.0 0.1099789352
H  H26  1  0.41973000  0.51385000  0.13040000  1.0 0.1015127591
H  H27  1  0.27260000  0.54801000  0.07424000  1.0 0.1015127591
H  H28  1  0.29254000  0.60016000  0.03341000  1.0 0.1099789352
H  H29  1  0.45793000  0.64910000  0.02361000  1.0 0.1015127591
H  H30  1  0.54424000  0.62838000  0.06001000  1.0 0.1015127591
H  H31  1  0.30734000  0.79490000  0.34144000  1.0 0.1099789352
H  H32  1  0.25413000  0.85768000  0.40369000  1.0 0.1406833521
H  H33  1  0.98191000  0.86830000  0.35103000  1.0 0.1406833521
H  H34  1  0.03582000  0.80430000  0.29068000  1.0 0.1099789352
H  H35  1  0.93568000  0.88059000  0.43077000  1.0 0.1015127591
H  H36  1  0.00794000  0.85265000  0.47172000  1.0 0.0904424565
H  H37  1  0.18495000  0.88873000  0.47069000  1.0 0.1015127591
H  H38  1  0.21770000  0.94319000  0.43444000  1.0 0.1015127591
H  H39  1  0.10374000  0.98502000  0.36908000  1.0 0.1099789352
H  H40  1  0.99250000  0.96162000  0.36992000  1.0 0.1015127591
H  H41  1  0.03200000  0.63828000  0.29409000  1.0 0.0904424565
H  H42  1  0.88394000  0.58530000  0.27454000  1.0 0.1406833521
H  H43  1  0.79491000  0.62285000  0.25011000  1.0 0.1406833521
H  H44  1  0.82129000  0.63298000  0.30697000  1.0 0.149826514
H  H45  1  0.89955000  0.74925000  0.22992000  1.0 0.1299577106
H  H46  1  0.81708000  0.70755000  0.21242000  1.0 0.1299577106
H  H47  1  0.92824000  0.70635000  0.18498000  1.0 0.1219971228
H  H48  1  0.43824000  0.82038000  0.18402000  1.0 0.0798460986
H  H49  1  0.57674000  0.87676000  0.16274000  1.0 0.1406833521
H  H50  1  0.64604000  0.88794000  0.20785000  1.0 0.1406833521
H  H51  1  0.55475000  0.93235000  0.19609000  1.0 0.1406833521
H  H52  1  0.51859000  0.87484000  0.30531000  1.0 0.1219971228
H  H53  1  0.61210000  0.83620000  0.28277000  1.0 0.0904424565
H  H54  1  0.50508000  0.80793000  0.29574000  1.0 0.0904424565
H  H55  1  0.56763000  0.07960000  0.33657000  1.0 0.0798460986
H  H56  1  0.32587000  0.01929000  0.37887000  1.0 0.1573937007
H  H57  1  0.38433000  0.95898000  0.39081000  1.0 0.1299577106
H  H58  1  0.37756000  0.98295000  0.33333333  1.0 0.1299577106
H  H59  1  0.55573000  0.97186000  0.41630000  1.0 0.1406833521
H  H60  1  0.49427000  0.02277000  0.44522000  1.0 0.1657203674
H  H61  1  0.59548000  0.03640000  0.41101000  1.0 0.1406833521
H  H62  1  0.73776000  0.03102000  0.19387000  1.0 0.1099789352
H  H63  1  0.90913000  0.94453000  0.23928000  1.0 0.1406833521
H  H64  1  0.85272000  0.95593000  0.18824000  1.0 0.149826514
H  H65  1  0.82433000  0.90187000  0.22597000  1.0 0.1299577106
H  H66  1  0.74159000  0.91784000  0.30633000  1.0 0.1219971228
H  H67  1  0.67782000  0.97726000  0.31386000  1.0 0.1299577106
H  H68  1  0.79465000  0.97345000  0.32415000  1.0 0.149826514
H  H69  1  0.56006000  0.06189000  0.12254000  1.0 0.0904424565
H  H70  1  0.38182000  0.96960000  0.17385000  1.0 0.1299577106
H  H71  1  0.36920000  0.93977000  0.12148000  1.0 0.1219971228
H  H72  1  0.31360000  0.00090000  0.13262000  1.0 0.1406833521
H  H73  1  0.51787000  0.96059000  0.05677000  1.0 0.149826514
H  H74  1  0.52586000  0.02919000  0.04759000  1.0 0.1406833521
H  H75  1  0.42033000  0.99959000  0.04414000  1.0 0.1573937007
H  H76  1  0.72841000  0.16206000  0.11897000  1.0 0.1015127591
H  H77  1  0.76745000  0.24576000  0.08071000  1.0 0.149826514
H  H78  1  0.76258000  0.29654000  0.11989000  1.0 0.1406833521
H  H79  1  0.67683000  0.29324000  0.08106000  1.0 0.1573937007
H  H80  1  0.52334000  0.26631000  0.15114000  1.0 0.1406833521
H  H81  1  0.60429000  0.30110000  0.17801000  1.0 0.1406833521
H  H82  1  0.56992000  0.23931000  0.20148000  1.0 0.1299577106
H  H83  1  0.37858000  0.14313000  0.15430000  1.0 0.0904424565
H  H84  1  0.18565000  0.22737000  0.13307000  1.0 0.1406833521
H  H85  1  0.26781000  0.18581000  0.10441000  1.0 0.149826514
H  H86  1  0.27871000  0.25454000  0.09957000  1.0 0.149826514
H  H87  1  0.23842000  0.27062000  0.21452000  1.0 0.1299577106
H  H88  1  0.32646000  0.30196000  0.18041000  1.0 0.1406833521
H  H89  1  0.35298000  0.25978000  0.22770000  1.0 0.1406833521
H  H90  1  0.69551000  0.14470000  0.31820000  1.0 0.0904424565
H  H91  1  0.77024000  0.19384000  0.37553000  1.0 0.1299577106
H  H92  1  0.71634000  0.25330000  0.39320000  1.0 0.1573937007
H  H93  1  0.80283000  0.25397000  0.34781000  1.0 0.1299577106
H  H94  1  0.59041000  0.30092000  0.34064000  1.0 0.1406833521
H  H95  1  0.55892000  0.27035000  0.29152000  1.0 0.1406833521
H  H96  1  0.66155000  0.30426000  0.28913000  1.0 0.1406833521
H  H97  1  0.94407000  0.15942000  0.31184000  1.0 0.1015127591
H  H98  1  0.80175000  0.14606000  0.21818000  1.0 0.1299577106
H  H99  1  0.85570000  0.10853000  0.26150000  1.0 0.1406833521
H  H100  1  0.90570000  0.11136000  0.20451000  1.0 0.149826514
H  H101  1  0.97856000  0.21428000  0.17422000  1.0 0.149826514
H  H102  1  0.96678000  0.26168000  0.21655000  1.0 0.1406833521
H  H103  1  0.86969000  0.24155000  0.19103000  1.0 0.1299577106
H  H104  1  0.18006000  0.21510000  0.31557000  1.0 0.1015127591
H  H105  1  0.32500000  0.15189000  0.38696000  1.0 0.1406833521
H  H106  1  0.40704000  0.17623000  0.34477000  1.0 0.1299577106
H  H107  1  0.30470000  0.15157000  0.32810000  1.0 0.149826514
H  H108  1  0.28197000  0.30235000  0.39170000  1.0 0.1406833521
H  H109  1  0.39322000  0.27817000  0.37539000  1.0 0.1406833521
H  H110  1  0.32965000  0.24808000  0.42257000  1.0 0.149826514
H  H111  1  0.12259000  0.41134000  0.25444000  1.0 0.0904424565
H  H112  1  0.18607000  0.35466000  0.12464000  1.0 0.149826514
H  H113  1  0.09005000  0.39575000  0.11364000  1.0 0.1406833521
H  H114  1  0.07732000  0.33880000  0.15007000  1.0 0.1406833521
H  H115  1  0.25883000  0.45300000  0.16676000  1.0 0.149826514
H  H116  1  0.17090000  0.48300000  0.20205000  1.0 0.1299577106
H  H117  1  0.15943000  0.47914000  0.14251000  1.0 0.1406833521
H  H118  1  0.09243000  0.39623000  0.39744000  1.0 0.1099789352
H  H119  1  0.00994000  0.51117000  0.44979000  1.0 0.1573937007
H  H120  1  0.11604000  0.53203000  0.42453000  1.0 0.1219971228
H  H121  1  0.10692000  0.46818000  0.45020000  1.0 0.149826514
H  H122  1  0.94547000  0.53591000  0.35875000  1.0 0.1406833521
H  H123  1  0.99594000  0.49803000  0.31391000  1.0 0.1406833521
H  H124  1  0.05733000  0.54825000  0.33557000  1.0 0.1219971228
H  H125  1  0.82620000  0.40501000  0.32691000  1.0 0.1099789352
H  H126  1  0.85270000  0.40791000  0.18282000  1.0 0.1299577106
H  H127  1  0.74888000  0.37610000  0.19577000  1.0 0.1406833521
H  H128  1  0.85169000  0.34662000  0.21365000  1.0 0.1299577106
H  H129  1  0.79103000  0.49630000  0.23628000  1.0 0.1299577106
H  H130  1  0.74340000  0.48081000  0.29245000  1.0 0.1406833521
H  H131  1  0.68421000  0.46671000  0.24435000  1.0 0.149826514
H  H132  1  0.94260000  0.22898000  0.41279000  1.0 0.1015127591
H  H133  1  0.84621000  0.19806000  0.47774000  1.0 0.149826514
H  H134  1  0.75817000  0.24360000  0.49483000  1.0 0.149826514
H  H135  1  0.85277000  0.23260000  0.52828000  1.0 0.1219971228
H  H136  1  0.91265000  0.36358000  0.46196000  1.0 0.1406833521
H  H137  1  0.86383000  0.34100000  0.51614000  1.0 0.1219971228
H  H138  1  0.79486000  0.35197000  0.46940000  1.0 0.1573937007
H  H139  1  0.97139000  0.76774000  0.41412000  1.0 0.0904424565
H  H140  1  0.87519000  0.62327000  0.48265000  1.0 0.1406833521
H  H141  1  0.88221000  0.62569000  0.42190000  1.0 0.1406833521
H  H142  1  0.98277000  0.62066000  0.45147000  1.0 0.1299577106
H  H143  1  0.83111000  0.69988000  0.51763000  1.0 0.1406833521
H  H144  1  0.90900000  0.75099000  0.50998000  1.0 0.1406833521
H  H145  1  0.80943000  0.75417000  0.47964000  1.0 0.1573937007
H  H146  1  0.91024000  0.48323000  0.12912000  1.0 0.1015127591
H  H147  1  0.07021000  0.62484000  0.10004000  1.0 0.1219971228
H  H148  1  0.00148000  0.62273000  0.15235000  1.0 0.1219971228
H  H149  1  0.10220000  0.58292000  0.14650000  1.0 0.1099789352
H  H150  1  0.01291000  0.59033000  0.04118000  1.0 0.1406833521
H  H151  1  0.00095000  0.52172000  0.04234000  1.0 0.149826514
H  H152  1  0.90400000  0.56380000  0.05219000  1.0 0.1406833521
H  H153  1  0.42032000  0.90910000  0.27600000  1.0 0.1015127591
H  H154  1  0.53530000  0.92722000  0.27212000  1.0 0.1015127591
H  H155  1  0.50140000  0.87136000  0.30631000  1.0 0.1219971228
H  H156  1  0.88852000  0.25647000  0.84017000  1.0 0.1099789352
H  H157  1  0.95258000  0.19344000  0.89685000  1.0 0.1406833521
H  H158  1  0.83595000  0.06387000  0.83001000  1.0 0.1406833521
H  H159  1  0.77549000  0.13070000  0.77223000  1.0 0.1099789352
H  H160  1  0.80508000  0.09886000  0.96353000  1.0 0.1099789352
H  H161  1  0.89321000  0.14212000  0.96997000  1.0 0.1099789352
H  H162  1  0.06018000  0.12618000  0.92481000  1.0 0.1099789352
H  H163  1  0.07854000  0.07879000  0.88284000  1.0 0.1015127591
H  H164  1  0.94255000  0.00551000  0.87351000  1.0 0.1015127591
H  H165  1  0.83384000  0.01606000  0.90207000  1.0 0.1015127591
H  H166  1  0.83544000  0.31964000  0.65439000  1.0 0.1099789352
H  H167  1  0.77291000  0.38191000  0.59454000  1.0 0.1299577106
H  H168  1  0.50294000  0.38109000  0.67313000  1.0 0.1406833521
H  H169  1  0.57358000  0.31793000  0.73159000  1.0 0.1099789352
H  H170  1  0.51243000  0.48509000  0.63549000  1.0 0.1099789352
H  H171  1  0.44319000  0.43341000  0.62327000  1.0 0.1015127591
H  H172  1  0.72458000  0.44581000  0.54696000  1.0 0.0904424565
H  H173  1  0.69028000  0.49243000  0.58808000  1.0 0.1015127591
H  H174  1  0.51239000  0.35791000  0.56104000  1.0 0.1099789352
H  H175  1  0.62146000  0.36530000  0.53268000  1.0 0.1015127591
H  H176  1  0.77293000  0.37758000  0.77743000  1.0 0.1099789352
H  H177  1  0.69856000  0.43773000  0.83632000  1.0 0.1299577106
H  H178  1  0.57510000  0.30178000  0.91219000  1.0 0.1299577106
H  H179  1  0.64570000  0.24359000  0.85123000  1.0 0.1015127591
H  H180  1  0.47885000  0.45128000  0.87783000  1.0 0.1099789352
H  H181  1  0.58027000  0.48615000  0.86960000  1.0 0.1015127591
H  H182  1  0.72740000  0.45199000  0.92576000  1.0 0.1015127591
H  H183  1  0.70746000  0.39984000  0.96659000  1.0 0.1099789352
H  H184  1  0.54207000  0.35090000  0.97639000  1.0 0.1015127591
H  H185  1  0.45576000  0.37162000  0.93999000  1.0 0.1015127591
H  H186  1  0.69266000  0.20510000  0.65856000  1.0 0.1099789352
H  H187  1  0.74587000  0.14232000  0.59631000  1.0 0.1406833521
H  H188  1  0.01809000  0.13170000  0.64897000  1.0 0.1406833521
H  H189  1  0.96418000  0.19570000  0.70932000  1.0 0.1099789352
H  H190  1  0.06432000  0.11941000  0.56923000  1.0 0.1015127591
H  H191  1  0.99206000  0.14735000  0.52828000  1.0 0.0904424565
H  H192  1  0.81505000  0.11127000  0.52931000  1.0 0.1015127591
H  H193  1  0.78230000  0.05681000  0.56556000  1.0 0.1015127591
H  H194  1  0.89626000  0.01498000  0.63092000  1.0 0.1099789352
H  H195  1  0.00750000  0.03838000  0.63008000  1.0 0.1015127591
H  H196  1  0.96800000  0.36172000  0.70591000  1.0 0.0904424565
H  H197  1  0.11606000  0.41470000  0.72546000  1.0 0.1406833521
H  H198  1  0.20509000  0.37715000  0.74989000  1.0 0.1406833521
H  H199  1  0.17871000  0.36702000  0.69303000  1.0 0.149826514
H  H200  1  0.10045000  0.25075000  0.77008000  1.0 0.1299577106
H  H201  1  0.18292000  0.29245000  0.78758000  1.0 0.1299577106
H  H202  1  0.07176000  0.29365000  0.81502000  1.0 0.1219971228
H  H203  1  0.56176000  0.17962000  0.81598000  1.0 0.0798460986
H  H204  1  0.42326000  0.12324000  0.83726000  1.0 0.1406833521
H  H205  1  0.35396000  0.11206000  0.79215000  1.0 0.1406833521
H  H206  1  0.44525000  0.06765000  0.80391000  1.0 0.1406833521
H  H207  1  0.48141000  0.12516000  0.69469000  1.0 0.1219971228
H  H208  1  0.38790000  0.16380000  0.71723000  1.0 0.0904424565
H  H209  1  0.49492000  0.19207000  0.70426000  1.0 0.0904424565
H  H210  1  0.43237000  0.92040000  0.66343000  1.0 0.0798460986
H  H211  1  0.67413000  0.98071000  0.62113000  1.0 0.1573937007
H  H212  1  0.61567000  0.04102000  0.60919000  1.0 0.1299577106
H  H213  1  0.62244000  0.01705000  0.66666667  1.0 0.1299577106
H  H214  1  0.44427000  0.02814000  0.58370000  1.0 0.1406833521
H  H215  1  0.50573000  0.97723000  0.55478000  1.0 0.1657203674
H  H216  1  0.40452000  0.96360000  0.58899000  1.0 0.1406833521
H  H217  1  0.26224000  0.96898000  0.80613000  1.0 0.1099789352
H  H218  1  0.09087000  0.05547000  0.76072000  1.0 0.1406833521
H  H219  1  0.14728000  0.04407000  0.81176000  1.0 0.149826514
H  H220  1  0.17567000  0.09813000  0.77403000  1.0 0.1299577106
H  H221  1  0.25841000  0.08216000  0.69367000  1.0 0.1219971228
H  H222  1  0.32218000  0.02274000  0.68614000  1.0 0.1299577106
H  H223  1  0.20535000  0.02655000  0.67585000  1.0 0.149826514
H  H224  1  0.43994000  0.93811000  0.87746000  1.0 0.0904424565
H  H225  1  0.61818000  0.03040000  0.82615000  1.0 0.1299577106
H  H226  1  0.63080000  0.06023000  0.87852000  1.0 0.1219971228
H  H227  1  0.68640000  0.99910000  0.86738000  1.0 0.1406833521
H  H228  1  0.48213000  0.03941000  0.94323000  1.0 0.149826514
H  H229  1  0.47414000  0.97081000  0.95241000  1.0 0.1406833521
H  H230  1  0.57967000  0.00041000  0.95586000  1.0 0.1573937007
H  H231  1  0.27159000  0.83794000  0.88103000  1.0 0.1015127591
H  H232  1  0.23255000  0.75424000  0.91929000  1.0 0.149826514
H  H233  1  0.23742000  0.70346000  0.88011000  1.0 0.1406833521
H  H234  1  0.32317000  0.70676000  0.91894000  1.0 0.1573937007
H  H235  1  0.47666000  0.73369000  0.84886000  1.0 0.1406833521
H  H236  1  0.39571000  0.69890000  0.82199000  1.0 0.1406833521
H  H237  1  0.43008000  0.76069000  0.79852000  1.0 0.1299577106
H  H238  1  0.62142000  0.85687000  0.84570000  1.0 0.0904424565
H  H239  1  0.81435000  0.77263000  0.86693000  1.0 0.1406833521
H  H240  1  0.73219000  0.81419000  0.89559000  1.0 0.149826514
H  H241  1  0.72129000  0.74546000  0.90043000  1.0 0.149826514
H  H242  1  0.76158000  0.72938000  0.78548000  1.0 0.1299577106
H  H243  1  0.67354000  0.69804000  0.81959000  1.0 0.1406833521
H  H244  1  0.64702000  0.74022000  0.77230000  1.0 0.1406833521
H  H245  1  0.30449000  0.85530000  0.68180000  1.0 0.0904424565
H  H246  1  0.22976000  0.80616000  0.62447000  1.0 0.1299577106
H  H247  1  0.28366000  0.74670000  0.60680000  1.0 0.1573937007
H  H248  1  0.19717000  0.74603000  0.65219000  1.0 0.1299577106
H  H249  1  0.40959000  0.69908000  0.65936000  1.0 0.1406833521
H  H250  1  0.44108000  0.72965000  0.70848000  1.0 0.1406833521
H  H251  1  0.33845000  0.69574000  0.71087000  1.0 0.1406833521
H  H252  1  0.05593000  0.84058000  0.68816000  1.0 0.1015127591
H  H253  1  0.19825000  0.85394000  0.78182000  1.0 0.1299577106
H  H254  1  0.14430000  0.89147000  0.73850000  1.0 0.1406833521
H  H255  1  0.09430000  0.88864000  0.79549000  1.0 0.149826514
H  H256  1  0.02144000  0.78572000  0.82578000  1.0 0.149826514
H  H257  1  0.03322000  0.73832000  0.78345000  1.0 0.1406833521
H  H258  1  0.13031000  0.75845000  0.80897000  1.0 0.1299577106
H  H259  1  0.81994000  0.78490000  0.68443000  1.0 0.1015127591
H  H260  1  0.67500000  0.84811000  0.61304000  1.0 0.1406833521
H  H261  1  0.59296000  0.82377000  0.65523000  1.0 0.1299577106
H  H262  1  0.69530000  0.84843000  0.67190000  1.0 0.149826514
H  H263  1  0.71803000  0.69765000  0.60830000  1.0 0.1406833521
H  H264  1  0.60678000  0.72183000  0.62461000  1.0 0.1406833521
H  H265  1  0.67035000  0.75192000  0.57743000  1.0 0.149826514
H  H266  1  0.87741000  0.58866000  0.74556000  1.0 0.0904424565
H  H267  1  0.81393000  0.64534000  0.87536000  1.0 0.149826514
H  H268  1  0.90995000  0.60425000  0.88636000  1.0 0.1406833521
H  H269  1  0.92268000  0.66120000  0.84993000  1.0 0.1406833521
H  H270  1  0.74117000  0.54700000  0.83324000  1.0 0.149826514
H  H271  1  0.82910000  0.51700000  0.79795000  1.0 0.1299577106
H  H272  1  0.84057000  0.52086000  0.85749000  1.0 0.1406833521
H  H273  1  0.90757000  0.60377000  0.60256000  1.0 0.1099789352
H  H274  1  0.99006000  0.48883000  0.55021000  1.0 0.1573937007
H  H275  1  0.88396000  0.46797000  0.57547000  1.0 0.1219971228
H  H276  1  0.89308000  0.53182000  0.54980000  1.0 0.149826514
H  H277  1  0.05453000  0.46409000  0.64125000  1.0 0.1406833521
H  H278  1  0.00406000  0.50197000  0.68609000  1.0 0.1406833521
H  H279  1  0.94267000  0.45175000  0.66443000  1.0 0.1219971228
H  H280  1  0.17380000  0.59499000  0.67309000  1.0 0.1099789352
H  H281  1  0.14730000  0.59209000  0.81718000  1.0 0.1299577106
H  H282  1  0.25112000  0.62390000  0.80423000  1.0 0.1406833521
H  H283  1  0.14831000  0.65338000  0.78635000  1.0 0.1299577106
H  H284  1  0.20897000  0.50370000  0.76372000  1.0 0.1299577106
H  H285  1  0.25660000  0.51919000  0.70755000  1.0 0.1406833521
H  H286  1  0.31579000  0.53329000  0.75565000  1.0 0.149826514
H  H287  1  0.05740000  0.77102000  0.58721000  1.0 0.1015127591
H  H288  1  0.15379000  0.80194000  0.52226000  1.0 0.149826514
H  H289  1  0.24183000  0.75640000  0.50517000  1.0 0.149826514
H  H290  1  0.14723000  0.76740000  0.47172000  1.0 0.1219971228
H  H291  1  0.08735000  0.63642000  0.53804000  1.0 0.1406833521
H  H292  1  0.13617000  0.65900000  0.48386000  1.0 0.1219971228
H  H293  1  0.20514000  0.64803000  0.53060000  1.0 0.1573937007
H  H294  1  0.02861000  0.23226000  0.58588000  1.0 0.0904424565
H  H295  1  0.12481000  0.37673000  0.51735000  1.0 0.1406833521
H  H296  1  0.11779000  0.37431000  0.57810000  1.0 0.1406833521
H  H297  1  0.01723000  0.37934000  0.54853000  1.0 0.1299577106
H  H298  1  0.16889000  0.30012000  0.48237000  1.0 0.1406833521
H  H299  1  0.09100000  0.24901000  0.49002000  1.0 0.1406833521
H  H300  1  0.19057000  0.24583000  0.52036000  1.0 0.1573937007
H  H301  1  0.08976000  0.51677000  0.87088000  1.0 0.1015127591
H  H302  1  0.92979000  0.37516000  0.89996000  1.0 0.1219971228
H  H303  1  0.99852000  0.37727000  0.84765000  1.0 0.1219971228
H  H304  1  0.89780000  0.41708000  0.85350000  1.0 0.1099789352
H  H305  1  0.98709000  0.40967000  0.95882000  1.0 0.1406833521
H  H306  1  0.99905000  0.47828000  0.95766000  1.0 0.149826514
H  H307  1  0.09600000  0.43620000  0.94781000  1.0 0.1406833521
H  H308  1  0.57968000  0.09090000  0.72400000  1.0 0.1015127591
H  H309  1  0.46470000  0.07278000  0.72788000  1.0 0.1015127591
H  H310  1  0.49860000  0.12864000  0.69369000  1.0 0.1219971228
C  C1  1  0.12210000  0.78360000  0.16220000  1.0 0.0516367269
C  C2  1  0.08610000  0.82100000  0.12820000  1.0 -0.2143244692
C  C3  1  0.10120000  0.88020000  0.12670000  1.0 0.1099789352
C  C4  1  0.15260000  0.89630000  0.16650000  1.0 -0.2213343219
C  C5  1  0.18780000  0.85610000  0.20140000  1.0 0.0798460986
C  C6  1  0.06530000  0.92010000  0.08340000  1.0 0.0584251522
C  C7  1  0.12160000  0.89900000  0.03360000  1.0 -0.0024325152
C  C8  1  0.95300000  0.91420000  0.08280000  1.0 -0.0158673957
C  C9  1  0.09300000  0.98330000  0.09400000  1.0 -0.0105595809
C  C10  1  0.23350000  0.66820000  0.34140000  1.0 0.0798460986
C  C11  1  0.27060000  0.63030000  0.37720000  1.0 -0.2304625819
C  C12  1  0.37240000  0.60830000  0.37360000  1.0 0.1015127591
C  C13  1  0.42790000  0.63020000  0.33200000  1.0 -0.2025677026
C  C14  1  0.38510000  0.66880000  0.29720000  1.0 0.0412795037
C  C15  1  0.41530000  0.57140000  0.41540000  1.0 0.0516367269
C  C16  1  0.50810000  0.53840000  0.39200000  1.0 -0.0105595809
C  C17  1  0.33340000  0.53050000  0.43900000  1.0 -0.0158673957
C  C18  1  0.44110000  0.61340000  0.45540000  1.0 -0.0024325152
C  C19  1  0.26970000  0.63840000  0.19550000  1.0 0.0904424565
C  C20  1  0.31250000  0.60260000  0.15940000  1.0 -0.2213343219
C  C21  1  0.37100000  0.62240000  0.11710000  1.0 0.1099789352
C  C22  1  0.38490000  0.68140000  0.11550000  1.0 -0.2025677026
C  C23  1  0.34340000  0.71600000  0.15200000  1.0 0.030237859
C  C24  1  0.41060000  0.58180000  0.07660000  1.0 0.0516367269
C  C25  1  0.46700000  0.53230000  0.10440000  1.0 -0.0105595809
C  C26  1  0.32350000  0.56470000  0.04910000  1.0 -0.0105595809
C  C27  1  0.49110000  0.61470000  0.03980000  1.0 -0.0024325152
C  C28  1  0.24030000  0.81060000  0.34250000  1.0 0.0516367269
C  C29  1  0.20850000  0.84850000  0.37960000  1.0 -0.2213343219
C  C30  1  0.11310000  0.87350000  0.38290000  1.0 0.1099789352
C  C31  1  0.05010000  0.85460000  0.34930000  1.0 -0.2213343219
C  C32  1  0.08290000  0.81630000  0.31290000  1.0 0.0904424565
C  C33  1  0.07880000  0.91670000  0.42390000  1.0 0.0516367269
C  C34  1  0.98600000  0.88950000  0.45460000  1.0 -0.0024325152
C  C35  1  0.16100000  0.92640000  0.45590000  1.0 -0.0408977498
C  C36  1  0.04550000  0.97220000  0.39170000  1.0 0.0014926524
C  C37  1  0.01390000  0.66590000  0.26830000  1.0 0.2693634644
C  C38  1  0.84900000  0.62350000  0.27290000  1.0 -0.3405003608
C  C39  1  0.88900000  0.71100000  0.21740000  1.0 -0.3309324452
C  C40  1  0.44310000  0.82370000  0.21940000  1.0 0.0798460986
C  C41  1  0.57750000  0.89150000  0.19680000  1.0 -0.3829432339
C  C42  1  0.53900000  0.84300000  0.28310000  1.0 -0.2468384937
C  C43  1  0.50700000  0.06020000  0.33370000  1.0 0.2941893726
C  C44  1  0.38340000  0.99390000  0.36830000  1.0 -0.3405003608
C  C45  1  0.53540000  0.01300000  0.41430000  1.0 -0.3405003608
C  C46  1  0.72200000  0.02260000  0.22900000  1.0 0.3111133217
C  C47  1  0.84490000  0.94220000  0.22390000  1.0 -0.3484393319
C  C48  1  0.74380000  0.96010000  0.30290000  1.0 -0.3309324452
C  C49  1  0.50690000  0.04130000  0.14020000  1.0 0.3111133217
C  C50  1  0.37450000  0.97680000  0.13750000  1.0 -0.3309324452
C  C51  1  0.48270000  0.99810000  0.06160000  1.0 -0.3405003608
C  C52  1  0.67690000  0.17820000  0.14140000  1.0 0.328834334
C  C53  1  0.72250000  0.27040000  0.10220000  1.0 -0.3405003608
C  C54  1  0.58400000  0.26260000  0.16990000  1.0 -0.3309324452
C  C55  1  0.37420000  0.17290000  0.17790000  1.0 0.3111133217
C  C56  1  0.25720000  0.22190000  0.12230000  1.0 -0.3484393319
C  C57  1  0.30810000  0.26650000  0.20020000  1.0 -0.3309324452
C  C58  1  0.65530000  0.17730000  0.30780000  1.0 0.2994225114
C  C59  1  0.74620000  0.23250000  0.36400000  1.0 -0.3662918121
C  C60  1  0.61560000  0.27990000  0.31070000  1.0 -0.3309324452
C  C61  1  0.95470000  0.19000000  0.28690000  1.0 0.3193594366
C  C62  1  0.86680000  0.13330000  0.23060000  1.0 -0.3662918121
C  C63  1  0.93530000  0.22890000  0.20280000  1.0 -0.3405003608
C  C64  1  0.20680000  0.24410000  0.33430000  1.0 0.3193594366
C  C65  1  0.33490000  0.17280000  0.35390000  1.0 -0.3484393319
C  C66  1  0.32570000  0.26740000  0.38890000  1.0 -0.2724805088
C  C67  1  0.11170000  0.38590000  0.22850000  1.0 0.3111133217
C  C68  1  0.12170000  0.37060000  0.13920000  1.0 -0.3309324452
C  C69  1  0.18580000  0.45920000  0.17250000  1.0 -0.3597634296
C  C70  1  0.06340000  0.42110000  0.37240000  1.0 0.3193594366
C  C71  1  0.07240000  0.49900000  0.43070000  1.0 -0.3597634296
C  C72  1  0.00860000  0.51810000  0.34440000  1.0 -0.3484393319
C  C73  1  0.83510000  0.38600000  0.29580000  1.0 0.3193594366
C  C74  1  0.81400000  0.38350000  0.20810000  1.0 -0.3484393319
C  C75  1  0.75080000  0.46850000  0.25740000  1.0 -0.3309324452
C  C76  1  0.93290000  0.26830000  0.42150000  1.0 0.3193594366
C  C77  1  0.83080000  0.23500000  0.49370000  1.0 -0.3484393319
C  C78  1  0.86160000  0.33880000  0.47930000  1.0 -0.3309324452
C  C79  1  0.96650000  0.72710000  0.41190000  1.0 0.2693634644
C  C80  1  0.91400000  0.63730000  0.45190000  1.0 -0.3230610103
C  C81  1  0.86200000  0.72830000  0.49310000  1.0 -0.3597634296
C  C82  1  0.94600000  0.51350000  0.14170000  1.0 0.2994225114
C  C83  1  0.04520000  0.59980000  0.12890000  1.0 -0.3405003608
C  C84  1  0.97600000  0.55790000  0.05740000  1.0 -0.3230610103
C  C85  1  0.49000000  0.89500000  0.27500000  1.0 -0.2422138811
C  C86  1  0.87790000  0.21640000  0.83780000  1.0 0.0516367269
C  C87  1  0.91390000  0.17900000  0.87180000  1.0 -0.2143244692
C  C88  1  0.89880000  0.11980000  0.87330000  1.0 0.1099789352
C  C89  1  0.84740000  0.10370000  0.83350000  1.0 -0.2213343219
C  C90  1  0.81220000  0.14390000  0.79860000  1.0 0.0798460986
C  C91  1  0.93470000  0.07990000  0.91660000  1.0 0.0584251522
C  C92  1  0.87840000  0.10100000  0.96640000  1.0 -0.0024325152
C  C93  1  0.04700000  0.08580000  0.91720000  1.0 -0.0158673957
C  C94  1  0.90700000  0.01670000  0.90600000  1.0 -0.0105595809
C  C95  1  0.76650000  0.33180000  0.65860000  1.0 0.0798460986
C  C96  1  0.72940000  0.36970000  0.62280000  1.0 -0.2304625819
C  C97  1  0.62760000  0.39170000  0.62640000  1.0 0.1015127591
C  C98  1  0.57210000  0.36980000  0.66800000  1.0 -0.2025677026
C  C99  1  0.61490000  0.33120000  0.70280000  1.0 0.0412795037
C  C100  1  0.58470000  0.42860000  0.58460000  1.0 0.0516367269
C  C101  1  0.49190000  0.46160000  0.60800000  1.0 -0.0105595809
C  C102  1  0.66666667  0.46950000  0.56100000  1.0 -0.0158673957
C  C103  1  0.55890000  0.38660000  0.54460000  1.0 -0.0024325152
C  C104  1  0.73030000  0.36160000  0.80450000  1.0 0.0904424565
C  C105  1  0.68750000  0.39740000  0.84060000  1.0 -0.2213343219
C  C106  1  0.62900000  0.37760000  0.88290000  1.0 0.1099789352
C  C107  1  0.61510000  0.31860000  0.88450000  1.0 -0.2025677026
C  C108  1  0.65660000  0.28400000  0.84800000  1.0 0.030237859
C  C109  1  0.58940000  0.41820000  0.92340000  1.0 0.0516367269
C  C110  1  0.53300000  0.46770000  0.89560000  1.0 -0.0105595809
C  C111  1  0.67650000  0.43530000  0.95090000  1.0 -0.0105595809
C  C112  1  0.50890000  0.38530000  0.96020000  1.0 -0.0024325152
C  C113  1  0.75970000  0.18940000  0.65750000  1.0 0.0516367269
C  C114  1  0.79150000  0.15150000  0.62040000  1.0 -0.2213343219
C  C115  1  0.88690000  0.12650000  0.61710000  1.0 0.1099789352
C  C116  1  0.94990000  0.14540000  0.65070000  1.0 -0.2213343219
C  C117  1  0.91710000  0.18370000  0.68710000  1.0 0.0904424565
C  C118  1  0.92120000  0.08330000  0.57610000  1.0 0.0516367269
C  C119  1  0.01400000  0.11050000  0.54540000  1.0 -0.0024325152
C  C120  1  0.83900000  0.07360000  0.54410000  1.0 -0.0408977498
C  C121  1  0.95450000  0.02780000  0.60830000  1.0 0.0014926524
C  C122  1  0.98610000  0.33410000  0.73170000  1.0 0.2693634644
C  C123  1  0.15100000  0.37650000  0.72710000  1.0 -0.3405003608
C  C124  1  0.11100000  0.28900000  0.78260000  1.0 -0.3309324452
C  C125  1  0.55690000  0.17630000  0.78060000  1.0 0.0798460986
C  C126  1  0.42250000  0.10850000  0.80320000  1.0 -0.3829432339
C  C127  1  0.46100000  0.15700000  0.71690000  1.0 -0.2468384937
C  C128  1  0.49300000  0.93980000  0.66630000  1.0 0.2941893726
C  C129  1  0.61660000  0.00610000  0.63170000  1.0 -0.3405003608
C  C130  1  0.46460000  0.98700000  0.58570000  1.0 -0.3405003608
C  C131  1  0.27800000  0.97740000  0.77100000  1.0 0.3111133217
C  C132  1  0.15510000  0.05780000  0.77610000  1.0 -0.3484393319
C  C133  1  0.25620000  0.03990000  0.69710000  1.0 -0.3309324452
C  C134  1  0.49310000  0.95870000  0.85980000  1.0 0.3111133217
C  C135  1  0.62550000  0.02320000  0.86250000  1.0 -0.3309324452
C  C136  1  0.51730000  0.00190000  0.93840000  1.0 -0.3405003608
C  C137  1  0.32310000  0.82180000  0.85860000  1.0 0.328834334
C  C138  1  0.27750000  0.72960000  0.89780000  1.0 -0.3405003608
C  C139  1  0.41600000  0.73740000  0.83010000  1.0 -0.3309324452
C  C140  1  0.62580000  0.82710000  0.82210000  1.0 0.3111133217
C  C141  1  0.74280000  0.77810000  0.87770000  1.0 -0.3484393319
C  C142  1  0.69190000  0.73350000  0.79980000  1.0 -0.3309324452
C  C143  1  0.34470000  0.82270000  0.69220000  1.0 0.2994225114
C  C144  1  0.25380000  0.76750000  0.63600000  1.0 -0.3662918121
C  C145  1  0.38440000  0.72010000  0.68930000  1.0 -0.3309324452
C  C146  1  0.04530000  0.81000000  0.71310000  1.0 0.3193594366
C  C147  1  0.13320000  0.86670000  0.76940000  1.0 -0.3662918121
C  C148  1  0.06470000  0.77110000  0.79720000  1.0 -0.3405003608
C  C149  1  0.79320000  0.75590000  0.66570000  1.0 0.3193594366
C  C150  1  0.66510000  0.82720000  0.64610000  1.0 -0.3484393319
C  C151  1  0.67430000  0.73260000  0.61110000  1.0 -0.2724805088
C  C152  1  0.88830000  0.61410000  0.77150000  1.0 0.3111133217
C  C153  1  0.87830000  0.62940000  0.86080000  1.0 -0.3309324452
C  C154  1  0.81420000  0.54080000  0.82750000  1.0 -0.3597634296
C  C155  1  0.93660000  0.57890000  0.62760000  1.0 0.3193594366
C  C156  1  0.92760000  0.50100000  0.56930000  1.0 -0.3597634296
C  C157  1  0.99140000  0.48190000  0.65560000  1.0 -0.3484393319
C  C158  1  0.16490000  0.61400000  0.70420000  1.0 0.3193594366
C  C159  1  0.18600000  0.61650000  0.79190000  1.0 -0.3484393319
C  C160  1  0.24920000  0.53150000  0.74260000  1.0 -0.3309324452
C  C161  1  0.06710000  0.73170000  0.57850000  1.0 0.3193594366
C  C162  1  0.16920000  0.76500000  0.50630000  1.0 -0.3484393319
C  C163  1  0.13840000  0.66120000  0.52070000  1.0 -0.3309324452
C  C164  1  0.03350000  0.27290000  0.58810000  1.0 0.2693634644
C  C165  1  0.08600000  0.36270000  0.54810000  1.0 -0.3309324452
C  C166  1  0.13800000  0.27170000  0.50690000  1.0 -0.3597634296
C  C167  1  0.05400000  0.48650000  0.85830000  1.0 0.2994225114
C  C168  1  0.95480000  0.40020000  0.87110000  1.0 -0.3405003608
C  C169  1  0.02400000  0.44210000  0.94260000  1.0 -0.3230610103
C  C170  1  0.51000000  0.10500000  0.72500000  1.0 -0.2422138811
N  N1  1  0.17350000  0.80100000  0.20030000  1.0 -0.2143244692
N  N2  1  0.28760000  0.68880000  0.30170000  1.0 -0.2304625819
N  N3  1  0.28590000  0.69420000  0.19360000  1.0 -0.2213343219
N  N4  1  0.17750000  0.79500000  0.30730000  1.0 -0.2304625819
N  N5  1  0.91980000  0.66640000  0.25410000  1.0 0.030237859
N  N6  1  0.51150000  0.85870000  0.23150000  1.0 0.0798460986
N  N7  1  0.47810000  0.02490000  0.37100000  1.0 0.030237859
N  N8  1  0.76940000  0.97760000  0.25070000  1.0 0.0238785181
N  N9  1  0.45900000  0.00550000  0.11510000  1.0 0.0412795037
N  N10  1  0.66450000  0.23440000  0.13920000  1.0 0.0412795037
N  N11  1  0.31750000  0.21880000  0.16800000  1.0 0.0516367269
N  N12  1  0.66880000  0.22700000  0.32670000  1.0 0.0516367269
N  N13  1  0.92200000  0.18350000  0.24180000  1.0 0.0516367269
N  N14  1  0.28700000  0.23050000  0.35680000  1.0 0.0412795037
N  N15  1  0.13860000  0.40330000  0.18200000  1.0 0.0412795037
N  N16  1  0.04850000  0.47710000  0.38150000  1.0 0.0516367269
N  N17  1  0.79950000  0.41320000  0.25610000  1.0 0.0516367269
N  N18  1  0.88160000  0.27940000  0.46520000  1.0 0.0412795037
N  N19  1  0.91670000  0.69790000  0.45120000  1.0 0.0516367269
N  N20  1  0.98930000  0.55450000  0.11090000  1.0 0.0238785181
N  N21  1  0.82650000  0.19900000  0.79970000  1.0 -0.2143244692
N  N22  1  0.71240000  0.31120000  0.69830000  1.0 -0.2304625819
N  N23  1  0.71410000  0.30580000  0.80640000  1.0 -0.2213343219
N  N24  1  0.82250000  0.20500000  0.69270000  1.0 -0.2304625819
N  N25  1  0.08020000  0.33360000  0.74590000  1.0 0.030237859
N  N26  1  0.48850000  0.14130000  0.76850000  1.0 0.0798460986
N  N27  1  0.52190000  0.97510000  0.62900000  1.0 0.030237859
N  N28  1  0.23060000  0.02240000  0.74930000  1.0 0.0238785181
N  N29  1  0.54100000  0.99450000  0.88490000  1.0 0.0412795037
N  N30  1  0.33550000  0.76560000  0.86080000  1.0 0.0412795037
N  N31  1  0.68250000  0.78120000  0.83200000  1.0 0.0516367269
N  N32  1  0.33120000  0.77300000  0.67330000  1.0 0.0516367269
N  N33  1  0.07800000  0.81650000  0.75820000  1.0 0.0516367269
N  N34  1  0.71300000  0.76950000  0.64320000  1.0 0.0412795037
N  N35  1  0.86140000  0.59670000  0.81800000  1.0 0.0412795037
N  N36  1  0.95150000  0.52290000  0.61850000  1.0 0.0516367269
N  N37  1  0.20050000  0.58680000  0.74390000  1.0 0.0516367269
N  N38  1  0.11840000  0.72060000  0.53480000  1.0 0.0412795037
N  N39  1  0.08330000  0.30210000  0.54880000  1.0 0.0516367269
N  N40  1  0.01070000  0.44550000  0.88910000  1.0 0.0238785181
O  O1  1  0.88190000  0.05320000  0.10570000  1.0 -0.8689475418
O  O2  1  0.03870000  0.11590000  0.12970000  1.0 -0.6404905103
O  O3  1  0.89750000  0.16930000  0.07410000  1.0 -0.6404905103
O  O4  1  0.07250000  0.13050000  0.02480000  1.0 -0.8519464643
O  O5  1  0.25130000  0.09160000  0.06580000  1.0 -0.6404905103
O  O6  1  0.25840000  0.12880000  0.96720000  1.0 -0.6507834763
O  O7  1  0.24820000  0.01000000  0.99590000  1.0 -0.8602122874
O  O8  1  0.27990000  0.01920000  0.88790000  1.0 -0.6995052308
O  O9  1  0.29840000  0.91530000  0.93950000  1.0 -0.6771946014
O  O10  1  0.73580000  0.88700000  0.47920000  1.0 -0.6290487856
O  O11  1  0.66130000  0.99300000  0.50410000  1.0 -0.6290487856
O  O12  1  0.81370000  0.98340000  0.42610000  1.0 -0.8792733759
O  O13  1  0.74260000  0.09860000  0.42960000  1.0 -0.6507834763
O  O14  1  0.94150000  0.11940000  0.43000000  1.0 -0.8792733759
O  O15  1  0.86300000  0.06580000  0.34820000  1.0 -0.7092180461
O  O16  1  0.11830000  0.17260000  0.43370000  1.0 -0.6404905103
O  O17  1  0.10270000  0.10880000  0.35290000  1.0 -0.6771946014
O  O18  1  0.19590000  0.05990000  0.43780000  1.0 -0.8519464643
O  O19  1  0.16450000  0.45880000  0.03390000  1.0 -0.6404905103
O  O20  1  0.26490000  0.36200000  0.00270000  1.0 -0.6194395126
O  O21  1  0.29660000  0.46130000  0.94390000  1.0 -0.8602122874
O  O22  1  0.32720000  0.53620000  0.86350000  1.0 -0.6194395126
O  O23  1  0.19560000  0.57230000  0.93960000  1.0 -0.6660428256
O  O24  1  0.39050000  0.60870000  0.93500000  1.0 -0.8689475418
O  O25  1  0.53410000  0.60600000  0.85040000  1.0 -0.6507834763
O  O26  1  0.55000000  0.68040000  0.92580000  1.0 -0.6507834763
O  O27  1  0.65800000  0.57370000  0.92330000  1.0 -0.8444363684
O  O28  1  0.30080000  0.56970000  0.55320000  1.0 -0.8689475418
O  O29  1  0.38810000  0.67170000  0.56740000  1.0 -0.6507834763
O  O30  1  0.38240000  0.59130000  0.64580000  1.0 -0.6643983335
O  O31  1  0.55450000  0.59570000  0.58320000  1.0 -0.8519464643
O  O32  1  0.75130000  0.60660000  0.54610000  1.0 -0.6404905103
O  O33  1  0.61560000  0.68280000  0.50830000  1.0 -0.6404905103
O  O34  1  0.67710000  0.58730000  0.45310000  1.0 -0.8689475418
O  O35  1  0.83780000  0.50730000  0.46710000  1.0 -0.6771946014
O  O36  1  0.75780000  0.52040000  0.37500000  1.0 -0.6771946014
O  O37  1  0.09560000  0.93140000  0.98870000  1.0 -0.6194395126
O  O38  1  0.90410000  0.95340000  0.04610000  1.0 -0.6194395126
O  O39  1  0.06800000  0.02470000  0.05520000  1.0 -0.5913181514
O  O40  1  0.36810000  0.49080000  0.47920000  1.0 -0.5988084287
O  O41  1  0.55690000  0.50090000  0.42840000  1.0 -0.6194395126
O  O42  1  0.48590000  0.58680000  0.49870000  1.0 -0.6194395126
O  O43  1  0.51150000  0.48760000  0.07110000  1.0 -0.6194395126
O  O44  1  0.34590000  0.52400000  0.01020000  1.0 -0.6194395126
O  O45  1  0.53780000  0.57820000  0.00020000  1.0 -0.6194395126
O  O46  1  0.94030000  0.92630000  0.49140000  1.0 -0.5913181514
O  O47  1  0.13160000  0.96490000  0.49670000  1.0 -0.5988084287
O  O48  1  0.00820000  0.01940000  0.42120000  1.0 -0.6194395126
O  O49  1  0.07710000  0.69810000  0.25060000  1.0 -0.4771600575
O  O50  1  0.38520000  0.79520000  0.24670000  1.0 -0.4709847779
O  O51  1  0.46280000  0.07100000  0.29480000  1.0 -0.5121381492
O  O52  1  0.65910000  0.05420000  0.25140000  1.0 -0.5406062514
O  O53  1  0.48690000  0.05010000  0.18590000  1.0 -0.560844492
O  O54  1  0.62730000  0.14350000  0.17020000  1.0 -0.5840792567
O  O55  1  0.42280000  0.16560000  0.21610000  1.0 -0.5318505973
O  O56  1  0.59110000  0.17060000  0.27620000  1.0 -0.560844492
O  O57  1  0.99880000  0.23350000  0.29960000  1.0 -0.5840792567
O  O58  1  0.16090000  0.29260000  0.33500000  1.0 -0.560844492
O  O59  1  0.07320000  0.33920000  0.24200000  1.0 -0.5318505973
O  O60  1  0.04070000  0.39970000  0.33190000  1.0 -0.5913181514
O  O61  1  0.87870000  0.33830000  0.29680000  1.0 -0.5318505973
O  O62  1  0.96830000  0.30560000  0.39190000  1.0 -0.5176535756
O  O63  1  0.00630000  0.70440000  0.37310000  1.0 -0.497485301
O  O64  1  0.95520000  0.51740000  0.18770000  1.0 -0.4568529338
O  O65  1  0.11810000  0.94680000  0.89430000  1.0 -0.8689475418
O  O66  1  0.96130000  0.88410000  0.87030000  1.0 -0.6404905103
O  O67  1  0.10250000  0.83070000  0.92590000  1.0 -0.6404905103
O  O68  1  0.92750000  0.86950000  0.97520000  1.0 -0.8519464643
O  O69  1  0.74870000  0.90840000  0.93420000  1.0 -0.6404905103
O  O70  1  0.74160000  0.87120000  0.03280000  1.0 -0.6507834763
O  O71  1  0.75180000  0.99000000  0.00410000  1.0 -0.8602122874
O  O72  1  0.72010000  0.98080000  0.11210000  1.0 -0.6995052308
O  O73  1  0.70160000  0.08470000  0.06050000  1.0 -0.6771946014
O  O74  1  0.26420000  0.11300000  0.52080000  1.0 -0.6290487856
O  O75  1  0.33870000  0.00700000  0.49590000  1.0 -0.6290487856
O  O76  1  0.18630000  0.01660000  0.57390000  1.0 -0.8792733759
O  O77  1  0.25740000  0.90140000  0.57040000  1.0 -0.6507834763
O  O78  1  0.05850000  0.88060000  0.57000000  1.0 -0.8792733759
O  O79  1  0.13700000  0.93420000  0.65180000  1.0 -0.7092180461
O  O80  1  0.88170000  0.82740000  0.56630000  1.0 -0.6404905103
O  O81  1  0.89730000  0.89120000  0.64710000  1.0 -0.6771946014
O  O82  1  0.80410000  0.94010000  0.56220000  1.0 -0.8519464643
O  O83  1  0.83550000  0.54120000  0.96610000  1.0 -0.6404905103
O  O84  1  0.73510000  0.63800000  0.99730000  1.0 -0.6194395126
O  O85  1  0.70340000  0.53870000  0.05610000  1.0 -0.8602122874
O  O86  1  0.67280000  0.46380000  0.13650000  1.0 -0.6194395126
O  O87  1  0.80440000  0.42770000  0.06040000  1.0 -0.6660428256
O  O88  1  0.60950000  0.39130000  0.06500000  1.0 -0.8689475418
O  O89  1  0.46590000  0.39400000  0.14960000  1.0 -0.6507834763
O  O90  1  0.45000000  0.31960000  0.07420000  1.0 -0.6507834763
O  O91  1  0.34200000  0.42630000  0.07670000  1.0 -0.8444363684
O  O92  1  0.69920000  0.43030000  0.44680000  1.0 -0.8689475418
O  O93  1  0.61190000  0.32830000  0.43260000  1.0 -0.6507834763
O  O94  1  0.61760000  0.40870000  0.35420000  1.0 -0.6643983335
O  O95  1  0.44550000  0.40430000  0.41680000  1.0 -0.8519464643
O  O96  1  0.24870000  0.39340000  0.45390000  1.0 -0.6404905103
O  O97  1  0.38440000  0.31720000  0.49170000  1.0 -0.6404905103
O  O98  1  0.32290000  0.41270000  0.54690000  1.0 -0.8689475418
O  O99  1  0.16220000  0.49270000  0.53290000  1.0 -0.6771946014
O  O100  1  0.24220000  0.47960000  0.62500000  1.0 -0.6771946014
O  O101  1  0.90440000  0.06860000  0.01130000  1.0 -0.6194395126
O  O102  1  0.09590000  0.04660000  0.95390000  1.0 -0.6194395126
O  O103  1  0.93200000  0.97530000  0.94480000  1.0 -0.5913181514
O  O104  1  0.63190000  0.50920000  0.52080000  1.0 -0.5988084287
O  O105  1  0.44310000  0.49910000  0.57160000  1.0 -0.6194395126
O  O106  1  0.51410000  0.41320000  0.50130000  1.0 -0.6194395126
O  O107  1  0.48850000  0.51240000  0.92890000  1.0 -0.6194395126
O  O108  1  0.65410000  0.47600000  0.98980000  1.0 -0.6194395126
O  O109  1  0.46220000  0.42180000  0.99980000  1.0 -0.6194395126
O  O110  1  0.05970000  0.07370000  0.50860000  1.0 -0.5913181514
O  O111  1  0.86840000  0.03510000  0.50330000  1.0 -0.5988084287
O  O112  1  0.99180000  0.98060000  0.57880000  1.0 -0.6194395126
O  O113  1  0.92290000  0.30190000  0.74940000  1.0 -0.4771600575
O  O114  1  0.61480000  0.20480000  0.75330000  1.0 -0.4709847779
O  O115  1  0.53720000  0.92900000  0.70520000  1.0 -0.5121381492
O  O116  1  0.34090000  0.94580000  0.74860000  1.0 -0.5406062514
O  O117  1  0.51310000  0.94990000  0.81410000  1.0 -0.560844492
O  O118  1  0.37270000  0.85650000  0.82980000  1.0 -0.5840792567
O  O119  1  0.57720000  0.83440000  0.78390000  1.0 -0.5318505973
O  O120  1  0.40890000  0.82940000  0.72380000  1.0 -0.560844492
O  O121  1  0.00120000  0.76650000  0.70040000  1.0 -0.5840792567
O  O122  1  0.83910000  0.70740000  0.66500000  1.0 -0.560844492
O  O123  1  0.92680000  0.66080000  0.75800000  1.0 -0.5318505973
O  O124  1  0.95930000  0.60030000  0.66810000  1.0 -0.5913181514
O  O125  1  0.12130000  0.66170000  0.70320000  1.0 -0.5318505973
O  O126  1  0.03170000  0.69440000  0.60810000  1.0 -0.5176535756
O  O127  1  0.99370000  0.29560000  0.62690000  1.0 -0.497485301
O  O128  1  0.04480000  0.48260000  0.81230000  1.0 -0.4568529338
