# DDEC6 charges by PACMAN v1.1 (https://github.com/mtap-research/PACMAN-charge/)
data_GECRIS_FSR_pacman
_symmetry_space_group_name_H-M   'P 1'
_cell_length_a   24.96560000
_cell_length_b   24.96560000
_cell_length_c   24.48200000
_cell_angle_alpha   63.58270000
_cell_angle_beta   116.41700000
_cell_angle_gamma   120.60500000
_symmetry_Int_Tables_number   1
_chemical_formula_structural   Mn3Zn4Mo18H156C98(N3O14)6
_chemical_formula_sum   'Mn6 Zn8 Mo36 H312 C196 N36 O168'
_cell_volume   11280.13405458
_cell_formula_units_Z   2
loop_
 _symmetry_equiv_pos_site_id
 _symmetry_equiv_pos_as_xyz
  1  'x, y, z'
loop_
 _atom_site_type_symbol
 _atom_site_label
 _atom_site_symmetry_multiplicity
 _atom_site_fract_x
 _atom_site_fract_y
 _atom_site_fract_z
 _atom_site_occupancy
 _atom_site_charge
Mn  Mn1  1  0.00000000  0.50000000  0.00000000  1.0 0.953993561
Mn  Mn2  1  0.50000000  0.00000000  0.50000000  1.0 0.953993561
Mn  Mn3  1  0.00000000  0.00000000  0.00000000  1.0 1.0045800429
Mn  Mn4  1  0.00000000  0.00000000  0.50000000  1.0 1.0061202269
Mn  Mn5  1  0.50000000  0.00000000  0.00000000  1.0 0.953993561
Mn  Mn6  1  0.00000000  0.50000000  0.50000000  1.0 0.9588417035
Zn  Zn1  1  0.62307000  0.24763000  0.62192000  1.0 0.8879051428
Zn  Zn2  1  0.79464000  0.05076000  0.05829000  1.0 0.7540034723
Zn  Zn3  1  0.24763000  0.62307000  0.87808000  1.0 0.8879051428
Zn  Zn4  1  0.05076000  0.79464000  0.44171000  1.0 0.7540034723
Zn  Zn5  1  0.37693000  0.75237000  0.37808000  1.0 0.8879051428
Zn  Zn6  1  0.20536000  0.94924000  0.94171000  1.0 0.7540034723
Zn  Zn7  1  0.75237000  0.37693000  0.12192000  1.0 0.8879051428
Zn  Zn8  1  0.94924000  0.20536000  0.55829000  1.0 0.7540034723
Mo  Mo1  1  0.86494000  0.51700000  0.88529000  1.0 2.0404693108
Mo  Mo2  1  0.98414000  0.53168000  0.84569000  1.0 2.0404693108
Mo  Mo3  1  0.88193000  0.48747000  0.03854000  1.0 2.0495734137
Mo  Mo4  1  0.03820000  0.14016000  0.01961000  1.0 2.0769104582
Mo  Mo5  1  0.15696000  0.10340000  0.03464000  1.0 2.0495734137
Mo  Mo6  1  0.88129000  0.03881000  0.97995000  1.0 2.0124033314
Mo  Mo7  1  0.53953000  0.87587000  0.03095000  1.0 1.9621664506
Mo  Mo8  1  0.60876000  0.12442000  0.05864000  1.0 2.0190913897
Mo  Mo9  1  0.64617000  0.99823000  0.09343000  1.0 1.9694036465
Mo  Mo10  1  0.51700000  0.86494000  0.61471000  1.0 2.0404693108
Mo  Mo11  1  0.53168000  0.98414000  0.65431000  1.0 2.0404693108
Mo  Mo12  1  0.48747000  0.88193000  0.46146000  1.0 2.0495734137
Mo  Mo13  1  0.14016000  0.03820000  0.48039000  1.0 2.0769104582
Mo  Mo14  1  0.10340000  0.15696000  0.46536000  1.0 2.0495734137
Mo  Mo15  1  0.03881000  0.88129000  0.52005000  1.0 2.0124033314
Mo  Mo16  1  0.87587000  0.53953000  0.46905000  1.0 1.9621664506
Mo  Mo17  1  0.12442000  0.60876000  0.44136000  1.0 2.0190913897
Mo  Mo18  1  0.99823000  0.64617000  0.40657000  1.0 1.9694036465
Mo  Mo19  1  0.13506000  0.48300000  0.11471000  1.0 2.0404693108
Mo  Mo20  1  0.01586000  0.46832000  0.15431000  1.0 2.0404693108
Mo  Mo21  1  0.11807000  0.51253000  0.96146000  1.0 2.0495734137
Mo  Mo22  1  0.96180000  0.85984000  0.98039000  1.0 2.0769104582
Mo  Mo23  1  0.84304000  0.89660000  0.96536000  1.0 2.0495734137
Mo  Mo24  1  0.11871000  0.96119000  0.02005000  1.0 2.0124033314
Mo  Mo25  1  0.46047000  0.12413000  0.96905000  1.0 1.9621664506
Mo  Mo26  1  0.39124000  0.87558000  0.94136000  1.0 2.0190913897
Mo  Mo27  1  0.35383000  0.00177000  0.90657000  1.0 1.9694036465
Mo  Mo28  1  0.48300000  0.13506000  0.38529000  1.0 2.0404693108
Mo  Mo29  1  0.46832000  0.01586000  0.34569000  1.0 2.0404693108
Mo  Mo30  1  0.51253000  0.11807000  0.53854000  1.0 2.0495734137
Mo  Mo31  1  0.85984000  0.96180000  0.51961000  1.0 2.0769104582
Mo  Mo32  1  0.89660000  0.84304000  0.53464000  1.0 2.0495734137
Mo  Mo33  1  0.96119000  0.11871000  0.47995000  1.0 2.0124033314
Mo  Mo34  1  0.12413000  0.46047000  0.53095000  1.0 1.9621664506
Mo  Mo35  1  0.87558000  0.39124000  0.55864000  1.0 2.0190913897
Mo  Mo36  1  0.00177000  0.35383000  0.59343000  1.0 1.9694036465
H  H1  1  0.76085000  0.16887000  0.01417000  1.0 0.119610371
H  H2  1  0.81195000  0.27879000  0.99996000  1.0 0.1301308363
H  H3  1  0.97974000  0.26776000  0.03465000  1.0 0.1400871043
H  H4  1  0.92435000  0.15825000  0.04706000  1.0 0.119610371
H  H5  1  0.85966000  0.37504000  0.93076000  1.0 0.100951292
H  H6  1  0.91624000  0.38118000  0.91140000  1.0 0.1103422822
H  H7  1  0.93757000  0.34409000  0.10132000  1.0 0.100951292
H  H8  1  0.87352000  0.35348000  0.04860000  1.0 0.0904429141
H  H9  1  0.01865000  0.37063000  0.99660000  1.0 0.1103422822
H  H10  1  0.02483000  0.35373000  0.06971000  1.0 0.1103422822
H  H11  1  0.93754000  0.20992000  0.67438000  1.0 0.0904429141
H  H12  1  0.95046000  0.16210000  0.78143000  1.0 0.119610371
H  H13  1  0.00329000  0.04077000  0.76925000  1.0 0.0712443959
H  H14  1  0.98523000  0.09075000  0.66130000  1.0 0.0809201247
H  H15  1  0.88457000  0.00117000  0.84385000  1.0 0.1103422822
H  H16  1  0.90014000  0.06940000  0.84938000  1.0 0.100951292
H  H17  1  0.01555000  0.14785000  0.87947000  1.0 0.100951292
H  H18  1  0.07434000  0.13542000  0.88379000  1.0 0.100951292
H  H19  1  0.05085000  0.02679000  0.87328000  1.0 0.100951292
H  H20  1  0.97766000  0.97560000  0.85735000  1.0 0.100951292
H  H21  1  0.65961000  0.24985000  0.75527000  1.0 0.1103422822
H  H22  1  0.63266000  0.18970000  0.84944000  1.0 0.1301308363
H  H23  1  0.50814000  0.04148000  0.77391000  1.0 0.1400871043
H  H24  1  0.53539000  0.10627000  0.68042000  1.0 0.1103422822
H  H25  1  0.62091000  0.13751000  0.93116000  1.0 0.0904429141
H  H26  1  0.63671000  0.07775000  0.94378000  1.0 0.1103422822
H  H27  1  0.45670000  0.08382000  0.82998000  1.0 0.1103422822
H  H28  1  0.51019000  0.14109000  0.86176000  1.0 0.100951292
H  H29  1  0.55017000  0.98617000  0.89327000  1.0 0.100951292
H  H30  1  0.47921000  0.98673000  0.85459000  1.0 0.100951292
H  H31  1  0.80814000  0.92340000  0.08565000  1.0 0.1103422822
H  H32  1  0.72276000  0.79940000  0.22244000  1.0 0.100951292
H  H33  1  0.67927000  0.82922000  0.15580000  1.0 0.0904429141
H  H34  1  0.73118000  0.87294000  0.20310000  1.0 0.0401395383
H  H35  1  0.66495000  0.26277000  0.51631000  1.0 0.119610371
H  H36  1  0.68417000  0.28247000  0.42694000  1.0 0.1301308363
H  H37  1  0.66579000  0.33865000  0.36683000  1.0 0.1463711481
H  H38  1  0.73673000  0.35553000  0.41610000  1.0 0.1463711481
H  H39  1  0.72119000  0.44057000  0.42944000  1.0 0.1400871043
H  H40  1  0.64543000  0.42201000  0.39310000  1.0 0.1400871043
H  H41  1  0.67084000  0.41526000  0.46757000  1.0 0.1301308363
H  H42  1  0.74338000  0.36954000  0.62660000  1.0 0.1103422822
H  H43  1  0.67564000  0.39564000  0.70237000  1.0 0.1103422822
H  H44  1  0.74302000  0.44616000  0.73368000  1.0 0.1400871043
H  H45  1  0.69894000  0.47122000  0.66471000  1.0 0.119610371
H  H46  1  0.83929000  0.48729000  0.69288000  1.0 0.1463711481
H  H47  1  0.82510000  0.46646000  0.63316000  1.0 0.1400871043
H  H48  1  0.79989000  0.51833000  0.62374000  1.0 0.1301308363
H  H49  1  0.67621000  0.14603000  0.67744000  1.0 0.1103422822
H  H50  1  0.72524000  0.07758000  0.71361000  1.0 0.1463711481
H  H51  1  0.78341000  0.10573000  0.68423000  1.0 0.1301308363
H  H52  1  0.79887000  0.10431000  0.75558000  1.0 0.1400871043
H  H53  1  0.84403000  0.22839000  0.65231000  1.0 0.1301308363
H  H54  1  0.82452000  0.27078000  0.66805000  1.0 0.1400871043
H  H55  1  0.86282000  0.22700000  0.72440000  1.0 0.1301308363
H  H56  1  0.68894000  0.96212000  0.97587000  1.0 0.1103422822
H  H57  1  0.66312000  0.94108000  0.85117000  1.0 0.1607358973
H  H58  1  0.62284000  0.91032000  0.90101000  1.0 0.1400871043
H  H59  1  0.59777000  0.95151000  0.83014000  1.0 0.1400871043
H  H60  1  0.65689000  0.06565000  0.79708000  1.0 0.119610371
H  H61  1  0.69955000  0.10261000  0.85101000  1.0 0.1301308363
H  H62  1  0.73158000  0.07552000  0.83047000  1.0 0.1400871043
H  H63  1  0.51729000  0.24105000  0.61775000  1.0 0.3579483699
H  H64  1  0.53883000  0.29615000  0.56862000  1.0 0.3791260939
H  H65  1  0.80109000  0.78555000  0.21532000  1.0 0.0904429141
H  H66  1  0.85868000  0.85024000  0.19144000  1.0 0.100951292
H  H67  1  0.80435000  0.80687000  0.14444000  1.0 0.100951292
H  H68  1  0.01503000  0.23099000  0.68328000  1.0 0.0904429141
H  H69  1  0.02496000  0.18522000  0.79301000  1.0 0.1103422822
H  H70  1  0.94087000  0.00915000  0.76467000  1.0 0.0904429141
H  H71  1  0.91859000  0.05811000  0.65555000  1.0 0.100951292
H  H72  1  0.71941000  0.90483000  0.14481000  1.0 0.100951292
H  H73  1  0.68329000  0.74813000  0.16958000  1.0 0.0809201247
H  H74  1  0.64428000  0.79076000  0.15282000  1.0 0.1301308363
H  H75  1  0.70984000  0.79676000  0.21004000  1.0 0.119610371
H  H76  1  0.74031000  0.77325000  0.11871000  1.0 0.0809201247
H  H77  1  0.80496000  0.83584000  0.13139000  1.0 0.1103422822
H  H78  1  0.75461000  0.83877000  0.06189000  1.0 0.1103422822
H  H79  1  0.16887000  0.76085000  0.48583000  1.0 0.119610371
H  H80  1  0.27879000  0.81195000  0.50004000  1.0 0.1301308363
H  H81  1  0.26776000  0.97974000  0.46535000  1.0 0.1400871043
H  H82  1  0.15825000  0.92435000  0.45294000  1.0 0.119610371
H  H83  1  0.37504000  0.85966000  0.56924000  1.0 0.100951292
H  H84  1  0.38118000  0.91624000  0.58860000  1.0 0.1103422822
H  H85  1  0.34409000  0.93757000  0.39868000  1.0 0.100951292
H  H86  1  0.35348000  0.87352000  0.45140000  1.0 0.0904429141
H  H87  1  0.37063000  0.01865000  0.50340000  1.0 0.1103422822
H  H88  1  0.35373000  0.02483000  0.43029000  1.0 0.1103422822
H  H89  1  0.20992000  0.93754000  0.82562000  1.0 0.0904429141
H  H90  1  0.16210000  0.95046000  0.71857000  1.0 0.119610371
H  H91  1  0.04077000  0.00329000  0.73075000  1.0 0.0712443959
H  H92  1  0.09075000  0.98523000  0.83870000  1.0 0.0809201247
H  H93  1  0.00117000  0.88457000  0.65615000  1.0 0.1103422822
H  H94  1  0.06940000  0.90014000  0.65062000  1.0 0.100951292
H  H95  1  0.14785000  0.01555000  0.62053000  1.0 0.100951292
H  H96  1  0.13542000  0.07434000  0.61621000  1.0 0.100951292
H  H97  1  0.02679000  0.05085000  0.62672000  1.0 0.100951292
H  H98  1  0.97560000  0.97766000  0.64265000  1.0 0.100951292
H  H99  1  0.24985000  0.65961000  0.74473000  1.0 0.1103422822
H  H100  1  0.18970000  0.63266000  0.65056000  1.0 0.1301308363
H  H101  1  0.04148000  0.50814000  0.72609000  1.0 0.1400871043
H  H102  1  0.10627000  0.53539000  0.81958000  1.0 0.1103422822
H  H103  1  0.13751000  0.62091000  0.56884000  1.0 0.0904429141
H  H104  1  0.07775000  0.63671000  0.55622000  1.0 0.100951292
H  H105  1  0.08382000  0.45670000  0.67002000  1.0 0.1103422822
H  H106  1  0.14109000  0.51019000  0.63824000  1.0 0.100951292
H  H107  1  0.98617000  0.55017000  0.60673000  1.0 0.100951292
H  H108  1  0.98673000  0.47921000  0.64541000  1.0 0.100951292
H  H109  1  0.92340000  0.80814000  0.41435000  1.0 0.1103422822
H  H110  1  0.79940000  0.72276000  0.27756000  1.0 0.100951292
H  H111  1  0.82922000  0.67927000  0.34419000  1.0 0.0904429141
H  H112  1  0.87294000  0.73118000  0.29690000  1.0 0.0401395383
H  H113  1  0.26277000  0.66495000  0.98369000  1.0 0.119610371
H  H114  1  0.28247000  0.68417000  0.07306000  1.0 0.1301308363
H  H115  1  0.33865000  0.66579000  0.13317000  1.0 0.1463711481
H  H116  1  0.35553000  0.73673000  0.08390000  1.0 0.1463711481
H  H117  1  0.44057000  0.72119000  0.07056000  1.0 0.1400871043
H  H118  1  0.42201000  0.64543000  0.10690000  1.0 0.1400871043
H  H119  1  0.41526000  0.67084000  0.03243000  1.0 0.1301308363
H  H120  1  0.36954000  0.74338000  0.87340000  1.0 0.1103422822
H  H121  1  0.39564000  0.67564000  0.79763000  1.0 0.1103422822
H  H122  1  0.44616000  0.74302000  0.76632000  1.0 0.1400871043
H  H123  1  0.47122000  0.69894000  0.83529000  1.0 0.119610371
H  H124  1  0.48729000  0.83929000  0.80712000  1.0 0.1463711481
H  H125  1  0.46646000  0.82510000  0.86684000  1.0 0.1400871043
H  H126  1  0.51833000  0.79989000  0.87626000  1.0 0.1301308363
H  H127  1  0.14603000  0.67621000  0.82256000  1.0 0.1103422822
H  H128  1  0.07758000  0.72524000  0.78639000  1.0 0.1463711481
H  H129  1  0.10573000  0.78341000  0.81577000  1.0 0.1301308363
H  H130  1  0.10431000  0.79887000  0.74442000  1.0 0.1400871043
H  H131  1  0.22839000  0.84403000  0.84769000  1.0 0.1301308363
H  H132  1  0.27078000  0.82452000  0.83195000  1.0 0.1400871043
H  H133  1  0.22700000  0.86282000  0.77560000  1.0 0.1301308363
H  H134  1  0.96212000  0.68894000  0.52413000  1.0 0.1103422822
H  H135  1  0.94108000  0.66312000  0.64883000  1.0 0.1607358973
H  H136  1  0.91032000  0.62284000  0.59899000  1.0 0.1400871043
H  H137  1  0.95151000  0.59777000  0.66986000  1.0 0.1400871043
H  H138  1  0.06565000  0.65689000  0.70292000  1.0 0.119610371
H  H139  1  0.10261000  0.69955000  0.64899000  1.0 0.1301308363
H  H140  1  0.07552000  0.73158000  0.66953000  1.0 0.1400871043
H  H141  1  0.24105000  0.51729000  0.88225000  1.0 0.3579483699
H  H142  1  0.29615000  0.53883000  0.93138000  1.0 0.3791260939
H  H143  1  0.78555000  0.80109000  0.28468000  1.0 0.0904429141
H  H144  1  0.85024000  0.85868000  0.30856000  1.0 0.100951292
H  H145  1  0.80687000  0.80435000  0.35556000  1.0 0.100951292
H  H146  1  0.23099000  0.01503000  0.81672000  1.0 0.0904429141
H  H147  1  0.18522000  0.02496000  0.70699000  1.0 0.1103422822
H  H148  1  0.00915000  0.94087000  0.73533000  1.0 0.0904429141
H  H149  1  0.05811000  0.91859000  0.84445000  1.0 0.100951292
H  H150  1  0.90483000  0.71941000  0.35519000  1.0 0.100951292
H  H151  1  0.74813000  0.68329000  0.33042000  1.0 0.0809201247
H  H152  1  0.79076000  0.64428000  0.34718000  1.0 0.1301308363
H  H153  1  0.79676000  0.70984000  0.28996000  1.0 0.119610371
H  H154  1  0.77325000  0.74031000  0.38129000  1.0 0.0809201247
H  H155  1  0.83584000  0.80496000  0.36861000  1.0 0.1103422822
H  H156  1  0.83877000  0.75461000  0.43811000  1.0 0.1103422822
H  H157  1  0.23915000  0.83113000  0.98583000  1.0 0.119610371
H  H158  1  0.18805000  0.72121000  0.00004000  1.0 0.1301308363
H  H159  1  0.02026000  0.73224000  0.96535000  1.0 0.1400871043
H  H160  1  0.07565000  0.84175000  0.95294000  1.0 0.119610371
H  H161  1  0.14034000  0.62496000  0.06924000  1.0 0.100951292
H  H162  1  0.08376000  0.61882000  0.08860000  1.0 0.1103422822
H  H163  1  0.06243000  0.65591000  0.89868000  1.0 0.100951292
H  H164  1  0.12648000  0.64652000  0.95140000  1.0 0.0904429141
H  H165  1  0.98135000  0.62937000  0.00340000  1.0 0.1103422822
H  H166  1  0.97517000  0.64627000  0.93029000  1.0 0.1103422822
H  H167  1  0.06246000  0.79008000  0.32562000  1.0 0.0904429141
H  H168  1  0.04954000  0.83790000  0.21857000  1.0 0.119610371
H  H169  1  0.99671000  0.95923000  0.23075000  1.0 0.0712443959
H  H170  1  0.01477000  0.90925000  0.33870000  1.0 0.0809201247
H  H171  1  0.11543000  0.99883000  0.15615000  1.0 0.1103422822
H  H172  1  0.09986000  0.93060000  0.15062000  1.0 0.100951292
H  H173  1  0.98445000  0.85215000  0.12053000  1.0 0.100951292
H  H174  1  0.92566000  0.86458000  0.11621000  1.0 0.100951292
H  H175  1  0.94915000  0.97321000  0.12672000  1.0 0.100951292
H  H176  1  0.02234000  0.02440000  0.14265000  1.0 0.100951292
H  H177  1  0.34039000  0.75015000  0.24473000  1.0 0.1103422822
H  H178  1  0.36734000  0.81030000  0.15056000  1.0 0.1301308363
H  H179  1  0.49186000  0.95852000  0.22609000  1.0 0.1400871043
H  H180  1  0.46461000  0.89373000  0.31958000  1.0 0.1103422822
H  H181  1  0.37909000  0.86249000  0.06884000  1.0 0.0904429141
H  H182  1  0.36329000  0.92225000  0.05622000  1.0 0.1103422822
H  H183  1  0.54330000  0.91618000  0.17002000  1.0 0.1103422822
H  H184  1  0.48981000  0.85891000  0.13824000  1.0 0.100951292
H  H185  1  0.44983000  0.01383000  0.10673000  1.0 0.100951292
H  H186  1  0.52079000  0.01327000  0.14541000  1.0 0.100951292
H  H187  1  0.19186000  0.07660000  0.91435000  1.0 0.1103422822
H  H188  1  0.27724000  0.20060000  0.77756000  1.0 0.100951292
H  H189  1  0.32073000  0.17079000  0.84420000  1.0 0.0904429141
H  H190  1  0.26882000  0.12706000  0.79690000  1.0 0.0401395383
H  H191  1  0.33505000  0.73723000  0.48369000  1.0 0.119610371
H  H192  1  0.31583000  0.71753000  0.57306000  1.0 0.1301308363
H  H193  1  0.33421000  0.66135000  0.63317000  1.0 0.1463711481
H  H194  1  0.26327000  0.64447000  0.58390000  1.0 0.1463711481
H  H195  1  0.27881000  0.55943000  0.57056000  1.0 0.1400871043
H  H196  1  0.35457000  0.57799000  0.60690000  1.0 0.1400871043
H  H197  1  0.32916000  0.58474000  0.53243000  1.0 0.1301308363
H  H198  1  0.25662000  0.63046000  0.37340000  1.0 0.1103422822
H  H199  1  0.32436000  0.60436000  0.29763000  1.0 0.1103422822
H  H200  1  0.25698000  0.55384000  0.26632000  1.0 0.1400871043
H  H201  1  0.30106000  0.52878000  0.33529000  1.0 0.119610371
H  H202  1  0.16071000  0.51271000  0.30712000  1.0 0.1463711481
H  H203  1  0.17490000  0.53354000  0.36684000  1.0 0.1400871043
H  H204  1  0.20011000  0.48167000  0.37626000  1.0 0.1301308363
H  H205  1  0.32379000  0.85397000  0.32256000  1.0 0.1103422822
H  H206  1  0.27476000  0.92242000  0.28639000  1.0 0.1463711481
H  H207  1  0.21659000  0.89427000  0.31577000  1.0 0.1301308363
H  H208  1  0.20113000  0.89569000  0.24442000  1.0 0.1400871043
H  H209  1  0.15597000  0.77161000  0.34769000  1.0 0.1301308363
H  H210  1  0.17548000  0.72922000  0.33195000  1.0 0.1400871043
H  H211  1  0.13718000  0.77300000  0.27560000  1.0 0.1301308363
H  H212  1  0.31106000  0.03788000  0.02413000  1.0 0.1103422822
H  H213  1  0.33688000  0.05892000  0.14883000  1.0 0.1607358973
H  H214  1  0.37716000  0.08968000  0.09899000  1.0 0.1400871043
H  H215  1  0.40223000  0.04849000  0.16986000  1.0 0.1400871043
H  H216  1  0.34311000  0.93435000  0.20292000  1.0 0.119610371
H  H217  1  0.30045000  0.89739000  0.14899000  1.0 0.1301308363
H  H218  1  0.26842000  0.92448000  0.16953000  1.0 0.1400871043
H  H219  1  0.48271000  0.75895000  0.38225000  1.0 0.3579483699
H  H220  1  0.46117000  0.70385000  0.43138000  1.0 0.3791260939
H  H221  1  0.19891000  0.21445000  0.78468000  1.0 0.0904429141
H  H222  1  0.14132000  0.14976000  0.80856000  1.0 0.100951292
H  H223  1  0.19565000  0.19313000  0.85556000  1.0 0.100951292
H  H224  1  0.98497000  0.76901000  0.31672000  1.0 0.0904429141
H  H225  1  0.97504000  0.81478000  0.20699000  1.0 0.1103422822
H  H226  1  0.05913000  0.99085000  0.23533000  1.0 0.0904429141
H  H227  1  0.08141000  0.94189000  0.34445000  1.0 0.100951292
H  H228  1  0.28059000  0.09517000  0.85519000  1.0 0.100951292
H  H229  1  0.31671000  0.25187000  0.83042000  1.0 0.0809201247
H  H230  1  0.35572000  0.20924000  0.84718000  1.0 0.1301308363
H  H231  1  0.29016000  0.20324000  0.78996000  1.0 0.119610371
H  H232  1  0.25969000  0.22675000  0.88129000  1.0 0.0809201247
H  H233  1  0.19504000  0.16416000  0.86861000  1.0 0.1103422822
H  H234  1  0.24539000  0.16123000  0.93811000  1.0 0.1103422822
H  H235  1  0.83113000  0.23915000  0.51417000  1.0 0.119610371
H  H236  1  0.72121000  0.18805000  0.49996000  1.0 0.1301308363
H  H237  1  0.73224000  0.02026000  0.53465000  1.0 0.1301308363
H  H238  1  0.84175000  0.07565000  0.54706000  1.0 0.119610371
H  H239  1  0.62496000  0.14034000  0.43076000  1.0 0.100951292
H  H240  1  0.61882000  0.08376000  0.41140000  1.0 0.1103422822
H  H241  1  0.65591000  0.06243000  0.60132000  1.0 0.100951292
H  H242  1  0.64652000  0.12648000  0.54860000  1.0 0.0904429141
H  H243  1  0.62937000  0.98135000  0.49660000  1.0 0.1103422822
H  H244  1  0.64627000  0.97517000  0.56971000  1.0 0.1103422822
H  H245  1  0.79008000  0.06246000  0.17438000  1.0 0.0904429141
H  H246  1  0.83790000  0.04954000  0.28143000  1.0 0.119610371
H  H247  1  0.95923000  0.99671000  0.26925000  1.0 0.0712443959
H  H248  1  0.90925000  0.01477000  0.16130000  1.0 0.0809201247
H  H249  1  0.99883000  0.11543000  0.34385000  1.0 0.1103422822
H  H250  1  0.93060000  0.09986000  0.34938000  1.0 0.100951292
H  H251  1  0.85215000  0.98445000  0.37947000  1.0 0.100951292
H  H252  1  0.86458000  0.92566000  0.38379000  1.0 0.100951292
H  H253  1  0.97321000  0.94915000  0.37328000  1.0 0.100951292
H  H254  1  0.02440000  0.02234000  0.35735000  1.0 0.100951292
H  H255  1  0.75015000  0.34039000  0.25527000  1.0 0.1103422822
H  H256  1  0.81030000  0.36734000  0.34944000  1.0 0.1301308363
H  H257  1  0.95852000  0.49186000  0.27391000  1.0 0.1400871043
H  H258  1  0.89373000  0.46461000  0.18042000  1.0 0.1103422822
H  H259  1  0.86249000  0.37909000  0.43116000  1.0 0.0904429141
H  H260  1  0.92225000  0.36329000  0.44378000  1.0 0.1103422822
H  H261  1  0.91618000  0.54330000  0.32998000  1.0 0.1103422822
H  H262  1  0.85891000  0.48981000  0.36176000  1.0 0.100951292
H  H263  1  0.01383000  0.44983000  0.39327000  1.0 0.100951292
H  H264  1  0.01327000  0.52079000  0.35459000  1.0 0.100951292
H  H265  1  0.07660000  0.19186000  0.58565000  1.0 0.1103422822
H  H266  1  0.20060000  0.27724000  0.72244000  1.0 0.100951292
H  H267  1  0.17078000  0.32073000  0.65580000  1.0 0.0904429141
H  H268  1  0.12706000  0.26882000  0.70310000  1.0 0.0401395383
H  H269  1  0.73723000  0.33505000  0.01631000  1.0 0.119610371
H  H270  1  0.71753000  0.31583000  0.92694000  1.0 0.1301308363
H  H271  1  0.66135000  0.33421000  0.86683000  1.0 0.1463711481
H  H272  1  0.64447000  0.26327000  0.91610000  1.0 0.1463711481
H  H273  1  0.55943000  0.27881000  0.92944000  1.0 0.1400871043
H  H274  1  0.57799000  0.35457000  0.89310000  1.0 0.1400871043
H  H275  1  0.58474000  0.32916000  0.96757000  1.0 0.1301308363
H  H276  1  0.63046000  0.25662000  0.12660000  1.0 0.1103422822
H  H277  1  0.60436000  0.32436000  0.20237000  1.0 0.1103422822
H  H278  1  0.55384000  0.25698000  0.23368000  1.0 0.1400871043
H  H279  1  0.52878000  0.30106000  0.16471000  1.0 0.119610371
H  H280  1  0.51271000  0.16071000  0.19288000  1.0 0.1463711481
H  H281  1  0.53354000  0.17490000  0.13316000  1.0 0.1400871043
H  H282  1  0.48167000  0.20011000  0.12374000  1.0 0.1301308363
H  H283  1  0.85397000  0.32379000  0.17744000  1.0 0.1103422822
H  H284  1  0.92242000  0.27476000  0.21361000  1.0 0.1463711481
H  H285  1  0.89427000  0.21659000  0.18423000  1.0 0.1301308363
H  H286  1  0.89569000  0.20113000  0.25558000  1.0 0.1400871043
H  H287  1  0.77161000  0.15597000  0.15231000  1.0 0.1301308363
H  H288  1  0.72922000  0.17548000  0.16805000  1.0 0.1400871043
H  H289  1  0.77300000  0.13718000  0.22440000  1.0 0.1301308363
H  H290  1  0.03788000  0.31106000  0.47587000  1.0 0.1103422822
H  H291  1  0.05892000  0.33688000  0.35117000  1.0 0.1607358973
H  H292  1  0.08968000  0.37716000  0.40101000  1.0 0.1400871043
H  H293  1  0.04849000  0.40223000  0.33014000  1.0 0.1400871043
H  H294  1  0.93435000  0.34311000  0.29708000  1.0 0.119610371
H  H295  1  0.89739000  0.30045000  0.35101000  1.0 0.1301308363
H  H296  1  0.92448000  0.26842000  0.33047000  1.0 0.1400871043
H  H297  1  0.75895000  0.48271000  0.11775000  1.0 0.3579483699
H  H298  1  0.70385000  0.46117000  0.06862000  1.0 0.3791260939
H  H299  1  0.21445000  0.19891000  0.71532000  1.0 0.0904429141
H  H300  1  0.14976000  0.14132000  0.69144000  1.0 0.100951292
H  H301  1  0.19313000  0.19565000  0.64444000  1.0 0.100951292
H  H302  1  0.76901000  0.98497000  0.18328000  1.0 0.0904429141
H  H303  1  0.81478000  0.97504000  0.29301000  1.0 0.1103422822
H  H304  1  0.99085000  0.05913000  0.26467000  1.0 0.0904429141
H  H305  1  0.94189000  0.08141000  0.15555000  1.0 0.100951292
H  H306  1  0.09517000  0.28059000  0.64481000  1.0 0.100951292
H  H307  1  0.25187000  0.31671000  0.66958000  1.0 0.0809201247
H  H308  1  0.20924000  0.35572000  0.65282000  1.0 0.1301308363
H  H309  1  0.20324000  0.29016000  0.71004000  1.0 0.119610371
H  H310  1  0.22675000  0.25969000  0.61871000  1.0 0.0809201247
H  H311  1  0.16416000  0.19504000  0.63139000  1.0 0.1103422822
H  H312  1  0.16123000  0.24539000  0.56189000  1.0 0.1103422822
C  C1  1  0.80619000  0.18921000  0.01889000  1.0 0.0904429141
C  C2  1  0.83662000  0.25478000  0.01042000  1.0 -0.2168581713
C  C3  1  0.90271000  0.28689000  0.01681000  1.0 0.1103422822
C  C4  1  0.93456000  0.24864000  0.03046000  1.0 -0.2112959528
C  C5  1  0.90120000  0.18320000  0.03810000  1.0 0.0904429141
C  C6  1  0.93664000  0.35956000  0.00954000  1.0 0.0478784429
C  C7  1  0.90737000  0.39263000  0.93957000  1.0 -0.0093374032
C  C8  1  0.92118000  0.37002000  0.05818000  1.0 -0.0175935634
C  C9  1  0.00985000  0.38015000  0.02625000  1.0 -0.0093374032
C  C10  1  0.94960000  0.17360000  0.69420000  1.0 0.0031108629
C  C11  1  0.95760000  0.14560000  0.75810000  1.0 -0.0820401202
C  C12  1  0.97638000  0.09282000  0.78908000  1.0 0.0478784429
C  C13  1  0.98790000  0.07470000  0.75080000  1.0 -0.0911523238
C  C14  1  0.97750000  0.10530000  0.68590000  1.0 0.0330402731
C  C15  1  0.98414000  0.06046000  0.86084000  1.0 0.0478784429
C  C16  1  0.91505000  0.03335000  0.86825000  1.0 -0.0275564202
C  C17  1  0.03321000  0.11439000  0.89501000  1.0 -0.0551514741
C  C18  1  0.00880000  0.00700000  0.88250000  1.0 -0.1178382096
C  C19  1  0.62750000  0.20690000  0.75870000  1.0 0.0712443959
C  C20  1  0.61170000  0.17110000  0.81520000  1.0 -0.2112959528
C  C21  1  0.56529000  0.10811000  0.82239000  1.0 0.1103422822
C  C22  1  0.53885000  0.08495000  0.77115000  1.0 -0.1990813114
C  C23  1  0.55603000  0.12377000  0.71543000  1.0 0.100951292
C  C24  1  0.54429000  0.07051000  0.88329000  1.0 0.0559289107
C  C25  1  0.60277000  0.08983000  0.93987000  1.0 -0.0275564202
C  C26  1  0.49072000  0.09348000  0.86942000  1.0 -0.0093374032
C  C27  1  0.51663000  0.99717000  0.89193000  1.0 -0.0093374032
C  C28  1  0.77890000  0.91430000  0.10640000  1.0 0.1103422822
C  C29  1  0.72210000  0.83870000  0.18700000  1.0 -0.1178382096
C  C30  1  0.65830000  0.30170000  0.50180000  1.0 0.260961346
C  C31  1  0.69050000  0.32830000  0.41170000  1.0 -0.3307140385
C  C32  1  0.67730000  0.41110000  0.43320000  1.0 -0.3087939698
C  C33  1  0.72114000  0.37306000  0.64704000  1.0 0.2777412157
C  C34  1  0.71340000  0.43560000  0.69380000  1.0 -0.3087939698
C  C35  1  0.80780000  0.47900000  0.65250000  1.0 -0.3238716203
C  C36  1  0.71484000  0.18356000  0.67334000  1.0 0.2994585108
C  C37  1  0.76905000  0.11035000  0.71265000  1.0 -0.3542762775
C  C38  1  0.83000000  0.22980000  0.68300000  1.0 -0.3307140385
C  C39  1  0.69888000  0.00352000  0.94548000  1.0 0.260961346
C  C40  1  0.63630000  0.94750000  0.86530000  1.0 -0.3307140385
C  C41  1  0.69189000  0.06751000  0.83709000  1.0 -0.3366338225
C  C42  1  0.81260000  0.82260000  0.17880000  1.0 -0.3366338225
C  C43  1  0.99340000  0.18540000  0.69880000  1.0 0.0330402731
C  C44  1  0.00190000  0.15810000  0.76560000  1.0 -0.0911523238
C  C45  1  0.95050000  0.05450000  0.74820000  1.0 -0.0820401202
C  C46  1  0.93950000  0.08430000  0.68360000  1.0 -0.0093374032
C  C47  1  0.73440000  0.90300000  0.11640000  1.0 0.1607358973
C  C48  1  0.68750000  0.79010000  0.16760000  1.0 -0.2599080656
C  C49  1  0.75910000  0.82090000  0.10710000  1.0 -0.1354122687
C  C50  1  0.18921000  0.80619000  0.48111000  1.0 0.0904429141
C  C51  1  0.25478000  0.83662000  0.48958000  1.0 -0.2168581713
C  C52  1  0.28689000  0.90271000  0.48319000  1.0 0.1103422822
C  C53  1  0.24864000  0.93456000  0.46954000  1.0 -0.2112959528
C  C54  1  0.18320000  0.90120000  0.46190000  1.0 0.0904429141
C  C55  1  0.35956000  0.93664000  0.49046000  1.0 0.0478784429
C  C56  1  0.39263000  0.90737000  0.56043000  1.0 -0.0093374032
C  C57  1  0.37002000  0.92118000  0.44182000  1.0 -0.0175935634
C  C58  1  0.38015000  0.00985000  0.47375000  1.0 -0.0093374032
C  C59  1  0.17360000  0.94960000  0.80580000  1.0 0.0031108629
C  C60  1  0.14560000  0.95760000  0.74190000  1.0 -0.0820401202
C  C61  1  0.09282000  0.97638000  0.71092000  1.0 0.0478784429
C  C62  1  0.07470000  0.98790000  0.74920000  1.0 -0.0911523238
C  C63  1  0.10530000  0.97750000  0.81410000  1.0 0.0330402731
C  C64  1  0.06046000  0.98414000  0.63916000  1.0 0.0478784429
C  C65  1  0.03335000  0.91505000  0.63175000  1.0 -0.0275564202
C  C66  1  0.11439000  0.03321000  0.60499000  1.0 -0.0551514741
C  C67  1  0.00700000  0.00880000  0.61750000  1.0 -0.1178382096
C  C68  1  0.20690000  0.62750000  0.74130000  1.0 0.0712443959
C  C69  1  0.17110000  0.61170000  0.68480000  1.0 -0.2112959528
C  C70  1  0.10811000  0.56529000  0.67761000  1.0 0.1103422822
C  C71  1  0.08495000  0.53885000  0.72885000  1.0 -0.1990813114
C  C72  1  0.12377000  0.55603000  0.78457000  1.0 0.100951292
C  C73  1  0.07051000  0.54429000  0.61671000  1.0 0.0559289107
C  C74  1  0.08983000  0.60277000  0.56013000  1.0 -0.0275564202
C  C75  1  0.09348000  0.49072000  0.63058000  1.0 -0.0093374032
C  C76  1  0.99717000  0.51663000  0.60807000  1.0 -0.0093374032
C  C77  1  0.91430000  0.77890000  0.39360000  1.0 0.1103422822
C  C78  1  0.83870000  0.72210000  0.31300000  1.0 -0.1178382096
C  C79  1  0.30170000  0.65830000  0.99820000  1.0 0.2525039137
C  C80  1  0.32830000  0.69050000  0.08830000  1.0 -0.3307140385
C  C81  1  0.41110000  0.67730000  0.06680000  1.0 -0.3087939698
C  C82  1  0.37306000  0.72114000  0.85296000  1.0 0.2777412157
C  C83  1  0.43560000  0.71340000  0.80620000  1.0 -0.3087939698
C  C84  1  0.47900000  0.80780000  0.84750000  1.0 -0.3238716203
C  C85  1  0.18356000  0.71484000  0.82666000  1.0 0.2994585108
C  C86  1  0.11035000  0.76905000  0.78735000  1.0 -0.3550134976
C  C87  1  0.22980000  0.83000000  0.81700000  1.0 -0.3307140385
C  C88  1  0.00352000  0.69888000  0.55452000  1.0 0.260961346
C  C89  1  0.94750000  0.63630000  0.63470000  1.0 -0.3307140385
C  C90  1  0.06751000  0.69189000  0.66291000  1.0 -0.3366338225
C  C91  1  0.82260000  0.81260000  0.32120000  1.0 -0.3366338225
C  C92  1  0.18540000  0.99340000  0.80120000  1.0 0.0330402731
C  C93  1  0.15810000  0.00190000  0.73440000  1.0 -0.0911523238
C  C94  1  0.05450000  0.95050000  0.75180000  1.0 -0.0820401202
C  C95  1  0.08430000  0.93950000  0.81640000  1.0 -0.0093374032
C  C96  1  0.90300000  0.73440000  0.38360000  1.0 0.1607358973
C  C97  1  0.79010000  0.68750000  0.33240000  1.0 -0.2599080656
C  C98  1  0.82090000  0.75910000  0.39290000  1.0 -0.1354122687
C  C99  1  0.19381000  0.81079000  0.98111000  1.0 0.0904429141
C  C100  1  0.16338000  0.74522000  0.98958000  1.0 -0.2168581713
C  C101  1  0.09729000  0.71311000  0.98319000  1.0 0.1103422822
C  C102  1  0.06544000  0.75136000  0.96954000  1.0 -0.2112959528
C  C103  1  0.09880000  0.81680000  0.96190000  1.0 0.0904429141
C  C104  1  0.06336000  0.64044000  0.99046000  1.0 0.0478784429
C  C105  1  0.09263000  0.60737000  0.06043000  1.0 -0.0093374032
C  C106  1  0.07882000  0.62998000  0.94182000  1.0 -0.0175935634
C  C107  1  0.99015000  0.61985000  0.97375000  1.0 -0.0093374032
C  C108  1  0.05040000  0.82640000  0.30580000  1.0 0.0031108629
C  C109  1  0.04240000  0.85440000  0.24190000  1.0 -0.0820401202
C  C110  1  0.02362000  0.90718000  0.21092000  1.0 0.0478784429
C  C111  1  0.01210000  0.92530000  0.24920000  1.0 -0.0911523238
C  C112  1  0.02250000  0.89470000  0.31410000  1.0 0.0330402731
C  C113  1  0.01586000  0.93954000  0.13916000  1.0 0.0478784429
C  C114  1  0.08495000  0.96665000  0.13175000  1.0 -0.0275564202
C  C115  1  0.96679000  0.88561000  0.10499000  1.0 -0.0540126733
C  C116  1  0.99120000  0.99300000  0.11750000  1.0 -0.1140109826
C  C117  1  0.37250000  0.79310000  0.24130000  1.0 0.0712443959
C  C118  1  0.38830000  0.82890000  0.18480000  1.0 -0.2112959528
C  C119  1  0.43471000  0.89189000  0.17761000  1.0 0.1103422822
C  C120  1  0.46115000  0.91505000  0.22885000  1.0 -0.1990813114
C  C121  1  0.44397000  0.87623000  0.28457000  1.0 0.100951292
C  C122  1  0.45571000  0.92949000  0.11671000  1.0 0.0559289107
C  C123  1  0.39723000  0.91017000  0.06013000  1.0 -0.0275564202
C  C124  1  0.50928000  0.90652000  0.13058000  1.0 -0.0093374032
C  C125  1  0.48337000  0.00283000  0.10807000  1.0 -0.0093374032
C  C126  1  0.22110000  0.08570000  0.89360000  1.0 0.1103422822
C  C127  1  0.27790000  0.16130000  0.81300000  1.0 -0.1178382096
C  C128  1  0.34170000  0.69830000  0.49820000  1.0 0.2525039137
C  C129  1  0.30950000  0.67170000  0.58830000  1.0 -0.3307140385
C  C130  1  0.32270000  0.58890000  0.56680000  1.0 -0.3087939698
C  C131  1  0.27886000  0.62694000  0.35296000  1.0 0.2777412157
C  C132  1  0.28660000  0.56440000  0.30620000  1.0 -0.3087939698
C  C133  1  0.19220000  0.52100000  0.34750000  1.0 -0.3238716203
C  C134  1  0.28516000  0.81644000  0.32666000  1.0 0.2994585108
C  C135  1  0.23095000  0.88965000  0.28735000  1.0 -0.3550134976
C  C136  1  0.17000000  0.77020000  0.31700000  1.0 -0.3366338225
C  C137  1  0.30112000  0.99648000  0.05452000  1.0 0.260961346
C  C138  1  0.36370000  0.05250000  0.13470000  1.0 -0.3307140385
C  C139  1  0.30811000  0.93249000  0.16291000  1.0 -0.3366338225
C  C140  1  0.18740000  0.17740000  0.82120000  1.0 -0.3366338225
C  C141  1  0.00660000  0.81460000  0.30120000  1.0 0.0330402731
C  C142  1  0.99810000  0.84190000  0.23440000  1.0 -0.0911523238
C  C143  1  0.04950000  0.94550000  0.25180000  1.0 -0.0820401202
C  C144  1  0.06050000  0.91570000  0.31640000  1.0 -0.0093374032
C  C145  1  0.26560000  0.09700000  0.88360000  1.0 0.1607358973
C  C146  1  0.31250000  0.20990000  0.83240000  1.0 -0.2599080656
C  C147  1  0.24090000  0.17910000  0.89290000  1.0 -0.1354122687
C  C148  1  0.81079000  0.19381000  0.51889000  1.0 0.0904429141
C  C149  1  0.74522000  0.16338000  0.51042000  1.0 -0.2168581713
C  C150  1  0.71311000  0.09729000  0.51681000  1.0 0.1103422822
C  C151  1  0.75136000  0.06544000  0.53046000  1.0 -0.2112959528
C  C152  1  0.81680000  0.09880000  0.53810000  1.0 0.0904429141
C  C153  1  0.64044000  0.06336000  0.50954000  1.0 0.0478784429
C  C154  1  0.60737000  0.09263000  0.43957000  1.0 -0.0093374032
C  C155  1  0.62998000  0.07882000  0.55818000  1.0 -0.0175935634
C  C156  1  0.61985000  0.99015000  0.52625000  1.0 -0.0093374032
C  C157  1  0.82640000  0.05040000  0.19420000  1.0 0.0031108629
C  C158  1  0.85440000  0.04240000  0.25810000  1.0 -0.0820401202
C  C159  1  0.90718000  0.02362000  0.28908000  1.0 0.0478784429
C  C160  1  0.92530000  0.01210000  0.25080000  1.0 -0.0911523238
C  C161  1  0.89470000  0.02250000  0.18590000  1.0 0.0330402731
C  C162  1  0.93954000  0.01586000  0.36084000  1.0 0.0478784429
C  C163  1  0.96665000  0.08495000  0.36825000  1.0 -0.0275564202
C  C164  1  0.88561000  0.96679000  0.39501000  1.0 -0.0540126733
C  C165  1  0.99300000  0.99120000  0.38250000  1.0 -0.1178382096
C  C166  1  0.79310000  0.37250000  0.25870000  1.0 0.0712443959
C  C167  1  0.82890000  0.38830000  0.31520000  1.0 -0.2112959528
C  C168  1  0.89189000  0.43471000  0.32239000  1.0 0.1103422822
C  C169  1  0.91505000  0.46115000  0.27115000  1.0 -0.1990813114
C  C170  1  0.87623000  0.44397000  0.21543000  1.0 0.100951292
C  C171  1  0.92949000  0.45571000  0.38329000  1.0 0.0559289107
C  C172  1  0.91017000  0.39723000  0.43987000  1.0 -0.0275564202
C  C173  1  0.90652000  0.50928000  0.36942000  1.0 -0.0093374032
C  C174  1  0.00283000  0.48337000  0.39193000  1.0 -0.0093374032
C  C175  1  0.08570000  0.22110000  0.60640000  1.0 0.1103422822
C  C176  1  0.16130000  0.27790000  0.68700000  1.0 -0.1178382096
C  C177  1  0.69830000  0.34170000  0.00180000  1.0 0.2525039137
C  C178  1  0.67170000  0.30950000  0.91170000  1.0 -0.3307140385
C  C179  1  0.58890000  0.32270000  0.93320000  1.0 -0.3046315987
C  C180  1  0.62694000  0.27886000  0.14704000  1.0 0.2777412157
C  C181  1  0.56440000  0.28660000  0.19380000  1.0 -0.3087939698
C  C182  1  0.52100000  0.19220000  0.15250000  1.0 -0.3238716203
C  C183  1  0.81644000  0.28516000  0.17334000  1.0 0.2994585108
C  C184  1  0.88965000  0.23095000  0.21265000  1.0 -0.3542762775
C  C185  1  0.77020000  0.17000000  0.18300000  1.0 -0.3307140385
C  C186  1  0.99648000  0.30112000  0.44548000  1.0 0.260961346
C  C187  1  0.05250000  0.36370000  0.36530000  1.0 -0.3307140385
C  C188  1  0.93249000  0.30811000  0.33709000  1.0 -0.3366338225
C  C189  1  0.17740000  0.18740000  0.67880000  1.0 -0.3366338225
C  C190  1  0.81460000  0.00660000  0.19880000  1.0 0.0330402731
C  C191  1  0.84190000  0.99810000  0.26560000  1.0 -0.0911523238
C  C192  1  0.94550000  0.04950000  0.24820000  1.0 -0.0820401202
C  C193  1  0.91570000  0.06050000  0.18360000  1.0 -0.0093374032
C  C194  1  0.09700000  0.26560000  0.61640000  1.0 0.1607358973
C  C195  1  0.20990000  0.31250000  0.66760000  1.0 -0.2599080656
C  C196  1  0.17910000  0.24090000  0.60710000  1.0 -0.1354122687
N  N1  1  0.83837000  0.15269000  0.03367000  1.0 -0.2112959528
N  N2  1  0.95788000  0.15212000  0.65739000  1.0 -0.1990813114
N  N3  1  0.59972000  0.18408000  0.70840000  1.0 -0.2599080656
N  N4  1  0.77260000  0.86080000  0.15610000  1.0 0.1817304265
N  N5  1  0.66850000  0.34030000  0.44840000  1.0 0.0559289107
N  N6  1  0.74697000  0.42643000  0.66447000  1.0 0.0401395383
N  N7  1  0.76834000  0.17546000  0.68924000  1.0 0.0401395383
N  N8  1  0.67334000  0.00606000  0.88539000  1.0 0.0401395383
N  N9  1  0.72500000  0.84200000  0.12350000  1.0 0.1909644153
N  N10  1  0.15269000  0.83837000  0.46633000  1.0 -0.2112959528
N  N11  1  0.15212000  0.95788000  0.84261000  1.0 -0.1990813114
N  N12  1  0.18408000  0.59972000  0.79160000  1.0 -0.2599080656
N  N13  1  0.86080000  0.77260000  0.34390000  1.0 0.1817304265
N  N14  1  0.34030000  0.66850000  0.05160000  1.0 0.0559289107
N  N15  1  0.42643000  0.74697000  0.83553000  1.0 0.0401395383
N  N16  1  0.17546000  0.76834000  0.81076000  1.0 0.0401395383
N  N17  1  0.00606000  0.67334000  0.61461000  1.0 0.0401395383
N  N18  1  0.84200000  0.72500000  0.37650000  1.0 0.1909644153
N  N19  1  0.16163000  0.84731000  0.96633000  1.0 -0.2112959528
N  N20  1  0.04212000  0.84788000  0.34261000  1.0 -0.1990813114
N  N21  1  0.40028000  0.81592000  0.29160000  1.0 -0.2599080656
N  N22  1  0.22740000  0.13920000  0.84390000  1.0 0.1817304265
N  N23  1  0.33150000  0.65970000  0.55160000  1.0 0.0559289107
N  N24  1  0.25303000  0.57357000  0.33553000  1.0 0.0401395383
N  N25  1  0.23166000  0.82454000  0.31076000  1.0 0.0401395383
N  N26  1  0.32666000  0.99394000  0.11461000  1.0 0.0401395383
N  N27  1  0.27500000  0.15800000  0.87650000  1.0 0.1909644153
N  N28  1  0.84731000  0.16163000  0.53367000  1.0 -0.2112959528
N  N29  1  0.84788000  0.04212000  0.15739000  1.0 -0.1990813114
N  N30  1  0.81592000  0.40028000  0.20840000  1.0 -0.2599080656
N  N31  1  0.13920000  0.22740000  0.65610000  1.0 0.1817304265
N  N32  1  0.65970000  0.33150000  0.94840000  1.0 0.0559289107
N  N33  1  0.57357000  0.25303000  0.16447000  1.0 0.0401395383
N  N34  1  0.82454000  0.23166000  0.18924000  1.0 0.0401395383
N  N35  1  0.99394000  0.32666000  0.38539000  1.0 0.0401395383
N  N36  1  0.15800000  0.27500000  0.62350000  1.0 0.1909644153
O  O1  1  0.80734000  0.47228000  0.83466000  1.0 -0.6495640729
O  O2  1  0.84064000  0.57588000  0.86948000  1.0 -0.5727339465
O  O3  1  0.93547000  0.56989000  0.84768000  1.0 -0.8543639559
O  O4  1  0.93155000  0.48827000  0.79280000  1.0 -0.6495640729
O  O5  1  0.03455000  0.60007000  0.80512000  1.0 -0.6900287349
O  O6  1  0.96037000  0.51641000  0.10260000  1.0 -0.8797469569
O  O7  1  0.57902000  0.16548000  0.58508000  1.0 -0.7365109999
O  O8  1  0.84283000  0.45979000  0.96384000  1.0 -0.8723785062
O  O9  1  0.85724000  0.54744000  0.01649000  1.0 -0.5786308128
O  O10  1  0.07368000  0.21654000  0.97465000  1.0 -0.5991960594
O  O11  1  0.02463000  0.14983000  0.07638000  1.0 -0.6632259864
O  O12  1  0.11086000  0.11582000  0.07038000  1.0 -0.8614097241
O  O13  1  0.18615000  0.17893000  0.98512000  1.0 -0.6495640729
O  O14  1  0.22113000  0.09509000  0.09853000  1.0 -0.6397113147
O  O15  1  0.85294000  0.94622000  0.01318000  1.0 -0.8907073516
O  O16  1  0.82123000  0.04969000  0.91271000  1.0 -0.6397113147
O  O17  1  0.95178000  0.11730000  0.96124000  1.0 -0.8614097241
O  O18  1  0.86760000  0.04848000  0.03804000  1.0 -0.7450448055
O  O19  1  0.61656000  0.95242000  0.03323000  1.0 -0.8797469569
O  O20  1  0.54215000  0.85757000  0.97335000  1.0 -0.6840590615
O  O21  1  0.55946000  0.82070000  0.10029000  1.0 -0.6495640729
O  O22  1  0.55194000  0.15690000  0.98165000  1.0 -0.8723785062
O  O23  1  0.60610000  0.14810000  0.11230000  1.0 -0.6696091968
O  O24  1  0.68015000  0.17605000  0.04103000  1.0 -0.6696091968
O  O25  1  0.62800000  0.04832000  0.11734000  1.0 -0.8723785062
O  O26  1  0.71879000  0.05297000  0.07559000  1.0 -0.7239429135
O  O27  1  0.66666667  0.94633000  0.16521000  1.0 -0.6632259864
O  O28  1  0.93203000  0.46201000  0.92399000  1.0 -0.6397113147
O  O29  1  0.94853000  0.43587000  0.05807000  1.0 -0.5991960594
O  O30  1  0.04692000  0.44760000  0.02350000  1.0 -0.6095553416
O  O31  1  0.91248000  0.00360000  0.93219000  1.0 -0.6169089455
O  O32  1  0.04674000  0.08984000  0.96374000  1.0 -0.5991960594
O  O33  1  0.01725000  0.97235000  0.94950000  1.0 -0.5991960594
O  O34  1  0.58678000  0.05938000  0.99963000  1.0 -0.5991960594
O  O35  1  0.46087000  0.06389000  0.91937000  1.0 -0.6284473782
O  O36  1  0.49592000  0.95746000  0.94850000  1.0 -0.5991960594
O  O37  1  0.64075000  0.30945000  0.53629000  1.0 -0.4471444342
O  O38  1  0.66979000  0.32779000  0.65604000  1.0 -0.4949372787
O  O39  1  0.71180000  0.23720000  0.65329000  1.0 -0.4593233693
O  O40  1  0.73587000  0.05255000  0.96562000  1.0 -0.4471444342
O  O41  1  0.75550000  0.95014000  0.08498000  1.0 -0.190531962
O  O42  1  0.53415000  0.25585000  0.58715000  1.0 -0.6284473782
O  O43  1  0.47228000  0.80734000  0.66534000  1.0 -0.6495640729
O  O44  1  0.57588000  0.84064000  0.63052000  1.0 -0.5727339465
O  O45  1  0.56989000  0.93547000  0.65232000  1.0 -0.8543639559
O  O46  1  0.48827000  0.93155000  0.70720000  1.0 -0.6495640729
O  O47  1  0.60007000  0.03455000  0.69488000  1.0 -0.6900287349
O  O48  1  0.51641000  0.96037000  0.39740000  1.0 -0.8797469569
O  O49  1  0.16548000  0.57902000  0.91492000  1.0 -0.7365109999
O  O50  1  0.45979000  0.84283000  0.53616000  1.0 -0.8723785062
O  O51  1  0.54744000  0.85724000  0.48351000  1.0 -0.5786308128
O  O52  1  0.21654000  0.07368000  0.52535000  1.0 -0.5991960594
O  O53  1  0.14983000  0.02463000  0.42362000  1.0 -0.6632259864
O  O54  1  0.11582000  0.11086000  0.42962000  1.0 -0.8614097241
O  O55  1  0.17893000  0.18615000  0.51488000  1.0 -0.6495640729
O  O56  1  0.09509000  0.22113000  0.40147000  1.0 -0.6397113147
O  O57  1  0.94622000  0.85294000  0.48682000  1.0 -0.8907073516
O  O58  1  0.04969000  0.82123000  0.58729000  1.0 -0.6397113147
O  O59  1  0.11730000  0.95178000  0.53876000  1.0 -0.8614097241
O  O60  1  0.04848000  0.86760000  0.46196000  1.0 -0.7450448055
O  O61  1  0.95242000  0.61656000  0.46677000  1.0 -0.8797469569
O  O62  1  0.85757000  0.54215000  0.52665000  1.0 -0.6840590615
O  O63  1  0.82070000  0.55946000  0.39971000  1.0 -0.6495640729
O  O64  1  0.15690000  0.55194000  0.51835000  1.0 -0.8723785062
O  O65  1  0.14810000  0.60610000  0.38770000  1.0 -0.6696091968
O  O66  1  0.17605000  0.68015000  0.45897000  1.0 -0.6696091968
O  O67  1  0.04832000  0.62800000  0.38266000  1.0 -0.8797469569
O  O68  1  0.05297000  0.71879000  0.42441000  1.0 -0.7239429135
O  O69  1  0.94633000  0.66666667  0.33479000  1.0 -0.6632259864
O  O70  1  0.46201000  0.93203000  0.57601000  1.0 -0.6397113147
O  O71  1  0.43587000  0.94853000  0.44193000  1.0 -0.5991960594
O  O72  1  0.44760000  0.04692000  0.47650000  1.0 -0.6095553416
O  O73  1  0.00360000  0.91248000  0.56781000  1.0 -0.6169089455
O  O74  1  0.08984000  0.04674000  0.53626000  1.0 -0.5991960594
O  O75  1  0.97235000  0.01725000  0.55050000  1.0 -0.5991960594
O  O76  1  0.05938000  0.58678000  0.50037000  1.0 -0.5991960594
O  O77  1  0.06389000  0.46087000  0.58063000  1.0 -0.6284473782
O  O78  1  0.95746000  0.49592000  0.55150000  1.0 -0.5991960594
O  O79  1  0.30945000  0.64075000  0.96371000  1.0 -0.4471444342
O  O80  1  0.32779000  0.66979000  0.84396000  1.0 -0.4958555479
O  O81  1  0.23720000  0.71180000  0.84671000  1.0 -0.4593233693
O  O82  1  0.05255000  0.73587000  0.53438000  1.0 -0.4471444342
O  O83  1  0.95014000  0.75550000  0.41502000  1.0 -0.190531962
O  O84  1  0.25585000  0.53415000  0.91285000  1.0 -0.6284473782
O  O85  1  0.19266000  0.52772000  0.16534000  1.0 -0.6495640729
O  O86  1  0.15936000  0.42412000  0.13052000  1.0 -0.5727339465
O  O87  1  0.06453000  0.43011000  0.15232000  1.0 -0.8543639559
O  O88  1  0.06845000  0.51173000  0.20720000  1.0 -0.6495640729
O  O89  1  0.96545000  0.39993000  0.19488000  1.0 -0.6900287349
O  O90  1  0.03963000  0.48359000  0.89740000  1.0 -0.8797469569
O  O91  1  0.42098000  0.83452000  0.41492000  1.0 -0.7365109999
O  O92  1  0.15717000  0.54021000  0.03616000  1.0 -0.8723785062
O  O93  1  0.14276000  0.45256000  0.98351000  1.0 -0.5786308128
O  O94  1  0.92632000  0.78346000  0.02535000  1.0 -0.5991960594
O  O95  1  0.97537000  0.85017000  0.92362000  1.0 -0.6632259864
O  O96  1  0.88914000  0.88418000  0.92962000  1.0 -0.8614097241
O  O97  1  0.81385000  0.82107000  0.01488000  1.0 -0.6495640729
O  O98  1  0.77887000  0.90491000  0.90147000  1.0 -0.6397113147
O  O99  1  0.14706000  0.05378000  0.98682000  1.0 -0.8907073516
O  O100  1  0.17877000  0.95031000  0.08729000  1.0 -0.6397113147
O  O101  1  0.04822000  0.88270000  0.03876000  1.0 -0.8614097241
O  O102  1  0.13240000  0.95152000  0.96196000  1.0 -0.7450448055
O  O103  1  0.38344000  0.04758000  0.96677000  1.0 -0.8797469569
O  O104  1  0.45785000  0.14243000  0.02665000  1.0 -0.6840590615
O  O105  1  0.44054000  0.17930000  0.89971000  1.0 -0.6495640729
O  O106  1  0.44806000  0.84310000  0.01835000  1.0 -0.8723785062
O  O107  1  0.39390000  0.85190000  0.88770000  1.0 -0.6696091968
O  O108  1  0.31985000  0.82395000  0.95897000  1.0 -0.6696091968
O  O109  1  0.37200000  0.95168000  0.88266000  1.0 -0.8797469569
O  O110  1  0.28121000  0.94703000  0.92441000  1.0 -0.7239429135
O  O111  1  0.33333333  0.05367000  0.83479000  1.0 -0.6632259864
O  O112  1  0.06797000  0.53799000  0.07601000  1.0 -0.6284473782
O  O113  1  0.05147000  0.56413000  0.94193000  1.0 -0.5991960594
O  O114  1  0.95308000  0.55240000  0.97650000  1.0 -0.6095553416
O  O115  1  0.08752000  0.99640000  0.06781000  1.0 -0.6169089455
O  O116  1  0.95326000  0.91016000  0.03626000  1.0 -0.5991960594
O  O117  1  0.98275000  0.02765000  0.05050000  1.0 -0.5991960594
O  O118  1  0.41322000  0.94062000  0.00037000  1.0 -0.5991960594
O  O119  1  0.53913000  0.93611000  0.08063000  1.0 -0.6284473782
O  O120  1  0.50408000  0.04254000  0.05150000  1.0 -0.5991960594
O  O121  1  0.35925000  0.69055000  0.46371000  1.0 -0.4471444342
O  O122  1  0.33021000  0.67221000  0.34396000  1.0 -0.4949372787
O  O123  1  0.28820000  0.76280000  0.34671000  1.0 -0.4593233693
O  O124  1  0.26413000  0.94745000  0.03438000  1.0 -0.4471444342
O  O125  1  0.24450000  0.04986000  0.91502000  1.0 -0.190531962
O  O126  1  0.46585000  0.74415000  0.41285000  1.0 -0.6284473782
O  O127  1  0.52772000  0.19266000  0.33466000  1.0 -0.6495640729
O  O128  1  0.42412000  0.15936000  0.36948000  1.0 -0.5727339465
O  O129  1  0.43011000  0.06453000  0.34768000  1.0 -0.8543639559
O  O130  1  0.51173000  0.06845000  0.29280000  1.0 -0.6495640729
O  O131  1  0.39993000  0.96545000  0.30512000  1.0 -0.6900287349
O  O132  1  0.48359000  0.03963000  0.60260000  1.0 -0.8797469569
O  O133  1  0.83452000  0.42098000  0.08508000  1.0 -0.7365109999
O  O134  1  0.54021000  0.15717000  0.46384000  1.0 -0.8723785062
O  O135  1  0.45256000  0.14276000  0.51649000  1.0 -0.5786308128
O  O136  1  0.78346000  0.92632000  0.47465000  1.0 -0.5991960594
O  O137  1  0.85017000  0.97537000  0.57638000  1.0 -0.6632259864
O  O138  1  0.88418000  0.88914000  0.57038000  1.0 -0.8614097241
O  O139  1  0.82107000  0.81385000  0.48512000  1.0 -0.6495640729
O  O140  1  0.90491000  0.77887000  0.59853000  1.0 -0.6397113147
O  O141  1  0.05378000  0.14706000  0.51318000  1.0 -0.8907073516
O  O142  1  0.95031000  0.17877000  0.41271000  1.0 -0.6397113147
O  O143  1  0.88270000  0.04822000  0.46124000  1.0 -0.8614097241
O  O144  1  0.95152000  0.13240000  0.53804000  1.0 -0.7450448055
O  O145  1  0.04758000  0.38344000  0.53323000  1.0 -0.8797469569
O  O146  1  0.14243000  0.45785000  0.47335000  1.0 -0.6840590615
O  O147  1  0.17930000  0.44054000  0.60029000  1.0 -0.6495640729
O  O148  1  0.84310000  0.44806000  0.48165000  1.0 -0.8723785062
O  O149  1  0.85190000  0.39390000  0.61230000  1.0 -0.6696091968
O  O150  1  0.82395000  0.31985000  0.54103000  1.0 -0.6696091968
O  O151  1  0.95168000  0.37200000  0.61734000  1.0 -0.8797469569
O  O152  1  0.94703000  0.28121000  0.57559000  1.0 -0.7239429135
O  O153  1  0.05367000  0.33333333  0.66521000  1.0 -0.6632259864
O  O154  1  0.53799000  0.06797000  0.42399000  1.0 -0.6397113147
O  O155  1  0.56413000  0.05147000  0.55807000  1.0 -0.5991960594
O  O156  1  0.55240000  0.95308000  0.52350000  1.0 -0.6095553416
O  O157  1  0.99640000  0.08752000  0.43219000  1.0 -0.6169089455
O  O158  1  0.91016000  0.95326000  0.46374000  1.0 -0.5991960594
O  O159  1  0.02765000  0.98275000  0.44950000  1.0 -0.5991960594
O  O160  1  0.94062000  0.41322000  0.49963000  1.0 -0.5991960594
O  O161  1  0.93611000  0.53913000  0.41937000  1.0 -0.6284473782
O  O162  1  0.04254000  0.50408000  0.44850000  1.0 -0.5991960594
O  O163  1  0.69055000  0.35925000  0.03629000  1.0 -0.4471444342
O  O164  1  0.67221000  0.33021000  0.15604000  1.0 -0.4949372787
O  O165  1  0.76280000  0.28820000  0.15329000  1.0 -0.4593233693
O  O166  1  0.94745000  0.26413000  0.46562000  1.0 -0.4471444342
O  O167  1  0.04986000  0.24450000  0.58498000  1.0 -0.190531962
O  O168  1  0.74415000  0.46585000  0.08715000  1.0 -0.6284473782
