# DDEC6 charges by PACMAN v1.1 (https://github.com/mtap-research/PACMAN-charge/)
data_GEDRUE_FSR_pacman
_symmetry_space_group_name_H-M   'P 1'
_cell_length_a   16.10880000
_cell_length_b   16.10880000
_cell_length_c   13.24740000
_cell_angle_alpha   80.50520000
_cell_angle_beta   99.49480000
_cell_angle_gamma   126.99400000
_symmetry_Int_Tables_number   1
_chemical_formula_structural   NdH16C20NO8
_chemical_formula_sum   'Nd4 H64 C80 N4 O32'
_cell_volume   2698.56946257
_cell_formula_units_Z   4
loop_
 _symmetry_equiv_pos_site_id
 _symmetry_equiv_pos_as_xyz
  1  'x, y, z'
loop_
 _atom_site_type_symbol
 _atom_site_label
 _atom_site_symmetry_multiplicity
 _atom_site_fract_x
 _atom_site_fract_y
 _atom_site_fract_z
 _atom_site_occupancy
 _atom_site_charge
Nd  Nd1  1  0.89417000  0.53129000  0.45332000  1.0 2.0343269836
Nd  Nd2  1  0.53129000  0.89417000  0.04668000  1.0 2.0343269836
Nd  Nd3  1  0.10583000  0.46871000  0.54668000  1.0 2.0343269836
Nd  Nd4  1  0.46871000  0.10583000  0.95332000  1.0 2.0343269836
H  H1  1  0.68270000  0.61670000  0.58590000  1.0 0.1303899865
H  H2  1  0.61670000  0.68270000  0.91410000  1.0 0.1303899865
H  H3  1  0.31730000  0.38330000  0.41410000  1.0 0.1303899865
H  H4  1  0.38330000  0.31730000  0.08590000  1.0 0.1303899865
H  H5  1  0.64640000  0.72180000  0.63380000  1.0 0.1303899865
H  H6  1  0.72180000  0.64640000  0.86620000  1.0 0.1303899865
H  H7  1  0.35360000  0.27820000  0.36620000  1.0 0.1303899865
H  H8  1  0.27820000  0.35360000  0.13380000  1.0 0.1303899865
H  H9  1  0.94380000  0.96840000  0.60640000  1.0 0.1249897238
H  H10  1  0.96840000  0.94380000  0.89360000  1.0 0.1249897238
H  H11  1  0.05620000  0.03160000  0.39360000  1.0 0.1249897238
H  H12  1  0.03160000  0.05620000  0.10640000  1.0 0.1249897238
H  H13  1  0.97840000  0.86480000  0.55190000  1.0 0.1303899865
H  H14  1  0.86480000  0.97840000  0.94810000  1.0 0.1303899865
H  H15  1  0.02160000  0.13520000  0.44810000  1.0 0.1303899865
H  H16  1  0.13520000  0.02160000  0.05190000  1.0 0.1303899865
H  H17  1  0.69400000  0.88200000  0.65900000  1.0 0.098666763
H  H18  1  0.88200000  0.69400000  0.84100000  1.0 0.098666763
H  H19  1  0.30600000  0.11800000  0.34100000  1.0 0.098666763
H  H20  1  0.11800000  0.30600000  0.15900000  1.0 0.098666763
H  H21  1  0.88160000  0.20000000  0.57500000  1.0 0.1438764613
H  H22  1  0.20000000  0.88160000  0.92500000  1.0 0.1438764613
H  H23  1  0.11840000  0.80000000  0.42500000  1.0 0.1438764613
H  H24  1  0.80000000  0.11840000  0.07500000  1.0 0.1438764613
H  H25  1  0.68560000  0.97200000  0.77480000  1.0 0.1303899865
H  H26  1  0.97200000  0.68560000  0.72520000  1.0 0.1303899865
H  H27  1  0.31440000  0.02800000  0.22520000  1.0 0.1303899865
H  H28  1  0.02800000  0.31440000  0.27480000  1.0 0.1303899865
H  H29  1  0.68120000  0.21920000  0.69520000  1.0 0.1438764613
H  H30  1  0.21920000  0.68120000  0.80480000  1.0 0.1438764613
H  H31  1  0.31880000  0.78080000  0.30480000  1.0 0.1438764613
H  H32  1  0.78080000  0.31880000  0.19520000  1.0 0.1438764613
H  H33  1  0.96490000  0.78630000  0.30190000  1.0 0.1096413181
H  H34  1  0.78630000  0.96490000  0.19810000  1.0 0.1096413181
H  H35  1  0.03510000  0.21370000  0.69810000  1.0 0.1096413181
H  H36  1  0.21370000  0.03510000  0.80190000  1.0 0.1096413181
H  H37  1  0.84750000  0.69970000  0.26860000  1.0 0.1096413181
H  H38  1  0.69970000  0.84750000  0.23140000  1.0 0.1096413181
H  H39  1  0.15250000  0.30030000  0.73140000  1.0 0.1096413181
H  H40  1  0.30030000  0.15250000  0.76860000  1.0 0.1096413181
H  H41  1  0.87490000  0.72710000  0.10810000  1.0 0.1096413181
H  H42  1  0.72710000  0.87490000  0.39190000  1.0 0.1096413181
H  H43  1  0.12510000  0.27290000  0.89190000  1.0 0.1096413181
H  H44  1  0.27290000  0.12510000  0.60810000  1.0 0.1096413181
H  H45  1  0.96640000  0.83980000  0.14150000  1.0 0.1096413181
H  H46  1  0.83980000  0.96640000  0.35850000  1.0 0.1096413181
H  H47  1  0.03360000  0.16020000  0.85850000  1.0 0.1096413181
H  H48  1  0.16020000  0.03360000  0.64150000  1.0 0.1096413181
H  H49  1  0.01310000  0.74170000  0.06080000  1.0 0.1096413181
H  H50  1  0.74170000  0.01310000  0.43920000  1.0 0.1096413181
H  H51  1  0.98690000  0.25830000  0.93920000  1.0 0.1096413181
H  H52  1  0.25830000  0.98690000  0.56080000  1.0 0.1096413181
H  H53  1  0.08790000  0.80750000  0.15390000  1.0 0.1096413181
H  H54  1  0.80750000  0.08790000  0.34610000  1.0 0.1096413181
H  H55  1  0.91210000  0.19250000  0.84610000  1.0 0.1096413181
H  H56  1  0.19250000  0.91210000  0.65390000  1.0 0.1096413181
H  H57  1  0.04160000  0.64420000  0.22690000  1.0 0.098666763
H  H58  1  0.64420000  0.04160000  0.27310000  1.0 0.098666763
H  H59  1  0.95840000  0.35580000  0.77310000  1.0 0.098666763
H  H60  1  0.35580000  0.95840000  0.72690000  1.0 0.098666763
H  H61  1  0.93100000  0.58500000  0.16450000  1.0 0.1096413181
H  H62  1  0.58500000  0.93100000  0.33550000  1.0 0.1096413181
H  H63  1  0.06900000  0.41500000  0.83550000  1.0 0.1096413181
H  H64  1  0.41500000  0.06900000  0.66450000  1.0 0.1096413181
C  C1  1  0.85500000  0.66320000  0.52070000  1.0 0.5461937915
C  C2  1  0.66320000  0.85500000  0.97930000  1.0 0.5461937915
C  C3  1  0.14500000  0.33680000  0.47930000  1.0 0.5461937915
C  C4  1  0.33680000  0.14500000  0.02070000  1.0 0.5461937915
C  C5  1  0.83400000  0.72980000  0.56110000  1.0 -0.0158361737
C  C6  1  0.72980000  0.83400000  0.93890000  1.0 -0.0158361737
C  C7  1  0.16600000  0.27020000  0.43890000  1.0 -0.0158361737
C  C8  1  0.27020000  0.16600000  0.06110000  1.0 -0.0158361737
C  C9  1  0.73490000  0.68790000  0.58800000  1.0 -0.0946412887
C  C10  1  0.68790000  0.73490000  0.91200000  1.0 -0.0946412887
C  C11  1  0.26510000  0.31210000  0.41200000  1.0 -0.0946412887
C  C12  1  0.31210000  0.26510000  0.08800000  1.0 -0.0946412887
C  C13  1  0.71340000  0.75060000  0.61760000  1.0 -0.1501213629
C  C14  1  0.75060000  0.71340000  0.88240000  1.0 -0.1501213629
C  C15  1  0.28660000  0.24940000  0.38240000  1.0 -0.1501213629
C  C16  1  0.24940000  0.28660000  0.11760000  1.0 -0.1501213629
C  C17  1  0.79030000  0.85610000  0.62360000  1.0 0.0667531099
C  C18  1  0.85610000  0.79030000  0.87640000  1.0 0.0667531099
C  C19  1  0.20970000  0.14390000  0.37640000  1.0 0.0667531099
C  C20  1  0.14390000  0.20970000  0.12360000  1.0 0.0667531099
C  C21  1  0.89070000  0.89790000  0.60030000  1.0 -0.1327753086
C  C22  1  0.89790000  0.89070000  0.89970000  1.0 -0.1327753086
C  C23  1  0.10930000  0.10210000  0.39970000  1.0 -0.1327753086
C  C24  1  0.10210000  0.10930000  0.10030000  1.0 -0.1327753086
C  C25  1  0.91160000  0.83580000  0.56860000  1.0 -0.1012022887
C  C26  1  0.83580000  0.91160000  0.93140000  1.0 -0.1012022887
C  C27  1  0.08840000  0.16420000  0.43140000  1.0 -0.1012022887
C  C28  1  0.16420000  0.08840000  0.06860000  1.0 -0.1012022887
C  C29  1  0.76270000  0.92090000  0.64890000  1.0 0.0667531099
C  C30  1  0.92090000  0.76270000  0.85110000  1.0 0.0667531099
C  C31  1  0.23730000  0.07910000  0.35110000  1.0 0.0667531099
C  C32  1  0.07910000  0.23730000  0.14890000  1.0 0.0667531099
C  C33  1  0.83030000  0.32990000  0.56650000  1.0 0.6136457454
C  C34  1  0.32990000  0.83030000  0.93350000  1.0 0.6136457454
C  C35  1  0.16970000  0.67010000  0.43350000  1.0 0.6136457454
C  C36  1  0.67010000  0.16970000  0.06650000  1.0 0.6136457454
C  C37  1  0.78750000  0.22570000  0.62520000  1.0 -0.0072684913
C  C38  1  0.22570000  0.78750000  0.87480000  1.0 -0.0072684913
C  C39  1  0.21250000  0.77430000  0.37480000  1.0 -0.0072684913
C  C40  1  0.77430000  0.21250000  0.12520000  1.0 -0.0072684913
C  C41  1  0.82700000  0.17100000  0.61590000  1.0 -0.1701508407
C  C42  1  0.17100000  0.82700000  0.88410000  1.0 -0.1701508407
C  C43  1  0.17300000  0.82900000  0.38410000  1.0 -0.1701508407
C  C44  1  0.82900000  0.17300000  0.11590000  1.0 -0.1701508407
C  C45  1  0.78480000  0.07260000  0.66800000  1.0 0.1904047411
C  C46  1  0.07260000  0.78480000  0.83200000  1.0 0.1904047411
C  C47  1  0.21520000  0.92740000  0.33200000  1.0 0.1904047411
C  C48  1  0.92740000  0.21520000  0.16800000  1.0 0.1904047411
C  C49  1  0.71030000  0.03490000  0.73580000  1.0 -0.187059693
C  C50  1  0.03490000  0.71030000  0.76420000  1.0 -0.187059693
C  C51  1  0.28970000  0.96510000  0.26420000  1.0 -0.187059693
C  C52  1  0.96510000  0.28970000  0.23580000  1.0 -0.187059693
C  C53  1  0.67210000  0.09030000  0.74620000  1.0 -0.0072684913
C  C54  1  0.09030000  0.67210000  0.75380000  1.0 -0.0072684913
C  C55  1  0.32790000  0.90970000  0.25380000  1.0 -0.0072684913
C  C56  1  0.90970000  0.32790000  0.24620000  1.0 -0.0072684913
C  C57  1  0.70900000  0.18360000  0.69000000  1.0 -0.1092291996
C  C58  1  0.18360000  0.70900000  0.81000000  1.0 -0.1092291996
C  C59  1  0.29100000  0.81640000  0.31000000  1.0 -0.1092291996
C  C60  1  0.81640000  0.29100000  0.19000000  1.0 -0.1092291996
C  C61  1  0.58900000  0.04660000  0.82010000  1.0 0.6269888412
C  C62  1  0.04660000  0.58900000  0.67990000  1.0 0.6269888412
C  C63  1  0.41100000  0.95340000  0.17990000  1.0 0.6269888412
C  C64  1  0.95340000  0.41100000  0.32010000  1.0 0.6269888412
C  C65  1  0.91900000  0.72880000  0.25880000  1.0 -0.0072684913
C  C66  1  0.72880000  0.91900000  0.24120000  1.0 -0.0072684913
C  C67  1  0.08100000  0.27120000  0.74120000  1.0 -0.0072684913
C  C68  1  0.27120000  0.08100000  0.75880000  1.0 -0.0072684913
C  C69  1  0.93830000  0.76650000  0.15260000  1.0 -0.1701508407
C  C70  1  0.76650000  0.93830000  0.34740000  1.0 -0.1701508407
C  C71  1  0.06170000  0.23350000  0.84740000  1.0 -0.1701508407
C  C72  1  0.23350000  0.06170000  0.65260000  1.0 -0.1701508407
C  C73  1  0.01750000  0.75010000  0.13270000  1.0 -0.187059693
C  C74  1  0.75010000  0.01750000  0.36730000  1.0 -0.187059693
C  C75  1  0.98250000  0.24990000  0.86730000  1.0 -0.187059693
C  C76  1  0.24990000  0.98250000  0.63270000  1.0 -0.187059693
C  C77  1  0.98240000  0.64580000  0.20210000  1.0 0.0179123543
C  C78  1  0.64580000  0.98240000  0.29790000  1.0 0.0179123543
C  C79  1  0.01760000  0.35420000  0.79790000  1.0 0.0179123543
C  C80  1  0.35420000  0.01760000  0.70210000  1.0 0.0179123543
N  N1  1  0.82496000  0.01904000  0.65000000  1.0 -0.2628942002
N  N2  1  0.01904000  0.82496000  0.85000000  1.0 -0.2628942002
N  N3  1  0.17504000  0.98096000  0.35000000  1.0 -0.2628942002
N  N4  1  0.98096000  0.17504000  0.15000000  1.0 -0.2628942002
O  O1  1  0.94134000  0.70406000  0.48860000  1.0 -0.6046660412
O  O2  1  0.70406000  0.94134000  0.01140000  1.0 -0.6046660412
O  O3  1  0.05866000  0.29594000  0.51140000  1.0 -0.6046660412
O  O4  1  0.29594000  0.05866000  0.98860000  1.0 -0.6046660412
O  O5  1  0.78295000  0.56585000  0.52130000  1.0 -0.5696002562
O  O6  1  0.56585000  0.78295000  0.97870000  1.0 -0.5696002562
O  O7  1  0.21705000  0.43415000  0.47870000  1.0 -0.5696002562
O  O8  1  0.43415000  0.21705000  0.02130000  1.0 -0.5696002562
O  O9  1  0.77208000  0.36032000  0.54570000  1.0 -0.5696002562
O  O10  1  0.36032000  0.77208000  0.95430000  1.0 -0.5696002562
O  O11  1  0.22792000  0.63968000  0.45430000  1.0 -0.5696002562
O  O12  1  0.63968000  0.22792000  0.04570000  1.0 -0.5696002562
O  O13  1  0.92086000  0.38414000  0.53810000  1.0 -0.706656741
O  O14  1  0.38414000  0.92086000  0.96190000  1.0 -0.706656741
O  O15  1  0.07914000  0.61586000  0.46190000  1.0 -0.706656741
O  O16  1  0.61586000  0.07914000  0.03810000  1.0 -0.706656741
O  O17  1  0.55778000  0.96062000  0.86860000  1.0 -0.627047481
O  O18  1  0.96062000  0.55778000  0.63140000  1.0 -0.627047481
O  O19  1  0.44222000  0.03938000  0.13140000  1.0 -0.627047481
O  O20  1  0.03938000  0.44222000  0.36860000  1.0 -0.627047481
O  O21  1  0.55855000  0.10105000  0.82690000  1.0 -0.6120284665
O  O22  1  0.10105000  0.55855000  0.67310000  1.0 -0.6120284665
O  O23  1  0.44145000  0.89895000  0.17310000  1.0 -0.6120284665
O  O24  1  0.89895000  0.44145000  0.32690000  1.0 -0.6120284665
O  O25  1  0.72750000  0.45890000  0.33800000  1.0 -0.4539030213
O  O26  1  0.45890000  0.72750000  0.16200000  1.0 -0.4539030213
O  O27  1  0.27250000  0.54110000  0.66200000  1.0 -0.4539030213
O  O28  1  0.54110000  0.27250000  0.83800000  1.0 -0.4539030213
O  O29  1  0.93680000  0.64960000  0.28810000  1.0 -0.3156753946
O  O30  1  0.64960000  0.93680000  0.21190000  1.0 -0.3156753946
O  O31  1  0.06320000  0.35040000  0.71190000  1.0 -0.3156753946
O  O32  1  0.35040000  0.06320000  0.78810000  1.0 -0.3156753946
