# DDEC6 charges by PACMAN v1.1 (https://github.com/mtap-research/PACMAN-charge/)
data_GEDSEP_ASR_pacman
_symmetry_space_group_name_H-M   'P 1'
_cell_length_a   16.03130000
_cell_length_b   16.03130000
_cell_length_c   13.16540000
_cell_angle_alpha   78.88290000
_cell_angle_beta   101.11700000
_cell_angle_gamma   128.90100000
_symmetry_Int_Tables_number   1
_chemical_formula_structural   NdH10C18N5O6
_chemical_formula_sum   'Nd4 H40 C72 N20 O24'
_cell_volume   2572.34582035
_cell_formula_units_Z   4
loop_
 _symmetry_equiv_pos_site_id
 _symmetry_equiv_pos_as_xyz
  1  'x, y, z'
loop_
 _atom_site_type_symbol
 _atom_site_label
 _atom_site_symmetry_multiplicity
 _atom_site_fract_x
 _atom_site_fract_y
 _atom_site_fract_z
 _atom_site_occupancy
 _atom_site_charge
Nd  Nd1  1  0.88874000  0.52500000  0.94067000  1.0 2.0390009209
Nd  Nd2  1  0.52500000  0.88874000  0.55933000  1.0 2.0390009209
Nd  Nd3  1  0.11126000  0.47500000  0.05933000  1.0 2.0390009209
Nd  Nd4  1  0.47500000  0.11126000  0.44067000  1.0 2.0390009209
H  H1  1  0.95890000  0.84890000  0.03650000  1.0 0.1358780413
H  H2  1  0.84890000  0.95890000  0.46350000  1.0 0.1358780413
H  H3  1  0.04110000  0.15110000  0.96350000  1.0 0.1358780413
H  H4  1  0.15110000  0.04110000  0.53650000  1.0 0.1358780413
H  H5  1  0.92260000  0.95400000  0.08560000  1.0 0.130981706
H  H6  1  0.95400000  0.92260000  0.41440000  1.0 0.130981706
H  H7  1  0.07740000  0.04600000  0.91440000  1.0 0.130981706
H  H8  1  0.04600000  0.07740000  0.58560000  1.0 0.130981706
H  H9  1  0.62270000  0.69130000  0.13090000  1.0 0.1358780413
H  H10  1  0.69130000  0.62270000  0.36910000  1.0 0.1358780413
H  H11  1  0.37730000  0.30870000  0.86910000  1.0 0.1358780413
H  H12  1  0.30870000  0.37730000  0.63090000  1.0 0.1358780413
H  H13  1  0.65730000  0.58810000  0.07830000  1.0 0.130981706
H  H14  1  0.58810000  0.65730000  0.42170000  1.0 0.130981706
H  H15  1  0.34270000  0.41190000  0.92170000  1.0 0.130981706
H  H16  1  0.41190000  0.34270000  0.57830000  1.0 0.130981706
H  H17  1  0.87420000  0.18620000  0.06960000  1.0 0.1488797384
H  H18  1  0.18620000  0.87420000  0.43040000  1.0 0.1488797384
H  H19  1  0.12580000  0.81380000  0.93040000  1.0 0.1488797384
H  H20  1  0.81380000  0.12580000  0.56960000  1.0 0.1488797384
H  H21  1  0.66910000  0.94710000  0.27120000  1.0 0.130981706
H  H22  1  0.94710000  0.66910000  0.22880000  1.0 0.130981706
H  H23  1  0.33090000  0.05290000  0.72880000  1.0 0.130981706
H  H24  1  0.05290000  0.33090000  0.77120000  1.0 0.130981706
H  H25  1  0.67950000  0.20870000  0.19290000  1.0 0.1488797384
H  H26  1  0.20870000  0.67950000  0.30710000  1.0 0.1488797384
H  H27  1  0.32050000  0.79130000  0.80710000  1.0 0.1488797384
H  H28  1  0.79130000  0.32050000  0.69290000  1.0 0.1488797384
H  H29  1  0.59960000  0.36440000  0.92280000  1.0 0.1197247803
H  H30  1  0.36440000  0.59960000  0.57720000  1.0 0.1197247803
H  H31  1  0.40040000  0.63560000  0.07720000  1.0 0.1197247803
H  H32  1  0.63560000  0.40040000  0.42280000  1.0 0.1197247803
H  H33  1  0.67800000  0.86400000  0.16200000  1.0 0.1042662262
H  H34  1  0.86400000  0.67800000  0.33800000  1.0 0.1042662262
H  H35  1  0.32200000  0.13600000  0.83800000  1.0 0.1042662262
H  H36  1  0.13600000  0.32200000  0.66200000  1.0 0.1042662262
H  H37  1  0.53300000  0.29500000  0.63600000  1.0 0.2901867851
H  H38  1  0.29500000  0.53300000  0.86400000  1.0 0.2901867851
H  H39  1  0.46700000  0.70500000  0.36400000  1.0 0.2901867851
H  H40  1  0.70500000  0.46700000  0.13600000  1.0 0.2901867851
C  C1  1  0.83100000  0.64300000  0.00660000  1.0 0.5838674232
C  C2  1  0.64300000  0.83100000  0.49340000  1.0 0.5838674232
C  C3  1  0.16900000  0.35700000  0.99340000  1.0 0.5838674232
C  C4  1  0.35700000  0.16900000  0.50660000  1.0 0.5838674232
C  C5  1  0.80880000  0.70800000  0.04550000  1.0 -0.0223609955
C  C6  1  0.70800000  0.80880000  0.45450000  1.0 -0.0223609955
C  C7  1  0.19120000  0.29200000  0.95450000  1.0 -0.0223609955
C  C8  1  0.29200000  0.19120000  0.54550000  1.0 -0.0223609955
C  C9  1  0.89010000  0.81750000  0.05270000  1.0 -0.090673325
C  C10  1  0.81750000  0.89010000  0.44730000  1.0 -0.090673325
C  C11  1  0.10990000  0.18250000  0.94730000  1.0 -0.090673325
C  C12  1  0.18250000  0.10990000  0.55270000  1.0 -0.090673325
C  C13  1  0.86900000  0.88020000  0.08390000  1.0 -0.1236168221
C  C14  1  0.88020000  0.86900000  0.41610000  1.0 -0.1236168221
C  C15  1  0.13100000  0.11980000  0.91610000  1.0 -0.1236168221
C  C16  1  0.11980000  0.13100000  0.58390000  1.0 -0.1236168221
C  C17  1  0.76860000  0.83300000  0.11240000  1.0 0.0893319006
C  C18  1  0.83300000  0.76860000  0.38760000  1.0 0.0893319006
C  C19  1  0.23140000  0.16700000  0.88760000  1.0 0.0893319006
C  C20  1  0.16700000  0.23140000  0.61240000  1.0 0.0893319006
C  C21  1  0.69010000  0.72370000  0.11040000  1.0 -0.1345588193
C  C22  1  0.72370000  0.69010000  0.38960000  1.0 -0.1345588193
C  C23  1  0.30990000  0.27630000  0.88960000  1.0 -0.1345588193
C  C24  1  0.27630000  0.30990000  0.61040000  1.0 -0.1345588193
C  C25  1  0.71070000  0.66210000  0.07810000  1.0 -0.090673325
C  C26  1  0.66210000  0.71070000  0.42190000  1.0 -0.090673325
C  C27  1  0.28930000  0.33790000  0.92190000  1.0 -0.090673325
C  C28  1  0.33790000  0.28930000  0.57810000  1.0 -0.090673325
C  C29  1  0.74090000  0.89730000  0.14090000  1.0 0.0820824913
C  C30  1  0.89730000  0.74090000  0.35910000  1.0 0.0820824913
C  C31  1  0.25910000  0.10270000  0.85910000  1.0 0.0820824913
C  C32  1  0.10270000  0.25910000  0.64090000  1.0 0.0820824913
C  C33  1  0.82339000  0.31921000  0.05910000  1.0 0.6256874725
C  C34  1  0.31921000  0.82339000  0.44090000  1.0 0.6256874725
C  C35  1  0.17661000  0.68079000  0.94090000  1.0 0.6256874725
C  C36  1  0.68079000  0.17661000  0.55910000  1.0 0.6256874725
C  C37  1  0.78266000  0.21354000  0.12020000  1.0 -0.0026954885
C  C38  1  0.21354000  0.78266000  0.37980000  1.0 -0.0026954885
C  C39  1  0.21734000  0.78646000  0.87980000  1.0 -0.0050678501
C  C40  1  0.78646000  0.21734000  0.62020000  1.0 -0.0026954885
C  C41  1  0.81910000  0.15630000  0.11120000  1.0 -0.1691101194
C  C42  1  0.15630000  0.81910000  0.38880000  1.0 -0.1691101194
C  C43  1  0.18090000  0.84370000  0.88880000  1.0 -0.1691101194
C  C44  1  0.84370000  0.18090000  0.61120000  1.0 -0.1691101194
C  C45  1  0.77370000  0.05510000  0.16370000  1.0 0.2042227014
C  C46  1  0.05510000  0.77370000  0.33630000  1.0 0.2042227014
C  C47  1  0.22630000  0.94490000  0.83630000  1.0 0.2042227014
C  C48  1  0.94490000  0.22630000  0.66370000  1.0 0.2042227014
C  C49  1  0.69740000  0.01360000  0.23340000  1.0 -0.1766189226
C  C50  1  0.01360000  0.69740000  0.26660000  1.0 -0.1766189226
C  C51  1  0.30260000  0.98640000  0.76660000  1.0 -0.1766189226
C  C52  1  0.98640000  0.30260000  0.73340000  1.0 -0.1766189226
C  C53  1  0.66445000  0.07275000  0.24550000  1.0 -0.0026954885
C  C54  1  0.07275000  0.66445000  0.25450000  1.0 -0.0026954885
C  C55  1  0.33555000  0.92725000  0.75450000  1.0 -0.0026954885
C  C56  1  0.92725000  0.33555000  0.74550000  1.0 -0.0026954885
C  C57  1  0.70472000  0.17128000  0.18700000  1.0 -0.090673325
C  C58  1  0.17128000  0.70472000  0.31300000  1.0 -0.090673325
C  C59  1  0.29528000  0.82872000  0.81300000  1.0 -0.090673325
C  C60  1  0.82872000  0.29528000  0.68700000  1.0 -0.090673325
C  C61  1  0.58330000  0.03130000  0.32110000  1.0 0.6524318382
C  C62  1  0.03130000  0.58330000  0.17890000  1.0 0.6524318382
C  C63  1  0.41670000  0.96870000  0.67890000  1.0 0.6524318382
C  C64  1  0.96870000  0.41670000  0.82110000  1.0 0.6524318382
C  C65  1  0.68290000  0.40370000  0.72050000  1.0 0.5309490784
C  C66  1  0.40370000  0.68290000  0.77950000  1.0 0.5309490784
C  C67  1  0.31710000  0.59630000  0.27950000  1.0 0.5309490784
C  C68  1  0.59630000  0.31710000  0.22050000  1.0 0.5309490784
C  C69  1  0.60880000  0.36400000  0.85530000  1.0 0.1646430417
C  C70  1  0.36400000  0.60880000  0.64470000  1.0 0.1646430417
C  C71  1  0.39120000  0.63600000  0.14470000  1.0 0.1646430417
C  C72  1  0.63600000  0.39120000  0.35530000  1.0 0.1646430417
N  N1  1  0.80993000  0.99847000  0.14450000  1.0 -0.2669555247
N  N2  1  0.99847000  0.80993000  0.35550000  1.0 -0.2669555247
N  N3  1  0.19007000  0.00153000  0.85550000  1.0 -0.2669555247
N  N4  1  0.00153000  0.19007000  0.64450000  1.0 -0.2669555247
N  N5  1  0.70772000  0.43108000  0.81750000  1.0 -0.551511772
N  N6  1  0.43108000  0.70772000  0.68250000  1.0 -0.551511772
N  N7  1  0.29228000  0.56892000  0.18250000  1.0 -0.551511772
N  N8  1  0.56892000  0.29228000  0.31750000  1.0 -0.551511772
N  N9  1  0.52800000  0.29920000  0.79040000  1.0 -0.2425716296
N  N10  1  0.29920000  0.52800000  0.70960000  1.0 -0.2425716296
N  N11  1  0.47200000  0.70080000  0.20960000  1.0 -0.2425716296
N  N12  1  0.70080000  0.47200000  0.29040000  1.0 -0.2425716296
N  N13  1  0.57824000  0.32616000  0.70170000  1.0 -0.1933914498
N  N14  1  0.32616000  0.57824000  0.79830000  1.0 -0.1933914498
N  N15  1  0.42176000  0.67384000  0.29830000  1.0 -0.1933914498
N  N16  1  0.67384000  0.42176000  0.20170000  1.0 -0.1933914498
N  N17  1  0.75040000  0.45240000  0.64240000  1.0 -0.5144618229
N  N18  1  0.45240000  0.75040000  0.85760000  1.0 -0.5163785692
N  N19  1  0.24960000  0.54760000  0.35760000  1.0 -0.5163785692
N  N20  1  0.54760000  0.24960000  0.14240000  1.0 -0.5163785692
O  O1  1  0.91670000  0.69150000  0.96340000  1.0 -0.6080986485
O  O2  1  0.69150000  0.91670000  0.53660000  1.0 -0.6080986485
O  O3  1  0.08330000  0.30850000  0.03660000  1.0 -0.6080986485
O  O4  1  0.30850000  0.08330000  0.46340000  1.0 -0.6080986485
O  O5  1  0.76479000  0.54241000  0.01430000  1.0 -0.5965155438
O  O6  1  0.54241000  0.76479000  0.48570000  1.0 -0.5965155438
O  O7  1  0.23521000  0.45759000  0.98570000  1.0 -0.5965155438
O  O8  1  0.45759000  0.23521000  0.51430000  1.0 -0.5965155438
O  O9  1  0.76226000  0.34554000  0.03460000  1.0 -0.5745849685
O  O10  1  0.34554000  0.76226000  0.46540000  1.0 -0.5745849685
O  O11  1  0.23774000  0.65446000  0.96540000  1.0 -0.575641282
O  O12  1  0.65446000  0.23774000  0.53460000  1.0 -0.5745849685
O  O13  1  0.91944000  0.38076000  0.03380000  1.0 -0.7255615667
O  O14  1  0.38076000  0.91944000  0.46620000  1.0 -0.7247129158
O  O15  1  0.08056000  0.61924000  0.96620000  1.0 -0.7247129158
O  O16  1  0.61924000  0.08056000  0.53380000  1.0 -0.7247129158
O  O17  1  0.55078000  0.08622000  0.31980000  1.0 -0.6406168566
O  O18  1  0.08622000  0.55078000  0.18020000  1.0 -0.6406168566
O  O19  1  0.44922000  0.91378000  0.68020000  1.0 -0.6406168566
O  O20  1  0.91378000  0.44922000  0.81980000  1.0 -0.6406168566
O  O21  1  0.55344000  0.94616000  0.37710000  1.0 -0.629250683
O  O22  1  0.94616000  0.55344000  0.12290000  1.0 -0.629250683
O  O23  1  0.44656000  0.05384000  0.62290000  1.0 -0.629250683
O  O24  1  0.05384000  0.44656000  0.87710000  1.0 -0.629250683
