# DDEC6 charges by PACMAN v1.1 (https://github.com/mtap-research/PACMAN-charge/)
data_GEFYUN_ASR_pacman
_symmetry_space_group_name_H-M   'P 1'
_cell_length_a   18.55610000
_cell_length_b   18.55610000
_cell_length_c   21.26280000
_cell_angle_alpha   90.00000000
_cell_angle_beta   90.00000000
_cell_angle_gamma   120.00000000
_symmetry_Int_Tables_number   1
_chemical_formula_structural   CuP2H32C41BrN
_chemical_formula_sum   'Cu6 P12 H192 C246 Br6 N6'
_cell_volume   6340.51441834
_cell_formula_units_Z   6
loop_
 _symmetry_equiv_pos_site_id
 _symmetry_equiv_pos_as_xyz
  1  'x, y, z'
loop_
 _atom_site_type_symbol
 _atom_site_label
 _atom_site_symmetry_multiplicity
 _atom_site_fract_x
 _atom_site_fract_y
 _atom_site_fract_z
 _atom_site_occupancy
 _atom_site_charge
Cu  Cu1  1  0.15713000  0.66498000  0.00951000  1.0 0.0539564685
Cu  Cu2  1  0.33502000  0.49215000  0.67618000  1.0 0.0539564685
Cu  Cu3  1  0.50785000  0.84287000  0.34284000  1.0 0.0539564685
Cu  Cu4  1  0.66498000  0.15713000  0.99049000  1.0 0.0539564685
Cu  Cu5  1  0.49215000  0.33502000  0.32382000  1.0 0.0539564685
Cu  Cu6  1  0.84287000  0.50785000  0.65716000  1.0 0.0539564685
P  P1  1  0.26405000  0.64870000  0.97325000  1.0 0.1399165951
P  P2  1  0.35130000  0.61535000  0.63992000  1.0 0.1399165951
P  P3  1  0.38465000  0.73595000  0.30658000  1.0 0.1399165951
P  P4  1  0.64870000  0.26405000  0.02675000  1.0 0.1399165951
P  P5  1  0.61535000  0.35130000  0.36008000  1.0 0.1399165951
P  P6  1  0.73595000  0.38465000  0.69342000  1.0 0.1459829394
P  P7  1  0.33080000  0.47480000  0.78206000  1.0 0.1089640024
P  P8  1  0.52520000  0.85600000  0.44873000  1.0 0.1089640024
P  P9  1  0.14400000  0.66920000  0.11539000  1.0 0.1089640024
P  P10  1  0.47480000  0.33080000  0.21794000  1.0 0.1089640024
P  P11  1  0.85600000  0.52520000  0.55127000  1.0 0.1089640024
P  P12  1  0.66920000  0.14400000  0.88461000  1.0 0.1089640024
H  H1  1  0.33550000  0.56740000  0.89940000  1.0 0.1089640024
H  H2  1  0.43260000  0.76810000  0.56607000  1.0 0.1089640024
H  H3  1  0.23190000  0.66450000  0.23273000  1.0 0.1089640024
H  H4  1  0.56740000  0.33550000  0.10060000  1.0 0.1089640024
H  H5  1  0.76810000  0.43260000  0.43393000  1.0 0.1089640024
H  H6  1  0.66450000  0.23190000  0.76727000  1.0 0.1089640024
H  H7  1  0.18950000  0.48500000  0.74380000  1.0 0.1089640024
H  H8  1  0.51500000  0.70450000  0.41047000  1.0 0.1089640024
H  H9  1  0.29550000  0.81050000  0.07713000  1.0 0.1089640024
H  H10  1  0.48500000  0.18950000  0.25620000  1.0 0.1089640024
H  H11  1  0.70450000  0.51500000  0.58953000  1.0 0.1089640024
H  H12  1  0.81050000  0.29550000  0.92287000  1.0 0.1089640024
H  H13  1  0.14880000  0.61580000  0.87360000  1.0 0.1176388913
H  H14  1  0.38420000  0.53300000  0.54027000  1.0 0.1176388913
H  H15  1  0.46700000  0.85120000  0.20693000  1.0 0.1176388913
H  H16  1  0.61580000  0.14880000  0.12640000  1.0 0.1176388913
H  H17  1  0.53300000  0.38420000  0.45973000  1.0 0.1176388913
H  H18  1  0.85120000  0.46700000  0.79307000  1.0 0.1176388913
H  H19  1  0.04490000  0.42230000  0.73200000  1.0 0.1399165951
H  H20  1  0.57770000  0.62260000  0.39867000  1.0 0.1399165951
H  H21  1  0.37740000  0.95510000  0.06533000  1.0 0.1399165951
H  H22  1  0.42230000  0.04490000  0.26800000  1.0 0.1399165951
H  H23  1  0.62260000  0.57770000  0.60133000  1.0 0.1399165951
H  H24  1  0.95510000  0.37740000  0.93467000  1.0 0.1399165951
H  H25  1  0.93750000  0.41570000  0.67600000  1.0 0.1089640024
H  H26  1  0.58430000  0.52180000  0.34267000  1.0 0.1089640024
H  H27  1  0.47820000  0.06250000  0.00933000  1.0 0.1089640024
H  H28  1  0.41570000  0.93750000  0.32400000  1.0 0.1089640024
H  H29  1  0.52180000  0.58430000  0.65733000  1.0 0.1089640024
H  H30  1  0.06250000  0.47820000  0.99067000  1.0 0.1089640024
H  H31  1  0.98820000  0.63640000  0.73050000  1.0 0.1089640024
H  H32  1  0.36360000  0.35180000  0.39717000  1.0 0.1089640024
H  H33  1  0.64820000  0.01180000  0.06383000  1.0 0.1089640024
H  H34  1  0.63640000  0.98820000  0.26950000  1.0 0.1089640024
H  H35  1  0.35180000  0.36360000  0.60283000  1.0 0.1089640024
H  H36  1  0.01180000  0.64820000  0.93617000  1.0 0.1089640024
H  H37  1  0.10350000  0.65510000  0.78570000  1.0 0.1399165951
H  H38  1  0.34490000  0.44840000  0.45237000  1.0 0.1399165951
H  H39  1  0.55160000  0.89650000  0.11903000  1.0 0.1399165951
H  H40  1  0.65510000  0.10350000  0.21430000  1.0 0.1399165951
H  H41  1  0.44840000  0.34490000  0.54763000  1.0 0.1399165951
H  H42  1  0.89650000  0.55160000  0.88097000  1.0 0.1399165951
H  H43  1  0.36200000  0.66760000  0.08460000  1.0 0.1176388913
H  H44  1  0.33240000  0.69440000  0.75127000  1.0 0.1176388913
H  H45  1  0.30560000  0.63800000  0.41793000  1.0 0.1176388913
H  H46  1  0.66760000  0.36200000  0.91540000  1.0 0.1176388913
H  H47  1  0.69440000  0.33240000  0.24873000  1.0 0.1176388913
H  H48  1  0.63800000  0.30560000  0.58207000  1.0 0.1176388913
H  H49  1  0.38180000  0.58260000  0.15180000  1.0 0.0993395573
H  H50  1  0.41740000  0.79920000  0.81847000  1.0 0.0993395573
H  H51  1  0.20080000  0.61820000  0.48513000  1.0 0.0993395573
H  H52  1  0.58260000  0.38180000  0.84820000  1.0 0.0993395573
H  H53  1  0.79920000  0.41740000  0.18153000  1.0 0.0993395573
H  H54  1  0.61820000  0.20080000  0.51487000  1.0 0.0993395573
H  H55  1  0.30160000  0.44110000  0.13920000  1.0 0.1089640024
H  H56  1  0.55890000  0.86050000  0.80587000  1.0 0.1089640024
H  H57  1  0.13950000  0.69840000  0.47253000  1.0 0.1089640024
H  H58  1  0.44110000  0.30160000  0.86080000  1.0 0.1089640024
H  H59  1  0.86050000  0.55890000  0.19413000  1.0 0.1089640024
H  H60  1  0.69840000  0.13950000  0.52747000  1.0 0.1089640024
H  H61  1  0.22440000  0.38520000  0.04830000  1.0 0.1089640024
H  H62  1  0.61480000  0.83920000  0.71497000  1.0 0.1089640024
H  H63  1  0.16080000  0.77560000  0.38163000  1.0 0.1089640024
H  H64  1  0.38520000  0.22440000  0.95170000  1.0 0.1089640024
H  H65  1  0.83920000  0.61480000  0.28503000  1.0 0.1089640024
H  H66  1  0.77560000  0.16080000  0.61837000  1.0 0.1089640024
H  H67  1  0.20330000  0.47510000  0.98080000  1.0 0.1089640024
H  H68  1  0.52490000  0.72820000  0.64747000  1.0 0.1089640024
H  H69  1  0.27180000  0.79670000  0.31413000  1.0 0.1089640024
H  H70  1  0.47510000  0.20330000  0.01920000  1.0 0.1089640024
H  H71  1  0.72820000  0.52490000  0.35253000  1.0 0.1089640024
H  H72  1  0.79670000  0.27180000  0.68587000  1.0 0.1089640024
H  H73  1  0.30430000  0.81740000  0.93810000  1.0 0.0745206881
H  H74  1  0.18260000  0.48690000  0.60477000  1.0 0.0745206881
H  H75  1  0.51310000  0.69570000  0.27143000  1.0 0.0745206881
H  H76  1  0.81740000  0.30430000  0.06190000  1.0 0.0745206881
H  H77  1  0.48690000  0.18260000  0.39523000  1.0 0.0745206881
H  H78  1  0.69570000  0.51310000  0.72857000  1.0 0.0745206881
H  H79  1  0.42740000  0.93890000  0.91120000  1.0 0.1089640024
H  H80  1  0.06110000  0.48850000  0.57787000  1.0 0.1089640024
H  H81  1  0.51150000  0.57260000  0.24453000  1.0 0.1089640024
H  H82  1  0.93890000  0.42740000  0.08880000  1.0 0.1089640024
H  H83  1  0.48850000  0.06110000  0.42213000  1.0 0.1089640024
H  H84  1  0.57260000  0.51150000  0.75547000  1.0 0.1089640024
H  H85  1  0.55490000  0.94210000  0.91690000  1.0 0.0993395573
H  H86  1  0.05790000  0.61280000  0.58357000  1.0 0.0993395573
H  H87  1  0.38720000  0.44510000  0.25023000  1.0 0.0993395573
H  H88  1  0.94210000  0.55490000  0.08310000  1.0 0.0993395573
H  H89  1  0.61280000  0.05790000  0.41643000  1.0 0.0993395573
H  H90  1  0.44510000  0.38720000  0.74977000  1.0 0.0993395573
H  H91  1  0.55940000  0.82400000  0.94960000  1.0 0.0894963551
H  H92  1  0.17600000  0.73540000  0.61627000  1.0 0.0894963551
H  H93  1  0.26460000  0.44060000  0.28293000  1.0 0.0894963551
H  H94  1  0.82400000  0.55940000  0.05040000  1.0 0.0894963551
H  H95  1  0.73540000  0.17600000  0.38373000  1.0 0.0894963551
H  H96  1  0.44060000  0.26460000  0.71707000  1.0 0.0894963551
H  H97  1  0.43630000  0.70260000  0.97650000  1.0 0.0894963551
H  H98  1  0.29740000  0.73370000  0.64317000  1.0 0.0894963551
H  H99  1  0.26630000  0.56370000  0.30983000  1.0 0.0894963551
H  H100  1  0.70260000  0.43630000  0.02350000  1.0 0.0894963551
H  H101  1  0.73370000  0.29740000  0.35683000  1.0 0.0894963551
H  H102  1  0.56370000  0.26630000  0.69017000  1.0 0.0894963551
H  H103  1  0.24770000  0.39040000  0.89970000  1.0 0.1089640024
H  H104  1  0.60960000  0.85730000  0.56637000  1.0 0.1089640024
H  H105  1  0.14270000  0.75230000  0.23303000  1.0 0.1089640024
H  H106  1  0.39040000  0.24770000  0.10030000  1.0 0.1089640024
H  H107  1  0.85730000  0.60960000  0.43363000  1.0 0.1089640024
H  H108  1  0.75230000  0.14270000  0.76697000  1.0 0.1089640024
H  H109  1  0.18800000  0.24950000  0.93320000  1.0 0.1089640024
H  H110  1  0.75050000  0.93850000  0.59987000  1.0 0.1089640024
H  H111  1  0.06150000  0.81200000  0.26653000  1.0 0.1089640024
H  H112  1  0.24950000  0.18800000  0.06680000  1.0 0.1089640024
H  H113  1  0.93850000  0.75050000  0.40013000  1.0 0.1089640024
H  H114  1  0.81200000  0.06150000  0.73347000  1.0 0.1089640024
H  H115  1  0.18870000  0.15300000  0.86970000  1.0 0.1089640024
H  H116  1  0.84700000  0.03570000  0.53637000  1.0 0.1089640024
H  H117  1  0.96430000  0.81130000  0.20303000  1.0 0.1089640024
H  H118  1  0.15300000  0.18870000  0.13030000  1.0 0.1089640024
H  H119  1  0.03570000  0.84700000  0.46363000  1.0 0.1089640024
H  H120  1  0.81130000  0.96430000  0.79697000  1.0 0.1089640024
H  H121  1  0.23090000  0.18100000  0.76480000  1.0 0.1176388913
H  H122  1  0.81900000  0.04990000  0.43147000  1.0 0.1176388913
H  H123  1  0.95010000  0.76910000  0.09813000  1.0 0.1176388913
H  H124  1  0.18100000  0.23090000  0.23520000  1.0 0.1176388913
H  H125  1  0.04990000  0.81900000  0.56853000  1.0 0.1176388913
H  H126  1  0.76910000  0.95010000  0.90187000  1.0 0.1176388913
H  H127  1  0.29150000  0.31420000  0.73140000  1.0 0.1089640024
H  H128  1  0.68580000  0.97730000  0.39807000  1.0 0.1089640024
H  H129  1  0.02270000  0.70850000  0.06473000  1.0 0.1089640024
H  H130  1  0.31420000  0.29150000  0.26860000  1.0 0.1089640024
H  H131  1  0.97730000  0.68580000  0.60193000  1.0 0.1089640024
H  H132  1  0.70850000  0.02270000  0.93527000  1.0 0.1089640024
H  H133  1  0.46760000  0.62830000  0.78540000  1.0 0.1176388913
H  H134  1  0.37170000  0.83930000  0.45207000  1.0 0.1176388913
H  H135  1  0.16070000  0.53240000  0.11873000  1.0 0.1176388913
H  H136  1  0.62830000  0.46760000  0.21460000  1.0 0.1176388913
H  H137  1  0.83930000  0.37170000  0.54793000  1.0 0.1176388913
H  H138  1  0.53240000  0.16070000  0.88127000  1.0 0.1176388913
H  H139  1  0.59740000  0.69890000  0.83400000  1.0 0.1089640024
H  H140  1  0.30110000  0.89850000  0.50067000  1.0 0.1089640024
H  H141  1  0.10150000  0.40260000  0.16733000  1.0 0.1089640024
H  H142  1  0.69890000  0.59740000  0.16600000  1.0 0.1089640024
H  H143  1  0.89850000  0.30110000  0.49933000  1.0 0.1089640024
H  H144  1  0.40260000  0.10150000  0.83267000  1.0 0.1089640024
H  H145  1  0.62640000  0.63890000  0.91820000  1.0 0.1089640024
H  H146  1  0.36110000  0.98750000  0.58487000  1.0 0.1089640024
H  H147  1  0.01250000  0.37360000  0.25153000  1.0 0.1089640024
H  H148  1  0.63890000  0.62640000  0.08180000  1.0 0.1089640024
H  H149  1  0.98750000  0.36110000  0.41513000  1.0 0.1089640024
H  H150  1  0.37360000  0.01250000  0.74847000  1.0 0.1089640024
H  H151  1  0.53720000  0.49750000  0.93070000  1.0 0.1176388913
H  H152  1  0.50250000  0.03970000  0.59737000  1.0 0.1176388913
H  H153  1  0.96030000  0.46280000  0.26403000  1.0 0.1176388913
H  H154  1  0.49750000  0.53720000  0.06930000  1.0 0.1176388913
H  H155  1  0.03970000  0.50250000  0.40263000  1.0 0.1176388913
H  H156  1  0.46280000  0.96030000  0.73597000  1.0 0.1176388913
H  H157  1  0.40530000  0.42370000  0.88430000  1.0 0.1089640024
H  H158  1  0.57630000  0.98160000  0.55097000  1.0 0.1089640024
H  H159  1  0.01840000  0.59470000  0.21763000  1.0 0.1089640024
H  H160  1  0.42370000  0.40530000  0.11570000  1.0 0.1089640024
H  H161  1  0.98160000  0.57630000  0.44903000  1.0 0.1089640024
H  H162  1  0.59470000  0.01840000  0.78237000  1.0 0.1089640024
H  H163  1  0.43960000  0.66580000  0.97670000  1.0 0.0894963551
H  H164  1  0.33420000  0.77380000  0.64337000  1.0 0.0894963551
H  H165  1  0.22620000  0.56040000  0.31003000  1.0 0.0894963551
H  H166  1  0.66580000  0.43960000  0.02330000  1.0 0.0894963551
H  H167  1  0.77380000  0.33420000  0.35663000  1.0 0.0894963551
H  H168  1  0.56040000  0.22620000  0.68997000  1.0 0.0894963551
H  H169  1  0.57020000  0.78150000  0.95570000  1.0 0.0993395573
H  H170  1  0.21850000  0.78870000  0.62237000  1.0 0.0993395573
H  H171  1  0.21130000  0.42980000  0.28903000  1.0 0.0993395573
H  H172  1  0.78150000  0.57020000  0.04430000  1.0 0.0993395573
H  H173  1  0.78870000  0.21850000  0.37763000  1.0 0.0993395573
H  H174  1  0.42980000  0.21130000  0.71097000  1.0 0.0993395573
H  H175  1  0.58100000  0.90870000  0.92860000  1.0 0.0894963551
H  H176  1  0.09130000  0.67230000  0.59527000  1.0 0.0894963551
H  H177  1  0.32770000  0.41900000  0.26193000  1.0 0.0894963551
H  H178  1  0.90870000  0.58100000  0.07140000  1.0 0.0894963551
H  H179  1  0.67230000  0.09130000  0.40473000  1.0 0.0894963551
H  H180  1  0.41900000  0.32770000  0.73807000  1.0 0.0894963551
H  H181  1  0.46130000  0.92030000  0.92240000  1.0 0.0993395573
H  H182  1  0.07970000  0.54100000  0.58907000  1.0 0.0993395573
H  H183  1  0.45900000  0.53870000  0.25573000  1.0 0.0993395573
H  H184  1  0.92030000  0.46130000  0.07760000  1.0 0.0993395573
H  H185  1  0.54100000  0.07970000  0.41093000  1.0 0.0993395573
H  H186  1  0.53870000  0.45900000  0.74427000  1.0 0.0993395573
H  H187  1  0.33070000  0.80460000  0.94340000  1.0 0.0814992719
H  H188  1  0.19540000  0.52610000  0.61007000  1.0 0.0814992719
H  H189  1  0.47390000  0.66930000  0.27673000  1.0 0.0814992719
H  H190  1  0.80460000  0.33070000  0.05660000  1.0 0.0814992719
H  H191  1  0.52610000  0.19540000  0.38993000  1.0 0.0814992719
H  H192  1  0.66930000  0.47390000  0.72327000  1.0 0.0814992719
C  C1  1  0.24450000  0.59690000  0.89580000  1.0 -0.0607868549
C  C2  1  0.40310000  0.64760000  0.56247000  1.0 -0.0607868549
C  C3  1  0.35240000  0.75550000  0.22913000  1.0 -0.0607868549
C  C4  1  0.59690000  0.24450000  0.10420000  1.0 -0.0607868549
C  C5  1  0.64760000  0.40310000  0.43753000  1.0 -0.0607868549
C  C6  1  0.75550000  0.35240000  0.77087000  1.0 -0.0607868549
C  C7  1  0.29060000  0.56260000  0.87480000  1.0 -0.1829971625
C  C8  1  0.43740000  0.72800000  0.54147000  1.0 -0.1829971625
C  C9  1  0.27200000  0.70940000  0.20813000  1.0 -0.1829971625
C  C10  1  0.56260000  0.29060000  0.12520000  1.0 -0.1829971625
C  C11  1  0.72800000  0.43740000  0.45853000  1.0 -0.1829971625
C  C12  1  0.70940000  0.27200000  0.79187000  1.0 -0.1829971625
C  C13  1  0.27140000  0.51960000  0.81560000  1.0 0.0062341123
C  C14  1  0.48040000  0.75180000  0.48227000  1.0 0.0062341123
C  C15  1  0.24820000  0.72860000  0.14893000  1.0 0.0062341123
C  C16  1  0.51960000  0.27140000  0.18440000  1.0 0.0062341123
C  C17  1  0.75180000  0.48040000  0.51773000  1.0 0.0062341123
C  C18  1  0.72860000  0.24820000  0.85107000  1.0 0.0062341123
C  C19  1  0.20460000  0.51420000  0.78270000  1.0 -0.1696042906
C  C20  1  0.48580000  0.69040000  0.44937000  1.0 -0.1696042906
C  C21  1  0.30960000  0.79540000  0.11603000  1.0 -0.1696042906
C  C22  1  0.51420000  0.20460000  0.21730000  1.0 -0.1696042906
C  C23  1  0.69040000  0.48580000  0.55063000  1.0 -0.1696042906
C  C24  1  0.79540000  0.30960000  0.88397000  1.0 -0.1696042906
C  C25  1  0.16080000  0.54810000  0.80280000  1.0 0.0993395573
C  C26  1  0.45190000  0.61270000  0.46947000  1.0 0.0993395573
C  C27  1  0.38730000  0.83920000  0.13613000  1.0 0.0993395573
C  C28  1  0.54810000  0.16080000  0.19720000  1.0 0.0993395573
C  C29  1  0.61270000  0.45190000  0.53053000  1.0 0.0993395573
C  C30  1  0.83920000  0.38730000  0.86387000  1.0 0.0993395573
C  C31  1  0.18000000  0.59090000  0.85970000  1.0 -0.1612367063
C  C32  1  0.40910000  0.58910000  0.52637000  1.0 -0.1612367063
C  C33  1  0.41090000  0.82000000  0.19303000  1.0 -0.1612367063
C  C34  1  0.59090000  0.18000000  0.14030000  1.0 -0.1612367063
C  C35  1  0.58910000  0.40910000  0.47363000  1.0 -0.1612367063
C  C36  1  0.82000000  0.41090000  0.80697000  1.0 -0.1612367063
C  C37  1  0.08730000  0.54110000  0.76540000  1.0 0.1089640024
C  C38  1  0.45890000  0.54620000  0.43207000  1.0 0.1089640024
C  C39  1  0.45380000  0.91270000  0.09873000  1.0 0.1089640024
C  C40  1  0.54110000  0.08730000  0.23460000  1.0 0.1089640024
C  C41  1  0.54620000  0.45890000  0.56793000  1.0 0.1089640024
C  C42  1  0.91270000  0.45380000  0.90127000  1.0 0.1089640024
C  C43  1  0.03530000  0.46800000  0.73180000  1.0 -0.195496233
C  C44  1  0.53200000  0.56730000  0.39847000  1.0 -0.195496233
C  C45  1  0.43270000  0.96470000  0.06513000  1.0 -0.195496233
C  C46  1  0.46800000  0.03530000  0.26820000  1.0 -0.195496233
C  C47  1  0.56730000  0.53200000  0.60153000  1.0 -0.195496233
C  C48  1  0.96470000  0.43270000  0.93487000  1.0 -0.195496233
C  C49  1  0.97150000  0.46490000  0.69940000  1.0 0.0018048035
C  C50  1  0.53510000  0.50660000  0.36607000  1.0 0.0018048035
C  C51  1  0.49340000  0.02850000  0.03273000  1.0 0.0018048035
C  C52  1  0.46490000  0.97150000  0.30060000  1.0 0.0018048035
C  C53  1  0.50660000  0.53510000  0.63393000  1.0 0.0018048035
C  C54  1  0.02850000  0.49340000  0.96727000  1.0 0.0018048035
C  C55  1  0.00100000  0.59280000  0.73020000  1.0 0.0417218466
C  C56  1  0.40720000  0.40820000  0.39687000  1.0 0.0417218466
C  C57  1  0.59180000  0.99900000  0.06353000  1.0 0.0417218466
C  C58  1  0.59280000  0.00100000  0.26980000  1.0 0.0417218466
C  C59  1  0.40820000  0.40720000  0.60313000  1.0 0.0417218466
C  C60  1  0.99900000  0.59180000  0.93647000  1.0 0.0417218466
C  C61  1  0.06950000  0.60440000  0.76400000  1.0 -0.1924971942
C  C62  1  0.39560000  0.46510000  0.43067000  1.0 -0.1924971942
C  C63  1  0.53490000  0.93050000  0.09733000  1.0 -0.1924971942
C  C64  1  0.60440000  0.06950000  0.23600000  1.0 -0.1924971942
C  C65  1  0.46510000  0.39560000  0.56933000  1.0 -0.1924971942
C  C66  1  0.93050000  0.53490000  0.90267000  1.0 -0.1924971942
C  C67  1  0.28200000  0.57740000  0.02260000  1.0 -0.0607868549
C  C68  1  0.42260000  0.70460000  0.68927000  1.0 -0.0607868549
C  C69  1  0.29540000  0.71800000  0.35593000  1.0 -0.0607868549
C  C70  1  0.57740000  0.28200000  0.97740000  1.0 -0.0607868549
C  C71  1  0.70460000  0.42260000  0.31073000  1.0 -0.0607868549
C  C72  1  0.71800000  0.29540000  0.64407000  1.0 -0.0607868549
C  C73  1  0.33380000  0.60940000  0.07690000  1.0 -0.2110558864
C  C74  1  0.39060000  0.72440000  0.74357000  1.0 -0.2110558864
C  C75  1  0.27560000  0.66620000  0.41023000  1.0 -0.2110558864
C  C76  1  0.60940000  0.33380000  0.92310000  1.0 -0.2110558864
C  C77  1  0.72440000  0.39060000  0.25643000  1.0 -0.2110558864
C  C78  1  0.66620000  0.27560000  0.58977000  1.0 -0.2110558864
C  C79  1  0.34410000  0.55990000  0.11750000  1.0 -0.1612367063
C  C80  1  0.44010000  0.78420000  0.78417000  1.0 -0.1612367063
C  C81  1  0.21580000  0.65590000  0.45083000  1.0 -0.1612367063
C  C82  1  0.55990000  0.34410000  0.88250000  1.0 -0.1612367063
C  C83  1  0.78420000  0.44010000  0.21583000  1.0 -0.1612367063
C  C84  1  0.65590000  0.21580000  0.54917000  1.0 -0.1612367063
C  C85  1  0.29930000  0.47710000  0.10850000  1.0 -0.1425385976
C  C86  1  0.52290000  0.82220000  0.77517000  1.0 -0.1425385976
C  C87  1  0.17780000  0.70070000  0.44183000  1.0 -0.1425385976
C  C88  1  0.47710000  0.29930000  0.89150000  1.0 -0.1425385976
C  C89  1  0.82220000  0.52290000  0.22483000  1.0 -0.1425385976
C  C90  1  0.70070000  0.17780000  0.55817000  1.0 -0.1425385976
C  C91  1  0.25080000  0.44320000  0.05650000  1.0 -0.0827497047
C  C92  1  0.55680000  0.80760000  0.72317000  1.0 -0.0827497047
C  C93  1  0.19240000  0.74920000  0.38983000  1.0 -0.0827497047
C  C94  1  0.44320000  0.25080000  0.94350000  1.0 -0.0827497047
C  C95  1  0.80760000  0.55680000  0.27683000  1.0 -0.0827497047
C  C96  1  0.74920000  0.19240000  0.61017000  1.0 -0.0827497047
C  C97  1  0.24110000  0.49780000  0.01500000  1.0 -0.0827497047
C  C98  1  0.50220000  0.74330000  0.68167000  1.0 -0.0827497047
C  C99  1  0.25670000  0.75890000  0.34833000  1.0 -0.0827497047
C  C100  1  0.49780000  0.24110000  0.98500000  1.0 -0.0827497047
C  C101  1  0.74330000  0.50220000  0.31833000  1.0 -0.0827497047
C  C102  1  0.75890000  0.25670000  0.65167000  1.0 -0.0827497047
C  C103  1  0.35610000  0.81880000  0.94040000  1.0 -0.0483898598
C  C104  1  0.18120000  0.53730000  0.60707000  1.0 -0.0483898598
C  C105  1  0.46270000  0.64390000  0.27373000  1.0 -0.0483898598
C  C106  1  0.81880000  0.35610000  0.05960000  1.0 -0.0483898598
C  C107  1  0.53730000  0.18120000  0.39293000  1.0 -0.0483898598
C  C108  1  0.64390000  0.46270000  0.72627000  1.0 -0.0483898598
C  C109  1  0.42920000  0.89090000  0.92440000  1.0 -0.0827497047
C  C110  1  0.10910000  0.53830000  0.59107000  1.0 -0.0827497047
C  C111  1  0.46170000  0.57080000  0.25773000  1.0 -0.0827497047
C  C112  1  0.89090000  0.42920000  0.07560000  1.0 -0.0827497047
C  C113  1  0.53830000  0.10910000  0.40893000  1.0 -0.0827497047
C  C114  1  0.57080000  0.46170000  0.74227000  1.0 -0.0827497047
C  C115  1  0.50500000  0.89280000  0.92780000  1.0 -0.0827497047
C  C116  1  0.10720000  0.61220000  0.59447000  1.0 -0.0827497047
C  C117  1  0.38780000  0.49500000  0.26113000  1.0 -0.0827497047
C  C118  1  0.89280000  0.50500000  0.07220000  1.0 -0.0827497047
C  C119  1  0.61220000  0.10720000  0.40553000  1.0 -0.0827497047
C  C120  1  0.49500000  0.38780000  0.73887000  1.0 -0.0827497047
C  C121  1  0.50760000  0.82270000  0.94720000  1.0 0.0018048035
C  C122  1  0.17730000  0.68490000  0.61387000  1.0 0.0018048035
C  C123  1  0.31510000  0.49240000  0.28053000  1.0 0.0018048035
C  C124  1  0.82270000  0.50760000  0.05280000  1.0 0.0018048035
C  C125  1  0.68490000  0.17730000  0.38613000  1.0 0.0018048035
C  C126  1  0.49240000  0.31510000  0.71947000  1.0 0.0018048035
C  C127  1  0.43450000  0.75050000  0.96320000  1.0 0.0018048035
C  C128  1  0.24950000  0.68400000  0.62987000  1.0 0.0018048035
C  C129  1  0.31600000  0.56550000  0.29653000  1.0 0.0018048035
C  C130  1  0.75050000  0.43450000  0.03680000  1.0 0.0018048035
C  C131  1  0.68400000  0.24950000  0.37013000  1.0 0.0018048035
C  C132  1  0.56550000  0.31600000  0.70347000  1.0 0.0018048035
C  C133  1  0.35870000  0.74860000  0.95980000  1.0 -0.0057920127
C  C134  1  0.25140000  0.61010000  0.62647000  1.0 -0.0057920127
C  C135  1  0.38990000  0.64130000  0.29313000  1.0 -0.0057920127
C  C136  1  0.74860000  0.35870000  0.04020000  1.0 -0.0057920127
C  C137  1  0.61010000  0.25140000  0.37353000  1.0 -0.0057920127
C  C138  1  0.64130000  0.38990000  0.70687000  1.0 -0.0057920127
C  C139  1  0.27830000  0.37010000  0.80970000  1.0 -0.0260374671
C  C140  1  0.62990000  0.90820000  0.47637000  1.0 -0.0260374671
C  C141  1  0.09180000  0.72170000  0.14303000  1.0 -0.0260374671
C  C142  1  0.37010000  0.27830000  0.19030000  1.0 -0.0260374671
C  C143  1  0.90820000  0.62990000  0.52363000  1.0 -0.0260374671
C  C144  1  0.72170000  0.09180000  0.85697000  1.0 -0.0260374671
C  C145  1  0.24590000  0.34920000  0.87220000  1.0 -0.1101734083
C  C146  1  0.65080000  0.89670000  0.53887000  1.0 -0.1101734083
C  C147  1  0.10330000  0.75410000  0.20553000  1.0 -0.1101734083
C  C148  1  0.34920000  0.24590000  0.12780000  1.0 -0.1101734083
C  C149  1  0.89670000  0.65080000  0.46113000  1.0 -0.1101734083
C  C150  1  0.75410000  0.10330000  0.79447000  1.0 -0.1101734083
C  C151  1  0.21070000  0.26490000  0.89210000  1.0 -0.1001359365
C  C152  1  0.73510000  0.94580000  0.55877000  1.0 -0.1001359365
C  C153  1  0.05420000  0.78930000  0.22543000  1.0 -0.1001359365
C  C154  1  0.26490000  0.21070000  0.10790000  1.0 -0.1001359365
C  C155  1  0.94580000  0.73510000  0.44123000  1.0 -0.1001359365
C  C156  1  0.78930000  0.05420000  0.77457000  1.0 -0.1001359365
C  C157  1  0.20930000  0.20770000  0.85390000  1.0 -0.1001359365
C  C158  1  0.79230000  0.00160000  0.52057000  1.0 -0.1001359365
C  C159  1  0.99840000  0.79070000  0.18723000  1.0 -0.1001359365
C  C160  1  0.20770000  0.20930000  0.14610000  1.0 -0.1001359365
C  C161  1  0.00160000  0.79230000  0.47943000  1.0 -0.1001359365
C  C162  1  0.79070000  0.99840000  0.81277000  1.0 -0.1001359365
C  C163  1  0.23640000  0.22390000  0.79220000  1.0 -0.0827497047
C  C164  1  0.77610000  0.01250000  0.45887000  1.0 -0.0827497047
C  C165  1  0.98750000  0.76360000  0.12553000  1.0 -0.0827497047
C  C166  1  0.22390000  0.23640000  0.20780000  1.0 -0.0827497047
C  C167  1  0.01250000  0.77610000  0.54113000  1.0 -0.0827497047
C  C168  1  0.76360000  0.98750000  0.87447000  1.0 -0.0827497047
C  C169  1  0.27050000  0.30230000  0.77310000  1.0 -0.1347426019
C  C170  1  0.69770000  0.96820000  0.43977000  1.0 -0.1347426019
C  C171  1  0.03180000  0.72950000  0.10643000  1.0 -0.1347426019
C  C172  1  0.30230000  0.27050000  0.22690000  1.0 -0.1347426019
C  C173  1  0.96820000  0.69770000  0.56023000  1.0 -0.1347426019
C  C174  1  0.72950000  0.03180000  0.89357000  1.0 -0.1347426019
C  C175  1  0.42630000  0.51950000  0.82690000  1.0 -0.0185451822
C  C176  1  0.48050000  0.90680000  0.49357000  1.0 -0.0185451822
C  C177  1  0.09320000  0.57370000  0.16023000  1.0 -0.0185451822
C  C178  1  0.51950000  0.42630000  0.17310000  1.0 -0.0185451822
C  C179  1  0.90680000  0.48050000  0.50643000  1.0 -0.0185451822
C  C180  1  0.57370000  0.09320000  0.83977000  1.0 -0.0185451822
C  C181  1  0.48140000  0.59960000  0.81580000  1.0 -0.1546652482
C  C182  1  0.40040000  0.88180000  0.48247000  1.0 -0.1546652482
C  C183  1  0.11820000  0.51860000  0.14913000  1.0 -0.1546652482
C  C184  1  0.59960000  0.48140000  0.18420000  1.0 -0.1546652482
C  C185  1  0.88180000  0.40040000  0.51753000  1.0 -0.1546652482
C  C186  1  0.51860000  0.11820000  0.85087000  1.0 -0.1546652482
C  C187  1  0.55870000  0.64370000  0.84670000  1.0 -0.1175116342
C  C188  1  0.35630000  0.91500000  0.51337000  1.0 -0.1175116342
C  C189  1  0.08500000  0.44130000  0.18003000  1.0 -0.1175116342
C  C190  1  0.64370000  0.55870000  0.15330000  1.0 -0.1175116342
C  C191  1  0.91500000  0.35630000  0.48663000  1.0 -0.1175116342
C  C192  1  0.44130000  0.08500000  0.81997000  1.0 -0.1175116342
C  C193  1  0.57790000  0.60910000  0.89310000  1.0 -0.0885356594
C  C194  1  0.39090000  0.96880000  0.55977000  1.0 -0.0885356594
C  C195  1  0.03120000  0.42210000  0.22643000  1.0 -0.0885356594
C  C196  1  0.60910000  0.57790000  0.10690000  1.0 -0.0885356594
C  C197  1  0.96880000  0.39090000  0.44023000  1.0 -0.0885356594
C  C198  1  0.42210000  0.03120000  0.77357000  1.0 -0.0885356594
C  C199  1  0.52180000  0.52650000  0.90180000  1.0 -0.1425385976
C  C200  1  0.47350000  0.99530000  0.56847000  1.0 -0.1425385976
C  C201  1  0.00470000  0.47820000  0.23513000  1.0 -0.1425385976
C  C202  1  0.52650000  0.52180000  0.09820000  1.0 -0.1425385976
C  C203  1  0.99530000  0.47350000  0.43153000  1.0 -0.1425385976
C  C204  1  0.47820000  0.00470000  0.76487000  1.0 -0.1425385976
C  C205  1  0.44340000  0.47960000  0.87260000  1.0 -0.1829971625
C  C206  1  0.52040000  0.96380000  0.53927000  1.0 -0.1829971625
C  C207  1  0.03620000  0.55660000  0.20593000  1.0 -0.1829971625
C  C208  1  0.47960000  0.44340000  0.12740000  1.0 -0.1829971625
C  C209  1  0.96380000  0.52040000  0.46073000  1.0 -0.1829971625
C  C210  1  0.55660000  0.03620000  0.79407000  1.0 -0.1829971625
C  C211  1  0.37290000  0.72430000  0.96200000  1.0 0.0018048035
C  C212  1  0.27570000  0.64860000  0.62867000  1.0 0.0018048035
C  C213  1  0.35140000  0.62710000  0.29533000  1.0 0.0018048035
C  C214  1  0.72430000  0.37290000  0.03800000  1.0 0.0018048035
C  C215  1  0.64860000  0.27570000  0.37133000  1.0 0.0018048035
C  C216  1  0.62710000  0.35140000  0.70467000  1.0 0.0018048035
C  C217  1  0.44400000  0.71740000  0.96570000  1.0 -0.0260374671
C  C218  1  0.28260000  0.72660000  0.63237000  1.0 -0.0260374671
C  C219  1  0.27340000  0.55600000  0.29903000  1.0 -0.0260374671
C  C220  1  0.71740000  0.44400000  0.03430000  1.0 -0.0260374671
C  C221  1  0.72660000  0.28260000  0.36763000  1.0 -0.0260374671
C  C222  1  0.55600000  0.27340000  0.70097000  1.0 -0.0260374671
C  C223  1  0.52160000  0.78620000  0.95320000  1.0 -0.1001359365
C  C224  1  0.21380000  0.73540000  0.61987000  1.0 -0.1001359365
C  C225  1  0.26460000  0.47840000  0.28653000  1.0 -0.1001359365
C  C226  1  0.78620000  0.52160000  0.04680000  1.0 -0.1001359365
C  C227  1  0.73540000  0.21380000  0.38013000  1.0 -0.1001359365
C  C228  1  0.47840000  0.26460000  0.71347000  1.0 -0.1001359365
C  C229  1  0.52800000  0.86180000  0.93710000  1.0 -0.0607868549
C  C230  1  0.13820000  0.66620000  0.60377000  1.0 -0.0607868549
C  C231  1  0.33380000  0.47200000  0.27043000  1.0 -0.0607868549
C  C232  1  0.86180000  0.52800000  0.06290000  1.0 -0.0607868549
C  C233  1  0.66620000  0.13820000  0.39623000  1.0 -0.0607868549
C  C234  1  0.47200000  0.33380000  0.72957000  1.0 -0.0607868549
C  C235  1  0.45690000  0.86860000  0.93340000  1.0 -0.0057920127
C  C236  1  0.13140000  0.58830000  0.60007000  1.0 -0.0057920127
C  C237  1  0.41170000  0.54310000  0.26673000  1.0 -0.0057920127
C  C238  1  0.86860000  0.45690000  0.06660000  1.0 -0.0057920127
C  C239  1  0.58830000  0.13140000  0.39993000  1.0 -0.0057920127
C  C240  1  0.54310000  0.41170000  0.73327000  1.0 -0.0057920127
C  C241  1  0.37930000  0.79990000  0.94590000  1.0 0.0018048035
C  C242  1  0.20010000  0.57940000  0.61257000  1.0 0.0018048035
C  C243  1  0.42060000  0.62070000  0.27923000  1.0 0.0018048035
C  C244  1  0.79990000  0.37930000  0.05410000  1.0 0.0018048035
C  C245  1  0.57940000  0.20010000  0.38743000  1.0 0.0018048035
C  C246  1  0.62070000  0.42060000  0.72077000  1.0 0.0018048035
Br  Br1  1  0.16480000  0.78871000  0.96488000  1.0 -0.4144908752
Br  Br2  1  0.21129000  0.37609000  0.63155000  1.0 -0.4157591489
Br  Br3  1  0.62391000  0.83520000  0.29821000  1.0 -0.4157591489
Br  Br4  1  0.78871000  0.16480000  0.03512000  1.0 -0.4157591489
Br  Br5  1  0.37609000  0.21129000  0.36845000  1.0 -0.4157591489
Br  Br6  1  0.83520000  0.62391000  0.70179000  1.0 -0.4157591489
N  N1  1  0.95170000  0.52470000  0.69720000  1.0 -0.1924971942
N  N2  1  0.47530000  0.42700000  0.36387000  1.0 -0.1924971942
N  N3  1  0.57300000  0.04830000  0.03053000  1.0 -0.1924971942
N  N4  1  0.52470000  0.95170000  0.30280000  1.0 -0.1924971942
N  N5  1  0.42700000  0.47530000  0.63613000  1.0 -0.1924971942
N  N6  1  0.04830000  0.57300000  0.96947000  1.0 -0.1924971942
