# DDEC6 charges by PACMAN v1.1 (https://github.com/mtap-research/PACMAN-charge/)
data_GEGBEB_ion_pacman
_symmetry_space_group_name_H-M   'P 1'
_cell_length_a   14.24370000
_cell_length_b   25.82960000
_cell_length_c   27.83910000
_cell_angle_alpha   90.00000000
_cell_angle_beta   97.59200000
_cell_angle_gamma   90.00000000
_symmetry_Int_Tables_number   1
_chemical_formula_structural   EuAg3H75C86N21Cl5O21
_chemical_formula_sum   'Eu4 Ag12 H300 C344 N84 Cl20 O84'
_cell_volume   10152.47382943
_cell_formula_units_Z   4
loop_
 _symmetry_equiv_pos_site_id
 _symmetry_equiv_pos_as_xyz
  1  'x, y, z'
loop_
 _atom_site_type_symbol
 _atom_site_label
 _atom_site_symmetry_multiplicity
 _atom_site_fract_x
 _atom_site_fract_y
 _atom_site_fract_z
 _atom_site_occupancy
 _atom_site_charge
Eu  Eu1  1  0.47776000  0.41514000  0.21906000  1.0 1.596340598
Eu  Eu2  1  0.52224000  0.91514000  0.28094000  1.0 1.596340598
Eu  Eu3  1  0.52224000  0.58486000  0.78094000  1.0 1.596340598
Eu  Eu4  1  0.47776000  0.08486000  0.71906000  1.0 1.596340598
Ag  Ag1  1  0.92608000  0.47980000  0.07351000  1.0 0.3345920159
Ag  Ag2  1  0.07392000  0.97980000  0.42649000  1.0 0.3345920159
Ag  Ag3  1  0.07392000  0.52020000  0.92649000  1.0 0.3345920159
Ag  Ag4  1  0.92608000  0.02020000  0.57351000  1.0 0.3345920159
Ag  Ag5  1  0.08214000  0.38502000  0.53255000  1.0 0.3759050755
Ag  Ag6  1  0.91786000  0.88502000  0.96745000  1.0 0.3759050755
Ag  Ag7  1  0.91786000  0.61498000  0.46745000  1.0 0.3759050755
Ag  Ag8  1  0.08214000  0.11498000  0.03255000  1.0 0.3759050755
Ag  Ag9  1  0.98428000  0.73947000  0.18381000  1.0 0.400741571
Ag  Ag10  1  0.01572000  0.23947000  0.31619000  1.0 0.400741571
Ag  Ag11  1  0.01572000  0.26053000  0.81619000  1.0 0.400741571
Ag  Ag12  1  0.98428000  0.76053000  0.68381000  1.0 0.400741571
H  H1  1  0.18670000  0.46770000  0.20710000  1.0 0.1206593557
H  H2  1  0.81330000  0.96770000  0.29290000  1.0 0.1206593557
H  H3  1  0.81330000  0.53230000  0.79290000  1.0 0.1206593557
H  H4  1  0.18670000  0.03230000  0.70710000  1.0 0.1206593557
H  H5  1  0.26570000  0.47780000  0.25280000  1.0 0.1301432887
H  H6  1  0.73430000  0.97780000  0.24720000  1.0 0.1301432887
H  H7  1  0.73430000  0.52220000  0.74720000  1.0 0.1301432887
H  H8  1  0.26570000  0.02220000  0.75280000  1.0 0.1301432887
H  H9  1  0.53480000  0.50710000  0.11780000  1.0 0.1301432887
H  H10  1  0.46520000  0.00710000  0.38220000  1.0 0.1301432887
H  H11  1  0.46520000  0.49290000  0.88220000  1.0 0.1301432887
H  H12  1  0.53480000  0.99290000  0.61780000  1.0 0.1301432887
H  H13  1  0.55630000  0.58880000  0.08330000  1.0 0.1106592908
H  H14  1  0.44370000  0.08880000  0.41670000  1.0 0.1106592908
H  H15  1  0.44370000  0.41120000  0.91670000  1.0 0.1106592908
H  H16  1  0.55630000  0.91120000  0.58330000  1.0 0.1106592908
H  H17  1  0.44860000  0.65590000  0.08980000  1.0 0.1106592908
H  H18  1  0.55140000  0.15590000  0.41020000  1.0 0.1106592908
H  H19  1  0.55140000  0.34410000  0.91020000  1.0 0.1106592908
H  H20  1  0.44860000  0.84410000  0.58980000  1.0 0.1106592908
H  H21  1  0.31780000  0.64450000  0.13020000  1.0 0.1301432887
H  H22  1  0.68220000  0.14450000  0.36980000  1.0 0.1301432887
H  H23  1  0.68220000  0.35550000  0.86980000  1.0 0.1301432887
H  H24  1  0.31780000  0.85550000  0.63020000  1.0 0.1301432887
H  H25  1  0.18780000  0.56260000  0.22190000  1.0 0.1206593557
H  H26  1  0.81220000  0.06260000  0.27810000  1.0 0.1206593557
H  H27  1  0.81220000  0.43740000  0.77810000  1.0 0.1206593557
H  H28  1  0.18780000  0.93740000  0.72190000  1.0 0.1206593557
H  H29  1  0.23150000  0.61450000  0.20290000  1.0 0.1301432887
H  H30  1  0.76850000  0.11450000  0.29710000  1.0 0.1301432887
H  H31  1  0.76850000  0.38550000  0.79710000  1.0 0.1301432887
H  H32  1  0.23150000  0.88550000  0.70290000  1.0 0.1301432887
H  H33  1  0.12710000  0.66410000  0.14950000  1.0 0.1206593557
H  H34  1  0.87290000  0.16410000  0.35050000  1.0 0.1206593557
H  H35  1  0.87290000  0.33590000  0.85050000  1.0 0.1206593557
H  H36  1  0.12710000  0.83590000  0.64950000  1.0 0.1206593557
H  H37  1  0.98690000  0.67210000  0.09440000  1.0 0.1206593557
H  H38  1  0.01310000  0.17210000  0.40560000  1.0 0.1206593557
H  H39  1  0.01310000  0.32790000  0.90560000  1.0 0.1206593557
H  H40  1  0.98690000  0.82790000  0.59440000  1.0 0.1206593557
H  H41  1  0.89980000  0.60090000  0.07130000  1.0 0.1206593557
H  H42  1  0.10020000  0.10090000  0.42870000  1.0 0.1206593557
H  H43  1  0.10020000  0.39910000  0.92870000  1.0 0.1106592908
H  H44  1  0.89980000  0.89910000  0.57130000  1.0 0.1206593557
H  H45  1  0.08690000  0.51280000  0.14850000  1.0 0.1106592908
H  H46  1  0.91310000  0.01280000  0.35150000  1.0 0.1106592908
H  H47  1  0.91310000  0.48720000  0.85150000  1.0 0.1106592908
H  H48  1  0.08690000  0.98720000  0.64850000  1.0 0.1106592908
H  H49  1  0.19880000  0.38940000  0.26110000  1.0 0.1206593557
H  H50  1  0.80120000  0.88940000  0.23890000  1.0 0.1206593557
H  H51  1  0.80120000  0.61060000  0.73890000  1.0 0.1206593557
H  H52  1  0.19880000  0.11060000  0.76110000  1.0 0.1206593557
H  H53  1  0.26990000  0.34450000  0.24870000  1.0 0.1301432887
H  H54  1  0.73010000  0.84450000  0.25130000  1.0 0.1301432887
H  H55  1  0.73010000  0.65550000  0.75130000  1.0 0.1301432887
H  H56  1  0.26990000  0.15550000  0.74870000  1.0 0.1301432887
H  H57  1  0.57380000  0.47060000  0.34540000  1.0 0.1301432887
H  H58  1  0.42620000  0.97060000  0.15460000  1.0 0.1301432887
H  H59  1  0.42620000  0.52940000  0.65460000  1.0 0.1301432887
H  H60  1  0.57380000  0.02940000  0.84540000  1.0 0.1301432887
H  H61  1  0.61740000  0.46570000  0.42980000  1.0 0.1206593557
H  H62  1  0.38260000  0.96570000  0.07020000  1.0 0.1206593557
H  H63  1  0.38260000  0.53430000  0.57020000  1.0 0.1206593557
H  H64  1  0.61740000  0.03430000  0.92980000  1.0 0.1206593557
H  H65  1  0.52400000  0.42040000  0.47840000  1.0 0.1206593557
H  H66  1  0.47600000  0.92040000  0.02160000  1.0 0.1206593557
H  H67  1  0.47600000  0.57960000  0.52160000  1.0 0.1206593557
H  H68  1  0.52400000  0.07960000  0.97840000  1.0 0.1206593557
H  H69  1  0.38170000  0.38180000  0.44590000  1.0 0.1301432887
H  H70  1  0.61830000  0.88180000  0.05410000  1.0 0.1301432887
H  H71  1  0.61830000  0.61820000  0.55410000  1.0 0.1301432887
H  H72  1  0.38170000  0.11820000  0.94590000  1.0 0.1301432887
H  H73  1  0.21650000  0.32900000  0.33210000  1.0 0.1301432887
H  H74  1  0.78350000  0.82900000  0.16790000  1.0 0.1301432887
H  H75  1  0.78350000  0.67100000  0.66790000  1.0 0.1301432887
H  H76  1  0.21650000  0.17100000  0.83210000  1.0 0.1301432887
H  H77  1  0.27630000  0.32340000  0.38470000  1.0 0.1206593557
H  H78  1  0.72370000  0.82340000  0.11530000  1.0 0.1206593557
H  H79  1  0.72370000  0.67660000  0.61530000  1.0 0.1206593557
H  H80  1  0.27630000  0.17660000  0.88470000  1.0 0.1206593557
H  H81  1  0.10730000  0.41310000  0.32090000  1.0 0.1206593557
H  H82  1  0.89270000  0.91310000  0.17910000  1.0 0.1206593557
H  H83  1  0.89270000  0.58690000  0.67910000  1.0 0.1206593557
H  H84  1  0.10730000  0.08690000  0.82090000  1.0 0.1206593557
H  H85  1  0.99390000  0.45660000  0.35820000  1.0 0.1383272191
H  H86  1  0.00610000  0.95660000  0.14180000  1.0 0.1383272191
H  H87  1  0.00610000  0.54340000  0.64180000  1.0 0.1383272191
H  H88  1  0.99390000  0.04340000  0.85820000  1.0 0.1383272191
H  H89  1  0.98280000  0.44240000  0.43840000  1.0 0.1106592908
H  H90  1  0.01720000  0.94240000  0.06160000  1.0 0.1106592908
H  H91  1  0.01720000  0.55760000  0.56160000  1.0 0.1106592908
H  H92  1  0.98280000  0.05760000  0.93840000  1.0 0.1106592908
H  H93  1  0.20530000  0.35210000  0.45020000  1.0 0.1106592908
H  H94  1  0.79470000  0.85210000  0.04980000  1.0 0.1106592908
H  H95  1  0.79470000  0.64790000  0.54980000  1.0 0.1106592908
H  H96  1  0.20530000  0.14790000  0.95020000  1.0 0.1106592908
H  H97  1  0.24190000  0.41700000  0.14240000  1.0 0.1383272191
H  H98  1  0.75810000  0.91700000  0.35760000  1.0 0.1383272191
H  H99  1  0.75810000  0.58300000  0.85760000  1.0 0.1383272191
H  H100  1  0.24190000  0.08300000  0.64240000  1.0 0.1383272191
H  H101  1  0.18410000  0.37670000  0.17120000  1.0 0.1301432887
H  H102  1  0.81590000  0.87670000  0.32880000  1.0 0.1301432887
H  H103  1  0.81590000  0.62330000  0.82880000  1.0 0.1301432887
H  H104  1  0.18410000  0.12330000  0.67120000  1.0 0.1301432887
H  H105  1  0.55420000  0.27410000  0.19580000  1.0 0.1301432887
H  H106  1  0.44580000  0.77410000  0.30420000  1.0 0.1301432887
H  H107  1  0.44580000  0.72590000  0.80420000  1.0 0.1301432887
H  H108  1  0.55420000  0.22590000  0.69580000  1.0 0.1301432887
H  H109  1  0.58840000  0.21060000  0.14020000  1.0 0.1206593557
H  H110  1  0.41160000  0.71060000  0.35980000  1.0 0.1206593557
H  H111  1  0.41160000  0.78940000  0.85980000  1.0 0.1206593557
H  H112  1  0.58840000  0.28940000  0.64020000  1.0 0.1206593557
H  H113  1  0.48780000  0.19710000  0.06880000  1.0 0.1106592908
H  H114  1  0.51220000  0.69710000  0.43120000  1.0 0.1106592908
H  H115  1  0.51220000  0.80290000  0.93120000  1.0 0.1106592908
H  H116  1  0.48780000  0.30290000  0.56880000  1.0 0.1106592908
H  H117  1  0.34420000  0.24190000  0.05180000  1.0 0.1301432887
H  H118  1  0.65580000  0.74190000  0.44820000  1.0 0.1301432887
H  H119  1  0.65580000  0.75810000  0.94820000  1.0 0.1301432887
H  H120  1  0.34420000  0.25810000  0.55180000  1.0 0.1301432887
H  H121  1  0.17560000  0.35440000  0.07980000  1.0 0.1301432887
H  H122  1  0.82440000  0.85440000  0.42020000  1.0 0.1301432887
H  H123  1  0.82440000  0.64560000  0.92020000  1.0 0.1301432887
H  H124  1  0.17560000  0.14560000  0.57980000  1.0 0.1301432887
H  H125  1  0.22400000  0.31480000  0.04640000  1.0 0.1301432887
H  H126  1  0.77600000  0.81480000  0.45360000  1.0 0.1301432887
H  H127  1  0.77600000  0.68520000  0.95360000  1.0 0.1301432887
H  H128  1  0.22400000  0.18520000  0.54640000  1.0 0.1301432887
H  H129  1  0.05870000  0.32110000  0.13230000  1.0 0.1206593557
H  H130  1  0.94130000  0.82110000  0.36770000  1.0 0.1206593557
H  H131  1  0.94130000  0.67890000  0.86770000  1.0 0.1206593557
H  H132  1  0.05870000  0.17890000  0.63230000  1.0 0.1206593557
H  H133  1  0.95120000  0.25450000  0.14320000  1.0 0.1383272191
H  H134  1  0.04880000  0.75450000  0.35680000  1.0 0.1383272191
H  H135  1  0.04880000  0.74550000  0.85680000  1.0 0.1383272191
H  H136  1  0.95120000  0.24550000  0.64320000  1.0 0.1383272191
H  H137  1  0.96220000  0.17630000  0.10520000  1.0 0.1106592908
H  H138  1  0.03780000  0.67630000  0.39480000  1.0 0.1106592908
H  H139  1  0.03780000  0.82370000  0.89480000  1.0 0.1106592908
H  H140  1  0.96220000  0.32370000  0.60520000  1.0 0.1106592908
H  H141  1  0.17830000  0.22550000  0.04330000  1.0 0.1106592908
H  H142  1  0.82170000  0.72550000  0.45670000  1.0 0.1106592908
H  H143  1  0.82170000  0.77450000  0.95670000  1.0 0.1106592908
H  H144  1  0.17830000  0.27450000  0.54330000  1.0 0.1106592908
H  H145  1  0.76460000  0.47200000  0.22260000  1.0 0.1383272191
H  H146  1  0.23540000  0.97200000  0.27740000  1.0 0.1383272191
H  H147  1  0.23540000  0.52800000  0.77740000  1.0 0.1383272191
H  H148  1  0.76460000  0.02800000  0.72260000  1.0 0.1383272191
H  H149  1  0.69560000  0.46460000  0.17270000  1.0 0.1206593557
H  H150  1  0.30440000  0.96460000  0.32730000  1.0 0.1206593557
H  H151  1  0.30440000  0.53540000  0.82730000  1.0 0.1206593557
H  H152  1  0.69560000  0.03540000  0.67270000  1.0 0.1206593557
H  H153  1  0.41000000  0.53810000  0.28970000  1.0 0.1301432887
H  H154  1  0.59000000  0.03810000  0.21030000  1.0 0.1301432887
H  H155  1  0.59000000  0.46190000  0.71030000  1.0 0.1301432887
H  H156  1  0.41000000  0.96190000  0.78970000  1.0 0.1301432887
H  H157  1  0.37190000  0.62580000  0.28950000  1.0 0.1206593557
H  H158  1  0.62810000  0.12580000  0.21050000  1.0 0.1206593557
H  H159  1  0.62810000  0.37420000  0.71050000  1.0 0.1206593557
H  H160  1  0.37190000  0.87420000  0.78950000  1.0 0.1206593557
H  H161  1  0.45560000  0.68610000  0.25090000  1.0 0.1106592908
H  H162  1  0.54440000  0.18610000  0.24910000  1.0 0.1106592908
H  H163  1  0.54440000  0.31390000  0.74910000  1.0 0.1106592908
H  H164  1  0.45560000  0.81390000  0.75090000  1.0 0.1106592908
H  H165  1  0.59010000  0.66290000  0.21580000  1.0 0.1301432887
H  H166  1  0.40990000  0.16290000  0.28420000  1.0 0.1301432887
H  H167  1  0.40990000  0.33710000  0.78420000  1.0 0.1301432887
H  H168  1  0.59010000  0.83710000  0.71580000  1.0 0.1301432887
H  H169  1  0.74320000  0.55190000  0.16430000  1.0 0.1206593557
H  H170  1  0.25680000  0.05190000  0.33570000  1.0 0.1206593557
H  H171  1  0.25680000  0.44810000  0.83570000  1.0 0.1206593557
H  H172  1  0.74320000  0.94810000  0.66430000  1.0 0.1206593557
H  H173  1  0.68560000  0.60520000  0.16030000  1.0 0.1301432887
H  H174  1  0.31440000  0.10520000  0.33970000  1.0 0.1301432887
H  H175  1  0.31440000  0.39480000  0.83970000  1.0 0.1301432887
H  H176  1  0.68560000  0.89480000  0.66030000  1.0 0.1301432887
H  H177  1  0.82410000  0.55660000  0.26900000  1.0 0.1206593557
H  H178  1  0.17590000  0.05660000  0.23100000  1.0 0.1206593557
H  H179  1  0.17590000  0.44340000  0.73100000  1.0 0.1206593557
H  H180  1  0.82410000  0.94340000  0.76900000  1.0 0.1206593557
H  H181  1  0.95400000  0.60320000  0.31100000  1.0 0.1383272191
H  H182  1  0.04600000  0.10320000  0.18900000  1.0 0.1383272191
H  H183  1  0.04600000  0.39680000  0.68900000  1.0 0.1383272191
H  H184  1  0.95400000  0.89680000  0.81100000  1.0 0.1383272191
H  H185  1  0.01090000  0.67340000  0.27450000  1.0 0.0991760817
H  H186  1  0.98910000  0.17340000  0.22550000  1.0 0.0991760817
H  H187  1  0.98910000  0.32660000  0.72550000  1.0 0.0991760817
H  H188  1  0.01090000  0.82660000  0.77450000  1.0 0.0991760817
H  H189  1  0.80020000  0.66810000  0.16970000  1.0 0.1106592908
H  H190  1  0.19980000  0.16810000  0.33030000  1.0 0.1106592908
H  H191  1  0.19980000  0.33190000  0.83030000  1.0 0.1106592908
H  H192  1  0.80020000  0.83190000  0.66970000  1.0 0.1106592908
H  H193  1  0.70400000  0.44140000  0.29530000  1.0 0.1301432887
H  H194  1  0.29600000  0.94140000  0.20470000  1.0 0.1301432887
H  H195  1  0.29600000  0.55860000  0.70470000  1.0 0.1301432887
H  H196  1  0.70400000  0.05860000  0.79530000  1.0 0.1301432887
H  H197  1  0.77120000  0.39590000  0.28020000  1.0 0.1383272191
H  H198  1  0.22880000  0.89590000  0.21980000  1.0 0.1383272191
H  H199  1  0.22880000  0.60410000  0.71980000  1.0 0.1383272191
H  H200  1  0.77120000  0.10410000  0.78020000  1.0 0.1383272191
H  H201  1  0.40860000  0.28400000  0.27450000  1.0 0.1301432887
H  H202  1  0.59140000  0.78400000  0.22550000  1.0 0.1301432887
H  H203  1  0.59140000  0.71600000  0.72550000  1.0 0.1301432887
H  H204  1  0.40860000  0.21600000  0.77450000  1.0 0.1301432887
H  H205  1  0.37420000  0.23990000  0.34340000  1.0 0.1106592908
H  H206  1  0.62580000  0.73990000  0.15660000  1.0 0.1106592908
H  H207  1  0.62580000  0.76010000  0.65660000  1.0 0.1106592908
H  H208  1  0.37420000  0.26010000  0.84340000  1.0 0.1106592908
H  H209  1  0.47400000  0.24650000  0.41670000  1.0 0.1106592908
H  H210  1  0.52600000  0.74650000  0.08330000  1.0 0.1106592908
H  H211  1  0.52600000  0.75350000  0.58330000  1.0 0.1106592908
H  H212  1  0.47400000  0.25350000  0.91670000  1.0 0.1106592908
H  H213  1  0.61680000  0.29320000  0.42320000  1.0 0.1383272191
H  H214  1  0.38320000  0.79320000  0.07680000  1.0 0.1383272191
H  H215  1  0.38320000  0.70680000  0.57680000  1.0 0.1383272191
H  H216  1  0.61680000  0.20680000  0.92320000  1.0 0.1383272191
H  H217  1  0.76240000  0.40390000  0.37040000  1.0 0.1206593557
H  H218  1  0.23760000  0.90390000  0.12960000  1.0 0.1206593557
H  H219  1  0.23760000  0.59610000  0.62960000  1.0 0.1206593557
H  H220  1  0.76240000  0.09610000  0.87040000  1.0 0.1206593557
H  H221  1  0.71170000  0.37670000  0.41160000  1.0 0.1301432887
H  H222  1  0.28830000  0.87670000  0.08840000  1.0 0.1301432887
H  H223  1  0.28830000  0.62330000  0.58840000  1.0 0.1301432887
H  H224  1  0.71170000  0.12330000  0.91160000  1.0 0.1301432887
H  H225  1  0.82950000  0.34180000  0.46630000  1.0 0.1301432887
H  H226  1  0.17050000  0.84180000  0.03370000  1.0 0.1301432887
H  H227  1  0.17050000  0.65820000  0.53370000  1.0 0.1301432887
H  H228  1  0.82950000  0.15820000  0.96630000  1.0 0.1301432887
H  H229  1  0.96390000  0.29020000  0.48540000  1.0 0.1206593557
H  H230  1  0.03610000  0.79020000  0.01460000  1.0 0.1206593557
H  H231  1  0.03610000  0.70980000  0.51460000  1.0 0.1206593557
H  H232  1  0.96390000  0.20980000  0.98540000  1.0 0.1206593557
H  H233  1  0.04000000  0.25880000  0.42420000  1.0 0.0991760817
H  H234  1  0.96000000  0.75880000  0.07580000  1.0 0.0991760817
H  H235  1  0.96000000  0.74120000  0.57580000  1.0 0.0991760817
H  H236  1  0.04000000  0.24120000  0.92420000  1.0 0.0991760817
H  H237  1  0.84580000  0.31860000  0.32600000  1.0 0.1106592908
H  H238  1  0.15420000  0.81860000  0.17400000  1.0 0.1106592908
H  H239  1  0.15420000  0.68140000  0.67400000  1.0 0.1106592908
H  H240  1  0.84580000  0.18140000  0.82600000  1.0 0.1106592908
H  H241  1  0.76120000  0.37850000  0.18940000  1.0 0.1301432887
H  H242  1  0.23880000  0.87850000  0.31060000  1.0 0.1301432887
H  H243  1  0.23880000  0.62150000  0.81060000  1.0 0.1301432887
H  H244  1  0.76120000  0.12150000  0.68940000  1.0 0.1301432887
H  H245  1  0.69280000  0.33960000  0.21350000  1.0 0.1383272191
H  H246  1  0.30720000  0.83960000  0.28650000  1.0 0.1383272191
H  H247  1  0.30720000  0.66040000  0.78650000  1.0 0.1383272191
H  H248  1  0.69280000  0.16040000  0.71350000  1.0 0.1383272191
H  H249  1  0.38630000  0.42750000  0.08210000  1.0 0.1301432887
H  H250  1  0.61370000  0.92750000  0.41790000  1.0 0.1301432887
H  H251  1  0.61370000  0.57250000  0.91790000  1.0 0.1301432887
H  H252  1  0.38630000  0.07250000  0.58210000  1.0 0.1301432887
H  H253  1  0.34450000  0.39270000  0.00420000  1.0 0.1206593557
H  H254  1  0.65550000  0.89270000  0.49580000  1.0 0.1206593557
H  H255  1  0.65550000  0.60730000  0.99580000  1.0 0.1206593557
H  H256  1  0.34450000  0.10730000  0.50420000  1.0 0.1206593557
H  H257  1  0.43980000  0.33070000  0.97350000  1.0 0.1106592908
H  H258  1  0.56020000  0.83070000  0.52650000  1.0 0.1106592908
H  H259  1  0.56020000  0.66930000  0.02650000  1.0 0.1106592908
H  H260  1  0.43980000  0.16930000  0.47350000  1.0 0.1106592908
H  H261  1  0.58460000  0.30510000  0.01690000  1.0 0.1301432887
H  H262  1  0.41540000  0.80510000  0.48310000  1.0 0.1301432887
H  H263  1  0.41540000  0.69490000  0.98310000  1.0 0.1301432887
H  H264  1  0.58460000  0.19490000  0.51690000  1.0 0.1301432887
H  H265  1  0.75940000  0.29970000  0.13820000  1.0 0.1301432887
H  H266  1  0.24060000  0.79970000  0.36180000  1.0 0.1301432887
H  H267  1  0.24060000  0.70030000  0.86180000  1.0 0.1301432887
H  H268  1  0.75940000  0.20030000  0.63820000  1.0 0.1301432887
H  H269  1  0.69810000  0.27360000  0.09210000  1.0 0.1383272191
H  H270  1  0.30190000  0.77360000  0.40790000  1.0 0.1383272191
H  H271  1  0.30190000  0.72640000  0.90790000  1.0 0.1383272191
H  H272  1  0.69810000  0.22640000  0.59210000  1.0 0.1383272191
H  H273  1  0.78890000  0.27020000  0.02600000  1.0 0.1301432887
H  H274  1  0.21110000  0.77020000  0.47400000  1.0 0.1301432887
H  H275  1  0.21110000  0.72980000  0.97400000  1.0 0.1301432887
H  H276  1  0.78890000  0.22980000  0.52600000  1.0 0.1301432887
H  H277  1  0.89190000  0.30950000  0.97800000  1.0 0.1301432887
H  H278  1  0.10810000  0.80950000  0.52200000  1.0 0.1301432887
H  H279  1  0.10810000  0.69050000  0.02200000  1.0 0.1301432887
H  H280  1  0.89190000  0.19050000  0.47800000  1.0 0.1301432887
H  H281  1  0.94510000  0.39250000  0.99630000  1.0 0.1106592908
H  H282  1  0.05490000  0.89250000  0.50370000  1.0 0.1106592908
H  H283  1  0.05490000  0.60750000  0.00370000  1.0 0.1106592908
H  H284  1  0.94510000  0.10750000  0.49630000  1.0 0.1106592908
H  H285  1  0.81060000  0.39530000  0.11060000  1.0 0.0991760817
H  H286  1  0.18940000  0.89530000  0.38940000  1.0 0.0991760817
H  H287  1  0.18940000  0.60470000  0.88940000  1.0 0.0991760817
H  H288  1  0.81060000  0.10470000  0.61060000  1.0 0.0991760817
H  H289  1  0.78140000  0.51310000  0.50430000  1.0 0.160894661
H  H290  1  0.21860000  0.01310000  0.99570000  1.0 0.160894661
H  H291  1  0.21860000  0.48690000  0.49570000  1.0 0.160894661
H  H292  1  0.78140000  0.98690000  0.00430000  1.0 0.160894661
H  H293  1  0.73150000  0.46250000  0.52240000  1.0 0.177136959
H  H294  1  0.26850000  0.96250000  0.97760000  1.0 0.177136959
H  H295  1  0.26850000  0.53750000  0.47760000  1.0 0.177136959
H  H296  1  0.73150000  0.03750000  0.02240000  1.0 0.177136959
H  H297  1  0.78020000  0.50350000  0.56100000  1.0 0.160894661
H  H298  1  0.21980000  0.00350000  0.93900000  1.0 0.160894661
H  H299  1  0.21980000  0.49650000  0.43900000  1.0 0.160894661
H  H300  1  0.78020000  0.99650000  0.06100000  1.0 0.160894661
C  C1  1  0.25550000  0.46630000  0.21860000  1.0 -0.2315583245
C  C2  1  0.74450000  0.96630000  0.28140000  1.0 -0.2315583245
C  C3  1  0.74450000  0.53370000  0.78140000  1.0 -0.2315583245
C  C4  1  0.25550000  0.03370000  0.71860000  1.0 -0.2315583245
C  C5  1  0.30760000  0.50090000  0.18846000  1.0 0.2874525561
C  C6  1  0.69240000  0.00090000  0.31154000  1.0 0.2874525561
C  C7  1  0.69240000  0.49910000  0.81154000  1.0 0.2874525561
C  C8  1  0.30760000  0.99910000  0.68846000  1.0 0.2874525561
C  C9  1  0.41430000  0.52870000  0.14602000  1.0 0.1664046659
C  C10  1  0.58570000  0.02870000  0.35398000  1.0 0.1664046659
C  C11  1  0.58570000  0.47130000  0.85398000  1.0 0.1664046659
C  C12  1  0.41430000  0.97130000  0.64602000  1.0 0.1664046659
C  C13  1  0.49190000  0.53470000  0.12080000  1.0 -0.1793396062
C  C14  1  0.50810000  0.03470000  0.37920000  1.0 -0.1793396062
C  C15  1  0.50810000  0.46530000  0.87920000  1.0 -0.1793396062
C  C16  1  0.49190000  0.96530000  0.62080000  1.0 -0.1793396062
C  C17  1  0.50360000  0.58300000  0.10030000  1.0 -0.0988194688
C  C18  1  0.49640000  0.08300000  0.39970000  1.0 -0.0988194688
C  C19  1  0.49640000  0.41700000  0.89970000  1.0 -0.0988194688
C  C20  1  0.50360000  0.91700000  0.60030000  1.0 -0.0988194688
C  C21  1  0.43840000  0.62330000  0.10420000  1.0 -0.0910986529
C  C22  1  0.56160000  0.12330000  0.39580000  1.0 -0.0910986529
C  C23  1  0.56160000  0.37670000  0.89580000  1.0 -0.0910986529
C  C24  1  0.43840000  0.87670000  0.60420000  1.0 -0.0910986529
C  C25  1  0.36150000  0.61710000  0.12790000  1.0 -0.1695093999
C  C26  1  0.63850000  0.11710000  0.37210000  1.0 -0.1695093999
C  C27  1  0.63850000  0.38290000  0.87210000  1.0 -0.1695093999
C  C28  1  0.36150000  0.88290000  0.62790000  1.0 -0.1695093999
C  C29  1  0.34960000  0.56840000  0.14876000  1.0 0.0796470155
C  C30  1  0.65040000  0.06840000  0.35124000  1.0 0.0796470155
C  C31  1  0.65040000  0.43160000  0.85124000  1.0 0.0796470155
C  C32  1  0.34960000  0.93160000  0.64876000  1.0 0.0796470155
C  C33  1  0.20660000  0.57980000  0.19280000  1.0 -0.1417669802
C  C34  1  0.79340000  0.07980000  0.30720000  1.0 -0.1417669802
C  C35  1  0.79340000  0.42020000  0.80720000  1.0 -0.1417669802
C  C36  1  0.20660000  0.92020000  0.69280000  1.0 -0.1417669802
C  C37  1  0.11850000  0.58670000  0.15570000  1.0 0.0614275461
C  C38  1  0.88150000  0.08670000  0.34430000  1.0 0.0614275461
C  C39  1  0.88150000  0.41330000  0.84430000  1.0 0.0614275461
C  C40  1  0.11850000  0.91330000  0.65570000  1.0 0.0614275461
C  C41  1  0.09080000  0.63430000  0.13910000  1.0 -0.1066071899
C  C42  1  0.90920000  0.13430000  0.36090000  1.0 -0.1066071899
C  C43  1  0.90920000  0.36570000  0.86090000  1.0 -0.1066071899
C  C44  1  0.09080000  0.86570000  0.63910000  1.0 -0.1066071899
C  C45  1  0.00750000  0.63900000  0.10640000  1.0 -0.1579710269
C  C46  1  0.99250000  0.13900000  0.39360000  1.0 -0.1579710269
C  C47  1  0.99250000  0.36100000  0.89360000  1.0 -0.1579710269
C  C48  1  0.00750000  0.86100000  0.60640000  1.0 -0.1579710269
C  C49  1  0.95750000  0.59690000  0.09230000  1.0 0.0796470155
C  C50  1  0.04250000  0.09690000  0.40770000  1.0 0.0796470155
C  C51  1  0.04250000  0.40310000  0.90770000  1.0 0.0796470155
C  C52  1  0.95750000  0.90310000  0.59230000  1.0 0.0796470155
C  C53  1  0.06590000  0.54640000  0.13810000  1.0 -0.0295074359
C  C54  1  0.93410000  0.04640000  0.36190000  1.0 -0.0295074359
C  C55  1  0.93410000  0.45360000  0.86190000  1.0 -0.0295074359
C  C56  1  0.06590000  0.95360000  0.63810000  1.0 -0.0295074359
C  C57  1  0.26480000  0.38190000  0.25578000  1.0 -0.2315583245
C  C58  1  0.73520000  0.88190000  0.24422000  1.0 -0.2315583245
C  C59  1  0.73520000  0.61810000  0.74422000  1.0 -0.2315583245
C  C60  1  0.26480000  0.11810000  0.75578000  1.0 -0.2315583245
C  C61  1  0.33180000  0.39610000  0.29980000  1.0 0.2874525561
C  C62  1  0.66820000  0.89610000  0.20020000  1.0 0.2874525561
C  C63  1  0.66820000  0.60390000  0.70020000  1.0 0.2874525561
C  C64  1  0.33180000  0.10390000  0.79980000  1.0 0.2874525561
C  C65  1  0.45230000  0.42810000  0.34577000  1.0 0.160894661
C  C66  1  0.54770000  0.92810000  0.15423000  1.0 0.160894661
C  C67  1  0.54770000  0.57190000  0.65423000  1.0 0.160894661
C  C68  1  0.45230000  0.07190000  0.84577000  1.0 0.160894661
C  C69  1  0.53560000  0.45250000  0.36530000  1.0 -0.1793396062
C  C70  1  0.46440000  0.95250000  0.13470000  1.0 -0.1793396062
C  C71  1  0.46440000  0.54750000  0.63470000  1.0 -0.1793396062
C  C72  1  0.53560000  0.04750000  0.86530000  1.0 -0.1793396062
C  C73  1  0.56090000  0.44940000  0.41530000  1.0 -0.0910986529
C  C74  1  0.43910000  0.94940000  0.08470000  1.0 -0.0910986529
C  C75  1  0.43910000  0.55060000  0.58470000  1.0 -0.0910986529
C  C76  1  0.56090000  0.05060000  0.91530000  1.0 -0.0910986529
C  C77  1  0.50390000  0.42250000  0.44460000  1.0 -0.0824437547
C  C78  1  0.49610000  0.92250000  0.05540000  1.0 -0.0824437547
C  C79  1  0.49610000  0.57750000  0.55540000  1.0 -0.0824437547
C  C80  1  0.50390000  0.07750000  0.94460000  1.0 -0.0824437547
C  C81  1  0.42060000  0.39930000  0.42600000  1.0 -0.1793396062
C  C82  1  0.57940000  0.89930000  0.07400000  1.0 -0.1793396062
C  C83  1  0.57940000  0.60070000  0.57400000  1.0 -0.1793396062
C  C84  1  0.42060000  0.10070000  0.92600000  1.0 -0.1793396062
C  C85  1  0.39620000  0.40300000  0.37596000  1.0 0.0796470155
C  C86  1  0.60380000  0.90300000  0.12404000  1.0 0.0796470155
C  C87  1  0.60380000  0.59700000  0.62404000  1.0 0.0796470155
C  C88  1  0.39620000  0.09700000  0.87596000  1.0 0.0796470155
C  C89  1  0.24620000  0.34860000  0.36070000  1.0 -0.149506842
C  C90  1  0.75380000  0.84860000  0.13930000  1.0 -0.149506842
C  C91  1  0.75380000  0.65140000  0.63930000  1.0 -0.149506842
C  C92  1  0.24620000  0.15140000  0.86070000  1.0 -0.149506842
C  C93  1  0.17030000  0.37810000  0.38250000  1.0 0.0684375395
C  C94  1  0.82970000  0.87810000  0.11750000  1.0 0.0684375395
C  C95  1  0.82970000  0.62190000  0.61750000  1.0 0.0684375395
C  C96  1  0.17030000  0.12190000  0.88250000  1.0 0.0684375395
C  C97  1  0.10510000  0.40920000  0.35460000  1.0 -0.0910986529
C  C98  1  0.89490000  0.90920000  0.14540000  1.0 -0.0910986529
C  C99  1  0.89490000  0.59080000  0.64540000  1.0 -0.0910986529
C  C100  1  0.10510000  0.09080000  0.85460000  1.0 -0.0910986529
C  C101  1  0.03750000  0.43400000  0.37650000  1.0 -0.129655249
C  C102  1  0.96250000  0.93400000  0.12350000  1.0 -0.129655249
C  C103  1  0.96250000  0.56600000  0.62350000  1.0 -0.129655249
C  C104  1  0.03750000  0.06600000  0.87650000  1.0 -0.129655249
C  C105  1  0.03270000  0.42640000  0.42430000  1.0 0.0684375395
C  C106  1  0.96730000  0.92640000  0.07570000  1.0 0.0684375395
C  C107  1  0.96730000  0.57360000  0.57570000  1.0 0.0684375395
C  C108  1  0.03270000  0.07360000  0.92430000  1.0 0.0684375395
C  C109  1  0.16140000  0.37360000  0.43070000  1.0 -0.0178346392
C  C110  1  0.83860000  0.87360000  0.06930000  1.0 -0.0178346392
C  C111  1  0.83860000  0.62640000  0.56930000  1.0 -0.0178346392
C  C112  1  0.16140000  0.12640000  0.93070000  1.0 -0.0178346392
C  C113  1  0.24800000  0.39020000  0.16810000  1.0 -0.2315583245
C  C114  1  0.75200000  0.89020000  0.33190000  1.0 -0.2315583245
C  C115  1  0.75200000  0.60980000  0.83190000  1.0 -0.2315583245
C  C116  1  0.24800000  0.10980000  0.66810000  1.0 -0.2315583245
C  C117  1  0.30960000  0.34780000  0.15515000  1.0 0.2962136878
C  C118  1  0.69040000  0.84780000  0.34485000  1.0 0.2962136878
C  C119  1  0.69040000  0.65220000  0.84485000  1.0 0.2962136878
C  C120  1  0.30960000  0.15220000  0.65515000  1.0 0.2962136878
C  C121  1  0.42870000  0.29580000  0.15570000  1.0 0.160894661
C  C122  1  0.57130000  0.79580000  0.34430000  1.0 0.160894661
C  C123  1  0.57130000  0.70420000  0.84430000  1.0 0.160894661
C  C124  1  0.42870000  0.20420000  0.65570000  1.0 0.160894661
C  C125  1  0.51240000  0.26790000  0.16680000  1.0 -0.1793396062
C  C126  1  0.48760000  0.76790000  0.33320000  1.0 -0.1793396062
C  C127  1  0.48760000  0.73210000  0.83320000  1.0 -0.1793396062
C  C128  1  0.51240000  0.23210000  0.66680000  1.0 -0.1793396062
C  C129  1  0.53210000  0.23060000  0.13380000  1.0 -0.0910986529
C  C130  1  0.46790000  0.73060000  0.36620000  1.0 -0.0910986529
C  C131  1  0.46790000  0.76940000  0.86620000  1.0 -0.0910986529
C  C132  1  0.53210000  0.26940000  0.63380000  1.0 -0.0910986529
C  C133  1  0.47080000  0.22200000  0.09130000  1.0 -0.0705498444
C  C134  1  0.52920000  0.72200000  0.40870000  1.0 -0.0705498444
C  C135  1  0.52920000  0.77800000  0.90870000  1.0 -0.0705498444
C  C136  1  0.47080000  0.27800000  0.59130000  1.0 -0.0705498444
C  C137  1  0.38610000  0.24830000  0.08070000  1.0 -0.1695093999
C  C138  1  0.61390000  0.74830000  0.41930000  1.0 -0.1695093999
C  C139  1  0.61390000  0.75170000  0.91930000  1.0 -0.1695093999
C  C140  1  0.38610000  0.25170000  0.58070000  1.0 -0.1695093999
C  C141  1  0.36590000  0.28410000  0.11420000  1.0 0.0796470155
C  C142  1  0.63410000  0.78410000  0.38580000  1.0 0.0796470155
C  C143  1  0.63410000  0.71590000  0.88580000  1.0 0.0796470155
C  C144  1  0.36590000  0.21590000  0.61420000  1.0 0.0796470155
C  C145  1  0.20470000  0.31970000  0.07900000  1.0 -0.149506842
C  C146  1  0.79530000  0.81970000  0.42100000  1.0 -0.149506842
C  C147  1  0.79530000  0.68030000  0.92100000  1.0 -0.149506842
C  C148  1  0.20470000  0.18030000  0.57900000  1.0 -0.149506842
C  C149  1  0.13220000  0.27910000  0.08720000  1.0 0.0684375395
C  C150  1  0.86780000  0.77910000  0.41280000  1.0 0.0684375395
C  C151  1  0.86780000  0.72090000  0.91280000  1.0 0.0684375395
C  C152  1  0.13220000  0.22090000  0.58720000  1.0 0.0684375395
C  C153  1  0.06260000  0.28850000  0.11680000  1.0 -0.0988194688
C  C154  1  0.93740000  0.78850000  0.38320000  1.0 -0.0988194688
C  C155  1  0.93740000  0.71150000  0.88320000  1.0 -0.0988194688
C  C156  1  0.06260000  0.21150000  0.61680000  1.0 -0.0988194688
C  C157  1  0.99930000  0.24920000  0.12310000  1.0 -0.1216725023
C  C158  1  0.00070000  0.74920000  0.37690000  1.0 -0.1216725023
C  C159  1  0.00070000  0.75080000  0.87690000  1.0 -0.1216725023
C  C160  1  0.99930000  0.25080000  0.62310000  1.0 -0.1216725023
C  C161  1  0.00630000  0.20280000  0.10040000  1.0 0.0684375395
C  C162  1  0.99370000  0.70280000  0.39960000  1.0 0.0684375395
C  C163  1  0.99370000  0.79720000  0.89960000  1.0 0.0684375395
C  C164  1  0.00630000  0.29720000  0.60040000  1.0 0.0684375395
C  C165  1  0.13270000  0.23130000  0.06480000  1.0 0.0039898266
C  C166  1  0.86730000  0.73130000  0.43520000  1.0 0.0039898266
C  C167  1  0.86730000  0.76870000  0.93520000  1.0 0.0039898266
C  C168  1  0.13270000  0.26870000  0.56480000  1.0 0.0039898266
C  C169  1  0.69820000  0.46560000  0.20842000  1.0 -0.2315583245
C  C170  1  0.30180000  0.96560000  0.29158000  1.0 -0.2315583245
C  C171  1  0.30180000  0.53440000  0.79158000  1.0 -0.2315583245
C  C172  1  0.69820000  0.03440000  0.70842000  1.0 -0.2315583245
C  C173  1  0.63650000  0.50790000  0.22244000  1.0 0.2874525561
C  C174  1  0.36350000  0.00790000  0.27756000  1.0 0.2874525561
C  C175  1  0.36350000  0.49210000  0.77756000  1.0 0.2874525561
C  C176  1  0.63650000  0.99210000  0.72244000  1.0 0.2874525561
C  C177  1  0.52500000  0.54800000  0.25245000  1.0 0.1664046659
C  C178  1  0.47500000  0.04800000  0.24755000  1.0 0.1664046659
C  C179  1  0.47500000  0.45200000  0.74755000  1.0 0.1664046659
C  C180  1  0.52500000  0.95200000  0.75245000  1.0 0.1664046659
C  C181  1  0.44620000  0.56280000  0.27480000  1.0 -0.1695093999
C  C182  1  0.55380000  0.06280000  0.22520000  1.0 -0.1695093999
C  C183  1  0.55380000  0.43720000  0.72520000  1.0 -0.1695093999
C  C184  1  0.44620000  0.93720000  0.77480000  1.0 -0.1695093999
C  C185  1  0.42400000  0.61450000  0.27410000  1.0 -0.1066071899
C  C186  1  0.57600000  0.11450000  0.22590000  1.0 -0.1066071899
C  C187  1  0.57600000  0.38550000  0.72590000  1.0 -0.1066071899
C  C188  1  0.42400000  0.88550000  0.77410000  1.0 -0.1066071899
C  C189  1  0.47540000  0.65100000  0.25170000  1.0 -0.0910986529
C  C190  1  0.52460000  0.15100000  0.24830000  1.0 -0.0910986529
C  C191  1  0.52460000  0.34900000  0.74830000  1.0 -0.0910986529
C  C192  1  0.47540000  0.84900000  0.75170000  1.0 -0.0910986529
C  C193  1  0.55430000  0.63780000  0.23040000  1.0 -0.1695093999
C  C194  1  0.44570000  0.13780000  0.26960000  1.0 -0.1695093999
C  C195  1  0.44570000  0.36220000  0.76960000  1.0 -0.1695093999
C  C196  1  0.55430000  0.86220000  0.73040000  1.0 -0.1695093999
C  C197  1  0.57840000  0.58530000  0.23170000  1.0 0.0796470155
C  C198  1  0.42160000  0.08530000  0.26830000  1.0 0.0796470155
C  C199  1  0.42160000  0.41470000  0.76830000  1.0 0.0796470155
C  C200  1  0.57840000  0.91470000  0.73170000  1.0 0.0796470155
C  C201  1  0.71870000  0.58000000  0.18340000  1.0 -0.1417669802
C  C202  1  0.28130000  0.08000000  0.31660000  1.0 -0.1417669802
C  C203  1  0.28130000  0.42000000  0.81660000  1.0 -0.1417669802
C  C204  1  0.71870000  0.92000000  0.68340000  1.0 -0.1417669802
C  C205  1  0.80220000  0.60700000  0.21370000  1.0 0.0614275461
C  C206  1  0.19780000  0.10700000  0.28630000  1.0 0.0614275461
C  C207  1  0.19780000  0.39300000  0.78630000  1.0 0.0614275461
C  C208  1  0.80220000  0.89300000  0.71370000  1.0 0.0614275461
C  C209  1  0.84570000  0.58770000  0.25600000  1.0 -0.0824437547
C  C210  1  0.15430000  0.08770000  0.24400000  1.0 -0.0824437547
C  C211  1  0.15430000  0.41230000  0.74400000  1.0 -0.0824437547
C  C212  1  0.84570000  0.91230000  0.75600000  1.0 -0.0824437547
C  C213  1  0.92400000  0.61470000  0.28040000  1.0 -0.1417669802
C  C214  1  0.07600000  0.11470000  0.21960000  1.0 -0.1417669802
C  C215  1  0.07600000  0.38530000  0.71960000  1.0 -0.1417669802
C  C216  1  0.92400000  0.88530000  0.78040000  1.0 -0.1417669802
C  C217  1  0.95490000  0.65720000  0.25940000  1.0 0.0796470155
C  C218  1  0.04510000  0.15720000  0.24060000  1.0 0.0796470155
C  C219  1  0.04510000  0.34280000  0.74060000  1.0 0.0796470155
C  C220  1  0.95490000  0.84280000  0.75940000  1.0 0.0796470155
C  C221  1  0.83430000  0.65260000  0.19770000  1.0 -0.0295074359
C  C222  1  0.16570000  0.15260000  0.30230000  1.0 -0.0295074359
C  C223  1  0.16570000  0.34740000  0.80230000  1.0 -0.0295074359
C  C224  1  0.83430000  0.84740000  0.69770000  1.0 -0.0295074359
C  C225  1  0.70490000  0.40820000  0.27759000  1.0 -0.2315583245
C  C226  1  0.29510000  0.90820000  0.22241000  1.0 -0.2315583245
C  C227  1  0.29510000  0.59180000  0.72241000  1.0 -0.2315583245
C  C228  1  0.70490000  0.09180000  0.77759000  1.0 -0.2315583245
C  C229  1  0.64580000  0.36940000  0.29890000  1.0 0.2874525561
C  C230  1  0.35420000  0.86940000  0.20110000  1.0 0.2874525561
C  C231  1  0.35420000  0.63060000  0.70110000  1.0 0.2874525561
C  C232  1  0.64580000  0.13060000  0.79890000  1.0 0.2874525561
C  C233  1  0.53210000  0.31650000  0.30870000  1.0 0.160894661
C  C234  1  0.46790000  0.81650000  0.19130000  1.0 0.160894661
C  C235  1  0.46790000  0.68350000  0.69130000  1.0 0.160894661
C  C236  1  0.53210000  0.18350000  0.80870000  1.0 0.160894661
C  C237  1  0.44930000  0.28640000  0.30430000  1.0 -0.1793396062
C  C238  1  0.55070000  0.78640000  0.19570000  1.0 -0.1793396062
C  C239  1  0.55070000  0.71360000  0.69570000  1.0 -0.1793396062
C  C240  1  0.44930000  0.21360000  0.80430000  1.0 -0.1793396062
C  C241  1  0.42980000  0.26050000  0.34500000  1.0 -0.1066071899
C  C242  1  0.57020000  0.76050000  0.15500000  1.0 -0.1066071899
C  C243  1  0.57020000  0.73950000  0.65500000  1.0 -0.1066071899
C  C244  1  0.42980000  0.23950000  0.84500000  1.0 -0.1066071899
C  C245  1  0.49100000  0.26400000  0.38900000  1.0 -0.0988194688
C  C246  1  0.50900000  0.76400000  0.11100000  1.0 -0.0988194688
C  C247  1  0.50900000  0.73600000  0.61100000  1.0 -0.0988194688
C  C248  1  0.49100000  0.23600000  0.88900000  1.0 -0.0988194688
C  C249  1  0.57490000  0.29190000  0.39370000  1.0 -0.1695093999
C  C250  1  0.42510000  0.79190000  0.10630000  1.0 -0.1695093999
C  C251  1  0.42510000  0.70810000  0.60630000  1.0 -0.1695093999
C  C252  1  0.57490000  0.20810000  0.89370000  1.0 -0.1695093999
C  C253  1  0.59330000  0.31760000  0.35250000  1.0 0.0908438055
C  C254  1  0.40670000  0.81760000  0.14750000  1.0 0.0908438055
C  C255  1  0.40670000  0.68240000  0.64750000  1.0 0.0908438055
C  C256  1  0.59330000  0.18240000  0.85250000  1.0 0.0908438055
C  C257  1  0.73980000  0.37020000  0.38150000  1.0 -0.1417669802
C  C258  1  0.26020000  0.87020000  0.11850000  1.0 -0.1417669802
C  C259  1  0.26020000  0.62980000  0.61850000  1.0 -0.1417669802
C  C260  1  0.73980000  0.12980000  0.88150000  1.0 -0.1417669802
C  C261  1  0.82420000  0.33500000  0.39350000  1.0 0.0684375395
C  C262  1  0.17580000  0.83500000  0.10650000  1.0 0.0684375395
C  C263  1  0.17580000  0.66500000  0.60650000  1.0 0.0684375395
C  C264  1  0.82420000  0.16500000  0.89350000  1.0 0.0684375395
C  C265  1  0.85990000  0.32690000  0.44120000  1.0 -0.0910986529
C  C266  1  0.14010000  0.82690000  0.05880000  1.0 -0.0910986529
C  C267  1  0.14010000  0.67310000  0.55880000  1.0 -0.0910986529
C  C268  1  0.85990000  0.17310000  0.94120000  1.0 -0.0910986529
C  C269  1  0.93970000  0.29710000  0.45260000  1.0 -0.1417669802
C  C270  1  0.06030000  0.79710000  0.04740000  1.0 -0.1417669802
C  C271  1  0.06030000  0.70290000  0.54740000  1.0 -0.1417669802
C  C272  1  0.93970000  0.20290000  0.95260000  1.0 -0.1417669802
C  C273  1  0.98290000  0.27770000  0.41600000  1.0 0.0443496941
C  C274  1  0.01710000  0.77770000  0.08400000  1.0 0.0443496941
C  C275  1  0.01710000  0.72230000  0.58400000  1.0 0.0443496941
C  C276  1  0.98290000  0.22230000  0.91600000  1.0 0.0443496941
C  C277  1  0.87060000  0.31310000  0.35900000  1.0 -0.0148102572
C  C278  1  0.12940000  0.81310000  0.14100000  1.0 -0.0178346392
C  C279  1  0.12940000  0.68690000  0.64100000  1.0 -0.0178346392
C  C280  1  0.87060000  0.18690000  0.85900000  1.0 -0.0148102572
C  C281  1  0.69530000  0.37290000  0.19605000  1.0 -0.2377327034
C  C282  1  0.30470000  0.87290000  0.30395000  1.0 -0.2377327034
C  C283  1  0.30470000  0.62710000  0.80395000  1.0 -0.2377327034
C  C284  1  0.69530000  0.12710000  0.69605000  1.0 -0.2377327034
C  C285  1  0.63030000  0.37130000  0.14988000  1.0 0.2874525561
C  C286  1  0.36970000  0.87130000  0.35012000  1.0 0.2874525561
C  C287  1  0.36970000  0.62870000  0.85012000  1.0 0.2874525561
C  C288  1  0.63030000  0.12870000  0.64988000  1.0 0.2874525561
C  C289  1  0.51000000  0.38570000  0.09555000  1.0 0.160894661
C  C290  1  0.49000000  0.88570000  0.40445000  1.0 0.160894661
C  C291  1  0.49000000  0.61430000  0.90445000  1.0 0.160894661
C  C292  1  0.51000000  0.11430000  0.59555000  1.0 0.160894661
C  C293  1  0.42540000  0.40280000  0.06921000  1.0 -0.1793396062
C  C294  1  0.57460000  0.90280000  0.43079000  1.0 -0.1793396062
C  C295  1  0.57460000  0.59720000  0.93079000  1.0 -0.1793396062
C  C296  1  0.42540000  0.09720000  0.56921000  1.0 -0.1793396062
C  C297  1  0.40130000  0.38190000  0.02330000  1.0 -0.0988194688
C  C298  1  0.59870000  0.88190000  0.47670000  1.0 -0.0988194688
C  C299  1  0.59870000  0.61810000  0.97670000  1.0 -0.0988194688
C  C300  1  0.40130000  0.11810000  0.52330000  1.0 -0.0988194688
C  C301  1  0.45960000  0.34510000  0.00461000  1.0 -0.0910986529
C  C302  1  0.54040000  0.84510000  0.49539000  1.0 -0.0910986529
C  C303  1  0.54040000  0.65490000  0.99539000  1.0 -0.0988194688
C  C304  1  0.45960000  0.15490000  0.50461000  1.0 -0.0910986529
C  C305  1  0.54460000  0.32930000  0.02998000  1.0 -0.1695093999
C  C306  1  0.45540000  0.82930000  0.47002000  1.0 -0.1695093999
C  C307  1  0.45540000  0.67070000  0.97002000  1.0 -0.1695093999
C  C308  1  0.54460000  0.17070000  0.52998000  1.0 -0.1695093999
C  C309  1  0.56800000  0.35060000  0.07549000  1.0 0.0796470155
C  C310  1  0.43200000  0.85060000  0.42451000  1.0 0.0796470155
C  C311  1  0.43200000  0.64940000  0.92451000  1.0 0.0796470155
C  C312  1  0.56800000  0.14940000  0.57549000  1.0 0.0796470155
C  C313  1  0.72360000  0.30680000  0.10590000  1.0 -0.1417669802
C  C314  1  0.27640000  0.80680000  0.39410000  1.0 -0.1417669802
C  C315  1  0.27640000  0.69320000  0.89410000  1.0 -0.1417669802
C  C316  1  0.72360000  0.19320000  0.60590000  1.0 -0.1417669802
C  C317  1  0.78940000  0.32990000  0.07330000  1.0 0.0614275461
C  C318  1  0.21060000  0.82990000  0.42670000  1.0 0.0614275461
C  C319  1  0.21060000  0.67010000  0.92670000  1.0 0.0614275461
C  C320  1  0.78940000  0.17010000  0.57330000  1.0 0.0614275461
C  C321  1  0.81330000  0.30390000  0.03370000  1.0 -0.0910986529
C  C322  1  0.18670000  0.80390000  0.46630000  1.0 -0.0910986529
C  C323  1  0.18670000  0.69610000  0.96630000  1.0 -0.0910986529
C  C324  1  0.81330000  0.19610000  0.53370000  1.0 -0.0910986529
C  C325  1  0.87310000  0.32720000  0.00510000  1.0 -0.129655249
C  C326  1  0.12690000  0.82720000  0.49490000  1.0 -0.129655249
C  C327  1  0.12690000  0.67280000  0.99490000  1.0 -0.129655249
C  C328  1  0.87310000  0.17280000  0.50510000  1.0 -0.129655249
C  C329  1  0.90500000  0.37610000  0.01640000  1.0 0.0684375395
C  C330  1  0.09500000  0.87610000  0.48360000  1.0 0.0684375395
C  C331  1  0.09500000  0.62390000  0.98360000  1.0 0.0684375395
C  C332  1  0.90500000  0.12390000  0.51640000  1.0 0.0684375395
C  C333  1  0.82580000  0.37780000  0.08260000  1.0 -0.0178346392
C  C334  1  0.17420000  0.87780000  0.41740000  1.0 -0.0178346392
C  C335  1  0.17420000  0.62220000  0.91740000  1.0 -0.0178346392
C  C336  1  0.82580000  0.12220000  0.58260000  1.0 -0.0178346392
C  C337  1  0.87400000  0.45860000  0.53220000  1.0 0.400741571
C  C338  1  0.12600000  0.95860000  0.96780000  1.0 0.400741571
C  C339  1  0.12600000  0.54140000  0.46780000  1.0 0.400741571
C  C340  1  0.87400000  0.04140000  0.03220000  1.0 0.400741571
C  C341  1  0.78440000  0.48670000  0.52980000  1.0 -0.4897871868
C  C342  1  0.21560000  0.98670000  0.97020000  1.0 -0.4897871868
C  C343  1  0.21560000  0.51330000  0.47020000  1.0 -0.4897871868
C  C344  1  0.78440000  0.01330000  0.02980000  1.0 -0.4897871868
N  N1  1  0.29060000  0.41311000  0.21471000  1.0 -0.1066071899
N  N2  1  0.70940000  0.91311000  0.28529000  1.0 -0.1066071899
N  N3  1  0.70940000  0.58689000  0.78529000  1.0 -0.1066071899
N  N4  1  0.29060000  0.08689000  0.71471000  1.0 -0.1066071899
N  N5  1  0.38660000  0.48582000  0.17149000  1.0 -0.5437929617
N  N6  1  0.61340000  0.98582000  0.32851000  1.0 -0.5437929617
N  N7  1  0.61340000  0.51418000  0.82851000  1.0 -0.5437929617
N  N8  1  0.38660000  0.01418000  0.67149000  1.0 -0.5437929617
N  N9  1  0.28290000  0.54969000  0.17572000  1.0 -0.0604015331
N  N10  1  0.71710000  0.04969000  0.32428000  1.0 -0.0604015331
N  N11  1  0.71710000  0.45031000  0.82428000  1.0 -0.0604015331
N  N12  1  0.28290000  0.95031000  0.67572000  1.0 -0.0604015331
N  N13  1  0.98490000  0.54960000  0.10660000  1.0 -0.1695093999
N  N14  1  0.01510000  0.04960000  0.39340000  1.0 -0.1695093999
N  N15  1  0.01510000  0.45040000  0.89340000  1.0 -0.1695093999
N  N16  1  0.98490000  0.95040000  0.60660000  1.0 -0.1695093999
N  N17  1  0.41060000  0.42308000  0.29775000  1.0 -0.5458747929
N  N18  1  0.58940000  0.92308000  0.20225000  1.0 -0.5458747929
N  N19  1  0.58940000  0.57692000  0.70225000  1.0 -0.5458747929
N  N20  1  0.41060000  0.07692000  0.79775000  1.0 -0.5458747929
N  N21  1  0.31920000  0.38295000  0.34587000  1.0 -0.0604015331
N  N22  1  0.68080000  0.88295000  0.15413000  1.0 -0.0604015331
N  N23  1  0.68080000  0.61705000  0.65413000  1.0 -0.0604015331
N  N24  1  0.31920000  0.11705000  0.84587000  1.0 -0.0604015331
N  N25  1  0.09440000  0.39780000  0.45202000  1.0 -0.2009881523
N  N26  1  0.90560000  0.89780000  0.04798000  1.0 -0.2009881523
N  N27  1  0.90560000  0.60220000  0.54798000  1.0 -0.2009881523
N  N28  1  0.09440000  0.10220000  0.95202000  1.0 -0.2009881523
N  N29  1  0.39250000  0.33705000  0.18028000  1.0 -0.5298518748
N  N30  1  0.60750000  0.83705000  0.31972000  1.0 -0.5298518748
N  N31  1  0.60750000  0.66295000  0.81972000  1.0 -0.5298518748
N  N32  1  0.39250000  0.16295000  0.68028000  1.0 -0.5298518748
N  N33  1  0.28920000  0.31731000  0.11552000  1.0 -0.0533411168
N  N34  1  0.71080000  0.81731000  0.38448000  1.0 -0.0533411168
N  N35  1  0.71080000  0.68269000  0.88448000  1.0 -0.0533411168
N  N36  1  0.28920000  0.18269000  0.61552000  1.0 -0.0533411168
N  N37  1  0.07280000  0.19290000  0.07151000  1.0 -0.2009881523
N  N38  1  0.92720000  0.69290000  0.42849000  1.0 -0.2009881523
N  N39  1  0.92720000  0.80710000  0.92849000  1.0 -0.2009881523
N  N40  1  0.07280000  0.30710000  0.57151000  1.0 -0.2009881523
N  N41  1  0.66600000  0.41562000  0.22591000  1.0 -0.1066071899
N  N42  1  0.33400000  0.91562000  0.27409000  1.0 -0.1066071899
N  N43  1  0.33400000  0.58438000  0.77409000  1.0 -0.1066071899
N  N44  1  0.66600000  0.08438000  0.72591000  1.0 -0.1066071899
N  N45  1  0.56250000  0.49912000  0.24504000  1.0 -0.5164340349
N  N46  1  0.43750000  0.99912000  0.25496000  1.0 -0.5164340349
N  N47  1  0.43750000  0.50088000  0.75496000  1.0 -0.5164340349
N  N48  1  0.56250000  0.00088000  0.74504000  1.0 -0.5164340349
N  N49  1  0.65050000  0.55811000  0.21330000  1.0 -0.0604015331
N  N50  1  0.34950000  0.05811000  0.28670000  1.0 -0.0604015331
N  N51  1  0.34950000  0.44189000  0.78670000  1.0 -0.0604015331
N  N52  1  0.65050000  0.94189000  0.71330000  1.0 -0.0604015331
N  N53  1  0.91290000  0.67700000  0.21980000  1.0 -0.1882983284
N  N54  1  0.08710000  0.17700000  0.28020000  1.0 -0.1882983284
N  N55  1  0.08710000  0.32300000  0.78020000  1.0 -0.1882983284
N  N56  1  0.91290000  0.82300000  0.71980000  1.0 -0.1882983284
N  N57  1  0.56600000  0.35016000  0.27519000  1.0 -0.5458747929
N  N58  1  0.43400000  0.85016000  0.22481000  1.0 -0.5458747929
N  N59  1  0.43400000  0.64984000  0.72481000  1.0 -0.5458747929
N  N60  1  0.56600000  0.14984000  0.77519000  1.0 -0.5458747929
N  N61  1  0.66580000  0.35084000  0.34480000  1.0 -0.0533411168
N  N62  1  0.33420000  0.85084000  0.15520000  1.0 -0.0533411168
N  N63  1  0.33420000  0.64916000  0.65520000  1.0 -0.0533411168
N  N64  1  0.66580000  0.14916000  0.84480000  1.0 -0.0533411168
N  N65  1  0.95020000  0.28370000  0.36870000  1.0 -0.2009881523
N  N66  1  0.04980000  0.78370000  0.13130000  1.0 -0.2009881523
N  N67  1  0.04980000  0.71630000  0.63130000  1.0 -0.2009881523
N  N68  1  0.95020000  0.21630000  0.86870000  1.0 -0.2009881523
N  N69  1  0.55110000  0.39823000  0.14322000  1.0 -0.5458747929
N  N70  1  0.44890000  0.89823000  0.35678000  1.0 -0.5458747929
N  N71  1  0.44890000  0.60177000  0.85678000  1.0 -0.5458747929
N  N72  1  0.55110000  0.10177000  0.64322000  1.0 -0.5458747929
N  N73  1  0.64540000  0.34227000  0.11100000  1.0 -0.0604015331
N  N74  1  0.35460000  0.84227000  0.38900000  1.0 -0.0604015331
N  N75  1  0.35460000  0.65773000  0.88900000  1.0 -0.0604015331
N  N76  1  0.64540000  0.15773000  0.61100000  1.0 -0.0604015331
N  N77  1  0.88150000  0.40180000  0.05510000  1.0 -0.149506842
N  N78  1  0.11850000  0.90180000  0.44490000  1.0 -0.149506842
N  N79  1  0.11850000  0.59820000  0.94490000  1.0 -0.149506842
N  N80  1  0.88150000  0.09820000  0.55510000  1.0 -0.149506842
N  N81  1  0.94240000  0.43640000  0.53540000  1.0 -0.439849502
N  N82  1  0.05760000  0.93640000  0.96460000  1.0 -0.439849502
N  N83  1  0.05760000  0.56360000  0.46460000  1.0 -0.439849502
N  N84  1  0.94240000  0.06360000  0.03540000  1.0 -0.439849502
Cl  Cl1  1  0.83971000  0.96933000  0.45567000  1.0 1.2542170896
Cl  Cl2  1  0.16029000  0.46933000  0.04433000  1.0 1.2542170896
Cl  Cl3  1  0.16029000  0.03067000  0.54433000  1.0 1.260546924
Cl  Cl4  1  0.83971000  0.53067000  0.95567000  1.0 1.260546924
Cl  Cl5  1  0.19767000  0.02541000  0.12836000  1.0 1.2542170896
Cl  Cl6  1  0.80233000  0.52541000  0.37164000  1.0 1.2542170896
Cl  Cl7  1  0.80233000  0.97459000  0.87164000  1.0 1.2542170896
Cl  Cl8  1  0.19767000  0.47459000  0.62836000  1.0 1.2542170896
Cl  Cl9  1  0.76302000  0.78528000  0.57009000  1.0 1.260546924
Cl  Cl10  1  0.23698000  0.28528000  0.92991000  1.0 1.260546924
Cl  Cl11  1  0.23698000  0.21472000  0.42991000  1.0 1.260546924
Cl  Cl12  1  0.76302000  0.71472000  0.07009000  1.0 1.260546924
Cl  Cl13  1  0.79126000  0.23299000  0.23901000  1.0 1.1985285892
Cl  Cl14  1  0.20874000  0.73299000  0.26099000  1.0 1.1985285892
Cl  Cl15  1  0.20874000  0.76701000  0.76099000  1.0 1.1985285892
Cl  Cl16  1  0.79126000  0.26701000  0.73901000  1.0 1.1985285892
Cl  Cl17  1  0.69446000  0.16132000  0.03845000  1.0 1.260546924
Cl  Cl18  1  0.30554000  0.66132000  0.46155000  1.0 1.260546924
Cl  Cl19  1  0.30554000  0.83868000  0.96155000  1.0 1.260546924
Cl  Cl20  1  0.69446000  0.33868000  0.53845000  1.0 1.260546924
O  O1  1  0.92380000  0.79840000  0.22830000  1.0 -0.5298518748
O  O2  1  0.07620000  0.29840000  0.27170000  1.0 -0.5298518748
O  O3  1  0.07620000  0.20160000  0.77170000  1.0 -0.5298518748
O  O4  1  0.92380000  0.70160000  0.72830000  1.0 -0.5298518748
O  O5  1  0.76000000  0.98170000  0.42161000  1.0 -0.4589735629
O  O6  1  0.89810000  0.93590000  0.43220000  1.0 -0.5005547391
O  O7  1  0.88970000  0.01460000  0.47230000  1.0 -0.4897871868
O  O8  1  0.80610000  0.94380000  0.49520000  1.0 -0.4689572589
O  O9  1  0.24000000  0.48170000  0.07839000  1.0 -0.4589735629
O  O10  1  0.10190000  0.43590000  0.06780000  1.0 -0.5005547391
O  O11  1  0.11030000  0.51460000  0.02770000  1.0 -0.4897871868
O  O12  1  0.19390000  0.44380000  0.00480000  1.0 -0.4689572589
O  O13  1  0.24000000  0.01830000  0.57839000  1.0 -0.4589735629
O  O14  1  0.10190000  0.06410000  0.56780000  1.0 -0.5005547391
O  O15  1  0.11030000  0.98540000  0.52770000  1.0 -0.4897871868
O  O16  1  0.19390000  0.05620000  0.50480000  1.0 -0.4689572589
O  O17  1  0.76000000  0.51830000  0.92161000  1.0 -0.4589735629
O  O18  1  0.89810000  0.56410000  0.93220000  1.0 -0.5005547391
O  O19  1  0.88970000  0.48540000  0.97230000  1.0 -0.4897871868
O  O20  1  0.80610000  0.55620000  0.99520000  1.0 -0.4689572589
O  O21  1  0.15970000  0.99260000  0.16060000  1.0 -0.4812642043
O  O22  1  0.28860000  0.04110000  0.15230000  1.0 -0.4689572589
O  O23  1  0.14030000  0.06950000  0.11930000  1.0 -0.4689572589
O  O24  1  0.20640000  0.99820000  0.08560000  1.0 -0.4689572589
O  O25  1  0.84030000  0.49260000  0.33940000  1.0 -0.4812642043
O  O26  1  0.71140000  0.54110000  0.34770000  1.0 -0.4689572589
O  O27  1  0.85970000  0.56950000  0.38070000  1.0 -0.4689572589
O  O28  1  0.79360000  0.49820000  0.41440000  1.0 -0.4689572589
O  O29  1  0.84030000  0.00740000  0.83940000  1.0 -0.4812642043
O  O30  1  0.71140000  0.95890000  0.84770000  1.0 -0.4689572589
O  O31  1  0.85970000  0.93050000  0.88070000  1.0 -0.4689572589
O  O32  1  0.79360000  0.00180000  0.91440000  1.0 -0.4689572589
O  O33  1  0.15970000  0.50740000  0.66060000  1.0 -0.4812642043
O  O34  1  0.28860000  0.45890000  0.65230000  1.0 -0.4689572589
O  O35  1  0.14030000  0.43050000  0.61930000  1.0 -0.4689572589
O  O36  1  0.20640000  0.50180000  0.58560000  1.0 -0.4689572589
O  O37  1  0.70940000  0.82750000  0.58516000  1.0 -0.4812642043
O  O38  1  0.70100000  0.74747000  0.54506000  1.0 -0.4897871868
O  O39  1  0.82700000  0.80380000  0.53913000  1.0 -0.4812642043
O  O40  1  0.81550000  0.76214000  0.61244000  1.0 -0.5164340349
O  O41  1  0.29060000  0.32750000  0.91484000  1.0 -0.4812642043
O  O42  1  0.29900000  0.24747000  0.95494000  1.0 -0.4897871868
O  O43  1  0.17300000  0.30380000  0.96087000  1.0 -0.4812642043
O  O44  1  0.18450000  0.26214000  0.88756000  1.0 -0.5164340349
O  O45  1  0.29060000  0.17250000  0.41484000  1.0 -0.4812642043
O  O46  1  0.29900000  0.25253000  0.45494000  1.0 -0.4897871868
O  O47  1  0.17300000  0.19620000  0.46087000  1.0 -0.4812642043
O  O48  1  0.18450000  0.23786000  0.38756000  1.0 -0.5164340349
O  O49  1  0.70940000  0.67250000  0.08516000  1.0 -0.4812642043
O  O50  1  0.70100000  0.75253000  0.04506000  1.0 -0.4897871868
O  O51  1  0.82700000  0.69620000  0.03913000  1.0 -0.4812642043
O  O52  1  0.81550000  0.73786000  0.11244000  1.0 -0.5164340349
O  O53  1  0.85900000  0.27010000  0.23090000  1.0 -0.4589735629
O  O54  1  0.71200000  0.25630000  0.25440000  1.0 -0.4192661629
O  O55  1  0.74630000  0.21780000  0.19610000  1.0 -0.3744151579
O  O56  1  0.83370000  0.19370000  0.26330000  1.0 -0.439849502
O  O57  1  0.14100000  0.77010000  0.26910000  1.0 -0.4589735629
O  O58  1  0.28800000  0.75630000  0.24560000  1.0 -0.4192661629
O  O59  1  0.25370000  0.71780000  0.30390000  1.0 -0.3744151579
O  O60  1  0.16630000  0.69370000  0.23670000  1.0 -0.439849502
O  O61  1  0.14100000  0.72990000  0.76910000  1.0 -0.4589735629
O  O62  1  0.28800000  0.74370000  0.74560000  1.0 -0.4192661629
O  O63  1  0.25370000  0.78220000  0.80390000  1.0 -0.3750950681
O  O64  1  0.16630000  0.80630000  0.73670000  1.0 -0.439849502
O  O65  1  0.85900000  0.22990000  0.73090000  1.0 -0.4589735629
O  O66  1  0.71200000  0.24370000  0.75440000  1.0 -0.4192661629
O  O67  1  0.74630000  0.28220000  0.69610000  1.0 -0.3744151579
O  O68  1  0.83370000  0.30630000  0.76330000  1.0 -0.439849502
O  O69  1  0.78750000  0.17600000  0.05840000  1.0 -0.4897871868
O  O70  1  0.69770000  0.12550000  0.00040000  1.0 -0.4812642043
O  O71  1  0.64510000  0.20650000  0.01960000  1.0 -0.4897871868
O  O72  1  0.64650000  0.13790000  0.07430000  1.0 -0.4589735629
O  O73  1  0.21250000  0.67600000  0.44160000  1.0 -0.4897871868
O  O74  1  0.30230000  0.62550000  0.49960000  1.0 -0.4812642043
O  O75  1  0.35490000  0.70650000  0.48040000  1.0 -0.4897871868
O  O76  1  0.35350000  0.63790000  0.42570000  1.0 -0.4589735629
O  O77  1  0.21250000  0.82400000  0.94160000  1.0 -0.4897871868
O  O78  1  0.30230000  0.87450000  0.99960000  1.0 -0.4812642043
O  O79  1  0.35490000  0.79350000  0.98040000  1.0 -0.4897871868
O  O80  1  0.35350000  0.86210000  0.92570000  1.0 -0.4589735629
O  O81  1  0.78750000  0.32400000  0.55840000  1.0 -0.4897871868
O  O82  1  0.69770000  0.37450000  0.50040000  1.0 -0.4812642043
O  O83  1  0.64510000  0.29350000  0.51960000  1.0 -0.4897871868
O  O84  1  0.64650000  0.36210000  0.57430000  1.0 -0.4589735629
