# DDEC6 charges by PACMAN v1.1 (https://github.com/mtap-research/PACMAN-charge/)
data_GEGBOL_ion_pacman
_symmetry_space_group_name_H-M   'P 1'
_cell_length_a   14.24580000
_cell_length_b   25.88560000
_cell_length_c   27.83600000
_cell_angle_alpha   90.00000000
_cell_angle_beta   97.44700000
_cell_angle_gamma   90.00000000
_symmetry_Int_Tables_number   1
_chemical_formula_structural   GdAg3H75C86N21Cl6O25
_chemical_formula_sum   'Gd4 Ag12 H300 C344 N84 Cl24 O100'
_cell_volume   10178.25138419
_cell_formula_units_Z   4
loop_
 _symmetry_equiv_pos_site_id
 _symmetry_equiv_pos_as_xyz
  1  'x, y, z'
loop_
 _atom_site_type_symbol
 _atom_site_label
 _atom_site_symmetry_multiplicity
 _atom_site_fract_x
 _atom_site_fract_y
 _atom_site_fract_z
 _atom_site_occupancy
 _atom_site_charge
Gd  Gd1  1  0.47713000  0.41571000  0.21893000  1.0 1.5394328486
Gd  Gd2  1  0.52287000  0.91571000  0.28107000  1.0 1.5394328486
Gd  Gd3  1  0.52287000  0.58429000  0.78107000  1.0 1.5394328486
Gd  Gd4  1  0.47713000  0.08429000  0.71893000  1.0 1.5394328486
Ag  Ag1  1  0.92550000  0.48009000  0.07371000  1.0 0.3862169237
Ag  Ag2  1  0.07450000  0.98009000  0.42629000  1.0 0.384091724
Ag  Ag3  1  0.07450000  0.51991000  0.92629000  1.0 0.3862169237
Ag  Ag4  1  0.92550000  0.01991000  0.57371000  1.0 0.3862169237
Ag  Ag5  1  0.08267000  0.38500000  0.53335000  1.0 0.384091724
Ag  Ag6  1  0.91733000  0.88500000  0.96665000  1.0 0.384091724
Ag  Ag7  1  0.91733000  0.61500000  0.46665000  1.0 0.384091724
Ag  Ag8  1  0.08267000  0.11500000  0.03335000  1.0 0.384091724
Ag  Ag9  1  0.98458000  0.73994000  0.18396000  1.0 0.4000178118
Ag  Ag10  1  0.01542000  0.23994000  0.31604000  1.0 0.4000178118
Ag  Ag11  1  0.01542000  0.26006000  0.81604000  1.0 0.4000178118
Ag  Ag12  1  0.98458000  0.76006000  0.68396000  1.0 0.4000178118
H  H1  1  0.18630000  0.46830000  0.20740000  1.0 0.1382489701
H  H2  1  0.81370000  0.96830000  0.29260000  1.0 0.1382489701
H  H3  1  0.81370000  0.53170000  0.79260000  1.0 0.1382489701
H  H4  1  0.18630000  0.03170000  0.70740000  1.0 0.1382489701
H  H5  1  0.26570000  0.47860000  0.25280000  1.0 0.1296062819
H  H6  1  0.73430000  0.97860000  0.24720000  1.0 0.1296062819
H  H7  1  0.73430000  0.52140000  0.74720000  1.0 0.1296062819
H  H8  1  0.26570000  0.02140000  0.75280000  1.0 0.1296062819
H  H9  1  0.53680000  0.50760000  0.11790000  1.0 0.1296062819
H  H10  1  0.46320000  0.00760000  0.38210000  1.0 0.1296062819
H  H11  1  0.46320000  0.49240000  0.88210000  1.0 0.1296062819
H  H12  1  0.53680000  0.99240000  0.61790000  1.0 0.1296062819
H  H13  1  0.55590000  0.58930000  0.08270000  1.0 0.1200346297
H  H14  1  0.44410000  0.08930000  0.41730000  1.0 0.1200346297
H  H15  1  0.44410000  0.41070000  0.91730000  1.0 0.1200346297
H  H16  1  0.55590000  0.91070000  0.58270000  1.0 0.1200346297
H  H17  1  0.45020000  0.65530000  0.08920000  1.0 0.1200346297
H  H18  1  0.54980000  0.15530000  0.41080000  1.0 0.1200346297
H  H19  1  0.54980000  0.34470000  0.91080000  1.0 0.1200346297
H  H20  1  0.45020000  0.84470000  0.58920000  1.0 0.1200346297
H  H21  1  0.31960000  0.64560000  0.13080000  1.0 0.1296062819
H  H22  1  0.68040000  0.14560000  0.36920000  1.0 0.1296062819
H  H23  1  0.68040000  0.35440000  0.86920000  1.0 0.1296062819
H  H24  1  0.31960000  0.85440000  0.63080000  1.0 0.1296062819
H  H25  1  0.18670000  0.56290000  0.22190000  1.0 0.1296062819
H  H26  1  0.81330000  0.06290000  0.27810000  1.0 0.1296062819
H  H27  1  0.81330000  0.43710000  0.77810000  1.0 0.1296062819
H  H28  1  0.18670000  0.93710000  0.72190000  1.0 0.1296062819
H  H29  1  0.23130000  0.61480000  0.20360000  1.0 0.1296062819
H  H30  1  0.76870000  0.11480000  0.29640000  1.0 0.1296062819
H  H31  1  0.76870000  0.38520000  0.79640000  1.0 0.1296062819
H  H32  1  0.23130000  0.88520000  0.70360000  1.0 0.1296062819
H  H33  1  0.12640000  0.66440000  0.15040000  1.0 0.1200346297
H  H34  1  0.87360000  0.16440000  0.34960000  1.0 0.1200346297
H  H35  1  0.87360000  0.33560000  0.84960000  1.0 0.1200346297
H  H36  1  0.12640000  0.83560000  0.65040000  1.0 0.1200346297
H  H37  1  0.98860000  0.67340000  0.09460000  1.0 0.1200346297
H  H38  1  0.01140000  0.17340000  0.40540000  1.0 0.1200346297
H  H39  1  0.01140000  0.32660000  0.90540000  1.0 0.1200346297
H  H40  1  0.98860000  0.82660000  0.59460000  1.0 0.1200346297
H  H41  1  0.89780000  0.60110000  0.07140000  1.0 0.1107395536
H  H42  1  0.10220000  0.10110000  0.42860000  1.0 0.1107395536
H  H43  1  0.10220000  0.39890000  0.92860000  1.0 0.1107395536
H  H44  1  0.89780000  0.89890000  0.57140000  1.0 0.1200346297
H  H45  1  0.08360000  0.51200000  0.14900000  1.0 0.1107395536
H  H46  1  0.91640000  0.01200000  0.35100000  1.0 0.1107395536
H  H47  1  0.91640000  0.48800000  0.85100000  1.0 0.1107395536
H  H48  1  0.08360000  0.98800000  0.64900000  1.0 0.1107395536
H  H49  1  0.19900000  0.38980000  0.26090000  1.0 0.1296062819
H  H50  1  0.80100000  0.88980000  0.23910000  1.0 0.1296062819
H  H51  1  0.80100000  0.61020000  0.73910000  1.0 0.1296062819
H  H52  1  0.19900000  0.11020000  0.76090000  1.0 0.1296062819
H  H53  1  0.27110000  0.34550000  0.24860000  1.0 0.1296062819
H  H54  1  0.72890000  0.84550000  0.25140000  1.0 0.1296062819
H  H55  1  0.72890000  0.65450000  0.75140000  1.0 0.1296062819
H  H56  1  0.27110000  0.15450000  0.74860000  1.0 0.1296062819
H  H57  1  0.57340000  0.47180000  0.34570000  1.0 0.1382489701
H  H58  1  0.42660000  0.97180000  0.15430000  1.0 0.1382489701
H  H59  1  0.42660000  0.52820000  0.65430000  1.0 0.1382489701
H  H60  1  0.57340000  0.02820000  0.84570000  1.0 0.1382489701
H  H61  1  0.61820000  0.46510000  0.42940000  1.0 0.1296062819
H  H62  1  0.38180000  0.96510000  0.07060000  1.0 0.1296062819
H  H63  1  0.38180000  0.53490000  0.57060000  1.0 0.1296062819
H  H64  1  0.61820000  0.03490000  0.92940000  1.0 0.1296062819
H  H65  1  0.52310000  0.42290000  0.47820000  1.0 0.1296062819
H  H66  1  0.47690000  0.92290000  0.02180000  1.0 0.1296062819
H  H67  1  0.47690000  0.57710000  0.52180000  1.0 0.1296062819
H  H68  1  0.52310000  0.07710000  0.97820000  1.0 0.1296062819
H  H69  1  0.38330000  0.38170000  0.44620000  1.0 0.1296062819
H  H70  1  0.61670000  0.88170000  0.05380000  1.0 0.1296062819
H  H71  1  0.61670000  0.61830000  0.55380000  1.0 0.1296062819
H  H72  1  0.38330000  0.11830000  0.94620000  1.0 0.1296062819
H  H73  1  0.21620000  0.32960000  0.33220000  1.0 0.1296062819
H  H74  1  0.78380000  0.82960000  0.16780000  1.0 0.1296062819
H  H75  1  0.78380000  0.67040000  0.66780000  1.0 0.1296062819
H  H76  1  0.21620000  0.17040000  0.83220000  1.0 0.1296062819
H  H77  1  0.27640000  0.32420000  0.38470000  1.0 0.1200346297
H  H78  1  0.72360000  0.82420000  0.11530000  1.0 0.1200346297
H  H79  1  0.72360000  0.67580000  0.61530000  1.0 0.1200346297
H  H80  1  0.27640000  0.17580000  0.88470000  1.0 0.1200346297
H  H81  1  0.10890000  0.41450000  0.32150000  1.0 0.1200346297
H  H82  1  0.89110000  0.91450000  0.17850000  1.0 0.1200346297
H  H83  1  0.89110000  0.58550000  0.67850000  1.0 0.1200346297
H  H84  1  0.10890000  0.08550000  0.82150000  1.0 0.1200346297
H  H85  1  0.99000000  0.45510000  0.35750000  1.0 0.1495779493
H  H86  1  0.01000000  0.95510000  0.14250000  1.0 0.1495779493
H  H87  1  0.01000000  0.54490000  0.64250000  1.0 0.1495779493
H  H88  1  0.99000000  0.04490000  0.85750000  1.0 0.1495779493
H  H89  1  0.98300000  0.44300000  0.43960000  1.0 0.1107395536
H  H90  1  0.01700000  0.94300000  0.06040000  1.0 0.1107395536
H  H91  1  0.01700000  0.55700000  0.56040000  1.0 0.1107395536
H  H92  1  0.98300000  0.05700000  0.93960000  1.0 0.1107395536
H  H93  1  0.20660000  0.35310000  0.45110000  1.0 0.1107395536
H  H94  1  0.79340000  0.85310000  0.04890000  1.0 0.1107395536
H  H95  1  0.79340000  0.64690000  0.54890000  1.0 0.1107395536
H  H96  1  0.20660000  0.14690000  0.95110000  1.0 0.1107395536
H  H97  1  0.24030000  0.41710000  0.14240000  1.0 0.1382489701
H  H98  1  0.75970000  0.91710000  0.35760000  1.0 0.1382489701
H  H99  1  0.75970000  0.58290000  0.85760000  1.0 0.1382489701
H  H100  1  0.24030000  0.08290000  0.64240000  1.0 0.1382489701
H  H101  1  0.18410000  0.37660000  0.17170000  1.0 0.1382489701
H  H102  1  0.81590000  0.87660000  0.32830000  1.0 0.1382489701
H  H103  1  0.81590000  0.62340000  0.82830000  1.0 0.1382489701
H  H104  1  0.18410000  0.12340000  0.67170000  1.0 0.1382489701
H  H105  1  0.55500000  0.27480000  0.19600000  1.0 0.1296062819
H  H106  1  0.44500000  0.77480000  0.30400000  1.0 0.1296062819
H  H107  1  0.44500000  0.72520000  0.80400000  1.0 0.1296062819
H  H108  1  0.55500000  0.22520000  0.69600000  1.0 0.1296062819
H  H109  1  0.58650000  0.21030000  0.14120000  1.0 0.1200346297
H  H110  1  0.41350000  0.71030000  0.35880000  1.0 0.1200346297
H  H111  1  0.41350000  0.78970000  0.85880000  1.0 0.1200346297
H  H112  1  0.58650000  0.28970000  0.64120000  1.0 0.1200346297
H  H113  1  0.48850000  0.19780000  0.06920000  1.0 0.1200346297
H  H114  1  0.51150000  0.69780000  0.43080000  1.0 0.1200346297
H  H115  1  0.51150000  0.80220000  0.93080000  1.0 0.1200346297
H  H116  1  0.48850000  0.30220000  0.56920000  1.0 0.1200346297
H  H117  1  0.34320000  0.24200000  0.05170000  1.0 0.1296062819
H  H118  1  0.65680000  0.74200000  0.44830000  1.0 0.1296062819
H  H119  1  0.65680000  0.75800000  0.94830000  1.0 0.1296062819
H  H120  1  0.34320000  0.25800000  0.55170000  1.0 0.1296062819
H  H121  1  0.17590000  0.35530000  0.08040000  1.0 0.1296062819
H  H122  1  0.82410000  0.85530000  0.41960000  1.0 0.1296062819
H  H123  1  0.82410000  0.64470000  0.91960000  1.0 0.1296062819
H  H124  1  0.17590000  0.14470000  0.58040000  1.0 0.1296062819
H  H125  1  0.22450000  0.31600000  0.04670000  1.0 0.1296062819
H  H126  1  0.77550000  0.81600000  0.45330000  1.0 0.1296062819
H  H127  1  0.77550000  0.68400000  0.95330000  1.0 0.1296062819
H  H128  1  0.22450000  0.18400000  0.54670000  1.0 0.1296062819
H  H129  1  0.05720000  0.32120000  0.13310000  1.0 0.1296062819
H  H130  1  0.94280000  0.82120000  0.36690000  1.0 0.1296062819
H  H131  1  0.94280000  0.67880000  0.86690000  1.0 0.1296062819
H  H132  1  0.05720000  0.17880000  0.63310000  1.0 0.1296062819
H  H133  1  0.94960000  0.25320000  0.14330000  1.0 0.1382489701
H  H134  1  0.05040000  0.75320000  0.35670000  1.0 0.1382489701
H  H135  1  0.05040000  0.74680000  0.85670000  1.0 0.1382489701
H  H136  1  0.94960000  0.24680000  0.64330000  1.0 0.1382489701
H  H137  1  0.96180000  0.17680000  0.10670000  1.0 0.1200346297
H  H138  1  0.03820000  0.67680000  0.39330000  1.0 0.1200346297
H  H139  1  0.03820000  0.82320000  0.89330000  1.0 0.1200346297
H  H140  1  0.96180000  0.32320000  0.60670000  1.0 0.1200346297
H  H141  1  0.17920000  0.22520000  0.04440000  1.0 0.1107395536
H  H142  1  0.82080000  0.72520000  0.45560000  1.0 0.1107395536
H  H143  1  0.82080000  0.77480000  0.95560000  1.0 0.1107395536
H  H144  1  0.17920000  0.27480000  0.54440000  1.0 0.1107395536
H  H145  1  0.76440000  0.47200000  0.22190000  1.0 0.1382489701
H  H146  1  0.23560000  0.97200000  0.27810000  1.0 0.1382489701
H  H147  1  0.23560000  0.52800000  0.77810000  1.0 0.1382489701
H  H148  1  0.76440000  0.02800000  0.72190000  1.0 0.1382489701
H  H149  1  0.69500000  0.46490000  0.17210000  1.0 0.1296062819
H  H150  1  0.30500000  0.96490000  0.32790000  1.0 0.1296062819
H  H151  1  0.30500000  0.53510000  0.82790000  1.0 0.1296062819
H  H152  1  0.69500000  0.03510000  0.67210000  1.0 0.1296062819
H  H153  1  0.40930000  0.53810000  0.28950000  1.0 0.1296062819
H  H154  1  0.59070000  0.03810000  0.21050000  1.0 0.1296062819
H  H155  1  0.59070000  0.46190000  0.71050000  1.0 0.1296062819
H  H156  1  0.40930000  0.96190000  0.78950000  1.0 0.1296062819
H  H157  1  0.37260000  0.62600000  0.29030000  1.0 0.1200346297
H  H158  1  0.62740000  0.12600000  0.20970000  1.0 0.1200346297
H  H159  1  0.62740000  0.37400000  0.70970000  1.0 0.1200346297
H  H160  1  0.37260000  0.87400000  0.79030000  1.0 0.1200346297
H  H161  1  0.45500000  0.68630000  0.25170000  1.0 0.1200346297
H  H162  1  0.54500000  0.18630000  0.24830000  1.0 0.1200346297
H  H163  1  0.54500000  0.31370000  0.74830000  1.0 0.1200346297
H  H164  1  0.45500000  0.81370000  0.75170000  1.0 0.1200346297
H  H165  1  0.59090000  0.66260000  0.21490000  1.0 0.1296062819
H  H166  1  0.40910000  0.16260000  0.28510000  1.0 0.1296062819
H  H167  1  0.40910000  0.33740000  0.78510000  1.0 0.1296062819
H  H168  1  0.59090000  0.83740000  0.71490000  1.0 0.1296062819
H  H169  1  0.74170000  0.55310000  0.16380000  1.0 0.1296062819
H  H170  1  0.25830000  0.05310000  0.33620000  1.0 0.1296062819
H  H171  1  0.25830000  0.44690000  0.83620000  1.0 0.1296062819
H  H172  1  0.74170000  0.94690000  0.66380000  1.0 0.1296062819
H  H173  1  0.68490000  0.60650000  0.16130000  1.0 0.1296062819
H  H174  1  0.31510000  0.10650000  0.33870000  1.0 0.1296062819
H  H175  1  0.31510000  0.39350000  0.83870000  1.0 0.1296062819
H  H176  1  0.68490000  0.89350000  0.66130000  1.0 0.1296062819
H  H177  1  0.82250000  0.55780000  0.26880000  1.0 0.1296062819
H  H178  1  0.17750000  0.05780000  0.23120000  1.0 0.1296062819
H  H179  1  0.17750000  0.44220000  0.73120000  1.0 0.1296062819
H  H180  1  0.82250000  0.94220000  0.76880000  1.0 0.1296062819
H  H181  1  0.95830000  0.60070000  0.30980000  1.0 0.1495779493
H  H182  1  0.04170000  0.10070000  0.19020000  1.0 0.1495779493
H  H183  1  0.04170000  0.39930000  0.69020000  1.0 0.1495779493
H  H184  1  0.95830000  0.89930000  0.80980000  1.0 0.1495779493
H  H185  1  0.01400000  0.67210000  0.27300000  1.0 0.0983264118
H  H186  1  0.98600000  0.17210000  0.22700000  1.0 0.0983264118
H  H187  1  0.98600000  0.32790000  0.72700000  1.0 0.0983264118
H  H188  1  0.01400000  0.82790000  0.77300000  1.0 0.0983264118
H  H189  1  0.79970000  0.66900000  0.17030000  1.0 0.1107395536
H  H190  1  0.20030000  0.16900000  0.32970000  1.0 0.1107395536
H  H191  1  0.20030000  0.33100000  0.82970000  1.0 0.1107395536
H  H192  1  0.79970000  0.83100000  0.67030000  1.0 0.1107395536
H  H193  1  0.70170000  0.44150000  0.29520000  1.0 0.1382489701
H  H194  1  0.29830000  0.94150000  0.20480000  1.0 0.1382489701
H  H195  1  0.29830000  0.55850000  0.70480000  1.0 0.1382489701
H  H196  1  0.70170000  0.05850000  0.79520000  1.0 0.1382489701
H  H197  1  0.76940000  0.39630000  0.28030000  1.0 0.1495779493
H  H198  1  0.23060000  0.89630000  0.21970000  1.0 0.1495779493
H  H199  1  0.23060000  0.60370000  0.71970000  1.0 0.1495779493
H  H200  1  0.76940000  0.10370000  0.78030000  1.0 0.1495779493
H  H201  1  0.40830000  0.28470000  0.27410000  1.0 0.1296062819
H  H202  1  0.59170000  0.78470000  0.22590000  1.0 0.1296062819
H  H203  1  0.59170000  0.71530000  0.72590000  1.0 0.1296062819
H  H204  1  0.40830000  0.21530000  0.77410000  1.0 0.1296062819
H  H205  1  0.37360000  0.24030000  0.34330000  1.0 0.1107395536
H  H206  1  0.62640000  0.74030000  0.15670000  1.0 0.1107395536
H  H207  1  0.62640000  0.75970000  0.65670000  1.0 0.1107395536
H  H208  1  0.37360000  0.25970000  0.84330000  1.0 0.1107395536
H  H209  1  0.47070000  0.24690000  0.41620000  1.0 0.1200346297
H  H210  1  0.52930000  0.74690000  0.08380000  1.0 0.1200346297
H  H211  1  0.52930000  0.75310000  0.58380000  1.0 0.1200346297
H  H212  1  0.47070000  0.25310000  0.91620000  1.0 0.1200346297
H  H213  1  0.61530000  0.29410000  0.42340000  1.0 0.1382489701
H  H214  1  0.38470000  0.79410000  0.07660000  1.0 0.1382489701
H  H215  1  0.38470000  0.70590000  0.57660000  1.0 0.1382489701
H  H216  1  0.61530000  0.20590000  0.92340000  1.0 0.1382489701
H  H217  1  0.76110000  0.40480000  0.37050000  1.0 0.1296062819
H  H218  1  0.23890000  0.90480000  0.12950000  1.0 0.1296062819
H  H219  1  0.23890000  0.59520000  0.62950000  1.0 0.1296062819
H  H220  1  0.76110000  0.09520000  0.87050000  1.0 0.1296062819
H  H221  1  0.70990000  0.37760000  0.41160000  1.0 0.1296062819
H  H222  1  0.29010000  0.87760000  0.08840000  1.0 0.1296062819
H  H223  1  0.29010000  0.62240000  0.58840000  1.0 0.1296062819
H  H224  1  0.70990000  0.12240000  0.91160000  1.0 0.1296062819
H  H225  1  0.82840000  0.34260000  0.46670000  1.0 0.1296062819
H  H226  1  0.17160000  0.84260000  0.03330000  1.0 0.1296062819
H  H227  1  0.17160000  0.65740000  0.53330000  1.0 0.1296062819
H  H228  1  0.82840000  0.15740000  0.96670000  1.0 0.1296062819
H  H229  1  0.96570000  0.29210000  0.48440000  1.0 0.1296062819
H  H230  1  0.03430000  0.79210000  0.01560000  1.0 0.1296062819
H  H231  1  0.03430000  0.70790000  0.51560000  1.0 0.1296062819
H  H232  1  0.96570000  0.20790000  0.98440000  1.0 0.1296062819
H  H233  1  0.03940000  0.26030000  0.42360000  1.0 0.0983264118
H  H234  1  0.96060000  0.76030000  0.07640000  1.0 0.0983264118
H  H235  1  0.96060000  0.73970000  0.57640000  1.0 0.0983264118
H  H236  1  0.03940000  0.23970000  0.92360000  1.0 0.0983264118
H  H237  1  0.84440000  0.31930000  0.32510000  1.0 0.1107395536
H  H238  1  0.15560000  0.81930000  0.17490000  1.0 0.1107395536
H  H239  1  0.15560000  0.68070000  0.67490000  1.0 0.1107395536
H  H240  1  0.84440000  0.18070000  0.82510000  1.0 0.1107395536
H  H241  1  0.76110000  0.37810000  0.19000000  1.0 0.1382489701
H  H242  1  0.23890000  0.87810000  0.31000000  1.0 0.1382489701
H  H243  1  0.23890000  0.62190000  0.81000000  1.0 0.1382489701
H  H244  1  0.76110000  0.12190000  0.69000000  1.0 0.1382489701
H  H245  1  0.69170000  0.33970000  0.21400000  1.0 0.1382489701
H  H246  1  0.30830000  0.83970000  0.28600000  1.0 0.1382489701
H  H247  1  0.30830000  0.66030000  0.78600000  1.0 0.1382489701
H  H248  1  0.69170000  0.16030000  0.71400000  1.0 0.1382489701
H  H249  1  0.38570000  0.42790000  0.08180000  1.0 0.1382489701
H  H250  1  0.61430000  0.92790000  0.41820000  1.0 0.1382489701
H  H251  1  0.61430000  0.57210000  0.91820000  1.0 0.1382489701
H  H252  1  0.38570000  0.07210000  0.58180000  1.0 0.1382489701
H  H253  1  0.34280000  0.39170000  0.00500000  1.0 0.1200346297
H  H254  1  0.65720000  0.89170000  0.49500000  1.0 0.1200346297
H  H255  1  0.65720000  0.60830000  0.99500000  1.0 0.1200346297
H  H256  1  0.34280000  0.10830000  0.50500000  1.0 0.1200346297
H  H257  1  0.43980000  0.33140000  0.97350000  1.0 0.1107395536
H  H258  1  0.56020000  0.83140000  0.52650000  1.0 0.1107395536
H  H259  1  0.56020000  0.66860000  0.02650000  1.0 0.1107395536
H  H260  1  0.43980000  0.16860000  0.47350000  1.0 0.1107395536
H  H261  1  0.58230000  0.30580000  0.01650000  1.0 0.1382489701
H  H262  1  0.41770000  0.80580000  0.48350000  1.0 0.1382489701
H  H263  1  0.41770000  0.69420000  0.98350000  1.0 0.1382489701
H  H264  1  0.58230000  0.19420000  0.51650000  1.0 0.1382489701
H  H265  1  0.75760000  0.29990000  0.13830000  1.0 0.1296062819
H  H266  1  0.24240000  0.79990000  0.36170000  1.0 0.1296062819
H  H267  1  0.24240000  0.70010000  0.86170000  1.0 0.1296062819
H  H268  1  0.75760000  0.20010000  0.63830000  1.0 0.1296062819
H  H269  1  0.69590000  0.27390000  0.09240000  1.0 0.1382489701
H  H270  1  0.30410000  0.77390000  0.40760000  1.0 0.1382489701
H  H271  1  0.30410000  0.72610000  0.90760000  1.0 0.1382489701
H  H272  1  0.69590000  0.22610000  0.59240000  1.0 0.1382489701
H  H273  1  0.79050000  0.26960000  0.02670000  1.0 0.1382489701
H  H274  1  0.20950000  0.76960000  0.47330000  1.0 0.1382489701
H  H275  1  0.20950000  0.73040000  0.97330000  1.0 0.1382489701
H  H276  1  0.79050000  0.23040000  0.52670000  1.0 0.1382489701
H  H277  1  0.88980000  0.31110000  0.97670000  1.0 0.1296062819
H  H278  1  0.11020000  0.81110000  0.52330000  1.0 0.1296062819
H  H279  1  0.11020000  0.68890000  0.02330000  1.0 0.1296062819
H  H280  1  0.88980000  0.18890000  0.47670000  1.0 0.1296062819
H  H281  1  0.94680000  0.39280000  0.99750000  1.0 0.1107395536
H  H282  1  0.05320000  0.89280000  0.50250000  1.0 0.1107395536
H  H283  1  0.05320000  0.60720000  0.00250000  1.0 0.1107395536
H  H284  1  0.94680000  0.10720000  0.49750000  1.0 0.1107395536
H  H285  1  0.80770000  0.39580000  0.11000000  1.0 0.1107395536
H  H286  1  0.19230000  0.89580000  0.39000000  1.0 0.1107395536
H  H287  1  0.19230000  0.60420000  0.89000000  1.0 0.1107395536
H  H288  1  0.80770000  0.10420000  0.61000000  1.0 0.1107395536
H  H289  1  0.78190000  0.51170000  0.50520000  1.0 0.1680741997
H  H290  1  0.21810000  0.01170000  0.99480000  1.0 0.1680741997
H  H291  1  0.21810000  0.48830000  0.49480000  1.0 0.1680741997
H  H292  1  0.78190000  0.98830000  0.00520000  1.0 0.1680741997
H  H293  1  0.73200000  0.46120000  0.52320000  1.0 0.1775137883
H  H294  1  0.26800000  0.96120000  0.97680000  1.0 0.1775137883
H  H295  1  0.26800000  0.53880000  0.47680000  1.0 0.1775137883
H  H296  1  0.73200000  0.03880000  0.02320000  1.0 0.1775137883
H  H297  1  0.77980000  0.50220000  0.56190000  1.0 0.1617892279
H  H298  1  0.22020000  0.00220000  0.93810000  1.0 0.1617892279
H  H299  1  0.22020000  0.49780000  0.43810000  1.0 0.1617892279
H  H300  1  0.77980000  0.99780000  0.06190000  1.0 0.1617892279
C  C1  1  0.25510000  0.46690000  0.21860000  1.0 -0.2312894335
C  C2  1  0.74490000  0.96690000  0.28140000  1.0 -0.2312894335
C  C3  1  0.74490000  0.53310000  0.78140000  1.0 -0.2312894335
C  C4  1  0.25510000  0.03310000  0.71860000  1.0 -0.2312894335
C  C5  1  0.30720000  0.50130000  0.18790000  1.0 0.300477485
C  C6  1  0.69280000  0.00130000  0.31210000  1.0 0.300477485
C  C7  1  0.69280000  0.49870000  0.81210000  1.0 0.2910876325
C  C8  1  0.30720000  0.99870000  0.68790000  1.0 0.2910876325
C  C9  1  0.41350000  0.52830000  0.14590000  1.0 0.1775137883
C  C10  1  0.58650000  0.02830000  0.35410000  1.0 0.1775137883
C  C11  1  0.58650000  0.47170000  0.85410000  1.0 0.1775137883
C  C12  1  0.41350000  0.97170000  0.64590000  1.0 0.1775137883
C  C13  1  0.49310000  0.53480000  0.12070000  1.0 -0.1793973687
C  C14  1  0.50690000  0.03480000  0.37930000  1.0 -0.1793973687
C  C15  1  0.50690000  0.46520000  0.87930000  1.0 -0.1793973687
C  C16  1  0.49310000  0.96520000  0.62070000  1.0 -0.1793973687
C  C17  1  0.50360000  0.58340000  0.09990000  1.0 -0.1010871974
C  C18  1  0.49640000  0.08340000  0.40010000  1.0 -0.1010871974
C  C19  1  0.49640000  0.41660000  0.90010000  1.0 -0.1010871974
C  C20  1  0.50360000  0.91660000  0.59990000  1.0 -0.1010871974
C  C21  1  0.43980000  0.62300000  0.10390000  1.0 -0.0913719752
C  C22  1  0.56020000  0.12300000  0.39610000  1.0 -0.0913719752
C  C23  1  0.56020000  0.37700000  0.89610000  1.0 -0.0913719752
C  C24  1  0.43980000  0.87700000  0.60390000  1.0 -0.0913719752
C  C25  1  0.36240000  0.61790000  0.12810000  1.0 -0.1704377022
C  C26  1  0.63760000  0.11790000  0.37190000  1.0 -0.1704377022
C  C27  1  0.63760000  0.38210000  0.87190000  1.0 -0.1704377022
C  C28  1  0.36240000  0.88210000  0.62810000  1.0 -0.1704377022
C  C29  1  0.35040000  0.56870000  0.14880000  1.0 0.0807487376
C  C30  1  0.64960000  0.06870000  0.35120000  1.0 0.0807487376
C  C31  1  0.64960000  0.43130000  0.85120000  1.0 0.0807487376
C  C32  1  0.35040000  0.93130000  0.64880000  1.0 0.0807487376
C  C33  1  0.20600000  0.58040000  0.19310000  1.0 -0.141015856
C  C34  1  0.79400000  0.08040000  0.30690000  1.0 -0.141015856
C  C35  1  0.79400000  0.41960000  0.80690000  1.0 -0.141015856
C  C36  1  0.20600000  0.91960000  0.69310000  1.0 -0.141015856
C  C37  1  0.11900000  0.58780000  0.15600000  1.0 0.0701662783
C  C38  1  0.88100000  0.08780000  0.34400000  1.0 0.0701662783
C  C39  1  0.88100000  0.41220000  0.84400000  1.0 0.0701662783
C  C40  1  0.11900000  0.91220000  0.65600000  1.0 0.0701662783
C  C41  1  0.09040000  0.63470000  0.13960000  1.0 -0.1080330182
C  C42  1  0.90960000  0.13470000  0.36040000  1.0 -0.1010871974
C  C43  1  0.90960000  0.36530000  0.86040000  1.0 -0.1010871974
C  C44  1  0.09040000  0.86530000  0.63960000  1.0 -0.1080330182
C  C45  1  0.00810000  0.64020000  0.10670000  1.0 -0.1593026902
C  C46  1  0.99190000  0.14020000  0.39330000  1.0 -0.1593026902
C  C47  1  0.99190000  0.35980000  0.89330000  1.0 -0.1593026902
C  C48  1  0.00810000  0.85980000  0.60670000  1.0 -0.1593026902
C  C49  1  0.95560000  0.59720000  0.09230000  1.0 0.0807487376
C  C50  1  0.04440000  0.09720000  0.40770000  1.0 0.0807487376
C  C51  1  0.04440000  0.40280000  0.90770000  1.0 0.0807487376
C  C52  1  0.95560000  0.90280000  0.59230000  1.0 0.0807487376
C  C53  1  0.06390000  0.54560000  0.13830000  1.0 0.0135685922
C  C54  1  0.93610000  0.04560000  0.36170000  1.0 0.0135685922
C  C55  1  0.93610000  0.45440000  0.86170000  1.0 0.0135685922
C  C56  1  0.06390000  0.95440000  0.63830000  1.0 0.0135685922
C  C57  1  0.26520000  0.38270000  0.25570000  1.0 -0.2312894335
C  C58  1  0.73480000  0.88270000  0.24430000  1.0 -0.2312894335
C  C59  1  0.73480000  0.61730000  0.74430000  1.0 -0.2312894335
C  C60  1  0.26520000  0.11730000  0.75570000  1.0 -0.2312894335
C  C61  1  0.33200000  0.39720000  0.30030000  1.0 0.300477485
C  C62  1  0.66800000  0.89720000  0.19970000  1.0 0.300477485
C  C63  1  0.66800000  0.60280000  0.69970000  1.0 0.300477485
C  C64  1  0.33200000  0.10280000  0.80030000  1.0 0.300477485
C  C65  1  0.45180000  0.42870000  0.34540000  1.0 0.1680741997
C  C66  1  0.54820000  0.92870000  0.15460000  1.0 0.1617892279
C  C67  1  0.54820000  0.57130000  0.65460000  1.0 0.1680741997
C  C68  1  0.45180000  0.07130000  0.84540000  1.0 0.1680741997
C  C69  1  0.53540000  0.45330000  0.36550000  1.0 -0.1793973687
C  C70  1  0.46460000  0.95330000  0.13450000  1.0 -0.1793973687
C  C71  1  0.46460000  0.54670000  0.63450000  1.0 -0.1793973687
C  C72  1  0.53540000  0.04670000  0.86550000  1.0 -0.1793973687
C  C73  1  0.56080000  0.44970000  0.41510000  1.0 -0.0913719752
C  C74  1  0.43920000  0.94970000  0.08490000  1.0 -0.0913719752
C  C75  1  0.43920000  0.55030000  0.58490000  1.0 -0.0913719752
C  C76  1  0.56080000  0.05030000  0.91510000  1.0 -0.0913719752
C  C77  1  0.50390000  0.42390000  0.44430000  1.0 -0.0819222816
C  C78  1  0.49610000  0.92390000  0.05570000  1.0 -0.0819222816
C  C79  1  0.49610000  0.57610000  0.55570000  1.0 -0.0819222816
C  C80  1  0.50390000  0.07610000  0.94430000  1.0 -0.0819222816
C  C81  1  0.42120000  0.39980000  0.42600000  1.0 -0.1793973687
C  C82  1  0.57880000  0.89980000  0.07400000  1.0 -0.1793973687
C  C83  1  0.57880000  0.60020000  0.57400000  1.0 -0.1793973687
C  C84  1  0.42120000  0.10020000  0.92600000  1.0 -0.1793973687
C  C85  1  0.39600000  0.40370000  0.37570000  1.0 0.0701662783
C  C86  1  0.60400000  0.90370000  0.12430000  1.0 0.0701662783
C  C87  1  0.60400000  0.59630000  0.62430000  1.0 0.0701662783
C  C88  1  0.39600000  0.09630000  0.87570000  1.0 0.0701662783
C  C89  1  0.24580000  0.34930000  0.36070000  1.0 -0.1486472064
C  C90  1  0.75420000  0.84930000  0.13930000  1.0 -0.1486472064
C  C91  1  0.75420000  0.65070000  0.63930000  1.0 -0.1486472064
C  C92  1  0.24580000  0.15070000  0.86070000  1.0 -0.1486472064
C  C93  1  0.16990000  0.37820000  0.38270000  1.0 0.0610663097
C  C94  1  0.83010000  0.87820000  0.11730000  1.0 0.0610663097
C  C95  1  0.83010000  0.62180000  0.61730000  1.0 0.0610663097
C  C96  1  0.16990000  0.12180000  0.88270000  1.0 0.0610663097
C  C97  1  0.10500000  0.40970000  0.35510000  1.0 -0.0913719752
C  C98  1  0.89500000  0.90970000  0.14490000  1.0 -0.0819222816
C  C99  1  0.89500000  0.59030000  0.64490000  1.0 -0.0819222816
C  C100  1  0.10500000  0.09030000  0.85510000  1.0 -0.0913719752
C  C101  1  0.03530000  0.43390000  0.37620000  1.0 -0.1080330182
C  C102  1  0.96470000  0.93390000  0.12380000  1.0 -0.1080330182
C  C103  1  0.96470000  0.56610000  0.62380000  1.0 -0.1080330182
C  C104  1  0.03530000  0.06610000  0.87620000  1.0 -0.1080330182
C  C105  1  0.03220000  0.42690000  0.42510000  1.0 0.0701662783
C  C106  1  0.96780000  0.92690000  0.07490000  1.0 0.0701662783
C  C107  1  0.96780000  0.57310000  0.57490000  1.0 0.0701662783
C  C108  1  0.03220000  0.07310000  0.92510000  1.0 0.0701662783
C  C109  1  0.16220000  0.37410000  0.43160000  1.0 0.0008296927
C  C110  1  0.83780000  0.87410000  0.06840000  1.0 0.0008296927
C  C111  1  0.83780000  0.62590000  0.56840000  1.0 0.0008296927
C  C112  1  0.16220000  0.12590000  0.93160000  1.0 0.0008296927
C  C113  1  0.24760000  0.39050000  0.16820000  1.0 -0.2312894335
C  C114  1  0.75240000  0.89050000  0.33180000  1.0 -0.2312894335
C  C115  1  0.75240000  0.60950000  0.83180000  1.0 -0.2312894335
C  C116  1  0.24760000  0.10950000  0.66820000  1.0 -0.2312894335
C  C117  1  0.30950000  0.34870000  0.15510000  1.0 0.300477485
C  C118  1  0.69050000  0.84870000  0.34490000  1.0 0.300477485
C  C119  1  0.69050000  0.65130000  0.84490000  1.0 0.300477485
C  C120  1  0.30950000  0.15130000  0.65510000  1.0 0.300477485
C  C121  1  0.42910000  0.29670000  0.15640000  1.0 0.1680741997
C  C122  1  0.57090000  0.79670000  0.34360000  1.0 0.1680741997
C  C123  1  0.57090000  0.70330000  0.84360000  1.0 0.1680741997
C  C124  1  0.42910000  0.20330000  0.65640000  1.0 0.1680741997
C  C125  1  0.51270000  0.26850000  0.16730000  1.0 -0.1793973687
C  C126  1  0.48730000  0.76850000  0.33270000  1.0 -0.1793973687
C  C127  1  0.48730000  0.73150000  0.83270000  1.0 -0.1793973687
C  C128  1  0.51270000  0.23150000  0.66730000  1.0 -0.1793973687
C  C129  1  0.53110000  0.23090000  0.13440000  1.0 -0.0913719752
C  C130  1  0.46890000  0.73090000  0.36560000  1.0 -0.0913719752
C  C131  1  0.46890000  0.76910000  0.86560000  1.0 -0.0913719752
C  C132  1  0.53110000  0.26910000  0.63440000  1.0 -0.0913719752
C  C133  1  0.47070000  0.22240000  0.09170000  1.0 -0.0693286538
C  C134  1  0.52930000  0.72240000  0.40830000  1.0 -0.0693286538
C  C135  1  0.52930000  0.77760000  0.90830000  1.0 -0.0693286538
C  C136  1  0.47070000  0.27760000  0.59170000  1.0 -0.0693286538
C  C137  1  0.38500000  0.24850000  0.08060000  1.0 -0.1704377022
C  C138  1  0.61500000  0.74850000  0.41940000  1.0 -0.1704377022
C  C139  1  0.61500000  0.75150000  0.91940000  1.0 -0.1704377022
C  C140  1  0.38500000  0.25150000  0.58060000  1.0 -0.1704377022
C  C141  1  0.36530000  0.28460000  0.11450000  1.0 0.0807487376
C  C142  1  0.63470000  0.78460000  0.38550000  1.0 0.0807487376
C  C143  1  0.63470000  0.71540000  0.88550000  1.0 0.0807487376
C  C144  1  0.36530000  0.21540000  0.61450000  1.0 0.0807487376
C  C145  1  0.20520000  0.32070000  0.07930000  1.0 -0.141015856
C  C146  1  0.79480000  0.82070000  0.42070000  1.0 -0.141015856
C  C147  1  0.79480000  0.67930000  0.92070000  1.0 -0.141015856
C  C148  1  0.20520000  0.17930000  0.57930000  1.0 -0.141015856
C  C149  1  0.13230000  0.27970000  0.08760000  1.0 0.0701662783
C  C150  1  0.86770000  0.77970000  0.41240000  1.0 0.0701662783
C  C151  1  0.86770000  0.72030000  0.91240000  1.0 0.0701662783
C  C152  1  0.13230000  0.22030000  0.58760000  1.0 0.0701662783
C  C153  1  0.06190000  0.28880000  0.11740000  1.0 -0.1010871974
C  C154  1  0.93810000  0.78880000  0.38260000  1.0 -0.1010871974
C  C155  1  0.93810000  0.71120000  0.88260000  1.0 -0.1010871974
C  C156  1  0.06190000  0.21120000  0.61740000  1.0 -0.1010871974
C  C157  1  0.99820000  0.24820000  0.12340000  1.0 -0.1155816868
C  C158  1  0.00180000  0.74820000  0.37660000  1.0 -0.1155816868
C  C159  1  0.00180000  0.75180000  0.87660000  1.0 -0.1155816868
C  C160  1  0.99820000  0.25180000  0.62340000  1.0 -0.1155816868
C  C161  1  0.00540000  0.20340000  0.10170000  1.0 0.0494113293
C  C162  1  0.99460000  0.70340000  0.39830000  1.0 0.0494113293
C  C163  1  0.99460000  0.79660000  0.89830000  1.0 0.0494113293
C  C164  1  0.00540000  0.29660000  0.60170000  1.0 0.0494113293
C  C165  1  0.13300000  0.23150000  0.06550000  1.0 0.0135685922
C  C166  1  0.86700000  0.73150000  0.43450000  1.0 0.0135685922
C  C167  1  0.86700000  0.76850000  0.93450000  1.0 0.0135685922
C  C168  1  0.13300000  0.26850000  0.56550000  1.0 0.0135685922
C  C169  1  0.69790000  0.46580000  0.20790000  1.0 -0.2312894335
C  C170  1  0.30210000  0.96580000  0.29210000  1.0 -0.2312894335
C  C171  1  0.30210000  0.53420000  0.79210000  1.0 -0.2312894335
C  C172  1  0.69790000  0.03420000  0.70790000  1.0 -0.2312894335
C  C173  1  0.63590000  0.50850000  0.22250000  1.0 0.3070496868
C  C174  1  0.36410000  0.00850000  0.27750000  1.0 0.3070496868
C  C175  1  0.36410000  0.49150000  0.77750000  1.0 0.3070496868
C  C176  1  0.63590000  0.99150000  0.72250000  1.0 0.3070496868
C  C177  1  0.52480000  0.54880000  0.25230000  1.0 0.1617892279
C  C178  1  0.47520000  0.04880000  0.24770000  1.0 0.1617892279
C  C179  1  0.47520000  0.45120000  0.74770000  1.0 0.1617892279
C  C180  1  0.52480000  0.95120000  0.75230000  1.0 0.1617892279
C  C181  1  0.44570000  0.56290000  0.27490000  1.0 -0.1704377022
C  C182  1  0.55430000  0.06290000  0.22510000  1.0 -0.1704377022
C  C183  1  0.55430000  0.43710000  0.72510000  1.0 -0.1704377022
C  C184  1  0.44570000  0.93710000  0.77490000  1.0 -0.1704377022
C  C185  1  0.42420000  0.61480000  0.27450000  1.0 -0.1010871974
C  C186  1  0.57580000  0.11480000  0.22550000  1.0 -0.1010871974
C  C187  1  0.57580000  0.38520000  0.72550000  1.0 -0.1010871974
C  C188  1  0.42420000  0.88520000  0.77450000  1.0 -0.1010871974
C  C189  1  0.47480000  0.65130000  0.25210000  1.0 -0.0913719752
C  C190  1  0.52520000  0.15130000  0.24790000  1.0 -0.0913719752
C  C191  1  0.52520000  0.34870000  0.74790000  1.0 -0.0913719752
C  C192  1  0.47480000  0.84870000  0.75210000  1.0 -0.0913719752
C  C193  1  0.55500000  0.63780000  0.22990000  1.0 -0.1704377022
C  C194  1  0.44500000  0.13780000  0.27010000  1.0 -0.1704377022
C  C195  1  0.44500000  0.36220000  0.77010000  1.0 -0.1704377022
C  C196  1  0.55500000  0.86220000  0.72990000  1.0 -0.1704377022
C  C197  1  0.57750000  0.58530000  0.23150000  1.0 0.0701662783
C  C198  1  0.42250000  0.08530000  0.26850000  1.0 0.0701662783
C  C199  1  0.42250000  0.41470000  0.76850000  1.0 0.0701662783
C  C200  1  0.57750000  0.91470000  0.73150000  1.0 0.0701662783
C  C201  1  0.71840000  0.58090000  0.18370000  1.0 -0.141015856
C  C202  1  0.28160000  0.08090000  0.31630000  1.0 -0.141015856
C  C203  1  0.28160000  0.41910000  0.81630000  1.0 -0.141015856
C  C204  1  0.71840000  0.91910000  0.68370000  1.0 -0.141015856
C  C205  1  0.80240000  0.60690000  0.21280000  1.0 0.0610663097
C  C206  1  0.19760000  0.10690000  0.28720000  1.0 0.0610663097
C  C207  1  0.19760000  0.39310000  0.78720000  1.0 0.0610663097
C  C208  1  0.80240000  0.89310000  0.71280000  1.0 0.0610663097
C  C209  1  0.84620000  0.58810000  0.25530000  1.0 -0.0819222816
C  C210  1  0.15380000  0.08810000  0.24470000  1.0 -0.0819222816
C  C211  1  0.15380000  0.41190000  0.74470000  1.0 -0.0819222816
C  C212  1  0.84620000  0.91190000  0.75530000  1.0 -0.0819222816
C  C213  1  0.92700000  0.61330000  0.27990000  1.0 -0.1289922345
C  C214  1  0.07300000  0.11330000  0.22010000  1.0 -0.1289922345
C  C215  1  0.07300000  0.38670000  0.72010000  1.0 -0.1289922345
C  C216  1  0.92700000  0.88670000  0.77990000  1.0 -0.1289922345
C  C217  1  0.95710000  0.65630000  0.25860000  1.0 0.0807487376
C  C218  1  0.04290000  0.15630000  0.24140000  1.0 0.0807487376
C  C219  1  0.04290000  0.34370000  0.74140000  1.0 0.0807487376
C  C220  1  0.95710000  0.84370000  0.75860000  1.0 0.0807487376
C  C221  1  0.83440000  0.65290000  0.19770000  1.0 -0.0298751306
C  C222  1  0.16560000  0.15290000  0.30230000  1.0 -0.0298751306
C  C223  1  0.16560000  0.34710000  0.80230000  1.0 -0.0298751306
C  C224  1  0.83440000  0.84710000  0.69770000  1.0 -0.0298751306
C  C225  1  0.70300000  0.40830000  0.27760000  1.0 -0.2378035348
C  C226  1  0.29700000  0.90830000  0.22240000  1.0 -0.2378035348
C  C227  1  0.29700000  0.59170000  0.72240000  1.0 -0.2378035348
C  C228  1  0.70300000  0.09170000  0.77760000  1.0 -0.2378035348
C  C229  1  0.64500000  0.37010000  0.29870000  1.0 0.2910876325
C  C230  1  0.35500000  0.87010000  0.20130000  1.0 0.2910876325
C  C231  1  0.35500000  0.62990000  0.70130000  1.0 0.2910876325
C  C232  1  0.64500000  0.12990000  0.79870000  1.0 0.2910876325
C  C233  1  0.53010000  0.31740000  0.30890000  1.0 0.1617892279
C  C234  1  0.46990000  0.81740000  0.19110000  1.0 0.1617892279
C  C235  1  0.46990000  0.68260000  0.69110000  1.0 0.1617892279
C  C236  1  0.53010000  0.18260000  0.80890000  1.0 0.1617892279
C  C237  1  0.44860000  0.28720000  0.30400000  1.0 -0.1793973687
C  C238  1  0.55140000  0.78720000  0.19600000  1.0 -0.1793973687
C  C239  1  0.55140000  0.71280000  0.69600000  1.0 -0.1793973687
C  C240  1  0.44860000  0.21280000  0.80400000  1.0 -0.1793973687
C  C241  1  0.42900000  0.26110000  0.34510000  1.0 -0.1080330182
C  C242  1  0.57100000  0.76110000  0.15490000  1.0 -0.1080330182
C  C243  1  0.57100000  0.73890000  0.65490000  1.0 -0.1080330182
C  C244  1  0.42900000  0.23890000  0.84510000  1.0 -0.1080330182
C  C245  1  0.48840000  0.26440000  0.38880000  1.0 -0.0913719752
C  C246  1  0.51160000  0.76440000  0.11120000  1.0 -0.0913719752
C  C247  1  0.51160000  0.73560000  0.61120000  1.0 -0.0913719752
C  C248  1  0.48840000  0.23560000  0.88880000  1.0 -0.0913719752
C  C249  1  0.57360000  0.29260000  0.39390000  1.0 -0.1704377022
C  C250  1  0.42640000  0.79260000  0.10610000  1.0 -0.1704377022
C  C251  1  0.42640000  0.70740000  0.60610000  1.0 -0.1704377022
C  C252  1  0.57360000  0.20740000  0.89390000  1.0 -0.1704377022
C  C253  1  0.59160000  0.31810000  0.35210000  1.0 0.0807487376
C  C254  1  0.40840000  0.81810000  0.14790000  1.0 0.0807487376
C  C255  1  0.40840000  0.68190000  0.64790000  1.0 0.0807487376
C  C256  1  0.59160000  0.18190000  0.85210000  1.0 0.0807487376
C  C257  1  0.73850000  0.37120000  0.38150000  1.0 -0.1486472064
C  C258  1  0.26150000  0.87120000  0.11850000  1.0 -0.141015856
C  C259  1  0.26150000  0.62880000  0.61850000  1.0 -0.1486472064
C  C260  1  0.73850000  0.12880000  0.88150000  1.0 -0.141015856
C  C261  1  0.82310000  0.33550000  0.39330000  1.0 0.0701662783
C  C262  1  0.17690000  0.83550000  0.10670000  1.0 0.0701662783
C  C263  1  0.17690000  0.66450000  0.60670000  1.0 0.0701662783
C  C264  1  0.82310000  0.16450000  0.89330000  1.0 0.0701662783
C  C265  1  0.85880000  0.32800000  0.44140000  1.0 -0.0913719752
C  C266  1  0.14120000  0.82800000  0.05860000  1.0 -0.0913719752
C  C267  1  0.14120000  0.67200000  0.55860000  1.0 -0.0913719752
C  C268  1  0.85880000  0.17200000  0.94140000  1.0 -0.0913719752
C  C269  1  0.94020000  0.29860000  0.45170000  1.0 -0.141015856
C  C270  1  0.05980000  0.79860000  0.04830000  1.0 -0.141015856
C  C271  1  0.05980000  0.70140000  0.54830000  1.0 -0.141015856
C  C272  1  0.94020000  0.20140000  0.95170000  1.0 -0.141015856
C  C273  1  0.98270000  0.27950000  0.41550000  1.0 0.033175784
C  C274  1  0.01730000  0.77950000  0.08450000  1.0 0.033175784
C  C275  1  0.01730000  0.72050000  0.58450000  1.0 0.033175784
C  C276  1  0.98270000  0.22050000  0.91550000  1.0 0.033175784
C  C277  1  0.86970000  0.31410000  0.35800000  1.0 -0.0021234487
C  C278  1  0.13030000  0.81410000  0.14200000  1.0 -0.0021234487
C  C279  1  0.13030000  0.68590000  0.64200000  1.0 -0.0021234487
C  C280  1  0.86970000  0.18590000  0.85800000  1.0 -0.0021234487
C  C281  1  0.69500000  0.37280000  0.19640000  1.0 -0.2378035348
C  C282  1  0.30500000  0.87280000  0.30360000  1.0 -0.2378035348
C  C283  1  0.30500000  0.62720000  0.80360000  1.0 -0.2378035348
C  C284  1  0.69500000  0.12720000  0.69640000  1.0 -0.2378035348
C  C285  1  0.62990000  0.37130000  0.14960000  1.0 0.300477485
C  C286  1  0.37010000  0.87130000  0.35040000  1.0 0.300477485
C  C287  1  0.37010000  0.62870000  0.85040000  1.0 0.300477485
C  C288  1  0.62990000  0.12870000  0.64960000  1.0 0.300477485
C  C289  1  0.50870000  0.38650000  0.09590000  1.0 0.1680741997
C  C290  1  0.49130000  0.88650000  0.40410000  1.0 0.1680741997
C  C291  1  0.49130000  0.61350000  0.90410000  1.0 0.1680741997
C  C292  1  0.50870000  0.11350000  0.59590000  1.0 0.1680741997
C  C293  1  0.42490000  0.40290000  0.06930000  1.0 -0.1793973687
C  C294  1  0.57510000  0.90290000  0.43070000  1.0 -0.1793973687
C  C295  1  0.57510000  0.59710000  0.93070000  1.0 -0.1793973687
C  C296  1  0.42490000  0.09710000  0.56930000  1.0 -0.1793973687
C  C297  1  0.40040000  0.38160000  0.02370000  1.0 -0.0913719752
C  C298  1  0.59960000  0.88160000  0.47630000  1.0 -0.0913719752
C  C299  1  0.59960000  0.61840000  0.97630000  1.0 -0.0913719752
C  C300  1  0.40040000  0.11840000  0.52370000  1.0 -0.0913719752
C  C301  1  0.45900000  0.34550000  0.00480000  1.0 -0.0913719752
C  C302  1  0.54100000  0.84550000  0.49520000  1.0 -0.0913719752
C  C303  1  0.54100000  0.65450000  0.99520000  1.0 -0.0913719752
C  C304  1  0.45900000  0.15450000  0.50480000  1.0 -0.0913719752
C  C305  1  0.54240000  0.32980000  0.02980000  1.0 -0.1593026902
C  C306  1  0.45760000  0.82980000  0.47020000  1.0 -0.1593026902
C  C307  1  0.45760000  0.67020000  0.97020000  1.0 -0.1593026902
C  C308  1  0.54240000  0.17020000  0.52980000  1.0 -0.1593026902
C  C309  1  0.56650000  0.35050000  0.07570000  1.0 0.0807487376
C  C310  1  0.43350000  0.85050000  0.42430000  1.0 0.0807487376
C  C311  1  0.43350000  0.64950000  0.92430000  1.0 0.0807487376
C  C312  1  0.56650000  0.14950000  0.57570000  1.0 0.0807487376
C  C313  1  0.72200000  0.30700000  0.10600000  1.0 -0.141015856
C  C314  1  0.27800000  0.80700000  0.39400000  1.0 -0.141015856
C  C315  1  0.27800000  0.69300000  0.89400000  1.0 -0.141015856
C  C316  1  0.72200000  0.19300000  0.60600000  1.0 -0.141015856
C  C317  1  0.78830000  0.32930000  0.07320000  1.0 0.0701662783
C  C318  1  0.21170000  0.82930000  0.42680000  1.0 0.0701662783
C  C319  1  0.21170000  0.67070000  0.92680000  1.0 0.0701662783
C  C320  1  0.78830000  0.17070000  0.57320000  1.0 0.0701662783
C  C321  1  0.81320000  0.30360000  0.03400000  1.0 -0.0819222816
C  C322  1  0.18680000  0.80360000  0.46600000  1.0 -0.0819222816
C  C323  1  0.18680000  0.69640000  0.96600000  1.0 -0.0819222816
C  C324  1  0.81320000  0.19640000  0.53400000  1.0 -0.0819222816
C  C325  1  0.87260000  0.32790000  0.00460000  1.0 -0.141015856
C  C326  1  0.12740000  0.82790000  0.49540000  1.0 -0.141015856
C  C327  1  0.12740000  0.67210000  0.99540000  1.0 -0.141015856
C  C328  1  0.87260000  0.17210000  0.50460000  1.0 -0.141015856
C  C329  1  0.90530000  0.37660000  0.01700000  1.0 0.0872072827
C  C330  1  0.09470000  0.87660000  0.48300000  1.0 0.0872072827
C  C331  1  0.09470000  0.62340000  0.98300000  1.0 0.0872072827
C  C332  1  0.90530000  0.12340000  0.51700000  1.0 0.0872072827
C  C333  1  0.82420000  0.37800000  0.08250000  1.0 -0.0158610951
C  C334  1  0.17580000  0.87800000  0.41750000  1.0 -0.0158610951
C  C335  1  0.17580000  0.62200000  0.91750000  1.0 -0.0158610951
C  C336  1  0.82420000  0.12200000  0.58250000  1.0 -0.0158610951
C  C337  1  0.87350000  0.45780000  0.53340000  1.0 0.4000178118
C  C338  1  0.12650000  0.95780000  0.96660000  1.0 0.4000178118
C  C339  1  0.12650000  0.54220000  0.46660000  1.0 0.4000178118
C  C340  1  0.87350000  0.04220000  0.03340000  1.0 0.4000178118
C  C341  1  0.78460000  0.48550000  0.53070000  1.0 -0.4899247238
C  C342  1  0.21540000  0.98550000  0.96930000  1.0 -0.4899247238
C  C343  1  0.21540000  0.51450000  0.46930000  1.0 -0.4899247238
C  C344  1  0.78460000  0.01450000  0.03070000  1.0 -0.4899247238
N  N1  1  0.29040000  0.41390000  0.21470000  1.0 -0.1010871974
N  N2  1  0.70960000  0.91390000  0.28530000  1.0 -0.1010871974
N  N3  1  0.70960000  0.58610000  0.78530000  1.0 -0.1010871974
N  N4  1  0.29040000  0.08610000  0.71470000  1.0 -0.1010871974
N  N5  1  0.38650000  0.48610000  0.17120000  1.0 -0.5218647171
N  N6  1  0.61350000  0.98610000  0.32880000  1.0 -0.5218647171
N  N7  1  0.61350000  0.51390000  0.82880000  1.0 -0.5218647171
N  N8  1  0.38650000  0.01390000  0.67120000  1.0 -0.5218647171
N  N9  1  0.28240000  0.55010000  0.17550000  1.0 -0.0584092347
N  N10  1  0.71760000  0.05010000  0.32450000  1.0 -0.0584092347
N  N11  1  0.71760000  0.44990000  0.82450000  1.0 -0.0584092347
N  N12  1  0.28240000  0.94990000  0.67550000  1.0 -0.0584092347
N  N13  1  0.98440000  0.55020000  0.10700000  1.0 -0.1704377022
N  N14  1  0.01560000  0.05020000  0.39300000  1.0 -0.1704377022
N  N15  1  0.01560000  0.44980000  0.89300000  1.0 -0.1704377022
N  N16  1  0.98440000  0.94980000  0.60700000  1.0 -0.1704377022
N  N17  1  0.41070000  0.42380000  0.29770000  1.0 -0.5265070994
N  N18  1  0.58930000  0.92380000  0.20230000  1.0 -0.5265070994
N  N19  1  0.58930000  0.57620000  0.70230000  1.0 -0.5265070994
N  N20  1  0.41070000  0.07620000  0.79770000  1.0 -0.5265070994
N  N21  1  0.31880000  0.38390000  0.34550000  1.0 -0.0533174527
N  N22  1  0.68120000  0.88390000  0.15450000  1.0 -0.0533174527
N  N23  1  0.68120000  0.61610000  0.65450000  1.0 -0.0533174527
N  N24  1  0.31880000  0.11610000  0.84550000  1.0 -0.0533174527
N  N25  1  0.09590000  0.39820000  0.45260000  1.0 -0.2105601106
N  N26  1  0.90410000  0.89820000  0.04740000  1.0 -0.2105601106
N  N27  1  0.90410000  0.60180000  0.54740000  1.0 -0.2105601106
N  N28  1  0.09590000  0.10180000  0.95260000  1.0 -0.2105601106
N  N29  1  0.39250000  0.33740000  0.18040000  1.0 -0.5127565363
N  N30  1  0.60750000  0.83740000  0.31960000  1.0 -0.5127565363
N  N31  1  0.60750000  0.66260000  0.81960000  1.0 -0.5127565363
N  N32  1  0.39250000  0.16260000  0.68040000  1.0 -0.5127565363
N  N33  1  0.28830000  0.31820000  0.11530000  1.0 -0.0533174527
N  N34  1  0.71170000  0.81820000  0.38470000  1.0 -0.0533174527
N  N35  1  0.71170000  0.68180000  0.88470000  1.0 -0.0533174527
N  N36  1  0.28830000  0.18180000  0.61530000  1.0 -0.0533174527
N  N37  1  0.07280000  0.19360000  0.07220000  1.0 -0.2024509434
N  N38  1  0.92720000  0.69360000  0.42780000  1.0 -0.2024509434
N  N39  1  0.92720000  0.80640000  0.92780000  1.0 -0.2024509434
N  N40  1  0.07280000  0.30640000  0.57220000  1.0 -0.2024509434
N  N41  1  0.66480000  0.41590000  0.22560000  1.0 -0.0913719752
N  N42  1  0.33520000  0.91590000  0.27440000  1.0 -0.0913719752
N  N43  1  0.33520000  0.58410000  0.77440000  1.0 -0.1010871974
N  N44  1  0.66480000  0.08410000  0.72560000  1.0 -0.0913719752
N  N45  1  0.56240000  0.49930000  0.24440000  1.0 -0.4985768676
N  N46  1  0.43760000  0.99930000  0.25560000  1.0 -0.4985768676
N  N47  1  0.43760000  0.50070000  0.75560000  1.0 -0.4985768676
N  N48  1  0.56240000  0.00070000  0.74440000  1.0 -0.4985768676
N  N49  1  0.65050000  0.55850000  0.21350000  1.0 -0.0584092347
N  N50  1  0.34950000  0.05850000  0.28650000  1.0 -0.0584092347
N  N51  1  0.34950000  0.44150000  0.78650000  1.0 -0.0584092347
N  N52  1  0.65050000  0.94150000  0.71350000  1.0 -0.0584092347
N  N53  1  0.91330000  0.67700000  0.21980000  1.0 -0.1946764041
N  N54  1  0.08670000  0.17700000  0.28020000  1.0 -0.1946764041
N  N55  1  0.08670000  0.32300000  0.78020000  1.0 -0.1946764041
N  N56  1  0.91330000  0.82300000  0.71980000  1.0 -0.1946764041
N  N57  1  0.56400000  0.35080000  0.27500000  1.0 -0.5458306122
N  N58  1  0.43600000  0.85080000  0.22500000  1.0 -0.5458306122
N  N59  1  0.43600000  0.64920000  0.72500000  1.0 -0.5458306122
N  N60  1  0.56400000  0.14920000  0.77500000  1.0 -0.5458306122
N  N61  1  0.66450000  0.35140000  0.34420000  1.0 -0.0533174527
N  N62  1  0.33550000  0.85140000  0.15580000  1.0 -0.0533174527
N  N63  1  0.33550000  0.64860000  0.65580000  1.0 -0.0533174527
N  N64  1  0.66450000  0.14860000  0.84420000  1.0 -0.0533174527
N  N65  1  0.95030000  0.28570000  0.36790000  1.0 -0.2024509434
N  N66  1  0.04970000  0.78570000  0.13210000  1.0 -0.2024509434
N  N67  1  0.04970000  0.71430000  0.63210000  1.0 -0.2024509434
N  N68  1  0.95030000  0.21430000  0.86790000  1.0 -0.2024509434
N  N69  1  0.54940000  0.39850000  0.14290000  1.0 -0.53881297
N  N70  1  0.45060000  0.89850000  0.35710000  1.0 -0.53881297
N  N71  1  0.45060000  0.60150000  0.85710000  1.0 -0.53881297
N  N72  1  0.54940000  0.10150000  0.64290000  1.0 -0.53881297
N  N73  1  0.64420000  0.34260000  0.11130000  1.0 -0.0584092347
N  N74  1  0.35580000  0.84260000  0.38870000  1.0 -0.0584092347
N  N75  1  0.35580000  0.65740000  0.88870000  1.0 -0.0584092347
N  N76  1  0.64420000  0.15740000  0.61130000  1.0 -0.0584092347
N  N77  1  0.88150000  0.40180000  0.05480000  1.0 -0.1593026902
N  N78  1  0.11850000  0.90180000  0.44520000  1.0 -0.1593026902
N  N79  1  0.11850000  0.59820000  0.94520000  1.0 -0.1593026902
N  N80  1  0.88150000  0.09820000  0.55480000  1.0 -0.1593026902
N  N81  1  0.94310000  0.43620000  0.53660000  1.0 -0.4295607928
N  N82  1  0.05690000  0.93620000  0.96340000  1.0 -0.4295607928
N  N83  1  0.05690000  0.56380000  0.46340000  1.0 -0.4295607928
N  N84  1  0.94310000  0.06380000  0.03660000  1.0 -0.4295607928
Cl  Cl1  1  0.84010000  0.96971000  0.45554000  1.0 1.2604179897
Cl  Cl2  1  0.15990000  0.46971000  0.04446000  1.0 1.2604179897
Cl  Cl3  1  0.15990000  0.03029000  0.54446000  1.0 1.2604179897
Cl  Cl4  1  0.84010000  0.53029000  0.95554000  1.0 1.2604179897
Cl  Cl5  1  0.19777000  0.02572000  0.12896000  1.0 1.2604179897
Cl  Cl6  1  0.80223000  0.52572000  0.37104000  1.0 1.2604179897
Cl  Cl7  1  0.80223000  0.97428000  0.87104000  1.0 1.2604179897
Cl  Cl8  1  0.19777000  0.47428000  0.62896000  1.0 1.2604179897
Cl  Cl9  1  0.97207000  0.07800000  0.71576000  1.0 1.2604179897
Cl  Cl10  1  0.02793000  0.57800000  0.78424000  1.0 1.26701183
Cl  Cl11  1  0.02793000  0.92200000  0.28424000  1.0 1.26701183
Cl  Cl12  1  0.97207000  0.42200000  0.21576000  1.0 1.26701183
Cl  Cl13  1  0.76342000  0.78464000  0.56989000  1.0 1.26701183
Cl  Cl14  1  0.23658000  0.28464000  0.93011000  1.0 1.26701183
Cl  Cl15  1  0.23658000  0.21536000  0.43011000  1.0 1.26701183
Cl  Cl16  1  0.76342000  0.71536000  0.06989000  1.0 1.26701183
Cl  Cl17  1  0.79021000  0.23366000  0.23879000  1.0 1.2000661146
Cl  Cl18  1  0.20979000  0.73366000  0.26121000  1.0 1.2000661146
Cl  Cl19  1  0.20979000  0.76634000  0.76121000  1.0 1.2000661146
Cl  Cl20  1  0.79021000  0.26634000  0.73879000  1.0 1.2000661146
Cl  Cl21  1  0.69329000  0.16150000  0.03832000  1.0 1.26701183
Cl  Cl22  1  0.30671000  0.66150000  0.46168000  1.0 1.26701183
Cl  Cl23  1  0.30671000  0.83850000  0.96168000  1.0 1.26701183
Cl  Cl24  1  0.69329000  0.33850000  0.53832000  1.0 1.26701183
O  O1  1  0.92350000  0.79870000  0.22730000  1.0 -0.3859429408
O  O2  1  0.07650000  0.29870000  0.27270000  1.0 -0.3818077891
O  O3  1  0.07650000  0.20130000  0.77270000  1.0 -0.3818077891
O  O4  1  0.92350000  0.70130000  0.72730000  1.0 -0.3818077891
O  O5  1  0.76030000  0.98270000  0.42150000  1.0 -0.4599442009
O  O6  1  0.89890000  0.93670000  0.43180000  1.0 -0.4899247238
O  O7  1  0.89100000  0.01470000  0.47160000  1.0 -0.4985768676
O  O8  1  0.80810000  0.94340000  0.49560000  1.0 -0.4781236763
O  O9  1  0.23970000  0.48270000  0.07850000  1.0 -0.4599442009
O  O10  1  0.10110000  0.43670000  0.06820000  1.0 -0.4899247238
O  O11  1  0.10900000  0.51470000  0.02840000  1.0 -0.4985768676
O  O12  1  0.19190000  0.44340000  0.00440000  1.0 -0.4781236763
O  O13  1  0.23970000  0.01730000  0.57850000  1.0 -0.4599442009
O  O14  1  0.10110000  0.06330000  0.56820000  1.0 -0.4899247238
O  O15  1  0.10900000  0.98530000  0.52840000  1.0 -0.4985768676
O  O16  1  0.19190000  0.05660000  0.50440000  1.0 -0.4781236763
O  O17  1  0.76030000  0.51730000  0.92150000  1.0 -0.4599442009
O  O18  1  0.89890000  0.56330000  0.93180000  1.0 -0.4899247238
O  O19  1  0.89100000  0.48530000  0.97160000  1.0 -0.4985768676
O  O20  1  0.80810000  0.55660000  0.99560000  1.0 -0.4781236763
O  O21  1  0.16060000  0.99240000  0.16150000  1.0 -0.4781236763
O  O22  1  0.28860000  0.04190000  0.15250000  1.0 -0.4714751968
O  O23  1  0.13790000  0.07010000  0.11920000  1.0 -0.4899247238
O  O24  1  0.20610000  0.99900000  0.08570000  1.0 -0.4714751968
O  O25  1  0.83940000  0.49240000  0.33850000  1.0 -0.4714751968
O  O26  1  0.71140000  0.54190000  0.34750000  1.0 -0.4714751968
O  O27  1  0.86210000  0.57010000  0.38080000  1.0 -0.4899247238
O  O28  1  0.79390000  0.49900000  0.41430000  1.0 -0.4714751968
O  O29  1  0.83940000  0.00760000  0.83850000  1.0 -0.4714751968
O  O30  1  0.71140000  0.95810000  0.84750000  1.0 -0.4714751968
O  O31  1  0.86210000  0.92990000  0.88080000  1.0 -0.4899247238
O  O32  1  0.79390000  0.00100000  0.91430000  1.0 -0.4714751968
O  O33  1  0.16060000  0.50760000  0.66150000  1.0 -0.4714751968
O  O34  1  0.28860000  0.45810000  0.65250000  1.0 -0.4714751968
O  O35  1  0.13790000  0.42990000  0.61920000  1.0 -0.4899247238
O  O36  1  0.20610000  0.50100000  0.58570000  1.0 -0.4714751968
O  O37  1  0.90560000  0.05210000  0.68040000  1.0 -0.5265070994
O  O38  1  0.03070000  0.11400000  0.69890000  1.0 -0.4295607928
O  O39  1  0.03850000  0.04140000  0.74040000  1.0 -0.4781236763
O  O40  1  0.92430000  0.09780000  0.75420000  1.0 -0.4599442009
O  O41  1  0.09440000  0.55210000  0.81960000  1.0 -0.5265070994
O  O42  1  0.96930000  0.61400000  0.80110000  1.0 -0.4295607928
O  O43  1  0.96150000  0.54140000  0.75960000  1.0 -0.4781236763
O  O44  1  0.07570000  0.59780000  0.74580000  1.0 -0.4599442009
O  O45  1  0.09440000  0.94790000  0.31960000  1.0 -0.5265070994
O  O46  1  0.96930000  0.88600000  0.30110000  1.0 -0.4295607928
O  O47  1  0.96150000  0.95860000  0.25960000  1.0 -0.4781236763
O  O48  1  0.07570000  0.90220000  0.24580000  1.0 -0.4599442009
O  O49  1  0.90560000  0.44790000  0.18040000  1.0 -0.5265070994
O  O50  1  0.03070000  0.38600000  0.19890000  1.0 -0.4295607928
O  O51  1  0.03850000  0.45860000  0.24040000  1.0 -0.4781236763
O  O52  1  0.92430000  0.40220000  0.25420000  1.0 -0.4599442009
O  O53  1  0.70900000  0.82740000  0.58540000  1.0 -0.4985768676
O  O54  1  0.70040000  0.74730000  0.54490000  1.0 -0.4899247238
O  O55  1  0.82860000  0.80280000  0.53890000  1.0 -0.4899247238
O  O56  1  0.81480000  0.76140000  0.61210000  1.0 -0.5127565363
O  O57  1  0.29100000  0.32740000  0.91460000  1.0 -0.4985768676
O  O58  1  0.29960000  0.24730000  0.95510000  1.0 -0.4899247238
O  O59  1  0.17140000  0.30280000  0.96110000  1.0 -0.4899247238
O  O60  1  0.18520000  0.26140000  0.88790000  1.0 -0.5127565363
O  O61  1  0.29100000  0.17260000  0.41460000  1.0 -0.4985768676
O  O62  1  0.29960000  0.25270000  0.45510000  1.0 -0.4899247238
O  O63  1  0.17140000  0.19720000  0.46110000  1.0 -0.4899247238
O  O64  1  0.18520000  0.23860000  0.38790000  1.0 -0.5127565363
O  O65  1  0.70900000  0.67260000  0.08540000  1.0 -0.4985768676
O  O66  1  0.70040000  0.75270000  0.04490000  1.0 -0.4899247238
O  O67  1  0.82860000  0.69720000  0.03890000  1.0 -0.4899247238
O  O68  1  0.81480000  0.73860000  0.11210000  1.0 -0.5127565363
O  O69  1  0.85860000  0.27190000  0.23020000  1.0 -0.4599442009
O  O70  1  0.71300000  0.25710000  0.25580000  1.0 -0.416630489
O  O71  1  0.74460000  0.21860000  0.19650000  1.0 -0.3715898219
O  O72  1  0.83100000  0.19440000  0.26540000  1.0 -0.4599442009
O  O73  1  0.14140000  0.77190000  0.26980000  1.0 -0.4599442009
O  O74  1  0.28700000  0.75710000  0.24420000  1.0 -0.416630489
O  O75  1  0.25540000  0.71860000  0.30350000  1.0 -0.3715898219
O  O76  1  0.16900000  0.69440000  0.23460000  1.0 -0.4599442009
O  O77  1  0.14140000  0.72810000  0.76980000  1.0 -0.4599442009
O  O78  1  0.28700000  0.74290000  0.74420000  1.0 -0.416630489
O  O79  1  0.25540000  0.78140000  0.80350000  1.0 -0.3715898219
O  O80  1  0.16900000  0.80560000  0.73460000  1.0 -0.4599442009
O  O81  1  0.85860000  0.22810000  0.73020000  1.0 -0.4599442009
O  O82  1  0.71300000  0.24290000  0.75580000  1.0 -0.416630489
O  O83  1  0.74460000  0.28140000  0.69650000  1.0 -0.3715898219
O  O84  1  0.83100000  0.30560000  0.76540000  1.0 -0.4599442009
O  O85  1  0.78770000  0.17600000  0.05770000  1.0 -0.4985768676
O  O86  1  0.69580000  0.12550000  0.99980000  1.0 -0.4899247238
O  O87  1  0.64290000  0.20740000  0.01940000  1.0 -0.5127565363
O  O88  1  0.64640000  0.13790000  0.07480000  1.0 -0.4714751968
O  O89  1  0.21230000  0.67600000  0.44230000  1.0 -0.4985768676
O  O90  1  0.30420000  0.62550000  0.50020000  1.0 -0.4899247238
O  O91  1  0.35710000  0.70740000  0.48060000  1.0 -0.5127565363
O  O92  1  0.35360000  0.63790000  0.42520000  1.0 -0.4714751968
O  O93  1  0.21230000  0.82400000  0.94230000  1.0 -0.4985768676
O  O94  1  0.30420000  0.87450000  0.00020000  1.0 -0.4899247238
O  O95  1  0.35710000  0.79260000  0.98060000  1.0 -0.5127565363
O  O96  1  0.35360000  0.86210000  0.92520000  1.0 -0.4714751968
O  O97  1  0.78770000  0.32400000  0.55770000  1.0 -0.4985768676
O  O98  1  0.69580000  0.37450000  0.49980000  1.0 -0.4899247238
O  O99  1  0.64290000  0.29260000  0.51940000  1.0 -0.5127565363
O  O100  1  0.64640000  0.36210000  0.57480000  1.0 -0.4714751968
