# DDEC6 charges by PACMAN v1.1 (https://github.com/mtap-research/PACMAN-charge/)
data_GEGSIW_ASR_pacman
_symmetry_space_group_name_H-M   'P 1'
_cell_length_a   15.44480000
_cell_length_b   15.44480000
_cell_length_c   14.25430000
_cell_angle_alpha   90.00000000
_cell_angle_beta   90.00000000
_cell_angle_gamma   102.44500000
_symmetry_Int_Tables_number   1
_chemical_formula_structural   CaH4C10N3O4
_chemical_formula_sum   'Ca8 H32 C80 N24 O32'
_cell_volume   3320.35254833
_cell_formula_units_Z   8
loop_
 _symmetry_equiv_pos_site_id
 _symmetry_equiv_pos_as_xyz
  1  'x, y, z'
loop_
 _atom_site_type_symbol
 _atom_site_label
 _atom_site_symmetry_multiplicity
 _atom_site_fract_x
 _atom_site_fract_y
 _atom_site_fract_z
 _atom_site_occupancy
 _atom_site_charge
Ca  Ca1  1  0.44042000  0.03882000  0.88918000  1.0 1.3084876252
Ca  Ca2  1  0.05958000  0.46118000  0.38918000  1.0 1.3084876252
Ca  Ca3  1  0.46118000  0.05958000  0.61082000  1.0 1.3084876252
Ca  Ca4  1  0.03882000  0.44042000  0.11082000  1.0 1.3084876252
Ca  Ca5  1  0.55958000  0.96118000  0.11082000  1.0 1.3084876252
Ca  Ca6  1  0.94042000  0.53882000  0.61082000  1.0 1.3084876252
Ca  Ca7  1  0.53882000  0.94042000  0.38918000  1.0 1.3084876252
Ca  Ca8  1  0.96118000  0.55958000  0.88918000  1.0 1.3084876252
H  H1  1  0.43930000  0.06070000  0.25000000  1.0 0.130685748
H  H2  1  0.06070000  0.43930000  0.75000000  1.0 0.130685748
H  H3  1  0.56070000  0.93930000  0.75000000  1.0 0.130685748
H  H4  1  0.93930000  0.56070000  0.25000000  1.0 0.130685748
H  H5  1  0.30130000  0.21190000  0.10940000  1.0 0.130685748
H  H6  1  0.19870000  0.28810000  0.60940000  1.0 0.130685748
H  H7  1  0.28810000  0.19870000  0.39060000  1.0 0.130685748
H  H8  1  0.21190000  0.30130000  0.89060000  1.0 0.130685748
H  H9  1  0.69870000  0.78810000  0.89060000  1.0 0.130685748
H  H10  1  0.80130000  0.71190000  0.39060000  1.0 0.130685748
H  H11  1  0.71190000  0.80130000  0.60940000  1.0 0.130685748
H  H12  1  0.78810000  0.69870000  0.10940000  1.0 0.130685748
H  H13  1  0.71050000  0.28950000  0.86980000  1.0 0.1399264691
H  H14  1  0.78950000  0.21050000  0.36980000  1.0 0.1399264691
H  H15  1  0.21050000  0.78950000  0.63020000  1.0 0.1399264691
H  H16  1  0.28950000  0.71050000  0.13020000  1.0 0.1399264691
H  H17  1  0.20210000  0.29610000  0.11340000  1.0 0.1399264691
H  H18  1  0.29790000  0.20390000  0.61340000  1.0 0.1399264691
H  H19  1  0.20390000  0.29790000  0.38660000  1.0 0.1399264691
H  H20  1  0.29610000  0.20210000  0.88660000  1.0 0.1399264691
H  H21  1  0.79790000  0.70390000  0.88660000  1.0 0.1399264691
H  H22  1  0.70210000  0.79610000  0.38660000  1.0 0.1399264691
H  H23  1  0.79610000  0.70210000  0.61340000  1.0 0.1399264691
H  H24  1  0.70390000  0.79790000  0.11340000  1.0 0.1399264691
H  H25  1  0.69260000  0.10020000  0.67380000  1.0 0.1399264691
H  H26  1  0.80740000  0.39980000  0.17380000  1.0 0.1399264691
H  H27  1  0.39980000  0.80740000  0.82620000  1.0 0.1399264691
H  H28  1  0.10020000  0.69260000  0.32620000  1.0 0.1399264691
H  H29  1  0.30740000  0.89980000  0.32620000  1.0 0.1399264691
H  H30  1  0.19260000  0.60020000  0.82620000  1.0 0.1399264691
H  H31  1  0.60020000  0.19260000  0.17380000  1.0 0.1399264691
H  H32  1  0.89980000  0.30740000  0.67380000  1.0 0.1399264691
C  C1  1  0.40743000  0.10261000  0.07310000  1.0 0.5917625888
C  C2  1  0.09257000  0.39739000  0.57310000  1.0 0.5917625888
C  C3  1  0.39739000  0.09257000  0.42690000  1.0 0.5917625888
C  C4  1  0.10261000  0.40743000  0.92690000  1.0 0.5917625888
C  C5  1  0.59257000  0.89739000  0.92690000  1.0 0.5917625888
C  C6  1  0.90743000  0.60261000  0.42690000  1.0 0.5917625888
C  C7  1  0.60261000  0.90743000  0.57310000  1.0 0.5917625888
C  C8  1  0.89739000  0.59257000  0.07310000  1.0 0.5917625888
C  C9  1  0.40065000  0.09935000  0.25000000  1.0 -0.1263526069
C  C10  1  0.09935000  0.40065000  0.75000000  1.0 -0.1263526069
C  C11  1  0.59935000  0.90065000  0.75000000  1.0 -0.1263526069
C  C12  1  0.90065000  0.59935000  0.25000000  1.0 -0.1263526069
C  C13  1  0.31795000  0.18961000  0.16558000  1.0 -0.2027971135
C  C14  1  0.18205000  0.31039000  0.66558000  1.0 -0.2027971135
C  C15  1  0.31039000  0.18205000  0.33442000  1.0 -0.2027971135
C  C16  1  0.18961000  0.31795000  0.83442000  1.0 -0.2027971135
C  C17  1  0.68205000  0.81039000  0.83442000  1.0 -0.2027971135
C  C18  1  0.81795000  0.68961000  0.33442000  1.0 -0.2027971135
C  C19  1  0.68961000  0.81795000  0.66558000  1.0 -0.2027971135
C  C20  1  0.81039000  0.68205000  0.16558000  1.0 -0.2027971135
C  C21  1  0.37533000  0.13135000  0.16548000  1.0 0.0097148559
C  C22  1  0.12467000  0.36865000  0.66548000  1.0 0.0097148559
C  C23  1  0.36865000  0.12467000  0.33452000  1.0 0.0097148559
C  C24  1  0.13135000  0.37533000  0.83452000  1.0 0.0097148559
C  C25  1  0.62467000  0.86865000  0.83452000  1.0 0.0097148559
C  C26  1  0.87533000  0.63135000  0.33452000  1.0 0.0097148559
C  C27  1  0.63135000  0.87533000  0.66548000  1.0 0.0097148559
C  C28  1  0.86865000  0.62467000  0.16548000  1.0 0.0097148559
C  C29  1  0.28595000  0.21405000  0.25000000  1.0 0.1649118526
C  C30  1  0.21405000  0.28595000  0.75000000  1.0 0.1649118526
C  C31  1  0.71405000  0.78595000  0.75000000  1.0 0.1658369018
C  C32  1  0.78595000  0.71405000  0.25000000  1.0 0.1658369018
C  C33  1  0.59760000  0.14394000  0.81163000  1.0 0.5847347243
C  C34  1  0.90240000  0.35606000  0.31163000  1.0 0.5847347243
C  C35  1  0.35606000  0.90240000  0.68837000  1.0 0.5847347243
C  C36  1  0.14394000  0.59760000  0.18837000  1.0 0.5847347243
C  C37  1  0.40240000  0.85606000  0.18837000  1.0 0.5847347243
C  C38  1  0.09760000  0.64394000  0.68837000  1.0 0.5847347243
C  C39  1  0.64394000  0.09760000  0.31163000  1.0 0.5847347243
C  C40  1  0.85606000  0.40240000  0.81163000  1.0 0.5847347243
C  C41  1  0.73224000  0.26776000  0.81580000  1.0 -0.1063285978
C  C42  1  0.76776000  0.23224000  0.31580000  1.0 -0.1063285978
C  C43  1  0.23224000  0.76776000  0.68420000  1.0 -0.1063285978
C  C44  1  0.26776000  0.73224000  0.18420000  1.0 -0.1063285978
C  C45  1  0.19058000  0.30794000  0.17560000  1.0 0.1112670986
C  C46  1  0.30942000  0.19206000  0.67560000  1.0 0.1112670986
C  C47  1  0.19206000  0.30942000  0.32440000  1.0 0.1112670986
C  C48  1  0.30794000  0.19058000  0.82440000  1.0 0.1112670986
C  C49  1  0.80942000  0.69206000  0.82440000  1.0 0.1112670986
C  C50  1  0.69058000  0.80794000  0.32440000  1.0 0.1112670986
C  C51  1  0.80794000  0.69058000  0.67560000  1.0 0.1112670986
C  C52  1  0.69206000  0.80942000  0.17560000  1.0 0.1112670986
C  C53  1  0.80469000  0.19531000  0.66500000  1.0 0.1816598786
C  C54  1  0.69531000  0.30469000  0.16500000  1.0 0.1816598786
C  C55  1  0.30469000  0.69531000  0.83500000  1.0 0.1816598786
C  C56  1  0.19531000  0.80469000  0.33500000  1.0 0.1816598786
C  C57  1  0.68671000  0.18903000  0.77460000  1.0 0.0020324901
C  C58  1  0.81329000  0.31097000  0.27460000  1.0 0.0020324901
C  C59  1  0.31097000  0.81329000  0.72540000  1.0 0.0020324901
C  C60  1  0.18903000  0.68671000  0.22540000  1.0 0.0020324901
C  C61  1  0.31329000  0.81097000  0.22540000  1.0 0.0020324901
C  C62  1  0.18671000  0.68903000  0.72540000  1.0 0.0020324901
C  C63  1  0.68903000  0.18671000  0.27460000  1.0 0.0020324901
C  C64  1  0.81097000  0.31329000  0.77460000  1.0 0.0020324901
C  C65  1  0.72290000  0.15302000  0.70040000  1.0 -0.1557631628
C  C66  1  0.77710000  0.34698000  0.20040000  1.0 -0.1557631628
C  C67  1  0.34698000  0.77710000  0.79960000  1.0 -0.1557631628
C  C68  1  0.15302000  0.72290000  0.29960000  1.0 -0.1557631628
C  C69  1  0.27710000  0.84698000  0.29960000  1.0 -0.1557631628
C  C70  1  0.22290000  0.65302000  0.79960000  1.0 -0.1557631628
C  C71  1  0.65302000  0.22290000  0.20040000  1.0 -0.1557631628
C  C72  1  0.84698000  0.27710000  0.70040000  1.0 -0.1557631628
C  C73  1  0.92370000  0.18330000  0.55390000  1.0 -0.0496967878
C  C74  1  0.57630000  0.31670000  0.05390000  1.0 -0.0496967878
C  C75  1  0.31670000  0.57630000  0.94610000  1.0 -0.0496967878
C  C76  1  0.18330000  0.92370000  0.44610000  1.0 -0.0496967878
C  C77  1  0.07630000  0.81670000  0.44610000  1.0 -0.0496967878
C  C78  1  0.42370000  0.68330000  0.94610000  1.0 -0.0496967878
C  C79  1  0.68330000  0.42370000  0.05390000  1.0 -0.0496967878
C  C80  1  0.81670000  0.07630000  0.55390000  1.0 -0.0496967878
N  N1  1  0.13850000  0.35896000  0.20176000  1.0 -0.2168766079
N  N2  1  0.36150000  0.14104000  0.70176000  1.0 -0.2168766079
N  N3  1  0.14104000  0.36150000  0.29824000  1.0 -0.2168766079
N  N4  1  0.35896000  0.13850000  0.79824000  1.0 -0.2168766079
N  N5  1  0.86150000  0.64104000  0.79824000  1.0 -0.2168766079
N  N6  1  0.63850000  0.85896000  0.29824000  1.0 -0.2168766079
N  N7  1  0.85896000  0.63850000  0.70176000  1.0 -0.2168766079
N  N8  1  0.64104000  0.86150000  0.20176000  1.0 -0.2168766079
N  N9  1  0.84582000  0.15418000  0.59310000  1.0 0.0020324901
N  N10  1  0.65418000  0.34582000  0.09310000  1.0 0.0020324901
N  N11  1  0.34582000  0.65418000  0.90690000  1.0 0.0020324901
N  N12  1  0.15418000  0.84582000  0.40690000  1.0 0.0097148559
N  N13  1  0.94400000  0.12320000  0.49630000  1.0 -0.1472837353
N  N14  1  0.55600000  0.37680000  0.99630000  1.0 -0.1472837353
N  N15  1  0.37680000  0.55600000  0.00370000  1.0 -0.1472837353
N  N16  1  0.12320000  0.94400000  0.50370000  1.0 -0.1472837353
N  N17  1  0.05600000  0.87680000  0.50370000  1.0 -0.1472837353
N  N18  1  0.44400000  0.62320000  0.00370000  1.0 -0.1472837353
N  N19  1  0.62320000  0.44400000  0.99630000  1.0 -0.1472837353
N  N20  1  0.87680000  0.05600000  0.49630000  1.0 -0.1472837353
N  N21  1  0.22595000  0.27405000  0.25000000  1.0 -0.0153477994
N  N22  1  0.27405000  0.22595000  0.75000000  1.0 -0.0153477994
N  N23  1  0.77405000  0.72595000  0.75000000  1.0 -0.0153477994
N  N24  1  0.72595000  0.77405000  0.25000000  1.0 -0.0153477994
O  O1  1  0.54280000  0.10002000  0.75457000  1.0 -0.6545794295
O  O2  1  0.95720000  0.39998000  0.25457000  1.0 -0.6545794295
O  O3  1  0.39998000  0.95720000  0.74543000  1.0 -0.6545794295
O  O4  1  0.10002000  0.54280000  0.24543000  1.0 -0.6545794295
O  O5  1  0.45720000  0.89998000  0.24543000  1.0 -0.6545794295
O  O6  1  0.04280000  0.60002000  0.74543000  1.0 -0.6545794295
O  O7  1  0.60002000  0.04280000  0.25457000  1.0 -0.6545794295
O  O8  1  0.89998000  0.45720000  0.75457000  1.0 -0.6545794295
O  O9  1  0.58030000  0.15076000  0.89753000  1.0 -0.5621283041
O  O10  1  0.91970000  0.34924000  0.39753000  1.0 -0.5621283041
O  O11  1  0.34924000  0.91970000  0.60247000  1.0 -0.5621283041
O  O12  1  0.15076000  0.58030000  0.10247000  1.0 -0.5621283041
O  O13  1  0.41970000  0.84924000  0.10247000  1.0 -0.5621283041
O  O14  1  0.08030000  0.65076000  0.60247000  1.0 -0.5621283041
O  O15  1  0.65076000  0.08030000  0.39753000  1.0 -0.5621283041
O  O16  1  0.84924000  0.41970000  0.89753000  1.0 -0.5621283041
O  O17  1  0.37646000  0.12650000  0.99979000  1.0 -0.5867656903
O  O18  1  0.12354000  0.37350000  0.49979000  1.0 -0.5867656903
O  O19  1  0.37350000  0.12354000  0.50021000  1.0 -0.5867656903
O  O20  1  0.12650000  0.37646000  0.00021000  1.0 -0.5867656903
O  O21  1  0.62354000  0.87350000  0.00021000  1.0 -0.5867656903
O  O22  1  0.87646000  0.62650000  0.50021000  1.0 -0.5867656903
O  O23  1  0.62650000  0.87646000  0.49979000  1.0 -0.5867656903
O  O24  1  0.87350000  0.62354000  0.99979000  1.0 -0.5867656903
O  O25  1  0.46507000  0.05595000  0.07366000  1.0 -0.629432513
O  O26  1  0.03493000  0.44405000  0.57366000  1.0 -0.629432513
O  O27  1  0.44405000  0.03493000  0.42634000  1.0 -0.629432513
O  O28  1  0.05595000  0.46507000  0.92634000  1.0 -0.629432513
O  O29  1  0.53493000  0.94405000  0.92634000  1.0 -0.629432513
O  O30  1  0.96507000  0.55595000  0.42634000  1.0 -0.629432513
O  O31  1  0.55595000  0.96507000  0.57366000  1.0 -0.629432513
O  O32  1  0.94405000  0.53493000  0.07366000  1.0 -0.629432513
