# DDEC6 charges by PACMAN v1.1 (https://github.com/mtap-research/PACMAN-charge/)
data_GERCEP_ASR_pacman
_symmetry_space_group_name_H-M   'P 1'
_cell_length_a   14.86400000
_cell_length_b   14.86400000
_cell_length_c   13.83500000
_cell_angle_alpha   90.00000000
_cell_angle_beta   90.00000000
_cell_angle_gamma   120.00000000
_symmetry_Int_Tables_number   1
_chemical_formula_structural   Mn3H12C30O13
_chemical_formula_sum   'Mn6 H24 C60 O26'
_cell_volume   2647.16607515
_cell_formula_units_Z   2
loop_
 _symmetry_equiv_pos_site_id
 _symmetry_equiv_pos_as_xyz
  1  'x, y, z'
loop_
 _atom_site_type_symbol
 _atom_site_label
 _atom_site_symmetry_multiplicity
 _atom_site_fract_x
 _atom_site_fract_y
 _atom_site_fract_z
 _atom_site_occupancy
 _atom_site_charge
Mn  Mn1  1  0.65280000  0.46691000  0.75000000  1.0 1.1319741445
Mn  Mn2  1  0.81411000  0.34720000  0.75000000  1.0 1.1319741445
Mn  Mn3  1  0.53309000  0.18589000  0.75000000  1.0 1.1319741445
Mn  Mn4  1  0.18589000  0.53309000  0.25000000  1.0 1.1319741445
Mn  Mn5  1  0.46691000  0.65280000  0.25000000  1.0 1.1319741445
Mn  Mn6  1  0.34720000  0.81411000  0.25000000  1.0 1.1319741445
H  H1  1  0.27902000  0.15166000  0.58442000  1.0 0.1201861835
H  H2  1  0.87264000  0.72098000  0.58442000  1.0 0.1201861835
H  H3  1  0.84834000  0.12736000  0.58442000  1.0 0.1201861835
H  H4  1  0.27902000  0.15166000  0.91558000  1.0 0.1201861835
H  H5  1  0.87264000  0.72098000  0.91558000  1.0 0.1201861835
H  H6  1  0.84834000  0.12736000  0.91558000  1.0 0.1201861835
H  H7  1  0.12736000  0.84834000  0.41558000  1.0 0.1201861835
H  H8  1  0.15166000  0.27902000  0.41558000  1.0 0.1201861835
H  H9  1  0.72098000  0.87264000  0.41558000  1.0 0.1201861835
H  H10  1  0.12736000  0.84834000  0.08442000  1.0 0.1201861835
H  H11  1  0.15166000  0.27902000  0.08442000  1.0 0.1201861835
H  H12  1  0.72098000  0.87264000  0.08442000  1.0 0.1201861835
H  H13  1  0.44806000  0.44806000  0.50000000  1.0 0.1353590674
H  H14  1  0.00000000  0.55194000  0.50000000  1.0 0.1353590674
H  H15  1  0.55194000  0.00000000  0.50000000  1.0 0.1353590674
H  H16  1  0.44806000  0.44806000  0.00000000  1.0 0.1353590674
H  H17  1  0.00000000  0.55194000  0.00000000  1.0 0.1353590674
H  H18  1  0.55194000  0.00000000  0.00000000  1.0 0.1353590674
H  H19  1  0.00000000  0.15920000  0.50000000  1.0 0.1201861835
H  H20  1  0.15920000  0.00000000  0.50000000  1.0 0.1201861835
H  H21  1  0.84080000  0.84080000  0.50000000  1.0 0.1201861835
H  H22  1  0.00000000  0.15920000  0.00000000  1.0 0.1201861835
H  H23  1  0.15920000  0.00000000  0.00000000  1.0 0.1201861835
H  H24  1  0.84080000  0.84080000  0.00000000  1.0 0.1201861835
C  C1  1  0.28250000  0.20900000  0.55090000  1.0 -0.1380626746
C  C2  1  0.37240000  0.30160000  0.55420000  1.0 -0.0057061593
C  C3  1  0.46100000  0.31280000  0.61590000  1.0 0.5846387184
C  C4  1  0.92650000  0.71750000  0.55090000  1.0 -0.1380626746
C  C5  1  0.92920000  0.62760000  0.55420000  1.0 -0.0048848154
C  C6  1  0.85180000  0.53900000  0.61590000  1.0 0.5846387184
C  C7  1  0.79100000  0.07350000  0.55090000  1.0 -0.1380626746
C  C8  1  0.69840000  0.07080000  0.55420000  1.0 -0.0057061593
C  C9  1  0.68720000  0.14820000  0.61590000  1.0 0.5846387184
C  C10  1  0.28250000  0.20900000  0.94910000  1.0 -0.1380626746
C  C11  1  0.37240000  0.30160000  0.94580000  1.0 -0.0057061593
C  C12  1  0.46100000  0.31280000  0.88410000  1.0 0.5853252447
C  C13  1  0.92650000  0.71750000  0.94910000  1.0 -0.1380626746
C  C14  1  0.92920000  0.62760000  0.94580000  1.0 -0.0057061593
C  C15  1  0.85180000  0.53900000  0.88410000  1.0 0.5853252447
C  C16  1  0.79100000  0.07350000  0.94910000  1.0 -0.1380626746
C  C17  1  0.69840000  0.07080000  0.94580000  1.0 -0.0057061593
C  C18  1  0.68720000  0.14820000  0.88410000  1.0 0.5853252447
C  C19  1  0.07350000  0.79100000  0.44910000  1.0 -0.1380626746
C  C20  1  0.07080000  0.69840000  0.44580000  1.0 -0.0057061593
C  C21  1  0.14820000  0.68720000  0.38410000  1.0 0.5853252447
C  C22  1  0.20900000  0.28250000  0.44910000  1.0 -0.1380626746
C  C23  1  0.30160000  0.37240000  0.44580000  1.0 -0.0057061593
C  C24  1  0.31280000  0.46100000  0.38410000  1.0 0.5853252447
C  C25  1  0.71750000  0.92650000  0.44910000  1.0 -0.1380626746
C  C26  1  0.62760000  0.92920000  0.44580000  1.0 -0.0057061593
C  C27  1  0.53900000  0.85180000  0.38410000  1.0 0.5853252447
C  C28  1  0.07350000  0.79100000  0.05090000  1.0 -0.1380626746
C  C29  1  0.07080000  0.69840000  0.05420000  1.0 -0.0057061593
C  C30  1  0.14820000  0.68720000  0.11590000  1.0 0.5853252447
C  C31  1  0.20900000  0.28250000  0.05090000  1.0 -0.1380626746
C  C32  1  0.30160000  0.37240000  0.05420000  1.0 -0.0057061593
C  C33  1  0.31280000  0.46100000  0.11590000  1.0 0.5853252447
C  C34  1  0.71750000  0.92650000  0.05090000  1.0 -0.1380626746
C  C35  1  0.62760000  0.92920000  0.05420000  1.0 -0.0057061593
C  C36  1  0.53900000  0.85180000  0.11590000  1.0 0.5853252447
C  C37  1  0.38410000  0.38410000  0.50000000  1.0 -0.1002053135
C  C38  1  0.09640000  0.09640000  0.50000000  1.0 0.0891881287
C  C39  1  0.19450000  0.19450000  0.50000000  1.0 0.0641501905
C  C40  1  0.00000000  0.61590000  0.50000000  1.0 -0.1002053135
C  C41  1  0.00000000  0.90360000  0.50000000  1.0 0.0891881287
C  C42  1  0.00000000  0.80550000  0.50000000  1.0 0.0641501905
C  C43  1  0.61590000  0.00000000  0.50000000  1.0 -0.1002053135
C  C44  1  0.90360000  0.00000000  0.50000000  1.0 0.0891881287
C  C45  1  0.80550000  0.00000000  0.50000000  1.0 0.0641501905
C  C46  1  0.38410000  0.38410000  0.00000000  1.0 -0.1002053135
C  C47  1  0.09640000  0.09640000  0.00000000  1.0 0.0891881287
C  C48  1  0.19450000  0.19450000  0.00000000  1.0 0.0641501905
C  C49  1  0.00000000  0.61590000  0.00000000  1.0 -0.1002053135
C  C50  1  0.00000000  0.90360000  0.00000000  1.0 0.0891881287
C  C51  1  0.00000000  0.80550000  0.00000000  1.0 0.0641501905
C  C52  1  0.61590000  0.00000000  0.00000000  1.0 -0.1002053135
C  C53  1  0.90360000  0.00000000  0.00000000  1.0 0.0891881287
C  C54  1  0.80550000  0.00000000  0.00000000  1.0 0.0641501905
C  C55  1  0.00000000  0.09530000  0.50000000  1.0 -0.2178116255
C  C56  1  0.09530000  0.00000000  0.50000000  1.0 -0.2178116255
C  C57  1  0.90470000  0.90470000  0.50000000  1.0 -0.2178116255
C  C58  1  0.00000000  0.09530000  0.00000000  1.0 -0.2178116255
C  C59  1  0.09530000  0.00000000  0.00000000  1.0 -0.2178116255
C  C60  1  0.90470000  0.90470000  0.00000000  1.0 -0.2178116255
O  O1  1  0.46030000  0.23090000  0.64040000  1.0 -0.5333589544
O  O2  1  0.53030000  0.40080000  0.63870000  1.0 -0.4963620393
O  O3  1  0.77060000  0.53970000  0.64040000  1.0 -0.5333589544
O  O4  1  0.87050000  0.46970000  0.63870000  1.0 -0.4963620393
O  O5  1  0.76910000  0.22940000  0.64040000  1.0 -0.5333589544
O  O6  1  0.59920000  0.12950000  0.63870000  1.0 -0.4963620393
O  O7  1  0.46030000  0.23090000  0.85960000  1.0 -0.5360330704
O  O8  1  0.53030000  0.40080000  0.86130000  1.0 -0.4963620393
O  O9  1  0.77060000  0.53970000  0.85960000  1.0 -0.5360330704
O  O10  1  0.87050000  0.46970000  0.86130000  1.0 -0.4963620393
O  O11  1  0.76910000  0.22940000  0.85960000  1.0 -0.5360330704
O  O12  1  0.59920000  0.12950000  0.86130000  1.0 -0.4963620393
O  O13  1  0.22940000  0.76910000  0.35960000  1.0 -0.5333589544
O  O14  1  0.12950000  0.59920000  0.36130000  1.0 -0.4963620393
O  O15  1  0.23090000  0.46030000  0.35960000  1.0 -0.5333589544
O  O16  1  0.40080000  0.53030000  0.36130000  1.0 -0.4963620393
O  O17  1  0.53970000  0.77060000  0.35960000  1.0 -0.5333589544
O  O18  1  0.46970000  0.87050000  0.36130000  1.0 -0.4963620393
O  O19  1  0.22940000  0.76910000  0.14040000  1.0 -0.5333589544
O  O20  1  0.12950000  0.59920000  0.13870000  1.0 -0.4963620393
O  O21  1  0.23090000  0.46030000  0.14040000  1.0 -0.5333589544
O  O22  1  0.40080000  0.53030000  0.13870000  1.0 -0.4963620393
O  O23  1  0.53970000  0.77060000  0.14040000  1.0 -0.5333589544
O  O24  1  0.46970000  0.87050000  0.13870000  1.0 -0.4963620393
O  O25  1  0.66666667  0.33333333  0.75000000  1.0 -0.8549518549
O  O26  1  0.33333333  0.66666667  0.25000000  1.0 -0.8570914232
