# DDEC6 charges by PACMAN v1.1 (https://github.com/mtap-research/PACMAN-charge/)
data_GERWIL_ion_pacman
_symmetry_space_group_name_H-M   'P 1'
_cell_length_a   14.86000000
_cell_length_b   14.86000000
_cell_length_c   25.48300000
_cell_angle_alpha   80.85190000
_cell_angle_beta   99.14810000
_cell_angle_gamma   102.43800000
_symmetry_Int_Tables_number   1
_chemical_formula_structural   Zn5Si2H72C76(N3O17)2
_chemical_formula_sum   'Zn10 Si4 H144 C152 N12 O68'
_cell_volume   5379.57751948
_cell_formula_units_Z   2
loop_
 _symmetry_equiv_pos_site_id
 _symmetry_equiv_pos_as_xyz
  1  'x, y, z'
loop_
 _atom_site_type_symbol
 _atom_site_label
 _atom_site_symmetry_multiplicity
 _atom_site_fract_x
 _atom_site_fract_y
 _atom_site_fract_z
 _atom_site_occupancy
 _atom_site_charge
Zn  Zn1  1  0.91067000  0.73407000  0.92087000  1.0 0.907887365
Zn  Zn2  1  0.73407000  0.91067000  0.57913000  1.0 0.907887365
Zn  Zn3  1  0.08933000  0.26593000  0.07913000  1.0 0.907887365
Zn  Zn4  1  0.26593000  0.08933000  0.42087000  1.0 0.907887365
Zn  Zn5  1  0.63725000  0.63725000  0.25000000  1.0 0.8927701072
Zn  Zn6  1  0.36275000  0.36275000  0.75000000  1.0 0.8927701072
Zn  Zn7  1  0.47841000  0.87309000  0.99288000  1.0 0.9978330091
Zn  Zn8  1  0.87309000  0.47841000  0.50712000  1.0 0.9978330091
Zn  Zn9  1  0.52159000  0.12691000  0.00712000  1.0 0.9978330091
Zn  Zn10  1  0.12691000  0.52159000  0.49288000  1.0 0.9978330091
Si  Si1  1  0.16608000  0.75228000  0.18784000  1.0 0.6701453582
Si  Si2  1  0.75228000  0.16608000  0.31216000  1.0 0.6701453582
Si  Si3  1  0.83392000  0.24772000  0.81216000  1.0 0.6701453582
Si  Si4  1  0.24772000  0.83392000  0.68784000  1.0 0.6701453582
H  H1  1  0.05500000  0.73180000  0.08500000  1.0 0.1210109378
H  H2  1  0.73180000  0.05500000  0.41500000  1.0 0.1210109378
H  H3  1  0.94500000  0.26820000  0.91500000  1.0 0.1210109378
H  H4  1  0.26820000  0.94500000  0.58500000  1.0 0.1210109378
H  H5  1  0.98620000  0.71240000  0.23350000  1.0 0.1210109378
H  H6  1  0.71240000  0.98620000  0.26650000  1.0 0.1210109378
H  H7  1  0.01380000  0.28760000  0.76650000  1.0 0.1210109378
H  H8  1  0.28760000  0.01380000  0.73350000  1.0 0.1210109378
H  H9  1  0.78770000  0.66230000  0.10950000  1.0 0.1210109378
H  H10  1  0.66230000  0.78770000  0.39050000  1.0 0.1210109378
H  H11  1  0.21230000  0.33770000  0.89050000  1.0 0.1210109378
H  H12  1  0.33770000  0.21230000  0.60950000  1.0 0.1210109378
H  H13  1  0.31410000  0.82630000  0.11670000  1.0 0.1210109378
H  H14  1  0.82630000  0.31410000  0.38330000  1.0 0.1210109378
H  H15  1  0.68590000  0.17370000  0.88330000  1.0 0.1210109378
H  H16  1  0.17370000  0.68590000  0.61670000  1.0 0.1210109378
H  H17  1  0.11650000  0.93030000  0.16310000  1.0 0.1298885467
H  H18  1  0.93030000  0.11650000  0.33690000  1.0 0.1298885467
H  H19  1  0.88350000  0.06970000  0.83690000  1.0 0.1298885467
H  H20  1  0.06970000  0.88350000  0.66310000  1.0 0.1298885467
H  H21  1  0.28220000  0.08820000  0.06110000  1.0 0.1389299799
H  H22  1  0.08820000  0.28220000  0.43890000  1.0 0.1389299799
H  H23  1  0.71780000  0.91180000  0.93890000  1.0 0.1389299799
H  H24  1  0.91180000  0.71780000  0.56110000  1.0 0.1389299799
H  H25  1  0.33140000  0.47280000  0.14370000  1.0 0.1389299799
H  H26  1  0.47280000  0.33140000  0.35630000  1.0 0.1389299799
H  H27  1  0.66860000  0.52720000  0.85630000  1.0 0.1389299799
H  H28  1  0.52720000  0.66860000  0.64370000  1.0 0.1389299799
H  H29  1  0.35330000  0.70570000  0.20800000  1.0 0.1298885467
H  H30  1  0.70570000  0.35330000  0.29200000  1.0 0.1298885467
H  H31  1  0.64670000  0.29430000  0.79200000  1.0 0.1298885467
H  H32  1  0.29430000  0.64670000  0.70800000  1.0 0.1298885467
H  H33  1  0.10740000  0.58320000  0.13840000  1.0 0.1210109378
H  H34  1  0.58320000  0.10740000  0.36160000  1.0 0.1210109378
H  H35  1  0.89260000  0.41680000  0.86160000  1.0 0.1210109378
H  H36  1  0.41680000  0.89260000  0.63840000  1.0 0.1210109378
H  H37  1  0.18550000  0.79330000  0.40440000  1.0 0.1210109378
H  H38  1  0.79330000  0.18550000  0.09560000  1.0 0.1210109378
H  H39  1  0.81450000  0.20670000  0.59560000  1.0 0.1210109378
H  H40  1  0.20670000  0.81450000  0.90440000  1.0 0.1210109378
H  H41  1  0.21390000  0.90790000  0.25270000  1.0 0.1210109378
H  H42  1  0.90790000  0.21390000  0.24730000  1.0 0.1210109378
H  H43  1  0.78610000  0.09210000  0.74730000  1.0 0.1210109378
H  H44  1  0.09210000  0.78610000  0.75270000  1.0 0.1210109378
H  H45  1  0.15250000  0.63170000  0.28900000  1.0 0.1210109378
H  H46  1  0.63170000  0.15250000  0.21100000  1.0 0.1210109378
H  H47  1  0.84750000  0.36830000  0.71100000  1.0 0.1210109378
H  H48  1  0.36830000  0.84750000  0.78900000  1.0 0.1210109378
H  H49  1  0.64680000  0.41220000  0.70180000  1.0 0.1210109378
H  H50  1  0.63440000  0.48340000  0.65000000  1.0 0.1456917704
H  H51  1  0.67240000  0.39380000  0.64760000  1.0 0.1210109378
H  H52  1  0.43940000  0.34240000  0.58670000  1.0 0.1389299799
H  H53  1  0.54100000  0.35040000  0.57430000  1.0 0.1298885467
H  H54  1  0.50440000  0.44020000  0.57800000  1.0 0.1389299799
H  H55  1  0.49760000  0.39080000  0.66700000  1.0 0.2684582925
H  H56  1  0.53300000  0.30840000  0.66340000  1.0 0.2544051961
H  H57  1  0.41220000  0.64680000  0.79820000  1.0 0.1210109378
H  H58  1  0.48340000  0.63440000  0.85000000  1.0 0.1456917704
H  H59  1  0.39380000  0.67240000  0.85240000  1.0 0.1210109378
H  H60  1  0.34240000  0.43940000  0.91330000  1.0 0.1389299799
H  H61  1  0.35040000  0.54100000  0.92570000  1.0 0.1298885467
H  H62  1  0.44020000  0.50440000  0.92200000  1.0 0.1389299799
H  H63  1  0.39080000  0.49760000  0.83300000  1.0 0.2684582925
H  H64  1  0.30840000  0.53300000  0.83660000  1.0 0.2544051961
H  H65  1  0.35320000  0.58780000  0.29820000  1.0 0.1210109378
H  H66  1  0.36560000  0.51660000  0.35000000  1.0 0.1456917704
H  H67  1  0.32760000  0.60620000  0.35240000  1.0 0.1210109378
H  H68  1  0.56060000  0.65760000  0.41330000  1.0 0.1389299799
H  H69  1  0.45900000  0.64960000  0.42570000  1.0 0.1298885467
H  H70  1  0.49560000  0.55980000  0.42200000  1.0 0.1389299799
H  H71  1  0.50240000  0.60920000  0.33300000  1.0 0.2684582925
H  H72  1  0.46700000  0.69160000  0.33660000  1.0 0.2544051961
H  H73  1  0.58780000  0.35320000  0.20180000  1.0 0.1210109378
H  H74  1  0.51660000  0.36560000  0.15000000  1.0 0.1456917704
H  H75  1  0.60620000  0.32760000  0.14760000  1.0 0.1210109378
H  H76  1  0.65760000  0.56060000  0.08670000  1.0 0.1389299799
H  H77  1  0.64960000  0.45900000  0.07430000  1.0 0.1298885467
H  H78  1  0.55980000  0.49560000  0.07800000  1.0 0.1389299799
H  H79  1  0.60920000  0.50240000  0.16700000  1.0 0.2684582925
H  H80  1  0.69160000  0.46700000  0.16340000  1.0 0.2544051961
H  H81  1  0.48320000  0.90620000  0.43460000  1.0 0.1389299799
H  H82  1  0.39420000  0.83180000  0.42000000  1.0 0.1298885467
H  H83  1  0.46950000  0.80670000  0.46740000  1.0 0.1389299799
H  H84  1  0.28950000  0.83210000  0.53570000  1.0 0.1298885467
H  H85  1  0.34780000  0.75960000  0.52860000  1.0 0.1389299799
H  H86  1  0.27130000  0.78670000  0.48260000  1.0 0.1389299799
H  H87  1  0.36110000  0.93330000  0.46910000  1.0 0.2572918788
H  H88  1  0.43130000  0.91050000  0.51310000  1.0 0.2684582925
H  H89  1  0.90620000  0.48320000  0.06540000  1.0 0.1389299799
H  H90  1  0.83180000  0.39420000  0.08000000  1.0 0.1298885467
H  H91  1  0.80670000  0.46950000  0.03260000  1.0 0.1389299799
H  H92  1  0.83210000  0.28950000  0.96430000  1.0 0.1298885467
H  H93  1  0.75960000  0.34780000  0.97140000  1.0 0.1389299799
H  H94  1  0.78670000  0.27130000  0.01740000  1.0 0.1389299799
H  H95  1  0.93330000  0.36110000  0.03090000  1.0 0.2572918788
H  H96  1  0.91050000  0.43130000  0.98690000  1.0 0.2684582925
H  H97  1  0.51680000  0.09380000  0.56540000  1.0 0.1389299799
H  H98  1  0.60580000  0.16820000  0.58000000  1.0 0.1298885467
H  H99  1  0.53050000  0.19330000  0.53260000  1.0 0.1389299799
H  H100  1  0.71050000  0.16790000  0.46430000  1.0 0.1298885467
H  H101  1  0.65220000  0.24040000  0.47140000  1.0 0.1389299799
H  H102  1  0.72870000  0.21330000  0.51740000  1.0 0.1389299799
H  H103  1  0.63890000  0.06670000  0.53090000  1.0 0.2572918788
H  H104  1  0.56870000  0.08950000  0.48690000  1.0 0.2684582925
H  H105  1  0.09380000  0.51680000  0.93460000  1.0 0.1389299799
H  H106  1  0.16820000  0.60580000  0.92000000  1.0 0.1298885467
H  H107  1  0.19330000  0.53050000  0.96740000  1.0 0.1389299799
H  H108  1  0.16790000  0.71050000  0.03570000  1.0 0.1298885467
H  H109  1  0.24040000  0.65220000  0.02860000  1.0 0.1389299799
H  H110  1  0.21330000  0.72870000  0.98260000  1.0 0.1389299799
H  H111  1  0.06670000  0.63890000  0.96910000  1.0 0.2572918788
H  H112  1  0.08950000  0.56870000  0.01310000  1.0 0.2684582925
H  H113  1  0.39110000  0.11410000  0.89350000  1.0 0.1298885467
H  H114  1  0.34100000  0.04520000  0.85250000  1.0 0.1298885467
H  H115  1  0.31230000  0.03050000  0.91030000  1.0 0.1298885467
H  H116  1  0.11260000  0.10800000  0.82090000  1.0 0.1298885467
H  H117  1  0.13290000  0.01830000  0.85830000  1.0 0.1456917704
H  H118  1  0.16870000  0.04350000  0.80220000  1.0 0.1389299799
H  H119  1  0.28620000  0.18120000  0.83810000  1.0 0.2684582925
H  H120  1  0.25230000  0.15890000  0.89010000  1.0 0.2572918788
H  H121  1  0.11410000  0.39110000  0.60650000  1.0 0.1298885467
H  H122  1  0.04520000  0.34100000  0.64750000  1.0 0.1298885467
H  H123  1  0.03050000  0.31230000  0.58970000  1.0 0.1298885467
H  H124  1  0.10800000  0.11260000  0.67910000  1.0 0.1298885467
H  H125  1  0.01830000  0.13290000  0.64170000  1.0 0.1456917704
H  H126  1  0.04350000  0.16870000  0.69780000  1.0 0.1389299799
H  H127  1  0.18120000  0.28620000  0.66190000  1.0 0.2684582925
H  H128  1  0.15890000  0.25230000  0.60990000  1.0 0.2572918788
H  H129  1  0.60890000  0.88590000  0.10650000  1.0 0.1298885467
H  H130  1  0.65900000  0.95480000  0.14750000  1.0 0.1298885467
H  H131  1  0.68770000  0.96950000  0.08970000  1.0 0.1298885467
H  H132  1  0.88740000  0.89200000  0.17910000  1.0 0.1298885467
H  H133  1  0.86710000  0.98170000  0.14170000  1.0 0.1456917704
H  H134  1  0.83130000  0.95650000  0.19780000  1.0 0.1389299799
H  H135  1  0.71380000  0.81880000  0.16190000  1.0 0.2684582925
H  H136  1  0.74770000  0.84110000  0.10990000  1.0 0.2572918788
H  H137  1  0.88590000  0.60890000  0.39350000  1.0 0.1298885467
H  H138  1  0.95480000  0.65900000  0.35250000  1.0 0.1298885467
H  H139  1  0.96950000  0.68770000  0.41030000  1.0 0.1298885467
H  H140  1  0.89200000  0.88740000  0.32090000  1.0 0.1298885467
H  H141  1  0.98170000  0.86710000  0.35830000  1.0 0.1456917704
H  H142  1  0.95650000  0.83130000  0.30220000  1.0 0.1389299799
H  H143  1  0.81880000  0.71380000  0.33810000  1.0 0.2684582925
H  H144  1  0.84110000  0.74770000  0.39010000  1.0 0.2572918788
C  C1  1  0.88880000  0.68820000  0.02970000  1.0 0.5439238132
C  C2  1  0.68820000  0.88880000  0.47030000  1.0 0.5439238132
C  C3  1  0.11120000  0.31180000  0.97030000  1.0 0.5439238132
C  C4  1  0.31180000  0.11120000  0.52970000  1.0 0.5439238132
C  C5  1  0.91690000  0.69430000  0.08801000  1.0 -0.0202121946
C  C6  1  0.69430000  0.91690000  0.41199000  1.0 -0.0202121946
C  C7  1  0.08310000  0.30570000  0.91199000  1.0 -0.0202121946
C  C8  1  0.30570000  0.08310000  0.58801000  1.0 -0.0202121946
C  C9  1  0.01035000  0.71865000  0.10830000  1.0 -0.0892831702
C  C10  1  0.71865000  0.01035000  0.39170000  1.0 -0.0892831702
C  C11  1  0.98965000  0.28135000  0.89170000  1.0 -0.0892831702
C  C12  1  0.28135000  0.98965000  0.60830000  1.0 -0.0892831702
C  C13  1  0.03882000  0.72378000  0.16379000  1.0 -0.1989474973
C  C14  1  0.72378000  0.03882000  0.33621000  1.0 -0.1989474973
C  C15  1  0.96118000  0.27622000  0.83621000  1.0 -0.1989474973
C  C16  1  0.27622000  0.96118000  0.66379000  1.0 -0.1989474973
C  C17  1  0.96962000  0.70818000  0.19708000  1.0 -0.0790764957
C  C18  1  0.70818000  0.96962000  0.30292000  1.0 -0.0790764957
C  C19  1  0.03038000  0.29182000  0.80292000  1.0 -0.0790764957
C  C20  1  0.29182000  0.03038000  0.69708000  1.0 -0.0790764957
C  C21  1  0.87595000  0.68645000  0.17654000  1.0 -0.0202121946
C  C22  1  0.68645000  0.87595000  0.32346000  1.0 -0.0202121946
C  C23  1  0.12405000  0.31355000  0.82346000  1.0 -0.0202121946
C  C24  1  0.31355000  0.12405000  0.67654000  1.0 -0.0202121946
C  C25  1  0.85029000  0.67851000  0.12270000  1.0 -0.1100021942
C  C26  1  0.67851000  0.85029000  0.37730000  1.0 -0.1100021942
C  C27  1  0.14971000  0.32149000  0.87730000  1.0 -0.1100021942
C  C28  1  0.32149000  0.14971000  0.62270000  1.0 -0.1100021942
C  C29  1  0.80405000  0.67315000  0.21460000  1.0 0.5439238132
C  C30  1  0.67315000  0.80405000  0.28540000  1.0 0.5439238132
C  C31  1  0.19595000  0.32685000  0.78540000  1.0 0.5439238132
C  C32  1  0.32685000  0.19595000  0.71460000  1.0 0.5439238132
C  C33  1  0.38610000  0.96850000  0.04990000  1.0 0.5984422074
C  C34  1  0.96850000  0.38610000  0.45010000  1.0 0.5984422074
C  C35  1  0.61390000  0.03150000  0.95010000  1.0 0.5984422074
C  C36  1  0.03150000  0.61390000  0.54990000  1.0 0.5984422074
C  C37  1  0.31100000  0.95820000  0.08341000  1.0 -0.026056769
C  C38  1  0.95820000  0.31100000  0.41659000  1.0 -0.026056769
C  C39  1  0.68900000  0.04180000  0.91659000  1.0 -0.026056769
C  C40  1  0.04180000  0.68900000  0.58341000  1.0 -0.026056769
C  C41  1  0.28337000  0.87503000  0.11546000  1.0 -0.0892831702
C  C42  1  0.87503000  0.28337000  0.38454000  1.0 -0.0892831702
C  C43  1  0.71663000  0.12497000  0.88454000  1.0 -0.0892831702
C  C44  1  0.12497000  0.71663000  0.61546000  1.0 -0.0892831702
C  C45  1  0.21118000  0.86322000  0.14551000  1.0 -0.2078368111
C  C46  1  0.86322000  0.21118000  0.35449000  1.0 -0.2078368111
C  C47  1  0.78882000  0.13678000  0.85449000  1.0 -0.2078368111
C  C48  1  0.13678000  0.78882000  0.64551000  1.0 -0.2078368111
C  C49  1  0.16550000  0.93750000  0.14318000  1.0 -0.0892831702
C  C50  1  0.93750000  0.16550000  0.35682000  1.0 -0.0892831702
C  C51  1  0.83450000  0.06250000  0.85682000  1.0 -0.0892831702
C  C52  1  0.06250000  0.83450000  0.64318000  1.0 -0.0892831702
C  C53  1  0.19190000  0.02090000  0.11190000  1.0 0.0068967336
C  C54  1  0.02090000  0.19190000  0.38810000  1.0 0.0068967336
C  C55  1  0.80810000  0.97910000  0.88810000  1.0 0.0068967336
C  C56  1  0.97910000  0.80810000  0.61190000  1.0 0.0068967336
C  C57  1  0.26420000  0.03200000  0.08210000  1.0 -0.0790764957
C  C58  1  0.03200000  0.26420000  0.41790000  1.0 -0.0790764957
C  C59  1  0.73580000  0.96800000  0.91790000  1.0 -0.0790764957
C  C60  1  0.96800000  0.73580000  0.58210000  1.0 -0.0790764957
C  C61  1  0.13670000  0.09870000  0.11020000  1.0 0.5318582908
C  C62  1  0.09870000  0.13670000  0.38980000  1.0 0.5318582908
C  C63  1  0.86330000  0.90130000  0.88980000  1.0 0.5318582908
C  C64  1  0.90130000  0.86330000  0.61020000  1.0 0.5318582908
C  C65  1  0.15150000  0.44090000  0.10610000  1.0 0.5653680519
C  C66  1  0.44090000  0.15150000  0.39390000  1.0 0.5653680519
C  C67  1  0.84850000  0.55910000  0.89390000  1.0 0.5653680519
C  C68  1  0.55910000  0.84850000  0.60610000  1.0 0.5653680519
C  C69  1  0.20993000  0.51547000  0.13680000  1.0 -0.0202121946
C  C70  1  0.51547000  0.20993000  0.36320000  1.0 -0.0202121946
C  C71  1  0.79007000  0.48453000  0.86320000  1.0 -0.0202121946
C  C72  1  0.48453000  0.79007000  0.63680000  1.0 -0.0202121946
C  C73  1  0.30410000  0.51890000  0.15160000  1.0 -0.0892831702
C  C74  1  0.51890000  0.30410000  0.34840000  1.0 -0.0892831702
C  C75  1  0.69590000  0.48110000  0.84840000  1.0 -0.0892831702
C  C76  1  0.48110000  0.69590000  0.65160000  1.0 -0.0892831702
C  C77  1  0.35762000  0.59018000  0.17798000  1.0 -0.0118934959
C  C78  1  0.59018000  0.35762000  0.32202000  1.0 -0.0118934959
C  C79  1  0.64238000  0.40982000  0.82202000  1.0 -0.0118934959
C  C80  1  0.40982000  0.64238000  0.67798000  1.0 -0.0118934959
C  C81  1  0.31676000  0.65804000  0.18997000  1.0 -0.0976896553
C  C82  1  0.65804000  0.31676000  0.31003000  1.0 -0.0976896553
C  C83  1  0.68324000  0.34196000  0.81003000  1.0 -0.0976896553
C  C84  1  0.34196000  0.68324000  0.68997000  1.0 -0.0976896553
C  C85  1  0.22208000  0.65712000  0.17576000  1.0 -0.1989474973
C  C86  1  0.65712000  0.22208000  0.32424000  1.0 -0.1989474973
C  C87  1  0.77792000  0.34288000  0.82424000  1.0 -0.1989474973
C  C88  1  0.34288000  0.77792000  0.67576000  1.0 -0.1989474973
C  C89  1  0.17063000  0.58497000  0.14876000  1.0 -0.0892831702
C  C90  1  0.58497000  0.17063000  0.35124000  1.0 -0.0892831702
C  C91  1  0.82937000  0.41503000  0.85124000  1.0 -0.0892831702
C  C92  1  0.41503000  0.82937000  0.64876000  1.0 -0.0892831702
C  C93  1  0.46080000  0.59220000  0.19240000  1.0 0.5553894744
C  C94  1  0.59220000  0.46080000  0.30760000  1.0 0.5553894744
C  C95  1  0.53920000  0.40780000  0.80760000  1.0 0.5553894744
C  C96  1  0.40780000  0.53920000  0.69240000  1.0 0.5553894744
C  C97  1  0.14740000  0.61340000  0.39290000  1.0 0.5439238132
C  C98  1  0.61340000  0.14740000  0.10710000  1.0 0.5439238132
C  C99  1  0.85260000  0.38660000  0.60710000  1.0 0.5439238132
C  C100  1  0.38660000  0.85260000  0.89290000  1.0 0.5439238132
C  C101  1  0.16600000  0.69920000  0.35287000  1.0 -0.026056769
C  C102  1  0.69920000  0.16600000  0.14713000  1.0 -0.026056769
C  C103  1  0.83400000  0.30080000  0.64713000  1.0 -0.026056769
C  C104  1  0.30080000  0.83400000  0.85287000  1.0 -0.026056769
C  C105  1  0.18570000  0.78670000  0.36870000  1.0 -0.0790764957
C  C106  1  0.78670000  0.18570000  0.13130000  1.0 -0.0790764957
C  C107  1  0.81430000  0.21330000  0.63130000  1.0 -0.0790764957
C  C108  1  0.21330000  0.81430000  0.86870000  1.0 -0.0790764957
C  C109  1  0.20600000  0.86580000  0.33129000  1.0 -0.0118934959
C  C110  1  0.86580000  0.20600000  0.16871000  1.0 -0.0118934959
C  C111  1  0.79400000  0.13420000  0.66871000  1.0 -0.0118934959
C  C112  1  0.13420000  0.79400000  0.83129000  1.0 -0.0118934959
C  C113  1  0.20258000  0.85522000  0.27766000  1.0 -0.0790764957
C  C114  1  0.85522000  0.20258000  0.22234000  1.0 -0.0790764957
C  C115  1  0.79742000  0.14478000  0.72234000  1.0 -0.0790764957
C  C116  1  0.14478000  0.79742000  0.77766000  1.0 -0.0790764957
C  C117  1  0.18224000  0.76656000  0.26020000  1.0 -0.2078368111
C  C118  1  0.76656000  0.18224000  0.23980000  1.0 -0.2078368111
C  C119  1  0.81776000  0.23344000  0.73980000  1.0 -0.2078368111
C  C120  1  0.23344000  0.81776000  0.76020000  1.0 -0.2078368111
C  C121  1  0.16520000  0.69100000  0.29918000  1.0 -0.0976896553
C  C122  1  0.69100000  0.16520000  0.20082000  1.0 -0.0976896553
C  C123  1  0.83480000  0.30900000  0.70082000  1.0 -0.0976896553
C  C124  1  0.30900000  0.83480000  0.79918000  1.0 -0.0976896553
C  C125  1  0.23110000  0.96110000  0.34850000  1.0 0.5439238132
C  C126  1  0.96110000  0.23110000  0.15150000  1.0 0.5439238132
C  C127  1  0.76890000  0.03890000  0.65150000  1.0 0.5439238132
C  C128  1  0.03890000  0.76890000  0.84850000  1.0 0.5439238132
C  C129  1  0.63040000  0.41880000  0.66360000  1.0 -0.2678423449
C  C130  1  0.50220000  0.37600000  0.59220000  1.0 -0.2644689723
C  C131  1  0.41880000  0.63040000  0.83640000  1.0 -0.2678423449
C  C132  1  0.37600000  0.50220000  0.90780000  1.0 -0.2644689723
C  C133  1  0.36960000  0.58120000  0.33640000  1.0 -0.2678423449
C  C134  1  0.49780000  0.62400000  0.40780000  1.0 -0.2678423449
C  C135  1  0.58120000  0.36960000  0.16360000  1.0 -0.2678423449
C  C136  1  0.62400000  0.49780000  0.09220000  1.0 -0.2644689723
C  C137  1  0.43840000  0.85520000  0.44880000  1.0 -0.2908294021
C  C138  1  0.31790000  0.80930000  0.51060000  1.0 -0.2963744297
C  C139  1  0.85520000  0.43840000  0.05120000  1.0 -0.2908294021
C  C140  1  0.80930000  0.31790000  0.98940000  1.0 -0.2963744297
C  C141  1  0.56160000  0.14480000  0.55120000  1.0 -0.2908294021
C  C142  1  0.68210000  0.19070000  0.48940000  1.0 -0.2963744297
C  C143  1  0.14480000  0.56160000  0.94880000  1.0 -0.2908294021
C  C144  1  0.19070000  0.68210000  0.01060000  1.0 -0.2963744297
C  C145  1  0.33300000  0.07600000  0.88130000  1.0 -0.2529191121
C  C146  1  0.15710000  0.06830000  0.83240000  1.0 -0.4202685897
C  C147  1  0.07600000  0.33300000  0.61870000  1.0 -0.2529191121
C  C148  1  0.06830000  0.15710000  0.66760000  1.0 -0.4202685897
C  C149  1  0.66700000  0.92400000  0.11870000  1.0 -0.2529191121
C  C150  1  0.84290000  0.93170000  0.16760000  1.0 -0.4202685897
C  C151  1  0.92400000  0.66700000  0.38130000  1.0 -0.2529191121
C  C152  1  0.93170000  0.84290000  0.33240000  1.0 -0.4202685897
N  N1  1  0.53600000  0.36880000  0.65040000  1.0 -0.0976896553
N  N2  1  0.36880000  0.53600000  0.84960000  1.0 -0.0976896553
N  N3  1  0.46400000  0.63120000  0.34960000  1.0 -0.0976896553
N  N4  1  0.63120000  0.46400000  0.15040000  1.0 -0.0976896553
N  N5  1  0.38950000  0.88730000  0.48660000  1.0 -0.0892831702
N  N6  1  0.88730000  0.38950000  0.01340000  1.0 -0.0892831702
N  N7  1  0.61050000  0.11270000  0.51340000  1.0 -0.0892831702
N  N8  1  0.11270000  0.61050000  0.98660000  1.0 -0.0892831702
N  N9  1  0.26370000  0.13430000  0.86240000  1.0 -0.1374801814
N  N10  1  0.13430000  0.26370000  0.63760000  1.0 -0.1374801814
N  N11  1  0.73630000  0.86570000  0.13760000  1.0 -0.1374801814
N  N12  1  0.86570000  0.73630000  0.36240000  1.0 -0.1374801814
O  O1  1  0.95261000  0.71167000  0.99947000  1.0 -0.543124479
O  O2  1  0.71167000  0.95261000  0.50053000  1.0 -0.543124479
O  O3  1  0.04739000  0.28833000  0.00053000  1.0 -0.543124479
O  O4  1  0.28833000  0.04739000  0.49947000  1.0 -0.543124479
O  O5  1  0.80606000  0.66294000  0.01283000  1.0 -0.5101221049
O  O6  1  0.66294000  0.80606000  0.48717000  1.0 -0.5101221049
O  O7  1  0.19394000  0.33706000  0.98717000  1.0 -0.5101221049
O  O8  1  0.33706000  0.19394000  0.51283000  1.0 -0.5101221049
O  O9  1  0.71832000  0.65822000  0.19245000  1.0 -0.579560694
O  O10  1  0.65822000  0.71832000  0.30755000  1.0 -0.579560694
O  O11  1  0.28168000  0.34178000  0.80755000  1.0 -0.579560694
O  O12  1  0.34178000  0.28168000  0.69245000  1.0 -0.579560694
O  O13  1  0.82792000  0.67736000  0.26268000  1.0 -0.5101221049
O  O14  1  0.67736000  0.82792000  0.23732000  1.0 -0.5101221049
O  O15  1  0.17208000  0.32264000  0.73732000  1.0 -0.5101221049
O  O16  1  0.32264000  0.17208000  0.76268000  1.0 -0.5101221049
O  O17  1  0.42822000  0.90178000  0.05448000  1.0 -0.5279490246
O  O18  1  0.90178000  0.42822000  0.44552000  1.0 -0.5279490246
O  O19  1  0.57178000  0.09822000  0.94552000  1.0 -0.5279490246
O  O20  1  0.09822000  0.57178000  0.55448000  1.0 -0.5279490246
O  O21  1  0.40353000  0.04457000  0.01870000  1.0 -0.543124479
O  O22  1  0.04457000  0.40353000  0.48130000  1.0 -0.543124479
O  O23  1  0.59647000  0.95543000  0.98130000  1.0 -0.543124479
O  O24  1  0.95543000  0.59647000  0.51870000  1.0 -0.543124479
O  O25  1  0.16508000  0.17072000  0.08626000  1.0 -0.4268351241
O  O26  1  0.17072000  0.16508000  0.41374000  1.0 -0.4268351241
O  O27  1  0.83492000  0.82928000  0.91374000  1.0 -0.4202685897
O  O28  1  0.82928000  0.83492000  0.58626000  1.0 -0.4202685897
O  O29  1  0.06730000  0.07950000  0.13280000  1.0 -0.4395309507
O  O30  1  0.07950000  0.06730000  0.36720000  1.0 -0.4395309507
O  O31  1  0.93270000  0.92050000  0.86720000  1.0 -0.4395309507
O  O32  1  0.92050000  0.93270000  0.63280000  1.0 -0.4395309507
O  O33  1  0.23823000  0.02897000  0.31421000  1.0 -0.4634131982
O  O34  1  0.02897000  0.23823000  0.18579000  1.0 -0.4634131982
O  O35  1  0.76177000  0.97103000  0.68579000  1.0 -0.4634131982
O  O36  1  0.97103000  0.76177000  0.81421000  1.0 -0.4634131982
O  O37  1  0.24350000  0.96458000  0.39950000  1.0 -0.5615834339
O  O38  1  0.96458000  0.24350000  0.10050000  1.0 -0.5615834339
O  O39  1  0.75650000  0.03542000  0.60050000  1.0 -0.5615834339
O  O40  1  0.03542000  0.75650000  0.89950000  1.0 -0.5615834339
O  O41  1  0.13333000  0.62887000  0.43928000  1.0 -0.5683483078
O  O42  1  0.62887000  0.13333000  0.06072000  1.0 -0.5683483078
O  O43  1  0.86667000  0.37113000  0.56072000  1.0 -0.5683483078
O  O44  1  0.37113000  0.86667000  0.93928000  1.0 -0.5683483078
O  O45  1  0.14580000  0.53540000  0.38127000  1.0 -0.5187508657
O  O46  1  0.53540000  0.14580000  0.11873000  1.0 -0.5187508657
O  O47  1  0.85420000  0.46460000  0.61873000  1.0 -0.5187508657
O  O48  1  0.46460000  0.85420000  0.88127000  1.0 -0.5187508657
O  O49  1  0.50548000  0.64716000  0.22478000  1.0 -0.5279490246
O  O50  1  0.64716000  0.50548000  0.27522000  1.0 -0.5279490246
O  O51  1  0.49452000  0.35284000  0.77522000  1.0 -0.5279490246
O  O52  1  0.35284000  0.49452000  0.72478000  1.0 -0.5279490246
O  O53  1  0.49619000  0.54121000  0.17220000  1.0 -0.5187508657
O  O54  1  0.54121000  0.49619000  0.32780000  1.0 -0.5187508657
O  O55  1  0.50381000  0.45879000  0.82780000  1.0 -0.5187508657
O  O56  1  0.45879000  0.50381000  0.67220000  1.0 -0.5187508657
O  O57  1  0.17743000  0.36341000  0.11375000  1.0 -0.5101221049
O  O58  1  0.36341000  0.17743000  0.38625000  1.0 -0.5101221049
O  O59  1  0.82257000  0.63659000  0.88625000  1.0 -0.5101221049
O  O60  1  0.63659000  0.82257000  0.61375000  1.0 -0.5101221049
O  O61  1  0.08236000  0.46024000  0.07405000  1.0 -0.579560694
O  O62  1  0.46024000  0.08236000  0.42595000  1.0 -0.579560694
O  O63  1  0.91764000  0.53976000  0.92595000  1.0 -0.579560694
O  O64  1  0.53976000  0.91764000  0.57405000  1.0 -0.579560694
O  O65  1  0.52100000  0.75240000  0.01740000  1.0 -0.4962861582
O  O66  1  0.75240000  0.52100000  0.48260000  1.0 -0.487040385
O  O67  1  0.47900000  0.24760000  0.98260000  1.0 -0.487040385
O  O68  1  0.24760000  0.47900000  0.51740000  1.0 -0.487040385
