# DDEC6 charges by PACMAN v1.1 (https://github.com/mtap-research/PACMAN-charge/)
data_GESBUC_ASR_pacman
_symmetry_space_group_name_H-M   'P 1'
_cell_length_a   24.04300000
_cell_length_b   24.04300000
_cell_length_c   24.04300000
_cell_angle_alpha   90.00000000
_cell_angle_beta   90.00000000
_cell_angle_gamma   90.00000000
_symmetry_Int_Tables_number   1
_chemical_formula_structural   NaMn19H81(C9O11)5
_chemical_formula_sum   'Na4 Mn76 H324 C180 O220'
_cell_volume   13898.43720751
_cell_formula_units_Z   4
loop_
 _symmetry_equiv_pos_site_id
 _symmetry_equiv_pos_as_xyz
  1  'x, y, z'
loop_
 _atom_site_type_symbol
 _atom_site_label
 _atom_site_symmetry_multiplicity
 _atom_site_fract_x
 _atom_site_fract_y
 _atom_site_fract_z
 _atom_site_occupancy
 _atom_site_charge
Na  Na1  1  0.85845000  0.14155000  0.64155000  1.0 0.8525418037
Na  Na2  1  0.64155000  0.85845000  0.14155000  1.0 0.8525418037
Na  Na3  1  0.35845000  0.35845000  0.35845000  1.0 0.8525418037
Na  Na4  1  0.14155000  0.64155000  0.85845000  1.0 0.8525418037
Mn  Mn1  1  0.84411000  0.01325000  0.84909000  1.0 1.0828536742
Mn  Mn2  1  0.65589000  0.98675000  0.34909000  1.0 1.0828536742
Mn  Mn3  1  0.34411000  0.48675000  0.15091000  1.0 1.0828536742
Mn  Mn4  1  0.15589000  0.51325000  0.65091000  1.0 1.0828536742
Mn  Mn5  1  0.84909000  0.84411000  0.01325000  1.0 1.0828536742
Mn  Mn6  1  0.01325000  0.84909000  0.84411000  1.0 1.0828536742
Mn  Mn7  1  0.65091000  0.15589000  0.51325000  1.0 1.0828536742
Mn  Mn8  1  0.98675000  0.34909000  0.65589000  1.0 1.0828536742
Mn  Mn9  1  0.34909000  0.65589000  0.98675000  1.0 1.0828536742
Mn  Mn10  1  0.48675000  0.15091000  0.34411000  1.0 1.0828536742
Mn  Mn11  1  0.15091000  0.34411000  0.48675000  1.0 1.0828536742
Mn  Mn12  1  0.51325000  0.65091000  0.15589000  1.0 1.0828536742
Mn  Mn13  1  0.88656000  0.88656000  0.88656000  1.0 1.105561822
Mn  Mn14  1  0.61344000  0.11344000  0.38656000  1.0 1.105561822
Mn  Mn15  1  0.38656000  0.61344000  0.11344000  1.0 1.105561822
Mn  Mn16  1  0.11344000  0.38656000  0.61344000  1.0 1.105561822
Mn  Mn17  1  0.79532000  0.96143000  0.94895000  1.0 1.0381068978
Mn  Mn18  1  0.70468000  0.03857000  0.44895000  1.0 1.0381068978
Mn  Mn19  1  0.29532000  0.53857000  0.05105000  1.0 1.0381068978
Mn  Mn20  1  0.20468000  0.46143000  0.55105000  1.0 1.0381068978
Mn  Mn21  1  0.94895000  0.79532000  0.96143000  1.0 1.0381068978
Mn  Mn22  1  0.96143000  0.94895000  0.79532000  1.0 1.0381068978
Mn  Mn23  1  0.55105000  0.20468000  0.46143000  1.0 1.0381068978
Mn  Mn24  1  0.03857000  0.44895000  0.70468000  1.0 1.0381068978
Mn  Mn25  1  0.44895000  0.70468000  0.03857000  1.0 1.0381068978
Mn  Mn26  1  0.53857000  0.05105000  0.29532000  1.0 1.0381068978
Mn  Mn27  1  0.05105000  0.29532000  0.53857000  1.0 1.0381068978
Mn  Mn28  1  0.46143000  0.55105000  0.20468000  1.0 1.0381068978
Mn  Mn29  1  0.90663000  0.02553000  0.96284000  1.0 1.1205198063
Mn  Mn30  1  0.59337000  0.97447000  0.46284000  1.0 1.1205198063
Mn  Mn31  1  0.40663000  0.47447000  0.03716000  1.0 1.1205198063
Mn  Mn32  1  0.09337000  0.52553000  0.53716000  1.0 1.1205198063
Mn  Mn33  1  0.96284000  0.90663000  0.02553000  1.0 1.1205198063
Mn  Mn34  1  0.02553000  0.96284000  0.90663000  1.0 1.1205198063
Mn  Mn35  1  0.53716000  0.09337000  0.52553000  1.0 1.1205198063
Mn  Mn36  1  0.97447000  0.46284000  0.59337000  1.0 1.1205198063
Mn  Mn37  1  0.46284000  0.59337000  0.97447000  1.0 1.1205198063
Mn  Mn38  1  0.47447000  0.03716000  0.40663000  1.0 1.1205198063
Mn  Mn39  1  0.03716000  0.40663000  0.47447000  1.0 1.1205198063
Mn  Mn40  1  0.52553000  0.53716000  0.09337000  1.0 1.1205198063
Mn  Mn41  1  0.94469000  0.23015000  0.58356000  1.0 1.0216785017
Mn  Mn42  1  0.55531000  0.76985000  0.08356000  1.0 1.0216785017
Mn  Mn43  1  0.44469000  0.26985000  0.41644000  1.0 1.0216785017
Mn  Mn44  1  0.05531000  0.73015000  0.91644000  1.0 1.0216785017
Mn  Mn45  1  0.58356000  0.94469000  0.23015000  1.0 1.0216785017
Mn  Mn46  1  0.23015000  0.58356000  0.94469000  1.0 1.0216785017
Mn  Mn47  1  0.91644000  0.05531000  0.73015000  1.0 1.0216785017
Mn  Mn48  1  0.76985000  0.08356000  0.55531000  1.0 1.0216785017
Mn  Mn49  1  0.08356000  0.55531000  0.76985000  1.0 1.0216785017
Mn  Mn50  1  0.26985000  0.41644000  0.44469000  1.0 1.0216785017
Mn  Mn51  1  0.41644000  0.44469000  0.26985000  1.0 1.0216785017
Mn  Mn52  1  0.73015000  0.91644000  0.05531000  1.0 1.0216785017
Mn  Mn53  1  0.96574000  0.06666000  0.85648000  1.0 1.0216785017
Mn  Mn54  1  0.53426000  0.93334000  0.35648000  1.0 1.0216785017
Mn  Mn55  1  0.46574000  0.43334000  0.14352000  1.0 1.0216785017
Mn  Mn56  1  0.03426000  0.56666000  0.64352000  1.0 1.0216785017
Mn  Mn57  1  0.85648000  0.96574000  0.06666000  1.0 1.0216785017
Mn  Mn58  1  0.06666000  0.85648000  0.96574000  1.0 1.0216785017
Mn  Mn59  1  0.64352000  0.03426000  0.56666000  1.0 1.0216785017
Mn  Mn60  1  0.93334000  0.35648000  0.53426000  1.0 1.0216785017
Mn  Mn61  1  0.35648000  0.53426000  0.93334000  1.0 1.0216785017
Mn  Mn62  1  0.43334000  0.14352000  0.46574000  1.0 1.0216785017
Mn  Mn63  1  0.14352000  0.46574000  0.43334000  1.0 1.0216785017
Mn  Mn64  1  0.56666000  0.64352000  0.03426000  1.0 1.0216785017
Mn  Mn65  1  0.91592000  0.47034000  0.46976000  1.0 1.0605619344
Mn  Mn66  1  0.58408000  0.52966000  0.96976000  1.0 1.0605619344
Mn  Mn67  1  0.41592000  0.02966000  0.53024000  1.0 1.0605619344
Mn  Mn68  1  0.08408000  0.97034000  0.03024000  1.0 1.0605619344
Mn  Mn69  1  0.46976000  0.91592000  0.47034000  1.0 1.0605619344
Mn  Mn70  1  0.47034000  0.46976000  0.91592000  1.0 1.0605619344
Mn  Mn71  1  0.03024000  0.08408000  0.97034000  1.0 1.0605619344
Mn  Mn72  1  0.52966000  0.96976000  0.58408000  1.0 1.0605619344
Mn  Mn73  1  0.96976000  0.58408000  0.52966000  1.0 1.0605619344
Mn  Mn74  1  0.02966000  0.53024000  0.41592000  1.0 1.0605619344
Mn  Mn75  1  0.53024000  0.41592000  0.02966000  1.0 1.0605619344
Mn  Mn76  1  0.97034000  0.03024000  0.08408000  1.0 1.0605619344
H  H1  1  0.84920000  0.15120000  0.89030000  1.0 0.0999312761
H  H2  1  0.65080000  0.84880000  0.39030000  1.0 0.0999312761
H  H3  1  0.34920000  0.34880000  0.10970000  1.0 0.0999312761
H  H4  1  0.15080000  0.65120000  0.60970000  1.0 0.0999312761
H  H5  1  0.89030000  0.84920000  0.15120000  1.0 0.0999312761
H  H6  1  0.15120000  0.89030000  0.84920000  1.0 0.0999312761
H  H7  1  0.60970000  0.15080000  0.65120000  1.0 0.0999312761
H  H8  1  0.84880000  0.39030000  0.65080000  1.0 0.0999312761
H  H9  1  0.39030000  0.65080000  0.84880000  1.0 0.0999312761
H  H10  1  0.34880000  0.10970000  0.34920000  1.0 0.0999312761
H  H11  1  0.10970000  0.34920000  0.34880000  1.0 0.0999312761
H  H12  1  0.65120000  0.60970000  0.15080000  1.0 0.0999312761
H  H13  1  0.88320000  0.15150000  0.94610000  1.0 0.0922893416
H  H14  1  0.61680000  0.84850000  0.44610000  1.0 0.0922893416
H  H15  1  0.38320000  0.34850000  0.05390000  1.0 0.0922893416
H  H16  1  0.11680000  0.65150000  0.55390000  1.0 0.0922893416
H  H17  1  0.94610000  0.88320000  0.15150000  1.0 0.0922893416
H  H18  1  0.15150000  0.94610000  0.88320000  1.0 0.0922893416
H  H19  1  0.55390000  0.11680000  0.65150000  1.0 0.0922893416
H  H20  1  0.84850000  0.44610000  0.61680000  1.0 0.0922893416
H  H21  1  0.44610000  0.61680000  0.84850000  1.0 0.0922893416
H  H22  1  0.34850000  0.05390000  0.38320000  1.0 0.0922893416
H  H23  1  0.05390000  0.38320000  0.34850000  1.0 0.0922893416
H  H24  1  0.65150000  0.55390000  0.11680000  1.0 0.0922893416
H  H25  1  0.78150000  0.09760000  0.93000000  1.0 0.1170443625
H  H26  1  0.71850000  0.90240000  0.43000000  1.0 0.1170443625
H  H27  1  0.28150000  0.40240000  0.07000000  1.0 0.1170443625
H  H28  1  0.21850000  0.59760000  0.57000000  1.0 0.1170443625
H  H29  1  0.93000000  0.78150000  0.09760000  1.0 0.1170443625
H  H30  1  0.09760000  0.93000000  0.78150000  1.0 0.1170443625
H  H31  1  0.57000000  0.21850000  0.59760000  1.0 0.1170443625
H  H32  1  0.90240000  0.43000000  0.71850000  1.0 0.1170443625
H  H33  1  0.43000000  0.71850000  0.90240000  1.0 0.1170443625
H  H34  1  0.40240000  0.07000000  0.28150000  1.0 0.1170443625
H  H35  1  0.07000000  0.28150000  0.40240000  1.0 0.1170443625
H  H36  1  0.59760000  0.57000000  0.21850000  1.0 0.1170443625
H  H37  1  0.78870000  0.15280000  0.96330000  1.0 0.1092328292
H  H38  1  0.71130000  0.84720000  0.46330000  1.0 0.1092328292
H  H39  1  0.28870000  0.34720000  0.03670000  1.0 0.1092328292
H  H40  1  0.21130000  0.65280000  0.53670000  1.0 0.1092328292
H  H41  1  0.96330000  0.78870000  0.15280000  1.0 0.1092328292
H  H42  1  0.15280000  0.96330000  0.78870000  1.0 0.1092328292
H  H43  1  0.53670000  0.21130000  0.65280000  1.0 0.1092328292
H  H44  1  0.84720000  0.46330000  0.71130000  1.0 0.1092328292
H  H45  1  0.46330000  0.71130000  0.84720000  1.0 0.1092328292
H  H46  1  0.34720000  0.03670000  0.28870000  1.0 0.1092328292
H  H47  1  0.03670000  0.28870000  0.34720000  1.0 0.1092328292
H  H48  1  0.65280000  0.53670000  0.21130000  1.0 0.1092328292
H  H49  1  0.83070000  0.10470000  0.03700000  1.0 0.0999312761
H  H50  1  0.66930000  0.89530000  0.53700000  1.0 0.0999312761
H  H51  1  0.33070000  0.39530000  0.96300000  1.0 0.0999312761
H  H52  1  0.16930000  0.60470000  0.46300000  1.0 0.0999312761
H  H53  1  0.03700000  0.83070000  0.10470000  1.0 0.0999312761
H  H54  1  0.10470000  0.03700000  0.83070000  1.0 0.0999312761
H  H55  1  0.46300000  0.16930000  0.60470000  1.0 0.0999312761
H  H56  1  0.89530000  0.53700000  0.66930000  1.0 0.0999312761
H  H57  1  0.53700000  0.66930000  0.89530000  1.0 0.0999312761
H  H58  1  0.39530000  0.96300000  0.33070000  1.0 0.0999312761
H  H59  1  0.96300000  0.33070000  0.39530000  1.0 0.0999312761
H  H60  1  0.60470000  0.46300000  0.16930000  1.0 0.0999312761
H  H61  1  0.77220000  0.07840000  0.02430000  1.0 0.0999312761
H  H62  1  0.72780000  0.92160000  0.52430000  1.0 0.0999312761
H  H63  1  0.27220000  0.42160000  0.97570000  1.0 0.0999312761
H  H64  1  0.22780000  0.57840000  0.47570000  1.0 0.0999312761
H  H65  1  0.02430000  0.77220000  0.07840000  1.0 0.0999312761
H  H66  1  0.07840000  0.02430000  0.77220000  1.0 0.0999312761
H  H67  1  0.47570000  0.22780000  0.57840000  1.0 0.0999312761
H  H68  1  0.92160000  0.52430000  0.72780000  1.0 0.0999312761
H  H69  1  0.52430000  0.72780000  0.92160000  1.0 0.0999312761
H  H70  1  0.42160000  0.97570000  0.27220000  1.0 0.0999312761
H  H71  1  0.97570000  0.27220000  0.42160000  1.0 0.0999312761
H  H72  1  0.57840000  0.47570000  0.22780000  1.0 0.0999312761
H  H73  1  0.71750000  0.99820000  0.82740000  1.0 0.1170443625
H  H74  1  0.78250000  0.00180000  0.32740000  1.0 0.1170443625
H  H75  1  0.21750000  0.50180000  0.17260000  1.0 0.1170443625
H  H76  1  0.28250000  0.49820000  0.67260000  1.0 0.1170443625
H  H77  1  0.82740000  0.71750000  0.99820000  1.0 0.1170443625
H  H78  1  0.99820000  0.82740000  0.71750000  1.0 0.1170443625
H  H79  1  0.67260000  0.28250000  0.49820000  1.0 0.1170443625
H  H80  1  0.00180000  0.32740000  0.78250000  1.0 0.1170443625
H  H81  1  0.32740000  0.78250000  0.00180000  1.0 0.1170443625
H  H82  1  0.50180000  0.17260000  0.21750000  1.0 0.1170443625
H  H83  1  0.17260000  0.21750000  0.50180000  1.0 0.1170443625
H  H84  1  0.49820000  0.67260000  0.28250000  1.0 0.1170443625
H  H85  1  0.70780000  0.04950000  0.86640000  1.0 0.0999312761
H  H86  1  0.79220000  0.95050000  0.36640000  1.0 0.0999312761
H  H87  1  0.20780000  0.45050000  0.13360000  1.0 0.0999312761
H  H88  1  0.29220000  0.54950000  0.63360000  1.0 0.0999312761
H  H89  1  0.86640000  0.70780000  0.04950000  1.0 0.0999312761
H  H90  1  0.04950000  0.86640000  0.70780000  1.0 0.0999312761
H  H91  1  0.63360000  0.29220000  0.54950000  1.0 0.0999312761
H  H92  1  0.95050000  0.36640000  0.79220000  1.0 0.0999312761
H  H93  1  0.36640000  0.79220000  0.95050000  1.0 0.0999312761
H  H94  1  0.45050000  0.13360000  0.20780000  1.0 0.0999312761
H  H95  1  0.13360000  0.20780000  0.45050000  1.0 0.0999312761
H  H96  1  0.54950000  0.63360000  0.29220000  1.0 0.0999312761
H  H97  1  0.68480000  0.93940000  0.89240000  1.0 0.1409380951
H  H98  1  0.81520000  0.06060000  0.39240000  1.0 0.1409380951
H  H99  1  0.18480000  0.56060000  0.10760000  1.0 0.1409380951
H  H100  1  0.31520000  0.43940000  0.60760000  1.0 0.1409380951
H  H101  1  0.89240000  0.68480000  0.93940000  1.0 0.1409380951
H  H102  1  0.93940000  0.89240000  0.68480000  1.0 0.1409380951
H  H103  1  0.60760000  0.31520000  0.43940000  1.0 0.1409380951
H  H104  1  0.06060000  0.39240000  0.81520000  1.0 0.1409380951
H  H105  1  0.39240000  0.81520000  0.06060000  1.0 0.1409380951
H  H106  1  0.56060000  0.10760000  0.18480000  1.0 0.1409380951
H  H107  1  0.10760000  0.18480000  0.56060000  1.0 0.1409380951
H  H108  1  0.43940000  0.60760000  0.31520000  1.0 0.1409380951
H  H109  1  0.64070000  0.98640000  0.88310000  1.0 0.1092328292
H  H110  1  0.85930000  0.01360000  0.38310000  1.0 0.1092328292
H  H111  1  0.14070000  0.51360000  0.11690000  1.0 0.1092328292
H  H112  1  0.35930000  0.48640000  0.61690000  1.0 0.1092328292
H  H113  1  0.88310000  0.64070000  0.98640000  1.0 0.1092328292
H  H114  1  0.98640000  0.88310000  0.64070000  1.0 0.1092328292
H  H115  1  0.61690000  0.35930000  0.48640000  1.0 0.1092328292
H  H116  1  0.01360000  0.38310000  0.85930000  1.0 0.1092328292
H  H117  1  0.38310000  0.85930000  0.01360000  1.0 0.1092328292
H  H118  1  0.51360000  0.11690000  0.14070000  1.0 0.1092328292
H  H119  1  0.11690000  0.14070000  0.51360000  1.0 0.1092328292
H  H120  1  0.48640000  0.61690000  0.35930000  1.0 0.1092328292
H  H121  1  0.67590000  0.03120000  0.96260000  1.0 0.0999312761
H  H122  1  0.82410000  0.96880000  0.46260000  1.0 0.0999312761
H  H123  1  0.17590000  0.46880000  0.03740000  1.0 0.0999312761
H  H124  1  0.32410000  0.53120000  0.53740000  1.0 0.0999312761
H  H125  1  0.96260000  0.67590000  0.03120000  1.0 0.0999312761
H  H126  1  0.03120000  0.96260000  0.67590000  1.0 0.0999312761
H  H127  1  0.53740000  0.32410000  0.53120000  1.0 0.0999312761
H  H128  1  0.96880000  0.46260000  0.82410000  1.0 0.0999312761
H  H129  1  0.46260000  0.82410000  0.96880000  1.0 0.0999312761
H  H130  1  0.46880000  0.03740000  0.17590000  1.0 0.0999312761
H  H131  1  0.03740000  0.17590000  0.46880000  1.0 0.0999312761
H  H132  1  0.53120000  0.53740000  0.32410000  1.0 0.0999312761
H  H133  1  0.64580000  0.97470000  0.97470000  1.0 0.0999312761
H  H134  1  0.85420000  0.02530000  0.47470000  1.0 0.0999312761
H  H135  1  0.14580000  0.52530000  0.02530000  1.0 0.0999312761
H  H136  1  0.35420000  0.47470000  0.52530000  1.0 0.0999312761
H  H137  1  0.97470000  0.64580000  0.97470000  1.0 0.0999312761
H  H138  1  0.97470000  0.97470000  0.64580000  1.0 0.0999312761
H  H139  1  0.52530000  0.35420000  0.47470000  1.0 0.0999312761
H  H140  1  0.02530000  0.47470000  0.85420000  1.0 0.0999312761
H  H141  1  0.47470000  0.85420000  0.02530000  1.0 0.0999312761
H  H142  1  0.52530000  0.02530000  0.14580000  1.0 0.0999312761
H  H143  1  0.02530000  0.14580000  0.52530000  1.0 0.0999312761
H  H144  1  0.47470000  0.52530000  0.35420000  1.0 0.0999312761
H  H145  1  0.81540000  0.29410000  0.56370000  1.0 0.1092328292
H  H146  1  0.68460000  0.70590000  0.06370000  1.0 0.1092328292
H  H147  1  0.31540000  0.20590000  0.43630000  1.0 0.1092328292
H  H148  1  0.18460000  0.79410000  0.93630000  1.0 0.1092328292
H  H149  1  0.56370000  0.81540000  0.29410000  1.0 0.1092328292
H  H150  1  0.29410000  0.56370000  0.81540000  1.0 0.1092328292
H  H151  1  0.93630000  0.18460000  0.79410000  1.0 0.1092328292
H  H152  1  0.70590000  0.06370000  0.68460000  1.0 0.1092328292
H  H153  1  0.06370000  0.68460000  0.70590000  1.0 0.1092328292
H  H154  1  0.20590000  0.43630000  0.31540000  1.0 0.1092328292
H  H155  1  0.43630000  0.31540000  0.20590000  1.0 0.1092328292
H  H156  1  0.79410000  0.93630000  0.18460000  1.0 0.1092328292
H  H157  1  0.82760000  0.24790000  0.51950000  1.0 0.0999312761
H  H158  1  0.67240000  0.75210000  0.01950000  1.0 0.0999312761
H  H159  1  0.32760000  0.25210000  0.48050000  1.0 0.0999312761
H  H160  1  0.17240000  0.74790000  0.98050000  1.0 0.0999312761
H  H161  1  0.51950000  0.82760000  0.24790000  1.0 0.0999312761
H  H162  1  0.24790000  0.51950000  0.82760000  1.0 0.0999312761
H  H163  1  0.98050000  0.17240000  0.74790000  1.0 0.0999312761
H  H164  1  0.75210000  0.01950000  0.67240000  1.0 0.0999312761
H  H165  1  0.01950000  0.67240000  0.75210000  1.0 0.0999312761
H  H166  1  0.25210000  0.48050000  0.32760000  1.0 0.0999312761
H  H167  1  0.48050000  0.32760000  0.25210000  1.0 0.0999312761
H  H168  1  0.74790000  0.98050000  0.17240000  1.0 0.0999312761
H  H169  1  0.82250000  0.30440000  0.45030000  1.0 0.1283233755
H  H170  1  0.67750000  0.69560000  0.95030000  1.0 0.1283233755
H  H171  1  0.32250000  0.19560000  0.54970000  1.0 0.1283233755
H  H172  1  0.17750000  0.80440000  0.04970000  1.0 0.1283233755
H  H173  1  0.45030000  0.82250000  0.30440000  1.0 0.1283233755
H  H174  1  0.30440000  0.45030000  0.82250000  1.0 0.1283233755
H  H175  1  0.04970000  0.17750000  0.80440000  1.0 0.1283233755
H  H176  1  0.69560000  0.95030000  0.67750000  1.0 0.1283233755
H  H177  1  0.95030000  0.67750000  0.69560000  1.0 0.1283233755
H  H178  1  0.19560000  0.54970000  0.32250000  1.0 0.1283233755
H  H179  1  0.54970000  0.32250000  0.19560000  1.0 0.1283233755
H  H180  1  0.80440000  0.04970000  0.17750000  1.0 0.1283233755
H  H181  1  0.77340000  0.32140000  0.48850000  1.0 0.1092328292
H  H182  1  0.72660000  0.67860000  0.98850000  1.0 0.1092328292
H  H183  1  0.27340000  0.17860000  0.51150000  1.0 0.1092328292
H  H184  1  0.22660000  0.82140000  0.01150000  1.0 0.1092328292
H  H185  1  0.48850000  0.77340000  0.32140000  1.0 0.1092328292
H  H186  1  0.32140000  0.48850000  0.77340000  1.0 0.1092328292
H  H187  1  0.01150000  0.22660000  0.82140000  1.0 0.1092328292
H  H188  1  0.67860000  0.98850000  0.72660000  1.0 0.1092328292
H  H189  1  0.98850000  0.72660000  0.67860000  1.0 0.1092328292
H  H190  1  0.17860000  0.51150000  0.27340000  1.0 0.1092328292
H  H191  1  0.51150000  0.27340000  0.17860000  1.0 0.1092328292
H  H192  1  0.82140000  0.01150000  0.22660000  1.0 0.1092328292
H  H193  1  0.81980000  0.39160000  0.43760000  1.0 0.0999312761
H  H194  1  0.68020000  0.60840000  0.93760000  1.0 0.0999312761
H  H195  1  0.31980000  0.10840000  0.56240000  1.0 0.0999312761
H  H196  1  0.18020000  0.89160000  0.06240000  1.0 0.0999312761
H  H197  1  0.43760000  0.81980000  0.39160000  1.0 0.0999312761
H  H198  1  0.39160000  0.43760000  0.81980000  1.0 0.0999312761
H  H199  1  0.06240000  0.18020000  0.89160000  1.0 0.0999312761
H  H200  1  0.60840000  0.93760000  0.68020000  1.0 0.0999312761
H  H201  1  0.93760000  0.68020000  0.60840000  1.0 0.0999312761
H  H202  1  0.10840000  0.56240000  0.31980000  1.0 0.0999312761
H  H203  1  0.56240000  0.31980000  0.10840000  1.0 0.0999312761
H  H204  1  0.89160000  0.06240000  0.18020000  1.0 0.0999312761
H  H205  1  0.80320000  0.40480000  0.49930000  1.0 0.0999312761
H  H206  1  0.69680000  0.59520000  0.99930000  1.0 0.0922893416
H  H207  1  0.30320000  0.09520000  0.50070000  1.0 0.0922893416
H  H208  1  0.19680000  0.90480000  0.00070000  1.0 0.0922893416
H  H209  1  0.49930000  0.80320000  0.40480000  1.0 0.0999312761
H  H210  1  0.40480000  0.49930000  0.80320000  1.0 0.0922893416
H  H211  1  0.00070000  0.19680000  0.90480000  1.0 0.0922893416
H  H212  1  0.59520000  0.99930000  0.69680000  1.0 0.0922893416
H  H213  1  0.99930000  0.69680000  0.59520000  1.0 0.0999312761
H  H214  1  0.09520000  0.50070000  0.30320000  1.0 0.0922893416
H  H215  1  0.50070000  0.30320000  0.09520000  1.0 0.0999312761
H  H216  1  0.90480000  0.00070000  0.19680000  1.0 0.0999312761
H  H217  1  0.76680000  0.87670000  0.74160000  1.0 0.1629851969
H  H218  1  0.73320000  0.12330000  0.24160000  1.0 0.1629851969
H  H219  1  0.26680000  0.62330000  0.25840000  1.0 0.1629851969
H  H220  1  0.23320000  0.37670000  0.75840000  1.0 0.1629851969
H  H221  1  0.74160000  0.76680000  0.87670000  1.0 0.1629851969
H  H222  1  0.87670000  0.74160000  0.76680000  1.0 0.1629851969
H  H223  1  0.75840000  0.23320000  0.37670000  1.0 0.1629851969
H  H224  1  0.12330000  0.24160000  0.73320000  1.0 0.1629851969
H  H225  1  0.24160000  0.73320000  0.12330000  1.0 0.1629851969
H  H226  1  0.62330000  0.25840000  0.26680000  1.0 0.1629851969
H  H227  1  0.25840000  0.26680000  0.62330000  1.0 0.1629851969
H  H228  1  0.37670000  0.75840000  0.23320000  1.0 0.1629851969
H  H229  1  0.82210000  0.84330000  0.73240000  1.0 0.1661794999
H  H230  1  0.67790000  0.15670000  0.23240000  1.0 0.1661794999
H  H231  1  0.32210000  0.65670000  0.26760000  1.0 0.1661794999
H  H232  1  0.17790000  0.34330000  0.76760000  1.0 0.1661794999
H  H233  1  0.73240000  0.82210000  0.84330000  1.0 0.1661794999
H  H234  1  0.84330000  0.73240000  0.82210000  1.0 0.1661794999
H  H235  1  0.76760000  0.17790000  0.34330000  1.0 0.1661794999
H  H236  1  0.15670000  0.23240000  0.67790000  1.0 0.1661794999
H  H237  1  0.23240000  0.67790000  0.15670000  1.0 0.1661794999
H  H238  1  0.65670000  0.26760000  0.32210000  1.0 0.1661794999
H  H239  1  0.26760000  0.32210000  0.65670000  1.0 0.1661794999
H  H240  1  0.34330000  0.76760000  0.17790000  1.0 0.1661794999
H  H241  1  0.80960000  0.89620000  0.69640000  1.0 0.1661794999
H  H242  1  0.69040000  0.10380000  0.19640000  1.0 0.1661794999
H  H243  1  0.30960000  0.60380000  0.30360000  1.0 0.1661794999
H  H244  1  0.19040000  0.39620000  0.80360000  1.0 0.1661794999
H  H245  1  0.69640000  0.80960000  0.89620000  1.0 0.1661794999
H  H246  1  0.89620000  0.69640000  0.80960000  1.0 0.1661794999
H  H247  1  0.80360000  0.19040000  0.39620000  1.0 0.1661794999
H  H248  1  0.10380000  0.19640000  0.69040000  1.0 0.1661794999
H  H249  1  0.19640000  0.69040000  0.10380000  1.0 0.1661794999
H  H250  1  0.60380000  0.30360000  0.30960000  1.0 0.1661794999
H  H251  1  0.30360000  0.30960000  0.60380000  1.0 0.1661794999
H  H252  1  0.39620000  0.80360000  0.19040000  1.0 0.1661794999
H  H253  1  0.94060000  0.17710000  0.46540000  1.0 0.1543048465
H  H254  1  0.55940000  0.82290000  0.96540000  1.0 0.1543048465
H  H255  1  0.44060000  0.32290000  0.53460000  1.0 0.1543048465
H  H256  1  0.05940000  0.67710000  0.03460000  1.0 0.1543048465
H  H257  1  0.46540000  0.94060000  0.17710000  1.0 0.1543048465
H  H258  1  0.17710000  0.46540000  0.94060000  1.0 0.1543048465
H  H259  1  0.03460000  0.05940000  0.67710000  1.0 0.1543048465
H  H260  1  0.82290000  0.96540000  0.55940000  1.0 0.1543048465
H  H261  1  0.96540000  0.55940000  0.82290000  1.0 0.1543048465
H  H262  1  0.32290000  0.53460000  0.44060000  1.0 0.1543048465
H  H263  1  0.53460000  0.44060000  0.32290000  1.0 0.1543048465
H  H264  1  0.67710000  0.03460000  0.05940000  1.0 0.1543048465
H  H265  1  0.88570000  0.20180000  0.44030000  1.0 0.1629851969
H  H266  1  0.61430000  0.79820000  0.94030000  1.0 0.1629851969
H  H267  1  0.38570000  0.29820000  0.55970000  1.0 0.1629851969
H  H268  1  0.11430000  0.70180000  0.05970000  1.0 0.1629851969
H  H269  1  0.44030000  0.88570000  0.20180000  1.0 0.1629851969
H  H270  1  0.20180000  0.44030000  0.88570000  1.0 0.1629851969
H  H271  1  0.05970000  0.11430000  0.70180000  1.0 0.1629851969
H  H272  1  0.79820000  0.94030000  0.61430000  1.0 0.1629851969
H  H273  1  0.94030000  0.61430000  0.79820000  1.0 0.1629851969
H  H274  1  0.29820000  0.55970000  0.38570000  1.0 0.1629851969
H  H275  1  0.55970000  0.38570000  0.29820000  1.0 0.1629851969
H  H276  1  0.70180000  0.05970000  0.11430000  1.0 0.1629851969
H  H277  1  0.90110000  0.13940000  0.42970000  1.0 0.1629851969
H  H278  1  0.59890000  0.86060000  0.92970000  1.0 0.1629851969
H  H279  1  0.40110000  0.36060000  0.57030000  1.0 0.1629851969
H  H280  1  0.09890000  0.63940000  0.07030000  1.0 0.1629851969
H  H281  1  0.42970000  0.90110000  0.13940000  1.0 0.1629851969
H  H282  1  0.13940000  0.42970000  0.90110000  1.0 0.1629851969
H  H283  1  0.07030000  0.09890000  0.63940000  1.0 0.1629851969
H  H284  1  0.86060000  0.92970000  0.59890000  1.0 0.1629851969
H  H285  1  0.92970000  0.59890000  0.86060000  1.0 0.1629851969
H  H286  1  0.36060000  0.57030000  0.40110000  1.0 0.1629851969
H  H287  1  0.57030000  0.40110000  0.36060000  1.0 0.1629851969
H  H288  1  0.63940000  0.07030000  0.09890000  1.0 0.1629851969
H  H289  1  0.72440000  0.11970000  0.76870000  1.0 0.1629851969
H  H290  1  0.77560000  0.88030000  0.26870000  1.0 0.1629851969
H  H291  1  0.22440000  0.38030000  0.23130000  1.0 0.1629851969
H  H292  1  0.27560000  0.61970000  0.73130000  1.0 0.1629851969
H  H293  1  0.76870000  0.72440000  0.11970000  1.0 0.1629851969
H  H294  1  0.11970000  0.76870000  0.72440000  1.0 0.1629851969
H  H295  1  0.73130000  0.27560000  0.61970000  1.0 0.1629851969
H  H296  1  0.88030000  0.26870000  0.77560000  1.0 0.1629851969
H  H297  1  0.26870000  0.77560000  0.88030000  1.0 0.1629851969
H  H298  1  0.38030000  0.23130000  0.22440000  1.0 0.1629851969
H  H299  1  0.23130000  0.22440000  0.38030000  1.0 0.1629851969
H  H300  1  0.61970000  0.73130000  0.27560000  1.0 0.1629851969
H  H301  1  0.75650000  0.16030000  0.72910000  1.0 0.1661794999
H  H302  1  0.74350000  0.83970000  0.22910000  1.0 0.1661794999
H  H303  1  0.25650000  0.33970000  0.27090000  1.0 0.1661794999
H  H304  1  0.24350000  0.66030000  0.77090000  1.0 0.1661794999
H  H305  1  0.72910000  0.75650000  0.16030000  1.0 0.1661794999
H  H306  1  0.16030000  0.72910000  0.75650000  1.0 0.1661794999
H  H307  1  0.77090000  0.24350000  0.66030000  1.0 0.1661794999
H  H308  1  0.83970000  0.22910000  0.74350000  1.0 0.1661794999
H  H309  1  0.22910000  0.74350000  0.83970000  1.0 0.1661794999
H  H310  1  0.33970000  0.27090000  0.25650000  1.0 0.1661794999
H  H311  1  0.27090000  0.25650000  0.33970000  1.0 0.1661794999
H  H312  1  0.66030000  0.77090000  0.24350000  1.0 0.1661794999
H  H313  1  0.75730000  0.17010000  0.79350000  1.0 0.1661794999
H  H314  1  0.74270000  0.82990000  0.29350000  1.0 0.1661794999
H  H315  1  0.25730000  0.32990000  0.20650000  1.0 0.1661794999
H  H316  1  0.24270000  0.67010000  0.70650000  1.0 0.1661794999
H  H317  1  0.79350000  0.75730000  0.17010000  1.0 0.1661794999
H  H318  1  0.17010000  0.79350000  0.75730000  1.0 0.1661794999
H  H319  1  0.70650000  0.24270000  0.67010000  1.0 0.1661794999
H  H320  1  0.82990000  0.29350000  0.74270000  1.0 0.1661794999
H  H321  1  0.29350000  0.74270000  0.82990000  1.0 0.1661794999
H  H322  1  0.32990000  0.20650000  0.25730000  1.0 0.1661794999
H  H323  1  0.20650000  0.25730000  0.32990000  1.0 0.1661794999
H  H324  1  0.67010000  0.70650000  0.24270000  1.0 0.1661794999
C  C1  1  0.85820000  0.12970000  0.92320000  1.0 0.0466760583
C  C2  1  0.64180000  0.87030000  0.42320000  1.0 0.0466760583
C  C3  1  0.35820000  0.37030000  0.07680000  1.0 0.0466760583
C  C4  1  0.14180000  0.62970000  0.57680000  1.0 0.0466760583
C  C5  1  0.92320000  0.85820000  0.12970000  1.0 0.0466760583
C  C6  1  0.12970000  0.92320000  0.85820000  1.0 0.0466760583
C  C7  1  0.57680000  0.14180000  0.62970000  1.0 0.0466760583
C  C8  1  0.87030000  0.42320000  0.64180000  1.0 0.0466760583
C  C9  1  0.42320000  0.64180000  0.87030000  1.0 0.0466760583
C  C10  1  0.37030000  0.07680000  0.35820000  1.0 0.0466760583
C  C11  1  0.07680000  0.35820000  0.37030000  1.0 0.0466760583
C  C12  1  0.62970000  0.57680000  0.14180000  1.0 0.0466760583
C  C13  1  0.80630000  0.11740000  0.95480000  1.0 -0.2471010021
C  C14  1  0.69370000  0.88260000  0.45480000  1.0 -0.2471010021
C  C15  1  0.30630000  0.38260000  0.04520000  1.0 -0.2471010021
C  C16  1  0.19370000  0.61740000  0.54520000  1.0 -0.2471010021
C  C17  1  0.95480000  0.80630000  0.11740000  1.0 -0.2471010021
C  C18  1  0.11740000  0.95480000  0.80630000  1.0 -0.2471010021
C  C19  1  0.54520000  0.19370000  0.61740000  1.0 -0.2471010021
C  C20  1  0.88260000  0.45480000  0.69370000  1.0 -0.2471010021
C  C21  1  0.45480000  0.69370000  0.88260000  1.0 -0.2471010021
C  C22  1  0.38260000  0.04520000  0.30630000  1.0 -0.2471010021
C  C23  1  0.04520000  0.30630000  0.38260000  1.0 -0.2471010021
C  C24  1  0.61740000  0.54520000  0.19370000  1.0 -0.2471010021
C  C25  1  0.80940000  0.08390000  0.00970000  1.0 0.0422107316
C  C26  1  0.69060000  0.91610000  0.50970000  1.0 0.0422107316
C  C27  1  0.30940000  0.41610000  0.99030000  1.0 0.0422107316
C  C28  1  0.19060000  0.58390000  0.49030000  1.0 0.0422107316
C  C29  1  0.00970000  0.80940000  0.08390000  1.0 0.0422107316
C  C30  1  0.08390000  0.00970000  0.80940000  1.0 0.0422107316
C  C31  1  0.49030000  0.19060000  0.58390000  1.0 0.0422107316
C  C32  1  0.91610000  0.50970000  0.69060000  1.0 0.0422107316
C  C33  1  0.50970000  0.69060000  0.91610000  1.0 0.0422107316
C  C34  1  0.41610000  0.99030000  0.30940000  1.0 0.0422107316
C  C35  1  0.99030000  0.30940000  0.41610000  1.0 0.0422107316
C  C36  1  0.58390000  0.49030000  0.19060000  1.0 0.0422107316
C  C37  1  0.71830000  0.01060000  0.86580000  1.0 0.0422107316
C  C38  1  0.78170000  0.98940000  0.36580000  1.0 0.0422107316
C  C39  1  0.21830000  0.48940000  0.13420000  1.0 0.0422107316
C  C40  1  0.28170000  0.51060000  0.63420000  1.0 0.0422107316
C  C41  1  0.86580000  0.71830000  0.01060000  1.0 0.0422107316
C  C42  1  0.01060000  0.86580000  0.71830000  1.0 0.0422107316
C  C43  1  0.63420000  0.28170000  0.51060000  1.0 0.0422107316
C  C44  1  0.98940000  0.36580000  0.78170000  1.0 0.0422107316
C  C45  1  0.36580000  0.78170000  0.98940000  1.0 0.0422107316
C  C46  1  0.48940000  0.13420000  0.21830000  1.0 0.0422107316
C  C47  1  0.13420000  0.21830000  0.48940000  1.0 0.0422107316
C  C48  1  0.51060000  0.63420000  0.28170000  1.0 0.0422107316
C  C49  1  0.67760000  0.97870000  0.89760000  1.0 -0.2808877224
C  C50  1  0.82240000  0.02130000  0.39760000  1.0 -0.2808877224
C  C51  1  0.17760000  0.52130000  0.10240000  1.0 -0.2808877224
C  C52  1  0.32240000  0.47870000  0.60240000  1.0 -0.2808877224
C  C53  1  0.89760000  0.67760000  0.97870000  1.0 -0.2808877224
C  C54  1  0.97870000  0.89760000  0.67760000  1.0 -0.2808877224
C  C55  1  0.60240000  0.32240000  0.47870000  1.0 -0.2808877224
C  C56  1  0.02130000  0.39760000  0.82240000  1.0 -0.2808877224
C  C57  1  0.39760000  0.82240000  0.02130000  1.0 -0.2808877224
C  C58  1  0.52130000  0.10240000  0.17760000  1.0 -0.2808877224
C  C59  1  0.10240000  0.17760000  0.52130000  1.0 -0.2808877224
C  C60  1  0.47870000  0.60240000  0.32240000  1.0 -0.2808877224
C  C61  1  0.67830000  0.99120000  0.95750000  1.0 0.0325640004
C  C62  1  0.82170000  0.00880000  0.45750000  1.0 0.0325640004
C  C63  1  0.17830000  0.50880000  0.04250000  1.0 0.0325640004
C  C64  1  0.32170000  0.49120000  0.54250000  1.0 0.0325640004
C  C65  1  0.95750000  0.67830000  0.99120000  1.0 0.0325640004
C  C66  1  0.99120000  0.95750000  0.67830000  1.0 0.0325640004
C  C67  1  0.54250000  0.32170000  0.49120000  1.0 0.0325640004
C  C68  1  0.00880000  0.45750000  0.82170000  1.0 0.0325640004
C  C69  1  0.45750000  0.82170000  0.00880000  1.0 0.0325640004
C  C70  1  0.50880000  0.04250000  0.17830000  1.0 0.0325640004
C  C71  1  0.04250000  0.17830000  0.50880000  1.0 0.0325640004
C  C72  1  0.49120000  0.54250000  0.32170000  1.0 0.0325640004
C  C73  1  0.83540000  0.28620000  0.52950000  1.0 0.0325640004
C  C74  1  0.66460000  0.71380000  0.02950000  1.0 0.0325640004
C  C75  1  0.33540000  0.21380000  0.47050000  1.0 0.0325640004
C  C76  1  0.16460000  0.78620000  0.97050000  1.0 0.0325640004
C  C77  1  0.52950000  0.83540000  0.28620000  1.0 0.0325640004
C  C78  1  0.28620000  0.52950000  0.83540000  1.0 0.0325640004
C  C79  1  0.97050000  0.16460000  0.78620000  1.0 0.0325640004
C  C80  1  0.71380000  0.02950000  0.66460000  1.0 0.0325640004
C  C81  1  0.02950000  0.66460000  0.71380000  1.0 0.0325640004
C  C82  1  0.21380000  0.47050000  0.33540000  1.0 0.0325640004
C  C83  1  0.47050000  0.33540000  0.21380000  1.0 0.0325640004
C  C84  1  0.78620000  0.97050000  0.16460000  1.0 0.0325640004
C  C85  1  0.81360000  0.32290000  0.48510000  1.0 -0.2808877224
C  C86  1  0.68640000  0.67710000  0.98510000  1.0 -0.2808877224
C  C87  1  0.31360000  0.17710000  0.51490000  1.0 -0.2808877224
C  C88  1  0.18640000  0.82290000  0.01490000  1.0 -0.2808877224
C  C89  1  0.48510000  0.81360000  0.32290000  1.0 -0.2808877224
C  C90  1  0.32290000  0.48510000  0.81360000  1.0 -0.2808877224
C  C91  1  0.01490000  0.18640000  0.82290000  1.0 -0.2808877224
C  C92  1  0.67710000  0.98510000  0.68640000  1.0 -0.2808877224
C  C93  1  0.98510000  0.68640000  0.67710000  1.0 -0.2808877224
C  C94  1  0.17710000  0.51490000  0.31360000  1.0 -0.2808877224
C  C95  1  0.51490000  0.31360000  0.17710000  1.0 -0.2808877224
C  C96  1  0.82290000  0.01490000  0.18640000  1.0 -0.2808877224
C  C97  1  0.82710000  0.38200000  0.47610000  1.0 0.0325640004
C  C98  1  0.67290000  0.61800000  0.97610000  1.0 0.0325640004
C  C99  1  0.32710000  0.11800000  0.52390000  1.0 0.0325640004
C  C100  1  0.17290000  0.88200000  0.02390000  1.0 0.0325640004
C  C101  1  0.47610000  0.82710000  0.38200000  1.0 0.0325640004
C  C102  1  0.38200000  0.47610000  0.82710000  1.0 0.0325640004
C  C103  1  0.02390000  0.17290000  0.88200000  1.0 0.0325640004
C  C104  1  0.61800000  0.97610000  0.67290000  1.0 0.0325640004
C  C105  1  0.97610000  0.67290000  0.61800000  1.0 0.0325640004
C  C106  1  0.11800000  0.52390000  0.32710000  1.0 0.0325640004
C  C107  1  0.52390000  0.32710000  0.11800000  1.0 0.0325640004
C  C108  1  0.88200000  0.02390000  0.17290000  1.0 0.0325640004
C  C109  1  0.83350000  0.91460000  0.77400000  1.0 0.6636785262
C  C110  1  0.66650000  0.08540000  0.27400000  1.0 0.6636785262
C  C111  1  0.33350000  0.58540000  0.22600000  1.0 0.6636785262
C  C112  1  0.16650000  0.41460000  0.72600000  1.0 0.6636785262
C  C113  1  0.77400000  0.83350000  0.91460000  1.0 0.6636785262
C  C114  1  0.91460000  0.77400000  0.83350000  1.0 0.6636785262
C  C115  1  0.72600000  0.16650000  0.41460000  1.0 0.6636785262
C  C116  1  0.08540000  0.27400000  0.66650000  1.0 0.6636785262
C  C117  1  0.27400000  0.66650000  0.08540000  1.0 0.6636785262
C  C118  1  0.58540000  0.22600000  0.33350000  1.0 0.6636785262
C  C119  1  0.22600000  0.33350000  0.58540000  1.0 0.6636785262
C  C120  1  0.41460000  0.72600000  0.16650000  1.0 0.6636785262
C  C121  1  0.80560000  0.87970000  0.73250000  1.0 -0.6005879051
C  C122  1  0.69440000  0.12030000  0.23250000  1.0 -0.6005879051
C  C123  1  0.30560000  0.62030000  0.26750000  1.0 -0.6005879051
C  C124  1  0.19440000  0.37970000  0.76750000  1.0 -0.6005879051
C  C125  1  0.73250000  0.80560000  0.87970000  1.0 -0.6005879051
C  C126  1  0.87970000  0.73250000  0.80560000  1.0 -0.6005879051
C  C127  1  0.76750000  0.19440000  0.37970000  1.0 -0.6005879051
C  C128  1  0.12030000  0.23250000  0.69440000  1.0 -0.6005879051
C  C129  1  0.23250000  0.69440000  0.12030000  1.0 -0.6005879051
C  C130  1  0.62030000  0.26750000  0.30560000  1.0 -0.6005879051
C  C131  1  0.26750000  0.30560000  0.62030000  1.0 -0.6005879051
C  C132  1  0.37970000  0.76750000  0.19440000  1.0 -0.6005879051
C  C133  1  0.87140000  0.15280000  0.50800000  1.0 0.6984387034
C  C134  1  0.62860000  0.84720000  0.00800000  1.0 0.6984387034
C  C135  1  0.37140000  0.34720000  0.49200000  1.0 0.6984387034
C  C136  1  0.12860000  0.65280000  0.99200000  1.0 0.6984387034
C  C137  1  0.50800000  0.87140000  0.15280000  1.0 0.6984387034
C  C138  1  0.15280000  0.50800000  0.87140000  1.0 0.6984387034
C  C139  1  0.99200000  0.12860000  0.65280000  1.0 0.6984387034
C  C140  1  0.84720000  0.00800000  0.62860000  1.0 0.6984387034
C  C141  1  0.00800000  0.62860000  0.84720000  1.0 0.6984387034
C  C142  1  0.34720000  0.49200000  0.37140000  1.0 0.6984387034
C  C143  1  0.49200000  0.37140000  0.34720000  1.0 0.6984387034
C  C144  1  0.65280000  0.99200000  0.12860000  1.0 0.6984387034
C  C145  1  0.90250000  0.16930000  0.45610000  1.0 -0.6199469937
C  C146  1  0.59750000  0.83070000  0.95610000  1.0 -0.6199469937
C  C147  1  0.40250000  0.33070000  0.54390000  1.0 -0.6199469937
C  C148  1  0.09750000  0.66930000  0.04390000  1.0 -0.6199469937
C  C149  1  0.45610000  0.90250000  0.16930000  1.0 -0.6199469937
C  C150  1  0.16930000  0.45610000  0.90250000  1.0 -0.6199469937
C  C151  1  0.04390000  0.09750000  0.66930000  1.0 -0.6199469937
C  C152  1  0.83070000  0.95610000  0.59750000  1.0 -0.6199469937
C  C153  1  0.95610000  0.59750000  0.83070000  1.0 -0.6199469937
C  C154  1  0.33070000  0.54390000  0.40250000  1.0 -0.6199469937
C  C155  1  0.54390000  0.40250000  0.33070000  1.0 -0.6199469937
C  C156  1  0.66930000  0.04390000  0.09750000  1.0 -0.6199469937
C  C157  1  0.80650000  0.10770000  0.76940000  1.0 0.6795915359
C  C158  1  0.69350000  0.89230000  0.26940000  1.0 0.6795915359
C  C159  1  0.30650000  0.39230000  0.23060000  1.0 0.6795915359
C  C160  1  0.19350000  0.60770000  0.73060000  1.0 0.6795915359
C  C161  1  0.76940000  0.80650000  0.10770000  1.0 0.6795915359
C  C162  1  0.10770000  0.76940000  0.80650000  1.0 0.6795915359
C  C163  1  0.73060000  0.19350000  0.60770000  1.0 0.6795915359
C  C164  1  0.89230000  0.26940000  0.69350000  1.0 0.6795915359
C  C165  1  0.26940000  0.69350000  0.89230000  1.0 0.6795915359
C  C166  1  0.39230000  0.23060000  0.30650000  1.0 0.6795915359
C  C167  1  0.23060000  0.30650000  0.39230000  1.0 0.6795915359
C  C168  1  0.60770000  0.73060000  0.19350000  1.0 0.6795915359
C  C169  1  0.75690000  0.14240000  0.76480000  1.0 -0.6199469937
C  C170  1  0.74310000  0.85760000  0.26480000  1.0 -0.6199469937
C  C171  1  0.25690000  0.35760000  0.23520000  1.0 -0.6199469937
C  C172  1  0.24310000  0.64240000  0.73520000  1.0 -0.6199469937
C  C173  1  0.76480000  0.75690000  0.14240000  1.0 -0.6199469937
C  C174  1  0.14240000  0.76480000  0.75690000  1.0 -0.6199469937
C  C175  1  0.73520000  0.24310000  0.64240000  1.0 -0.6199469937
C  C176  1  0.85760000  0.26480000  0.74310000  1.0 -0.6199469937
C  C177  1  0.26480000  0.74310000  0.85760000  1.0 -0.6199469937
C  C178  1  0.35760000  0.23520000  0.25690000  1.0 -0.6199469937
C  C179  1  0.23520000  0.25690000  0.35760000  1.0 -0.6199469937
C  C180  1  0.64240000  0.73520000  0.24310000  1.0 -0.6199469937
O  O1  1  0.88500000  0.07830000  0.90710000  1.0 -0.5088731812
O  O2  1  0.61500000  0.92170000  0.40710000  1.0 -0.5088731812
O  O3  1  0.38500000  0.42170000  0.09290000  1.0 -0.5088731812
O  O4  1  0.11500000  0.57830000  0.59290000  1.0 -0.5088731812
O  O5  1  0.90710000  0.88500000  0.07830000  1.0 -0.5088731812
O  O6  1  0.07830000  0.90710000  0.88500000  1.0 -0.5088731812
O  O7  1  0.59290000  0.11500000  0.57830000  1.0 -0.5088731812
O  O8  1  0.92170000  0.40710000  0.61500000  1.0 -0.5088731812
O  O9  1  0.40710000  0.61500000  0.92170000  1.0 -0.5088731812
O  O10  1  0.42170000  0.09290000  0.38500000  1.0 -0.5088731812
O  O11  1  0.09290000  0.38500000  0.42170000  1.0 -0.5088731812
O  O12  1  0.57830000  0.59290000  0.11500000  1.0 -0.5088731812
O  O13  1  0.83530000  0.03080000  0.00050000  1.0 -0.5011688332
O  O14  1  0.66470000  0.96920000  0.50050000  1.0 -0.5011688332
O  O15  1  0.33530000  0.46920000  0.99950000  1.0 -0.5011688332
O  O16  1  0.16470000  0.53080000  0.49950000  1.0 -0.5011688332
O  O17  1  0.00050000  0.83530000  0.03080000  1.0 -0.5011688332
O  O18  1  0.03080000  0.00050000  0.83530000  1.0 -0.5011688332
O  O19  1  0.49950000  0.16470000  0.53080000  1.0 -0.5011688332
O  O20  1  0.96920000  0.50050000  0.66470000  1.0 -0.5011688332
O  O21  1  0.50050000  0.66470000  0.96920000  1.0 -0.5011688332
O  O22  1  0.46920000  0.99950000  0.33530000  1.0 -0.5011688332
O  O23  1  0.99950000  0.33530000  0.46920000  1.0 -0.5011688332
O  O24  1  0.53080000  0.49950000  0.16470000  1.0 -0.5011688332
O  O25  1  0.77260000  0.00530000  0.88640000  1.0 -0.5011688332
O  O26  1  0.72740000  0.99470000  0.38640000  1.0 -0.5011688332
O  O27  1  0.27260000  0.49470000  0.11360000  1.0 -0.5011688332
O  O28  1  0.22740000  0.50530000  0.61360000  1.0 -0.5011688332
O  O29  1  0.88640000  0.77260000  0.00530000  1.0 -0.5011688332
O  O30  1  0.00530000  0.88640000  0.77260000  1.0 -0.5011688332
O  O31  1  0.61360000  0.22740000  0.50530000  1.0 -0.5011688332
O  O32  1  0.99470000  0.38640000  0.72740000  1.0 -0.5011688332
O  O33  1  0.38640000  0.72740000  0.99470000  1.0 -0.5011688332
O  O34  1  0.49470000  0.11360000  0.27260000  1.0 -0.5011688332
O  O35  1  0.11360000  0.27260000  0.49470000  1.0 -0.5011688332
O  O36  1  0.50530000  0.61360000  0.22740000  1.0 -0.5011688332
O  O37  1  0.72760000  0.97100000  0.98570000  1.0 -0.5241194175
O  O38  1  0.77240000  0.02900000  0.48570000  1.0 -0.5241194175
O  O39  1  0.22760000  0.52900000  0.01430000  1.0 -0.5241194175
O  O40  1  0.27240000  0.47100000  0.51430000  1.0 -0.5241194175
O  O41  1  0.98570000  0.72760000  0.97100000  1.0 -0.5241194175
O  O42  1  0.97100000  0.98570000  0.72760000  1.0 -0.5241194175
O  O43  1  0.51430000  0.27240000  0.47100000  1.0 -0.5241194175
O  O44  1  0.02900000  0.48570000  0.77240000  1.0 -0.5241194175
O  O45  1  0.48570000  0.77240000  0.02900000  1.0 -0.5241194175
O  O46  1  0.52900000  0.01430000  0.22760000  1.0 -0.5241194175
O  O47  1  0.01430000  0.22760000  0.52900000  1.0 -0.5241194175
O  O48  1  0.47100000  0.51430000  0.27240000  1.0 -0.5241194175
O  O49  1  0.89170000  0.29110000  0.53990000  1.0 -0.5011688332
O  O50  1  0.60830000  0.70890000  0.03990000  1.0 -0.5011688332
O  O51  1  0.39170000  0.20890000  0.46010000  1.0 -0.5011688332
O  O52  1  0.10830000  0.79110000  0.96010000  1.0 -0.5088731812
O  O53  1  0.53990000  0.89170000  0.29110000  1.0 -0.5088731812
O  O54  1  0.29110000  0.53990000  0.89170000  1.0 -0.5088731812
O  O55  1  0.96010000  0.10830000  0.79110000  1.0 -0.5011688332
O  O56  1  0.70890000  0.03990000  0.60830000  1.0 -0.5011688332
O  O57  1  0.03990000  0.60830000  0.70890000  1.0 -0.5011688332
O  O58  1  0.20890000  0.46010000  0.39170000  1.0 -0.5011688332
O  O59  1  0.46010000  0.39170000  0.20890000  1.0 -0.5011688332
O  O60  1  0.79110000  0.96010000  0.10830000  1.0 -0.5011688332
O  O61  1  0.88360000  0.39360000  0.48880000  1.0 -0.5011688332
O  O62  1  0.61640000  0.60640000  0.98880000  1.0 -0.5011688332
O  O63  1  0.38360000  0.10640000  0.51120000  1.0 -0.5011688332
O  O64  1  0.11640000  0.89360000  0.01120000  1.0 -0.5011688332
O  O65  1  0.48880000  0.88360000  0.39360000  1.0 -0.5011688332
O  O66  1  0.39360000  0.48880000  0.88360000  1.0 -0.5011688332
O  O67  1  0.01120000  0.11640000  0.89360000  1.0 -0.5011688332
O  O68  1  0.60640000  0.98880000  0.61640000  1.0 -0.5011688332
O  O69  1  0.98880000  0.61640000  0.60640000  1.0 -0.5011688332
O  O70  1  0.10640000  0.51120000  0.38360000  1.0 -0.5011688332
O  O71  1  0.51120000  0.38360000  0.10640000  1.0 -0.5011688332
O  O72  1  0.89360000  0.01120000  0.11640000  1.0 -0.5011688332
O  O73  1  0.81190000  0.96040000  0.78680000  1.0 -0.5327164985
O  O74  1  0.68810000  0.03960000  0.28680000  1.0 -0.5327164985
O  O75  1  0.31190000  0.53960000  0.21320000  1.0 -0.5327164985
O  O76  1  0.18810000  0.46040000  0.71320000  1.0 -0.5327164985
O  O77  1  0.78680000  0.81190000  0.96040000  1.0 -0.5327164985
O  O78  1  0.96040000  0.78680000  0.81190000  1.0 -0.5327164985
O  O79  1  0.71320000  0.18810000  0.46040000  1.0 -0.5327164985
O  O80  1  0.03960000  0.28680000  0.68810000  1.0 -0.5327164985
O  O81  1  0.28680000  0.68810000  0.03960000  1.0 -0.5327164985
O  O82  1  0.53960000  0.21320000  0.31190000  1.0 -0.5327164985
O  O83  1  0.21320000  0.31190000  0.53960000  1.0 -0.5327164985
O  O84  1  0.46040000  0.71320000  0.18810000  1.0 -0.5327164985
O  O85  1  0.87900000  0.89900000  0.79540000  1.0 -0.5855053074
O  O86  1  0.62100000  0.10100000  0.29540000  1.0 -0.5855053074
O  O87  1  0.37900000  0.60100000  0.20460000  1.0 -0.5855053074
O  O88  1  0.12100000  0.39900000  0.70460000  1.0 -0.5855053074
O  O89  1  0.79540000  0.87900000  0.89900000  1.0 -0.5855053074
O  O90  1  0.89900000  0.79540000  0.87900000  1.0 -0.5855053074
O  O91  1  0.70460000  0.12100000  0.39900000  1.0 -0.5855053074
O  O92  1  0.10100000  0.29540000  0.62100000  1.0 -0.5855053074
O  O93  1  0.29540000  0.62100000  0.10100000  1.0 -0.5855053074
O  O94  1  0.60100000  0.20460000  0.37900000  1.0 -0.5855053074
O  O95  1  0.20460000  0.37900000  0.60100000  1.0 -0.5855053074
O  O96  1  0.39900000  0.70460000  0.12100000  1.0 -0.5855053074
O  O97  1  0.89210000  0.16560000  0.55460000  1.0 -0.6489929514
O  O98  1  0.60790000  0.83440000  0.05460000  1.0 -0.6489929514
O  O99  1  0.39210000  0.33440000  0.44540000  1.0 -0.6489929514
O  O100  1  0.10790000  0.66560000  0.94540000  1.0 -0.6489929514
O  O101  1  0.55460000  0.89210000  0.16560000  1.0 -0.6489929514
O  O102  1  0.16560000  0.55460000  0.89210000  1.0 -0.6489929514
O  O103  1  0.94540000  0.10790000  0.66560000  1.0 -0.6489929514
O  O104  1  0.83440000  0.05460000  0.60790000  1.0 -0.6489929514
O  O105  1  0.05460000  0.60790000  0.83440000  1.0 -0.6489929514
O  O106  1  0.33440000  0.44540000  0.39210000  1.0 -0.6489929514
O  O107  1  0.44540000  0.39210000  0.33440000  1.0 -0.6489929514
O  O108  1  0.66560000  0.94540000  0.10790000  1.0 -0.6489929514
O  O109  1  0.82480000  0.13020000  0.50220000  1.0 -0.5631074018
O  O110  1  0.67520000  0.86980000  0.00220000  1.0 -0.5631074018
O  O111  1  0.32480000  0.36980000  0.49780000  1.0 -0.5631074018
O  O112  1  0.17520000  0.63020000  0.99780000  1.0 -0.5631074018
O  O113  1  0.50220000  0.82480000  0.13020000  1.0 -0.5631074018
O  O114  1  0.13020000  0.50220000  0.82480000  1.0 -0.5631074018
O  O115  1  0.99780000  0.17520000  0.63020000  1.0 -0.5631074018
O  O116  1  0.86980000  0.00220000  0.67520000  1.0 -0.5631074018
O  O117  1  0.00220000  0.67520000  0.86980000  1.0 -0.5631074018
O  O118  1  0.36980000  0.49780000  0.32480000  1.0 -0.5631074018
O  O119  1  0.49780000  0.32480000  0.36980000  1.0 -0.5631074018
O  O120  1  0.63020000  0.99780000  0.17520000  1.0 -0.5631074018
O  O121  1  0.84440000  0.10880000  0.73220000  1.0 -0.6199469937
O  O122  1  0.65560000  0.89120000  0.23220000  1.0 -0.6199469937
O  O123  1  0.34440000  0.39120000  0.26780000  1.0 -0.6199469937
O  O124  1  0.15560000  0.60880000  0.76780000  1.0 -0.6199469937
O  O125  1  0.73220000  0.84440000  0.10880000  1.0 -0.6199469937
O  O126  1  0.10880000  0.73220000  0.84440000  1.0 -0.6199469937
O  O127  1  0.76780000  0.15560000  0.60880000  1.0 -0.6199469937
O  O128  1  0.89120000  0.23220000  0.65560000  1.0 -0.6199469937
O  O129  1  0.23220000  0.65560000  0.89120000  1.0 -0.6199469937
O  O130  1  0.39120000  0.26780000  0.34440000  1.0 -0.6199469937
O  O131  1  0.26780000  0.34440000  0.39120000  1.0 -0.6199469937
O  O132  1  0.60880000  0.76780000  0.15560000  1.0 -0.6199469937
O  O133  1  0.81050000  0.07680000  0.81100000  1.0 -0.5327164985
O  O134  1  0.68950000  0.92320000  0.31100000  1.0 -0.5327164985
O  O135  1  0.31050000  0.42320000  0.18900000  1.0 -0.5327164985
O  O136  1  0.18950000  0.57680000  0.68900000  1.0 -0.5327164985
O  O137  1  0.81100000  0.81050000  0.07680000  1.0 -0.5327164985
O  O138  1  0.07680000  0.81100000  0.81050000  1.0 -0.5327164985
O  O139  1  0.68900000  0.18950000  0.57680000  1.0 -0.5327164985
O  O140  1  0.92320000  0.31100000  0.68950000  1.0 -0.5327164985
O  O141  1  0.31100000  0.68950000  0.92320000  1.0 -0.5327164985
O  O142  1  0.42320000  0.18900000  0.31050000  1.0 -0.5327164985
O  O143  1  0.18900000  0.31050000  0.42320000  1.0 -0.5327164985
O  O144  1  0.57680000  0.68900000  0.18950000  1.0 -0.5327164985
O  O145  1  0.96020000  0.53980000  0.46020000  1.0 -0.8579285748
O  O146  1  0.53980000  0.46020000  0.96020000  1.0 -0.8579285748
O  O147  1  0.46020000  0.96020000  0.53980000  1.0 -0.8579285748
O  O148  1  0.03980000  0.03980000  0.03980000  1.0 -0.8579285748
O  O149  1  0.94280000  0.09360000  0.01780000  1.0 -0.639981802
O  O150  1  0.55720000  0.90640000  0.51780000  1.0 -0.639981802
O  O151  1  0.44280000  0.40640000  0.98220000  1.0 -0.639981802
O  O152  1  0.05720000  0.59360000  0.48220000  1.0 -0.639981802
O  O153  1  0.01780000  0.94280000  0.09360000  1.0 -0.639981802
O  O154  1  0.09360000  0.01780000  0.94280000  1.0 -0.639981802
O  O155  1  0.48220000  0.05720000  0.59360000  1.0 -0.639981802
O  O156  1  0.90640000  0.51780000  0.55720000  1.0 -0.639981802
O  O157  1  0.51780000  0.55720000  0.90640000  1.0 -0.639981802
O  O158  1  0.40640000  0.98220000  0.44280000  1.0 -0.639981802
O  O159  1  0.98220000  0.44280000  0.40640000  1.0 -0.639981802
O  O160  1  0.59360000  0.48220000  0.05720000  1.0 -0.639981802
O  O161  1  0.91810000  0.01410000  0.81680000  1.0 -0.8028570147
O  O162  1  0.58190000  0.98590000  0.31680000  1.0 -0.8028570147
O  O163  1  0.41810000  0.48590000  0.18320000  1.0 -0.8028570147
O  O164  1  0.08190000  0.51410000  0.68320000  1.0 -0.8028570147
O  O165  1  0.81680000  0.91810000  0.01410000  1.0 -0.8028570147
O  O166  1  0.01410000  0.81680000  0.91810000  1.0 -0.8028570147
O  O167  1  0.68320000  0.08190000  0.51410000  1.0 -0.8028570147
O  O168  1  0.98590000  0.31680000  0.58190000  1.0 -0.8028570147
O  O169  1  0.31680000  0.58190000  0.98590000  1.0 -0.8028570147
O  O170  1  0.48590000  0.18320000  0.41810000  1.0 -0.8028570147
O  O171  1  0.18320000  0.41810000  0.48590000  1.0 -0.8028570147
O  O172  1  0.51410000  0.68320000  0.08190000  1.0 -0.8028570147
O  O173  1  0.86560000  0.96730000  0.91140000  1.0 -0.8028570147
O  O174  1  0.63440000  0.03270000  0.41140000  1.0 -0.8028570147
O  O175  1  0.36560000  0.53270000  0.08860000  1.0 -0.8028570147
O  O176  1  0.13440000  0.46730000  0.58860000  1.0 -0.8028570147
O  O177  1  0.91140000  0.86560000  0.96730000  1.0 -0.8028570147
O  O178  1  0.96730000  0.91140000  0.86560000  1.0 -0.8028570147
O  O179  1  0.58860000  0.13440000  0.46730000  1.0 -0.8028570147
O  O180  1  0.03270000  0.41140000  0.63440000  1.0 -0.8028570147
O  O181  1  0.41140000  0.63440000  0.03270000  1.0 -0.8028570147
O  O182  1  0.53270000  0.08860000  0.36560000  1.0 -0.8028570147
O  O183  1  0.08860000  0.36560000  0.53270000  1.0 -0.8028570147
O  O184  1  0.46730000  0.58860000  0.13440000  1.0 -0.8028570147
O  O185  1  0.92460000  0.97570000  0.02200000  1.0 -0.7487471706
O  O186  1  0.57540000  0.02430000  0.52200000  1.0 -0.7487471706
O  O187  1  0.42460000  0.52430000  0.97800000  1.0 -0.7487471706
O  O188  1  0.07540000  0.47570000  0.47800000  1.0 -0.7487471706
O  O189  1  0.02200000  0.92460000  0.97570000  1.0 -0.7487471706
O  O190  1  0.97570000  0.02200000  0.92460000  1.0 -0.7487471706
O  O191  1  0.47800000  0.07540000  0.47570000  1.0 -0.7487471706
O  O192  1  0.02430000  0.52200000  0.57540000  1.0 -0.7487471706
O  O193  1  0.52200000  0.57540000  0.02430000  1.0 -0.7487471706
O  O194  1  0.52430000  0.97800000  0.42460000  1.0 -0.7487471706
O  O195  1  0.97800000  0.42460000  0.52430000  1.0 -0.7487471706
O  O196  1  0.47570000  0.47800000  0.07540000  1.0 -0.7487471706
O  O197  1  0.84840000  0.49630000  0.41660000  1.0 -0.1205852603
O  O198  1  0.65160000  0.50370000  0.91660000  1.0 -0.1205852603
O  O199  1  0.34840000  0.00370000  0.58340000  1.0 -0.1205852603
O  O200  1  0.15160000  0.99630000  0.08340000  1.0 -0.1205852603
O  O201  1  0.41660000  0.84840000  0.49630000  1.0 -0.1205852603
O  O202  1  0.49630000  0.41660000  0.84840000  1.0 -0.1205852603
O  O203  1  0.08340000  0.15160000  0.99630000  1.0 -0.1205852603
O  O204  1  0.50370000  0.91660000  0.65160000  1.0 -0.1205852603
O  O205  1  0.91660000  0.65160000  0.50370000  1.0 -0.1205852603
O  O206  1  0.00370000  0.58340000  0.34840000  1.0 -0.1205852603
O  O207  1  0.58340000  0.34840000  0.00370000  1.0 -0.1205852603
O  O208  1  0.99630000  0.08340000  0.15160000  1.0 -0.1205852603
O  O209  1  0.54130000  0.89080000  0.62430000  1.0 -0.0941145278
O  O210  1  0.95870000  0.10920000  0.12430000  1.0 -0.0941145278
O  O211  1  0.04130000  0.60920000  0.37570000  1.0 -0.0941145278
O  O212  1  0.45870000  0.39080000  0.87570000  1.0 -0.0941145278
O  O213  1  0.62430000  0.54130000  0.89080000  1.0 -0.0941145278
O  O214  1  0.89080000  0.62430000  0.54130000  1.0 -0.0941145278
O  O215  1  0.87570000  0.45870000  0.39080000  1.0 -0.0941145278
O  O216  1  0.10920000  0.12430000  0.95870000  1.0 -0.0941145278
O  O217  1  0.12430000  0.95870000  0.10920000  1.0 -0.0941145278
O  O218  1  0.60920000  0.37570000  0.04130000  1.0 -0.0941145278
O  O219  1  0.37570000  0.04130000  0.60920000  1.0 -0.0941145278
O  O220  1  0.39080000  0.87570000  0.45870000  1.0 -0.0941145278
