# DDEC6 charges by PACMAN v1.1 (https://github.com/mtap-research/PACMAN-charge/)
data_GESBOW_FSR_pacman
_symmetry_space_group_name_H-M   'P 1'
_cell_length_a   24.43320000
_cell_length_b   24.43320000
_cell_length_c   24.43320000
_cell_angle_alpha   90.00000000
_cell_angle_beta   90.00000000
_cell_angle_gamma   90.00000000
_symmetry_Int_Tables_number   1
_chemical_formula_structural   NaMn19H135(C12O11)5
_chemical_formula_sum   'Na4 Mn76 H540 C240 O220'
_cell_volume   14586.16257656
_cell_formula_units_Z   4
loop_
 _symmetry_equiv_pos_site_id
 _symmetry_equiv_pos_as_xyz
  1  'x, y, z'
loop_
 _atom_site_type_symbol
 _atom_site_label
 _atom_site_symmetry_multiplicity
 _atom_site_fract_x
 _atom_site_fract_y
 _atom_site_fract_z
 _atom_site_occupancy
 _atom_site_charge
Na  Na1  1  0.40302000  0.09698000  0.90302000  1.0 0.8573635725
Na  Na2  1  0.09698000  0.90302000  0.40302000  1.0 0.8573635725
Na  Na3  1  0.59698000  0.59698000  0.59698000  1.0 0.8573635725
Na  Na4  1  0.90302000  0.40302000  0.09698000  1.0 0.8573635725
Mn  Mn1  1  0.26317000  0.08992000  0.10611000  1.0 1.0295687823
Mn  Mn2  1  0.23683000  0.91008000  0.60611000  1.0 1.0295687823
Mn  Mn3  1  0.73683000  0.58992000  0.39389000  1.0 1.0295687823
Mn  Mn4  1  0.76317000  0.41008000  0.89389000  1.0 1.0295687823
Mn  Mn5  1  0.10611000  0.26317000  0.08992000  1.0 1.0295687823
Mn  Mn6  1  0.60611000  0.23683000  0.91008000  1.0 1.0295687823
Mn  Mn7  1  0.39389000  0.73683000  0.58992000  1.0 1.0295687823
Mn  Mn8  1  0.89389000  0.76317000  0.41008000  1.0 1.0295687823
Mn  Mn9  1  0.08992000  0.10611000  0.26317000  1.0 1.0295687823
Mn  Mn10  1  0.91008000  0.60611000  0.23683000  1.0 1.0295687823
Mn  Mn11  1  0.58992000  0.39389000  0.73683000  1.0 1.0295687823
Mn  Mn12  1  0.41008000  0.89389000  0.76317000  1.0 1.0295687823
Mn  Mn13  1  0.13875000  0.13875000  0.13875000  1.0 1.1057245044
Mn  Mn14  1  0.36125000  0.86125000  0.63875000  1.0 1.1057245044
Mn  Mn15  1  0.86125000  0.63875000  0.36125000  1.0 1.1057245044
Mn  Mn16  1  0.63875000  0.36125000  0.86125000  1.0 1.1057245044
Mn  Mn17  1  0.20617000  0.04726000  0.20556000  1.0 0.9812816191
Mn  Mn18  1  0.29383000  0.95274000  0.70556000  1.0 0.9812816191
Mn  Mn19  1  0.79383000  0.54726000  0.29444000  1.0 0.9812816191
Mn  Mn20  1  0.70617000  0.45274000  0.79444000  1.0 0.9812816191
Mn  Mn21  1  0.20556000  0.20617000  0.04726000  1.0 0.9812816191
Mn  Mn22  1  0.70556000  0.29383000  0.95274000  1.0 0.9812816191
Mn  Mn23  1  0.29444000  0.79383000  0.54726000  1.0 0.9812816191
Mn  Mn24  1  0.79444000  0.70617000  0.45274000  1.0 0.9812816191
Mn  Mn25  1  0.04726000  0.20556000  0.20617000  1.0 0.9812816191
Mn  Mn26  1  0.95274000  0.70556000  0.29383000  1.0 0.9812816191
Mn  Mn27  1  0.54726000  0.29444000  0.79383000  1.0 0.9812816191
Mn  Mn28  1  0.45274000  0.79444000  0.70617000  1.0 0.9812816191
Mn  Mn29  1  0.27212000  0.15505000  0.21695000  1.0 1.1057245044
Mn  Mn30  1  0.22788000  0.84495000  0.71695000  1.0 1.1057245044
Mn  Mn31  1  0.72788000  0.65505000  0.28305000  1.0 1.1057245044
Mn  Mn32  1  0.77212000  0.34495000  0.78305000  1.0 1.1057245044
Mn  Mn33  1  0.21695000  0.27212000  0.15505000  1.0 1.1057245044
Mn  Mn34  1  0.71695000  0.22788000  0.84495000  1.0 1.1057245044
Mn  Mn35  1  0.28305000  0.72788000  0.65505000  1.0 1.1057245044
Mn  Mn36  1  0.78305000  0.77212000  0.34495000  1.0 1.1057245044
Mn  Mn37  1  0.15505000  0.21695000  0.27212000  1.0 1.1057245044
Mn  Mn38  1  0.84495000  0.71695000  0.22788000  1.0 1.1057245044
Mn  Mn39  1  0.65505000  0.28305000  0.72788000  1.0 1.1057245044
Mn  Mn40  1  0.34495000  0.78305000  0.77212000  1.0 1.1057245044
Mn  Mn41  1  0.34385000  0.01166000  0.81257000  1.0 0.9993363825
Mn  Mn42  1  0.15615000  0.98834000  0.31257000  1.0 0.9993363825
Mn  Mn43  1  0.65615000  0.51166000  0.68743000  1.0 0.9993363825
Mn  Mn44  1  0.84385000  0.48834000  0.18743000  1.0 0.9993363825
Mn  Mn45  1  0.81257000  0.34385000  0.01166000  1.0 0.9993363825
Mn  Mn46  1  0.31257000  0.15615000  0.98834000  1.0 0.9993363825
Mn  Mn47  1  0.68743000  0.65615000  0.51166000  1.0 0.9993363825
Mn  Mn48  1  0.18743000  0.84385000  0.48834000  1.0 0.9993363825
Mn  Mn49  1  0.01166000  0.81257000  0.34385000  1.0 0.9993363825
Mn  Mn50  1  0.98834000  0.31257000  0.15615000  1.0 0.9993363825
Mn  Mn51  1  0.51166000  0.68743000  0.65615000  1.0 0.9993363825
Mn  Mn52  1  0.48834000  0.18743000  0.84385000  1.0 0.9993363825
Mn  Mn53  1  0.31826000  0.20867000  0.11201000  1.0 1.0404992012
Mn  Mn54  1  0.18174000  0.79133000  0.61201000  1.0 1.0404992012
Mn  Mn55  1  0.68174000  0.70867000  0.38799000  1.0 1.0404992012
Mn  Mn56  1  0.81826000  0.29133000  0.88799000  1.0 1.0404992012
Mn  Mn57  1  0.11201000  0.31826000  0.20867000  1.0 1.0404992012
Mn  Mn58  1  0.61201000  0.18174000  0.79133000  1.0 1.0404992012
Mn  Mn59  1  0.38799000  0.68174000  0.70867000  1.0 1.0404992012
Mn  Mn60  1  0.88799000  0.81826000  0.29133000  1.0 1.0404992012
Mn  Mn61  1  0.20867000  0.11201000  0.31826000  1.0 1.0404992012
Mn  Mn62  1  0.79133000  0.61201000  0.18174000  1.0 1.0404992012
Mn  Mn63  1  0.70867000  0.38799000  0.68174000  1.0 1.0404992012
Mn  Mn64  1  0.29133000  0.88799000  0.81826000  1.0 1.0404992012
Mn  Mn65  1  0.22455000  0.77708000  0.83298000  1.0 1.0707135407
Mn  Mn66  1  0.27545000  0.22292000  0.33298000  1.0 1.0707135407
Mn  Mn67  1  0.77545000  0.27708000  0.66702000  1.0 1.0707135407
Mn  Mn68  1  0.72455000  0.72292000  0.16702000  1.0 1.0707135407
Mn  Mn69  1  0.83298000  0.22455000  0.77708000  1.0 1.0707135407
Mn  Mn70  1  0.33298000  0.27545000  0.22292000  1.0 1.0707135407
Mn  Mn71  1  0.66702000  0.77545000  0.27708000  1.0 1.0707135407
Mn  Mn72  1  0.16702000  0.72455000  0.72292000  1.0 1.0707135407
Mn  Mn73  1  0.77708000  0.83298000  0.22455000  1.0 1.0707135407
Mn  Mn74  1  0.22292000  0.33298000  0.27545000  1.0 1.0707135407
Mn  Mn75  1  0.27708000  0.66702000  0.77545000  1.0 1.0707135407
Mn  Mn76  1  0.72292000  0.16702000  0.72455000  1.0 1.0707135407
H  H1  1  0.39700000  0.12980000  0.20240000  1.0 0.0923780565
H  H2  1  0.10300000  0.87020000  0.70240000  1.0 0.0923780565
H  H3  1  0.60300000  0.62980000  0.29760000  1.0 0.0923780565
H  H4  1  0.89700000  0.37020000  0.79760000  1.0 0.0923780565
H  H5  1  0.20240000  0.39700000  0.12980000  1.0 0.0923780565
H  H6  1  0.70240000  0.10300000  0.87020000  1.0 0.0923780565
H  H7  1  0.29760000  0.60300000  0.62980000  1.0 0.0923780565
H  H8  1  0.79760000  0.89700000  0.37020000  1.0 0.0923780565
H  H9  1  0.12980000  0.20240000  0.39700000  1.0 0.0923780565
H  H10  1  0.87020000  0.70240000  0.10300000  1.0 0.0923780565
H  H11  1  0.62980000  0.29760000  0.60300000  1.0 0.0923780565
H  H12  1  0.37020000  0.79760000  0.89700000  1.0 0.0923780565
H  H13  1  0.39510000  0.09240000  0.15020000  1.0 0.0822726024
H  H14  1  0.10490000  0.90760000  0.65020000  1.0 0.0822726024
H  H15  1  0.60490000  0.59240000  0.34980000  1.0 0.0822726024
H  H16  1  0.89510000  0.40760000  0.84980000  1.0 0.0822726024
H  H17  1  0.15020000  0.39510000  0.09240000  1.0 0.0822726024
H  H18  1  0.65020000  0.10490000  0.90760000  1.0 0.0822726024
H  H19  1  0.34980000  0.60490000  0.59240000  1.0 0.0822726024
H  H20  1  0.84980000  0.89510000  0.40760000  1.0 0.0822726024
H  H21  1  0.09240000  0.15020000  0.39510000  1.0 0.0822726024
H  H22  1  0.90760000  0.65020000  0.10490000  1.0 0.0822726024
H  H23  1  0.59240000  0.34980000  0.60490000  1.0 0.0822726024
H  H24  1  0.40760000  0.84980000  0.89510000  1.0 0.0822726024
H  H25  1  0.34850000  0.02430000  0.19580000  1.0 0.1388235876
H  H26  1  0.15150000  0.97570000  0.69580000  1.0 0.1388235876
H  H27  1  0.65150000  0.52430000  0.30420000  1.0 0.1388235876
H  H28  1  0.84850000  0.47570000  0.80420000  1.0 0.1388235876
H  H29  1  0.19580000  0.34850000  0.02430000  1.0 0.1388235876
H  H30  1  0.69580000  0.15150000  0.97570000  1.0 0.1388235876
H  H31  1  0.30420000  0.65150000  0.52430000  1.0 0.1388235876
H  H32  1  0.80420000  0.84850000  0.47570000  1.0 0.1388235876
H  H33  1  0.02430000  0.19580000  0.34850000  1.0 0.1388235876
H  H34  1  0.97570000  0.69580000  0.15150000  1.0 0.1388235876
H  H35  1  0.52430000  0.30420000  0.65150000  1.0 0.1388235876
H  H36  1  0.47570000  0.80420000  0.84850000  1.0 0.1388235876
H  H37  1  0.32040000  0.02590000  0.28550000  1.0 0.0923780565
H  H38  1  0.17960000  0.97410000  0.78550000  1.0 0.0923780565
H  H39  1  0.67960000  0.52590000  0.21450000  1.0 0.0923780565
H  H40  1  0.82040000  0.47410000  0.71450000  1.0 0.0923780565
H  H41  1  0.28550000  0.32040000  0.02590000  1.0 0.0923780565
H  H42  1  0.78550000  0.17960000  0.97410000  1.0 0.0923780565
H  H43  1  0.21450000  0.67960000  0.52590000  1.0 0.0923780565
H  H44  1  0.71450000  0.82040000  0.47410000  1.0 0.0923780565
H  H45  1  0.02590000  0.28550000  0.32040000  1.0 0.0923780565
H  H46  1  0.97410000  0.78550000  0.17960000  1.0 0.0923780565
H  H47  1  0.52590000  0.21450000  0.67960000  1.0 0.0923780565
H  H48  1  0.47410000  0.71450000  0.82040000  1.0 0.0923780565
H  H49  1  0.34690000  0.08350000  0.29590000  1.0 0.0923780565
H  H50  1  0.15310000  0.91650000  0.79590000  1.0 0.0923780565
H  H51  1  0.65310000  0.58350000  0.20410000  1.0 0.0923780565
H  H52  1  0.84690000  0.41650000  0.70410000  1.0 0.0923780565
H  H53  1  0.29590000  0.34690000  0.08350000  1.0 0.0923780565
H  H54  1  0.79590000  0.15310000  0.91650000  1.0 0.0923780565
H  H55  1  0.20410000  0.65310000  0.58350000  1.0 0.0923780565
H  H56  1  0.70410000  0.84690000  0.41650000  1.0 0.0923780565
H  H57  1  0.08350000  0.29590000  0.34690000  1.0 0.0923780565
H  H58  1  0.91650000  0.79590000  0.15310000  1.0 0.0923780565
H  H59  1  0.58350000  0.20410000  0.65310000  1.0 0.0923780565
H  H60  1  0.41650000  0.70410000  0.84690000  1.0 0.0923780565
H  H61  1  0.44600000  0.02970000  0.21820000  1.0 0.0265199191
H  H62  1  0.05400000  0.97030000  0.71820000  1.0 0.0211594474
H  H63  1  0.55400000  0.52970000  0.28180000  1.0 0.0265199191
H  H64  1  0.94600000  0.47030000  0.78180000  1.0 0.0265199191
H  H65  1  0.21820000  0.44600000  0.02970000  1.0 0.0265199191
H  H66  1  0.71820000  0.05400000  0.97030000  1.0 0.0265199191
H  H67  1  0.28180000  0.55400000  0.52970000  1.0 0.0211594474
H  H68  1  0.78180000  0.94600000  0.47030000  1.0 0.0265199191
H  H69  1  0.02970000  0.21820000  0.44600000  1.0 0.0211594474
H  H70  1  0.97030000  0.71820000  0.05400000  1.0 0.0265199191
H  H71  1  0.52970000  0.28180000  0.55400000  1.0 0.0265199191
H  H72  1  0.47030000  0.78180000  0.94600000  1.0 0.0211594474
H  H73  1  0.41360000  0.00380000  0.26710000  1.0 0.0211594474
H  H74  1  0.08640000  0.99620000  0.76710000  1.0 0.0211594474
H  H75  1  0.58640000  0.50380000  0.23290000  1.0 0.0211594474
H  H76  1  0.91360000  0.49620000  0.73290000  1.0 0.0211594474
H  H77  1  0.26710000  0.41360000  0.00380000  1.0 0.0211594474
H  H78  1  0.76710000  0.08640000  0.99620000  1.0 0.0211594474
H  H79  1  0.23290000  0.58640000  0.50380000  1.0 0.0211594474
H  H80  1  0.73290000  0.91360000  0.49620000  1.0 0.0211594474
H  H81  1  0.00380000  0.26710000  0.41360000  1.0 0.0211594474
H  H82  1  0.99620000  0.76710000  0.08640000  1.0 0.0211594474
H  H83  1  0.50380000  0.23290000  0.58640000  1.0 0.0211594474
H  H84  1  0.49620000  0.73290000  0.91360000  1.0 0.0211594474
H  H85  1  0.43180000  0.06520000  0.26970000  1.0 0.1177165057
H  H86  1  0.06820000  0.93480000  0.76970000  1.0 0.1177165057
H  H87  1  0.56820000  0.56520000  0.23030000  1.0 0.1177165057
H  H88  1  0.93180000  0.43480000  0.73030000  1.0 0.1177165057
H  H89  1  0.26970000  0.43180000  0.06520000  1.0 0.1177165057
H  H90  1  0.76970000  0.06820000  0.93480000  1.0 0.1177165057
H  H91  1  0.23030000  0.56820000  0.56520000  1.0 0.1177165057
H  H92  1  0.73030000  0.93180000  0.43480000  1.0 0.1177165057
H  H93  1  0.06520000  0.26970000  0.43180000  1.0 0.1177165057
H  H94  1  0.93480000  0.76970000  0.06820000  1.0 0.1177165057
H  H95  1  0.56520000  0.23030000  0.56820000  1.0 0.1177165057
H  H96  1  0.43480000  0.73030000  0.93180000  1.0 0.1177165057
H  H97  1  0.18910000  0.91910000  0.20090000  1.0 0.0494867853
H  H98  1  0.31090000  0.08090000  0.70090000  1.0 0.0494867853
H  H99  1  0.81090000  0.41910000  0.29910000  1.0 0.0494867853
H  H100  1  0.68910000  0.58090000  0.79910000  1.0 0.0494867853
H  H101  1  0.20090000  0.18910000  0.91910000  1.0 0.0494867853
H  H102  1  0.70090000  0.31090000  0.08090000  1.0 0.0494867853
H  H103  1  0.29910000  0.81090000  0.41910000  1.0 0.0494867853
H  H104  1  0.79910000  0.68910000  0.58090000  1.0 0.0494867853
H  H105  1  0.91910000  0.20090000  0.18910000  1.0 0.0494867853
H  H106  1  0.08090000  0.70090000  0.31090000  1.0 0.0494867853
H  H107  1  0.41910000  0.29910000  0.81090000  1.0 0.0494867853
H  H108  1  0.58090000  0.79910000  0.68910000  1.0 0.0494867853
H  H109  1  0.23280000  0.90680000  0.24530000  1.0 0.058424376
H  H110  1  0.26720000  0.09320000  0.74530000  1.0 0.058424376
H  H111  1  0.76720000  0.40680000  0.25470000  1.0 0.058424376
H  H112  1  0.73280000  0.59320000  0.75470000  1.0 0.058424376
H  H113  1  0.24530000  0.23280000  0.90680000  1.0 0.058424376
H  H114  1  0.74530000  0.26720000  0.09320000  1.0 0.058424376
H  H115  1  0.25470000  0.76720000  0.40680000  1.0 0.058424376
H  H116  1  0.75470000  0.73280000  0.59320000  1.0 0.058424376
H  H117  1  0.90680000  0.24530000  0.23280000  1.0 0.058424376
H  H118  1  0.09320000  0.74530000  0.26720000  1.0 0.058424376
H  H119  1  0.40680000  0.25470000  0.76720000  1.0 0.058424376
H  H120  1  0.59320000  0.75470000  0.73280000  1.0 0.058424376
H  H121  1  0.30270000  0.92820000  0.18790000  1.0 0.0659328012
H  H122  1  0.19730000  0.07180000  0.68790000  1.0 0.0659328012
H  H123  1  0.69730000  0.42820000  0.31210000  1.0 0.0659328012
H  H124  1  0.80270000  0.57180000  0.81210000  1.0 0.0659328012
H  H125  1  0.18790000  0.30270000  0.92820000  1.0 0.0659328012
H  H126  1  0.68790000  0.19730000  0.07180000  1.0 0.0659328012
H  H127  1  0.31210000  0.69730000  0.42820000  1.0 0.0659328012
H  H128  1  0.81210000  0.80270000  0.57180000  1.0 0.0659328012
H  H129  1  0.92820000  0.18790000  0.30270000  1.0 0.0659328012
H  H130  1  0.07180000  0.68790000  0.19730000  1.0 0.0659328012
H  H131  1  0.42820000  0.31210000  0.69730000  1.0 0.0659328012
H  H132  1  0.57180000  0.81210000  0.80270000  1.0 0.0659328012
H  H133  1  0.25560000  0.84190000  0.16740000  1.0 0.0265199191
H  H134  1  0.24440000  0.15810000  0.66740000  1.0 0.0265199191
H  H135  1  0.74440000  0.34190000  0.33260000  1.0 0.0265199191
H  H136  1  0.75560000  0.65810000  0.83260000  1.0 0.0265199191
H  H137  1  0.16740000  0.25560000  0.84190000  1.0 0.0265199191
H  H138  1  0.66740000  0.24440000  0.15810000  1.0 0.0265199191
H  H139  1  0.33260000  0.74440000  0.34190000  1.0 0.0265199191
H  H140  1  0.83260000  0.75560000  0.65810000  1.0 0.0265199191
H  H141  1  0.84190000  0.16740000  0.25560000  1.0 0.0265199191
H  H142  1  0.15810000  0.66740000  0.24440000  1.0 0.0265199191
H  H143  1  0.34190000  0.33260000  0.74440000  1.0 0.0265199191
H  H144  1  0.65810000  0.83260000  0.75560000  1.0 0.0265199191
H  H145  1  0.27650000  0.86760000  0.11240000  1.0 0.0074092081
H  H146  1  0.22350000  0.13240000  0.61240000  1.0 0.0074092081
H  H147  1  0.72350000  0.36760000  0.38760000  1.0 0.0074092081
H  H148  1  0.77650000  0.63240000  0.88760000  1.0 0.0074092081
H  H149  1  0.11240000  0.27650000  0.86760000  1.0 0.0074092081
H  H150  1  0.61240000  0.22350000  0.13240000  1.0 0.0074092081
H  H151  1  0.38760000  0.72350000  0.36760000  1.0 0.0074092081
H  H152  1  0.88760000  0.77650000  0.63240000  1.0 0.0074092081
H  H153  1  0.86760000  0.11240000  0.27650000  1.0 0.0074092081
H  H154  1  0.13240000  0.61240000  0.22350000  1.0 0.0074092081
H  H155  1  0.36760000  0.38760000  0.72350000  1.0 0.0074092081
H  H156  1  0.63240000  0.88760000  0.77650000  1.0 0.0074092081
H  H157  1  0.21480000  0.87350000  0.12920000  1.0 0.0074092081
H  H158  1  0.28520000  0.12650000  0.62920000  1.0 0.0074092081
H  H159  1  0.78520000  0.37350000  0.37080000  1.0 0.0074092081
H  H160  1  0.71480000  0.62650000  0.87080000  1.0 0.0074092081
H  H161  1  0.12920000  0.21480000  0.87350000  1.0 0.0074092081
H  H162  1  0.62920000  0.28520000  0.12650000  1.0 0.0074092081
H  H163  1  0.37080000  0.78520000  0.37350000  1.0 0.0074092081
H  H164  1  0.87080000  0.71480000  0.62650000  1.0 0.0074092081
H  H165  1  0.87350000  0.12920000  0.21480000  1.0 0.0074092081
H  H166  1  0.12650000  0.62920000  0.28520000  1.0 0.0074092081
H  H167  1  0.37350000  0.37080000  0.78520000  1.0 0.0074092081
H  H168  1  0.62650000  0.87080000  0.71480000  1.0 0.0074092081
H  H169  1  0.28590000  0.96510000  0.10310000  1.0 0.0494867853
H  H170  1  0.21410000  0.03490000  0.60310000  1.0 0.0494867853
H  H171  1  0.71410000  0.46510000  0.39690000  1.0 0.0494867853
H  H172  1  0.78590000  0.53490000  0.89690000  1.0 0.0494867853
H  H173  1  0.10310000  0.28590000  0.96510000  1.0 0.0494867853
H  H174  1  0.60310000  0.21410000  0.03490000  1.0 0.0494867853
H  H175  1  0.39690000  0.71410000  0.46510000  1.0 0.0494867853
H  H176  1  0.89690000  0.78590000  0.53490000  1.0 0.0494867853
H  H177  1  0.96510000  0.10310000  0.28590000  1.0 0.0494867853
H  H178  1  0.03490000  0.60310000  0.21410000  1.0 0.0494867853
H  H179  1  0.46510000  0.39690000  0.71410000  1.0 0.0494867853
H  H180  1  0.53490000  0.89690000  0.78590000  1.0 0.0494867853
H  H181  1  0.22250000  0.95780000  0.11000000  1.0 0.0494867853
H  H182  1  0.27750000  0.04220000  0.61000000  1.0 0.0494867853
H  H183  1  0.77750000  0.45780000  0.39000000  1.0 0.0494867853
H  H184  1  0.72250000  0.54220000  0.89000000  1.0 0.0494867853
H  H185  1  0.11000000  0.22250000  0.95780000  1.0 0.0494867853
H  H186  1  0.61000000  0.27750000  0.04220000  1.0 0.0494867853
H  H187  1  0.39000000  0.77750000  0.45780000  1.0 0.0494867853
H  H188  1  0.89000000  0.72250000  0.54220000  1.0 0.0494867853
H  H189  1  0.95780000  0.11000000  0.22250000  1.0 0.0494867853
H  H190  1  0.04220000  0.61000000  0.27750000  1.0 0.0494867853
H  H191  1  0.45780000  0.39000000  0.77750000  1.0 0.0494867853
H  H192  1  0.54220000  0.89000000  0.72250000  1.0 0.0494867853
H  H193  1  0.28760000  0.98580000  0.93250000  1.0 0.1002178746
H  H194  1  0.21240000  0.01420000  0.43250000  1.0 0.1002178746
H  H195  1  0.71240000  0.48580000  0.56750000  1.0 0.1002178746
H  H196  1  0.78760000  0.51420000  0.06750000  1.0 0.1002178746
H  H197  1  0.93250000  0.28760000  0.98580000  1.0 0.1002178746
H  H198  1  0.43250000  0.21240000  0.01420000  1.0 0.1002178746
H  H199  1  0.56750000  0.71240000  0.48580000  1.0 0.1002178746
H  H200  1  0.06750000  0.78760000  0.51420000  1.0 0.1002178746
H  H201  1  0.98580000  0.93250000  0.28760000  1.0 0.1002178746
H  H202  1  0.01420000  0.43250000  0.21240000  1.0 0.1002178746
H  H203  1  0.48580000  0.56750000  0.71240000  1.0 0.1002178746
H  H204  1  0.51420000  0.06750000  0.78760000  1.0 0.1002178746
H  H205  1  0.33000000  0.93790000  0.93550000  1.0 0.1098239417
H  H206  1  0.17000000  0.06210000  0.43550000  1.0 0.1098239417
H  H207  1  0.67000000  0.43790000  0.56450000  1.0 0.1098239417
H  H208  1  0.83000000  0.56210000  0.06450000  1.0 0.1098239417
H  H209  1  0.93550000  0.33000000  0.93790000  1.0 0.1098239417
H  H210  1  0.43550000  0.17000000  0.06210000  1.0 0.1098239417
H  H211  1  0.56450000  0.67000000  0.43790000  1.0 0.1098239417
H  H212  1  0.06450000  0.83000000  0.56210000  1.0 0.1098239417
H  H213  1  0.93790000  0.93550000  0.33000000  1.0 0.1098239417
H  H214  1  0.06210000  0.43550000  0.17000000  1.0 0.1098239417
H  H215  1  0.43790000  0.56450000  0.67000000  1.0 0.1098239417
H  H216  1  0.56210000  0.06450000  0.83000000  1.0 0.1098239417
H  H217  1  0.21900000  0.93070000  0.92830000  1.0 0.1002178746
H  H218  1  0.28100000  0.06930000  0.42830000  1.0 0.0923780565
H  H219  1  0.78100000  0.43070000  0.57170000  1.0 0.0923780565
H  H220  1  0.71900000  0.56930000  0.07170000  1.0 0.0923780565
H  H221  1  0.92830000  0.21900000  0.93070000  1.0 0.0923780565
H  H222  1  0.42830000  0.28100000  0.06930000  1.0 0.0923780565
H  H223  1  0.57170000  0.78100000  0.43070000  1.0 0.0923780565
H  H224  1  0.07170000  0.71900000  0.56930000  1.0 0.1002178746
H  H225  1  0.93070000  0.92830000  0.21900000  1.0 0.0923780565
H  H226  1  0.06930000  0.42830000  0.28100000  1.0 0.0923780565
H  H227  1  0.43070000  0.57170000  0.78100000  1.0 0.0923780565
H  H228  1  0.56930000  0.07170000  0.71900000  1.0 0.0923780565
H  H229  1  0.26850000  0.83260000  0.94020000  1.0 0.1302169017
H  H230  1  0.23150000  0.16740000  0.44020000  1.0 0.1302169017
H  H231  1  0.73150000  0.33260000  0.55980000  1.0 0.1302169017
H  H232  1  0.76850000  0.66740000  0.05980000  1.0 0.1302169017
H  H233  1  0.94020000  0.26850000  0.83260000  1.0 0.1302169017
H  H234  1  0.44020000  0.23150000  0.16740000  1.0 0.1302169017
H  H235  1  0.55980000  0.73150000  0.33260000  1.0 0.1302169017
H  H236  1  0.05980000  0.76850000  0.66740000  1.0 0.1302169017
H  H237  1  0.83260000  0.94020000  0.26850000  1.0 0.1302169017
H  H238  1  0.16740000  0.44020000  0.23150000  1.0 0.1302169017
H  H239  1  0.33260000  0.55980000  0.73150000  1.0 0.1302169017
H  H240  1  0.66740000  0.05980000  0.76850000  1.0 0.1302169017
H  H241  1  0.20620000  0.84590000  0.93290000  1.0 0.1098239417
H  H242  1  0.29380000  0.15410000  0.43290000  1.0 0.1098239417
H  H243  1  0.79380000  0.34590000  0.56710000  1.0 0.1098239417
H  H244  1  0.70620000  0.65410000  0.06710000  1.0 0.1098239417
H  H245  1  0.93290000  0.20620000  0.84590000  1.0 0.1098239417
H  H246  1  0.43290000  0.29380000  0.15410000  1.0 0.1098239417
H  H247  1  0.56710000  0.79380000  0.34590000  1.0 0.1098239417
H  H248  1  0.06710000  0.70620000  0.65410000  1.0 0.1098239417
H  H249  1  0.84590000  0.93290000  0.20620000  1.0 0.1098239417
H  H250  1  0.15410000  0.43290000  0.29380000  1.0 0.1098239417
H  H251  1  0.34590000  0.56710000  0.79380000  1.0 0.1098239417
H  H252  1  0.65410000  0.06710000  0.70620000  1.0 0.1098239417
H  H253  1  0.21260000  0.91570000  0.01600000  1.0 0.1302169017
H  H254  1  0.28740000  0.08430000  0.51600000  1.0 0.1302169017
H  H255  1  0.78740000  0.41570000  0.48400000  1.0 0.1302169017
H  H256  1  0.71260000  0.58430000  0.98400000  1.0 0.1302169017
H  H257  1  0.01600000  0.21260000  0.91570000  1.0 0.1302169017
H  H258  1  0.51600000  0.28740000  0.08430000  1.0 0.1302169017
H  H259  1  0.48400000  0.78740000  0.41570000  1.0 0.1302169017
H  H260  1  0.98400000  0.71260000  0.58430000  1.0 0.1302169017
H  H261  1  0.91570000  0.01600000  0.21260000  1.0 0.1302169017
H  H262  1  0.08430000  0.51600000  0.28740000  1.0 0.1302169017
H  H263  1  0.41570000  0.48400000  0.78740000  1.0 0.1302169017
H  H264  1  0.58430000  0.98400000  0.71260000  1.0 0.1302169017
H  H265  1  0.26060000  0.95810000  0.01200000  1.0 0.1302169017
H  H266  1  0.23940000  0.04190000  0.51200000  1.0 0.1302169017
H  H267  1  0.73940000  0.45810000  0.48800000  1.0 0.1302169017
H  H268  1  0.76060000  0.54190000  0.98800000  1.0 0.1302169017
H  H269  1  0.01200000  0.26060000  0.95810000  1.0 0.1302169017
H  H270  1  0.51200000  0.23940000  0.04190000  1.0 0.1302169017
H  H271  1  0.48800000  0.73940000  0.45810000  1.0 0.1302169017
H  H272  1  0.98800000  0.76060000  0.54190000  1.0 0.1302169017
H  H273  1  0.95810000  0.01200000  0.26060000  1.0 0.1302169017
H  H274  1  0.04190000  0.51200000  0.23940000  1.0 0.1302169017
H  H275  1  0.45810000  0.48800000  0.73940000  1.0 0.1302169017
H  H276  1  0.54190000  0.98800000  0.76060000  1.0 0.1302169017
H  H277  1  0.27340000  0.89600000  0.02170000  1.0 0.1302169017
H  H278  1  0.22660000  0.10400000  0.52170000  1.0 0.1302169017
H  H279  1  0.72660000  0.39600000  0.47830000  1.0 0.1302169017
H  H280  1  0.77340000  0.60400000  0.97830000  1.0 0.1302169017
H  H281  1  0.02170000  0.27340000  0.89600000  1.0 0.1302169017
H  H282  1  0.52170000  0.22660000  0.10400000  1.0 0.1302169017
H  H283  1  0.47830000  0.72660000  0.39600000  1.0 0.1302169017
H  H284  1  0.97830000  0.77340000  0.60400000  1.0 0.1302169017
H  H285  1  0.89600000  0.02170000  0.27340000  1.0 0.1302169017
H  H286  1  0.10400000  0.52170000  0.22660000  1.0 0.1302169017
H  H287  1  0.39600000  0.47830000  0.72660000  1.0 0.1302169017
H  H288  1  0.60400000  0.97830000  0.77340000  1.0 0.1302169017
H  H289  1  0.11700000  0.07940000  0.96670000  1.0 0.1769039633
H  H290  1  0.38300000  0.92060000  0.46670000  1.0 0.1769039633
H  H291  1  0.88300000  0.57940000  0.53330000  1.0 0.1769039633
H  H292  1  0.61700000  0.42060000  0.03330000  1.0 0.1769039633
H  H293  1  0.96670000  0.11700000  0.07940000  1.0 0.1769039633
H  H294  1  0.46670000  0.38300000  0.92060000  1.0 0.1769039633
H  H295  1  0.53330000  0.88300000  0.57940000  1.0 0.1769039633
H  H296  1  0.03330000  0.61700000  0.42060000  1.0 0.1769039633
H  H297  1  0.07940000  0.96670000  0.11700000  1.0 0.1769039633
H  H298  1  0.92060000  0.46670000  0.38300000  1.0 0.1769039633
H  H299  1  0.57940000  0.53330000  0.88300000  1.0 0.1769039633
H  H300  1  0.42060000  0.03330000  0.61700000  1.0 0.1769039633
H  H301  1  0.10260000  0.03640000  0.01200000  1.0 0.1499663177
H  H302  1  0.39740000  0.96360000  0.51200000  1.0 0.1499663177
H  H303  1  0.89740000  0.53640000  0.48800000  1.0 0.1499663177
H  H304  1  0.60260000  0.46360000  0.98800000  1.0 0.1499663177
H  H305  1  0.01200000  0.10260000  0.03640000  1.0 0.1499663177
H  H306  1  0.51200000  0.39740000  0.96360000  1.0 0.1499663177
H  H307  1  0.48800000  0.89740000  0.53640000  1.0 0.1499663177
H  H308  1  0.98800000  0.60260000  0.46360000  1.0 0.1499663177
H  H309  1  0.03640000  0.01200000  0.10260000  1.0 0.1499663177
H  H310  1  0.96360000  0.51200000  0.39740000  1.0 0.1499663177
H  H311  1  0.53640000  0.48800000  0.89740000  1.0 0.1499663177
H  H312  1  0.46360000  0.98800000  0.60260000  1.0 0.1499663177
H  H313  1  0.15280000  0.02660000  0.97330000  1.0 0.1635950228
H  H314  1  0.34720000  0.97340000  0.47330000  1.0 0.1635950228
H  H315  1  0.84720000  0.52660000  0.52670000  1.0 0.1635950228
H  H316  1  0.65280000  0.47340000  0.02670000  1.0 0.1635950228
H  H317  1  0.97330000  0.15280000  0.02660000  1.0 0.1635950228
H  H318  1  0.47330000  0.34720000  0.97340000  1.0 0.1635950228
H  H319  1  0.52670000  0.84720000  0.52660000  1.0 0.1635950228
H  H320  1  0.02670000  0.65280000  0.47340000  1.0 0.1635950228
H  H321  1  0.02660000  0.97330000  0.15280000  1.0 0.1635950228
H  H322  1  0.97340000  0.47330000  0.34720000  1.0 0.1635950228
H  H323  1  0.52660000  0.52670000  0.84720000  1.0 0.1635950228
H  H324  1  0.47340000  0.02670000  0.65280000  1.0 0.1635950228
H  H325  1  0.19490000  0.04990000  0.87840000  1.0 0.1499663177
H  H326  1  0.30510000  0.95010000  0.37840000  1.0 0.1499663177
H  H327  1  0.80510000  0.54990000  0.62160000  1.0 0.1499663177
H  H328  1  0.69490000  0.45010000  0.12160000  1.0 0.1499663177
H  H329  1  0.87840000  0.19490000  0.04990000  1.0 0.1499663177
H  H330  1  0.37840000  0.30510000  0.95010000  1.0 0.1499663177
H  H331  1  0.62160000  0.80510000  0.54990000  1.0 0.1499663177
H  H332  1  0.12160000  0.69490000  0.45010000  1.0 0.1499663177
H  H333  1  0.04990000  0.87840000  0.19490000  1.0 0.1499663177
H  H334  1  0.95010000  0.37840000  0.30510000  1.0 0.1499663177
H  H335  1  0.54990000  0.62160000  0.80510000  1.0 0.1499663177
H  H336  1  0.45010000  0.12160000  0.69490000  1.0 0.1499663177
H  H337  1  0.23080000  0.04650000  0.82540000  1.0 0.1499663177
H  H338  1  0.26920000  0.95350000  0.32540000  1.0 0.1499663177
H  H339  1  0.76920000  0.54650000  0.67460000  1.0 0.1499663177
H  H340  1  0.73080000  0.45350000  0.17460000  1.0 0.1499663177
H  H341  1  0.82540000  0.23080000  0.04650000  1.0 0.1499663177
H  H342  1  0.32540000  0.26920000  0.95350000  1.0 0.1499663177
H  H343  1  0.67460000  0.76920000  0.54650000  1.0 0.1499663177
H  H344  1  0.17460000  0.73080000  0.45350000  1.0 0.1499663177
H  H345  1  0.04650000  0.82540000  0.23080000  1.0 0.1499663177
H  H346  1  0.95350000  0.32540000  0.26920000  1.0 0.1499663177
H  H347  1  0.54650000  0.67460000  0.76920000  1.0 0.1499663177
H  H348  1  0.45350000  0.17460000  0.73080000  1.0 0.1499663177
H  H349  1  0.20430000  0.10240000  0.84270000  1.0 0.1769039633
H  H350  1  0.29570000  0.89760000  0.34270000  1.0 0.1769039633
H  H351  1  0.79570000  0.60240000  0.65730000  1.0 0.1769039633
H  H352  1  0.70430000  0.39760000  0.15730000  1.0 0.1769039633
H  H353  1  0.84270000  0.20430000  0.10240000  1.0 0.1769039633
H  H354  1  0.34270000  0.29570000  0.89760000  1.0 0.1769039633
H  H355  1  0.65730000  0.79570000  0.60240000  1.0 0.1769039633
H  H356  1  0.15730000  0.70430000  0.39760000  1.0 0.1769039633
H  H357  1  0.10240000  0.84270000  0.20430000  1.0 0.1769039633
H  H358  1  0.89760000  0.34270000  0.29570000  1.0 0.1769039633
H  H359  1  0.60240000  0.65730000  0.79570000  1.0 0.1769039633
H  H360  1  0.39760000  0.15730000  0.70430000  1.0 0.1769039633
H  H361  1  0.42900000  0.01180000  0.01050000  1.0 0.1499663177
H  H362  1  0.07100000  0.98820000  0.51050000  1.0 0.1499663177
H  H363  1  0.57100000  0.51180000  0.48950000  1.0 0.1499663177
H  H364  1  0.92900000  0.48820000  0.98950000  1.0 0.1499663177
H  H365  1  0.01050000  0.42900000  0.01180000  1.0 0.1499663177
H  H366  1  0.51050000  0.07100000  0.98820000  1.0 0.1499663177
H  H367  1  0.48950000  0.57100000  0.51180000  1.0 0.1499663177
H  H368  1  0.98950000  0.92900000  0.48820000  1.0 0.1499663177
H  H369  1  0.01180000  0.01050000  0.42900000  1.0 0.1499663177
H  H370  1  0.98820000  0.51050000  0.07100000  1.0 0.1499663177
H  H371  1  0.51180000  0.48950000  0.57100000  1.0 0.1499663177
H  H372  1  0.48820000  0.98950000  0.92900000  1.0 0.1499663177
H  H373  1  0.38030000  0.97220000  0.02390000  1.0 0.1706230996
H  H374  1  0.11970000  0.02780000  0.52390000  1.0 0.1706230996
H  H375  1  0.61970000  0.47220000  0.47610000  1.0 0.1706230996
H  H376  1  0.88030000  0.52780000  0.97610000  1.0 0.1706230996
H  H377  1  0.02390000  0.38030000  0.97220000  1.0 0.1706230996
H  H378  1  0.52390000  0.11970000  0.02780000  1.0 0.1706230996
H  H379  1  0.47610000  0.61970000  0.47220000  1.0 0.1706230996
H  H380  1  0.97610000  0.88030000  0.52780000  1.0 0.1706230996
H  H381  1  0.97220000  0.02390000  0.38030000  1.0 0.1706230996
H  H382  1  0.02780000  0.52390000  0.11970000  1.0 0.1706230996
H  H383  1  0.47220000  0.47610000  0.61970000  1.0 0.1706230996
H  H384  1  0.52780000  0.97610000  0.88030000  1.0 0.1706230996
H  H385  1  0.41280000  0.00040000  0.07150000  1.0 0.1706230996
H  H386  1  0.08720000  0.99960000  0.57150000  1.0 0.1706230996
H  H387  1  0.58720000  0.50040000  0.42850000  1.0 0.1706230996
H  H388  1  0.91280000  0.49960000  0.92850000  1.0 0.1706230996
H  H389  1  0.07150000  0.41280000  0.00040000  1.0 0.1706230996
H  H390  1  0.57150000  0.08720000  0.99960000  1.0 0.1706230996
H  H391  1  0.42850000  0.58720000  0.50040000  1.0 0.1706230996
H  H392  1  0.92850000  0.91280000  0.49960000  1.0 0.1706230996
H  H393  1  0.00040000  0.07150000  0.41280000  1.0 0.1706230996
H  H394  1  0.99960000  0.57150000  0.08720000  1.0 0.1706230996
H  H395  1  0.50040000  0.42850000  0.58720000  1.0 0.1706230996
H  H396  1  0.49960000  0.92850000  0.91280000  1.0 0.1706230996
H  H397  1  0.33980000  0.03150000  0.19460000  1.0 0.1388235876
H  H398  1  0.16020000  0.96850000  0.69460000  1.0 0.1388235876
H  H399  1  0.66020000  0.53150000  0.30540000  1.0 0.1388235876
H  H400  1  0.83980000  0.46850000  0.80540000  1.0 0.1388235876
H  H401  1  0.19460000  0.33980000  0.03150000  1.0 0.1388235876
H  H402  1  0.69460000  0.16020000  0.96850000  1.0 0.1388235876
H  H403  1  0.30540000  0.66020000  0.53150000  1.0 0.1388235876
H  H404  1  0.80540000  0.83980000  0.46850000  1.0 0.1388235876
H  H405  1  0.03150000  0.19460000  0.33980000  1.0 0.1388235876
H  H406  1  0.96850000  0.69460000  0.16020000  1.0 0.1388235876
H  H407  1  0.53150000  0.30540000  0.66020000  1.0 0.1388235876
H  H408  1  0.46850000  0.80540000  0.83980000  1.0 0.1388235876
H  H409  1  0.43280000  0.01470000  0.19390000  1.0 0.1002178746
H  H410  1  0.06720000  0.98530000  0.69390000  1.0 0.1002178746
H  H411  1  0.56720000  0.51470000  0.30610000  1.0 0.1002178746
H  H412  1  0.93280000  0.48530000  0.80610000  1.0 0.1002178746
H  H413  1  0.19390000  0.43280000  0.01470000  1.0 0.1002178746
H  H414  1  0.69390000  0.06720000  0.98530000  1.0 0.1002178746
H  H415  1  0.30610000  0.56720000  0.51470000  1.0 0.1002178746
H  H416  1  0.80610000  0.93280000  0.48530000  1.0 0.1002178746
H  H417  1  0.01470000  0.19390000  0.43280000  1.0 0.1002178746
H  H418  1  0.98530000  0.69390000  0.06720000  1.0 0.1002178746
H  H419  1  0.51470000  0.30610000  0.56720000  1.0 0.1002178746
H  H420  1  0.48530000  0.80610000  0.93280000  1.0 0.1002178746
H  H421  1  0.40140000  0.98300000  0.24000000  1.0 0.1002178746
H  H422  1  0.09860000  0.01700000  0.74000000  1.0 0.1002178746
H  H423  1  0.59860000  0.48300000  0.26000000  1.0 0.1002178746
H  H424  1  0.90140000  0.51700000  0.76000000  1.0 0.1002178746
H  H425  1  0.24000000  0.40140000  0.98300000  1.0 0.1002178746
H  H426  1  0.74000000  0.09860000  0.01700000  1.0 0.1002178746
H  H427  1  0.26000000  0.59860000  0.48300000  1.0 0.1002178746
H  H428  1  0.76000000  0.90140000  0.51700000  1.0 0.1002178746
H  H429  1  0.98300000  0.24000000  0.40140000  1.0 0.1002178746
H  H430  1  0.01700000  0.74000000  0.09860000  1.0 0.1002178746
H  H431  1  0.48300000  0.26000000  0.59860000  1.0 0.1002178746
H  H432  1  0.51700000  0.76000000  0.90140000  1.0 0.1002178746
H  H433  1  0.43600000  0.03510000  0.25470000  1.0 0.0211594474
H  H434  1  0.06400000  0.96490000  0.75470000  1.0 0.0211594474
H  H435  1  0.56400000  0.53510000  0.24530000  1.0 0.0211594474
H  H436  1  0.93600000  0.46490000  0.74530000  1.0 0.0211594474
H  H437  1  0.25470000  0.43600000  0.03510000  1.0 0.0211594474
H  H438  1  0.75470000  0.06400000  0.96490000  1.0 0.0211594474
H  H439  1  0.24530000  0.56400000  0.53510000  1.0 0.0211594474
H  H440  1  0.74530000  0.93600000  0.46490000  1.0 0.0211594474
H  H441  1  0.03510000  0.25470000  0.43600000  1.0 0.0211594474
H  H442  1  0.96490000  0.75470000  0.06400000  1.0 0.0211594474
H  H443  1  0.53510000  0.24530000  0.56400000  1.0 0.0211594474
H  H444  1  0.46490000  0.74530000  0.93600000  1.0 0.0211594474
H  H445  1  0.23150000  0.19910000  0.90430000  1.0 0.0494867853
H  H446  1  0.26850000  0.80090000  0.40430000  1.0 0.0494867853
H  H447  1  0.76850000  0.69910000  0.59570000  1.0 0.0494867853
H  H448  1  0.73150000  0.30090000  0.09570000  1.0 0.0494867853
H  H449  1  0.90430000  0.23150000  0.19910000  1.0 0.0494867853
H  H450  1  0.40430000  0.26850000  0.80090000  1.0 0.0494867853
H  H451  1  0.59570000  0.76850000  0.69910000  1.0 0.0494867853
H  H452  1  0.09570000  0.73150000  0.30090000  1.0 0.0494867853
H  H453  1  0.19910000  0.90430000  0.23150000  1.0 0.0494867853
H  H454  1  0.80090000  0.40430000  0.26850000  1.0 0.0494867853
H  H455  1  0.69910000  0.59570000  0.76850000  1.0 0.0494867853
H  H456  1  0.30090000  0.09570000  0.73150000  1.0 0.0494867853
H  H457  1  0.22840000  0.25970000  0.92360000  1.0 0.0494867853
H  H458  1  0.27160000  0.74030000  0.42360000  1.0 0.0494867853
H  H459  1  0.77160000  0.75970000  0.57640000  1.0 0.0494867853
H  H460  1  0.72840000  0.24030000  0.07640000  1.0 0.0494867853
H  H461  1  0.92360000  0.22840000  0.25970000  1.0 0.0494867853
H  H462  1  0.42360000  0.27160000  0.74030000  1.0 0.0494867853
H  H463  1  0.57640000  0.77160000  0.75970000  1.0 0.0494867853
H  H464  1  0.07640000  0.72840000  0.24030000  1.0 0.0494867853
H  H465  1  0.25970000  0.92360000  0.22840000  1.0 0.0494867853
H  H466  1  0.74030000  0.42360000  0.27160000  1.0 0.0494867853
H  H467  1  0.75970000  0.57640000  0.77160000  1.0 0.0494867853
H  H468  1  0.24030000  0.07640000  0.72840000  1.0 0.0494867853
H  H469  1  0.14260000  0.18400000  0.92700000  1.0 0.058424376
H  H470  1  0.35740000  0.81600000  0.42700000  1.0 0.058424376
H  H471  1  0.85740000  0.68400000  0.57300000  1.0 0.058424376
H  H472  1  0.64260000  0.31600000  0.07300000  1.0 0.058424376
H  H473  1  0.92700000  0.14260000  0.18400000  1.0 0.058424376
H  H474  1  0.42700000  0.35740000  0.81600000  1.0 0.058424376
H  H475  1  0.57300000  0.85740000  0.68400000  1.0 0.058424376
H  H476  1  0.07300000  0.64260000  0.31600000  1.0 0.058424376
H  H477  1  0.18400000  0.92700000  0.14260000  1.0 0.058424376
H  H478  1  0.81600000  0.42700000  0.35740000  1.0 0.058424376
H  H479  1  0.68400000  0.57300000  0.85740000  1.0 0.058424376
H  H480  1  0.31600000  0.07300000  0.64260000  1.0 0.058424376
H  H481  1  0.15980000  0.23320000  0.84210000  1.0 0.0265199191
H  H482  1  0.34020000  0.76680000  0.34210000  1.0 0.0265199191
H  H483  1  0.84020000  0.73320000  0.65790000  1.0 0.0265199191
H  H484  1  0.65980000  0.26680000  0.15790000  1.0 0.0265199191
H  H485  1  0.84210000  0.15980000  0.23320000  1.0 0.0265199191
H  H486  1  0.34210000  0.34020000  0.76680000  1.0 0.0265199191
H  H487  1  0.65790000  0.84020000  0.73320000  1.0 0.0265199191
H  H488  1  0.15790000  0.65980000  0.26680000  1.0 0.0265199191
H  H489  1  0.23320000  0.84210000  0.15980000  1.0 0.0265199191
H  H490  1  0.76680000  0.34210000  0.34020000  1.0 0.0265199191
H  H491  1  0.73320000  0.65790000  0.84020000  1.0 0.0265199191
H  H492  1  0.26680000  0.15790000  0.65980000  1.0 0.0265199191
H  H493  1  0.15560000  0.28880000  0.87400000  1.0 0.0211594474
H  H494  1  0.34440000  0.71120000  0.37400000  1.0 0.0211594474
H  H495  1  0.84440000  0.78880000  0.62600000  1.0 0.0211594474
H  H496  1  0.65560000  0.21120000  0.12600000  1.0 0.0211594474
H  H497  1  0.87400000  0.15560000  0.28880000  1.0 0.0211594474
H  H498  1  0.37400000  0.34440000  0.71120000  1.0 0.0211594474
H  H499  1  0.62600000  0.84440000  0.78880000  1.0 0.0211594474
H  H500  1  0.12600000  0.65560000  0.21120000  1.0 0.0211594474
H  H501  1  0.28880000  0.87400000  0.15560000  1.0 0.0211594474
H  H502  1  0.71120000  0.37400000  0.34440000  1.0 0.0211594474
H  H503  1  0.78880000  0.62600000  0.84440000  1.0 0.0211594474
H  H504  1  0.21120000  0.12600000  0.65560000  1.0 0.0211594474
H  H505  1  0.10360000  0.25170000  0.86690000  1.0 0.0074092081
H  H506  1  0.39640000  0.74830000  0.36690000  1.0 0.0074092081
H  H507  1  0.89640000  0.75170000  0.63310000  1.0 0.0074092081
H  H508  1  0.60360000  0.24830000  0.13310000  1.0 0.0074092081
H  H509  1  0.86690000  0.10360000  0.25170000  1.0 0.0074092081
H  H510  1  0.36690000  0.39640000  0.74830000  1.0 0.0074092081
H  H511  1  0.63310000  0.89640000  0.75170000  1.0 0.0074092081
H  H512  1  0.13310000  0.60360000  0.24830000  1.0 0.0074092081
H  H513  1  0.25170000  0.86690000  0.10360000  1.0 0.0074092081
H  H514  1  0.74830000  0.36690000  0.39640000  1.0 0.0074092081
H  H515  1  0.75170000  0.63310000  0.89640000  1.0 0.0074092081
H  H516  1  0.24830000  0.13310000  0.60360000  1.0 0.0074092081
H  H517  1  0.13260000  0.29380000  0.95600000  1.0 0.058424376
H  H518  1  0.36740000  0.70620000  0.45600000  1.0 0.058424376
H  H519  1  0.86740000  0.79380000  0.54400000  1.0 0.058424376
H  H520  1  0.63260000  0.20620000  0.04400000  1.0 0.058424376
H  H521  1  0.95600000  0.13260000  0.29380000  1.0 0.058424376
H  H522  1  0.45600000  0.36740000  0.70620000  1.0 0.058424376
H  H523  1  0.54400000  0.86740000  0.79380000  1.0 0.058424376
H  H524  1  0.04400000  0.63260000  0.20620000  1.0 0.058424376
H  H525  1  0.29380000  0.95600000  0.13260000  1.0 0.058424376
H  H526  1  0.70620000  0.45600000  0.36740000  1.0 0.058424376
H  H527  1  0.79380000  0.54400000  0.86740000  1.0 0.058424376
H  H528  1  0.20620000  0.04400000  0.63260000  1.0 0.058424376
H  H529  1  0.09050000  0.24690000  0.96700000  1.0 0.0438472276
H  H530  1  0.40950000  0.75310000  0.46700000  1.0 0.0438472276
H  H531  1  0.90950000  0.74690000  0.53300000  1.0 0.0438472276
H  H532  1  0.59050000  0.25310000  0.03300000  1.0 0.0438472276
H  H533  1  0.96700000  0.09050000  0.24690000  1.0 0.0438472276
H  H534  1  0.46700000  0.40950000  0.75310000  1.0 0.0438472276
H  H535  1  0.53300000  0.90950000  0.74690000  1.0 0.0438472276
H  H536  1  0.03300000  0.59050000  0.25310000  1.0 0.0438472276
H  H537  1  0.24690000  0.96700000  0.09050000  1.0 0.0438472276
H  H538  1  0.75310000  0.46700000  0.40950000  1.0 0.0438472276
H  H539  1  0.74690000  0.53300000  0.90950000  1.0 0.0438472276
H  H540  1  0.25310000  0.03300000  0.59050000  1.0 0.0438472276
C  C1  1  0.37450000  0.10410000  0.18210000  1.0 0.0033674579
C  C2  1  0.12550000  0.89590000  0.68210000  1.0 0.0033674579
C  C3  1  0.62550000  0.60410000  0.31790000  1.0 0.0033674579
C  C4  1  0.87450000  0.39590000  0.81790000  1.0 0.0033674579
C  C5  1  0.18210000  0.37450000  0.10410000  1.0 0.0033674579
C  C6  1  0.68210000  0.12550000  0.89590000  1.0 0.0033674579
C  C7  1  0.31790000  0.62550000  0.60410000  1.0 0.0033674579
C  C8  1  0.81790000  0.87450000  0.39590000  1.0 0.0033674579
C  C9  1  0.10410000  0.18210000  0.37450000  1.0 0.0033674579
C  C10  1  0.89590000  0.68210000  0.12550000  1.0 0.0033674579
C  C11  1  0.60410000  0.31790000  0.62550000  1.0 0.0033674579
C  C12  1  0.39590000  0.81790000  0.87450000  1.0 0.0033674579
C  C13  1  0.36280000  0.05440000  0.21820000  1.0 -0.0472171056
C  C14  1  0.13720000  0.94560000  0.71820000  1.0 -0.0472171056
C  C15  1  0.63720000  0.55440000  0.28180000  1.0 -0.0472171056
C  C16  1  0.86280000  0.44560000  0.78180000  1.0 -0.0472171056
C  C17  1  0.21820000  0.36280000  0.05440000  1.0 -0.0472171056
C  C18  1  0.71820000  0.13720000  0.94560000  1.0 -0.0472171056
C  C19  1  0.28180000  0.63720000  0.55440000  1.0 -0.0472171056
C  C20  1  0.78180000  0.86280000  0.44560000  1.0 -0.0472171056
C  C21  1  0.05440000  0.21820000  0.36280000  1.0 -0.0472171056
C  C22  1  0.94560000  0.71820000  0.13720000  1.0 -0.0472171056
C  C23  1  0.55440000  0.28180000  0.63720000  1.0 -0.0472171056
C  C24  1  0.44560000  0.78180000  0.86280000  1.0 -0.0472171056
C  C25  1  0.32730000  0.06140000  0.26930000  1.0 -0.0023024752
C  C26  1  0.17270000  0.93860000  0.76930000  1.0 -0.0023024752
C  C27  1  0.67270000  0.56140000  0.23070000  1.0 -0.0023024752
C  C28  1  0.82730000  0.43860000  0.73070000  1.0 -0.0023024752
C  C29  1  0.26930000  0.32730000  0.06140000  1.0 -0.0023024752
C  C30  1  0.76930000  0.17270000  0.93860000  1.0 -0.0023024752
C  C31  1  0.23070000  0.67270000  0.56140000  1.0 -0.0023024752
C  C32  1  0.73070000  0.82730000  0.43860000  1.0 -0.0023024752
C  C33  1  0.06140000  0.26930000  0.32730000  1.0 -0.0023024752
C  C34  1  0.93860000  0.76930000  0.17270000  1.0 -0.0023024752
C  C35  1  0.56140000  0.23070000  0.67270000  1.0 -0.0023024752
C  C36  1  0.43860000  0.73070000  0.82730000  1.0 -0.0023024752
C  C37  1  0.41920000  0.03650000  0.24610000  1.0 -0.1610790309
C  C38  1  0.08080000  0.96350000  0.74610000  1.0 -0.1610790309
C  C39  1  0.58080000  0.53650000  0.25390000  1.0 -0.1610790309
C  C40  1  0.91920000  0.46350000  0.75390000  1.0 -0.1610790309
C  C41  1  0.24610000  0.41920000  0.03650000  1.0 -0.1610790309
C  C42  1  0.74610000  0.08080000  0.96350000  1.0 -0.1610790309
C  C43  1  0.25390000  0.58080000  0.53650000  1.0 -0.1610790309
C  C44  1  0.75390000  0.91920000  0.46350000  1.0 -0.1610790309
C  C45  1  0.03650000  0.24610000  0.41920000  1.0 -0.1610790309
C  C46  1  0.96350000  0.74610000  0.08080000  1.0 -0.1610790309
C  C47  1  0.53650000  0.25390000  0.58080000  1.0 -0.1610790309
C  C48  1  0.46350000  0.75390000  0.91920000  1.0 -0.1610790309
C  C49  1  0.22280000  0.93270000  0.21690000  1.0 -0.0802572927
C  C50  1  0.27720000  0.06730000  0.71690000  1.0 -0.0802572927
C  C51  1  0.77720000  0.43270000  0.28310000  1.0 -0.0802572927
C  C52  1  0.72280000  0.56730000  0.78310000  1.0 -0.0802572927
C  C53  1  0.21690000  0.22280000  0.93270000  1.0 -0.0802572927
C  C54  1  0.71690000  0.27720000  0.06730000  1.0 -0.0802572927
C  C55  1  0.28310000  0.77720000  0.43270000  1.0 -0.0802572927
C  C56  1  0.78310000  0.72280000  0.56730000  1.0 -0.0802572927
C  C57  1  0.93270000  0.21690000  0.22280000  1.0 -0.0802572927
C  C58  1  0.06730000  0.71690000  0.27720000  1.0 -0.0802572927
C  C59  1  0.43270000  0.28310000  0.77720000  1.0 -0.0802572927
C  C60  1  0.56730000  0.78310000  0.72280000  1.0 -0.0802572927
C  C61  1  0.26530000  0.92720000  0.17350000  1.0 -0.0438212918
C  C62  1  0.23470000  0.07280000  0.67350000  1.0 -0.0438212918
C  C63  1  0.73470000  0.42720000  0.32650000  1.0 -0.0438212918
C  C64  1  0.76530000  0.57280000  0.82650000  1.0 -0.0438212918
C  C65  1  0.17350000  0.26530000  0.92720000  1.0 -0.0438212918
C  C66  1  0.67350000  0.23470000  0.07280000  1.0 -0.0438212918
C  C67  1  0.32650000  0.73470000  0.42720000  1.0 -0.0438212918
C  C68  1  0.82650000  0.76530000  0.57280000  1.0 -0.0438212918
C  C69  1  0.92720000  0.17350000  0.26530000  1.0 -0.0438212918
C  C70  1  0.07280000  0.67350000  0.23470000  1.0 -0.0438212918
C  C71  1  0.42720000  0.32650000  0.73470000  1.0 -0.0438212918
C  C72  1  0.57280000  0.82650000  0.76530000  1.0 -0.0438212918
C  C73  1  0.25170000  0.87220000  0.14260000  1.0 -0.1974164898
C  C74  1  0.24830000  0.12780000  0.64260000  1.0 -0.1974164898
C  C75  1  0.74830000  0.37220000  0.35740000  1.0 -0.1974164898
C  C76  1  0.75170000  0.62780000  0.85740000  1.0 -0.1974164898
C  C77  1  0.14260000  0.25170000  0.87220000  1.0 -0.1974164898
C  C78  1  0.64260000  0.24830000  0.12780000  1.0 -0.1974164898
C  C79  1  0.35740000  0.74830000  0.37220000  1.0 -0.1974164898
C  C80  1  0.85740000  0.75170000  0.62780000  1.0 -0.1974164898
C  C81  1  0.87220000  0.14260000  0.25170000  1.0 -0.1974164898
C  C82  1  0.12780000  0.64260000  0.24830000  1.0 -0.1974164898
C  C83  1  0.37220000  0.35740000  0.74830000  1.0 -0.1974164898
C  C84  1  0.62780000  0.85740000  0.75170000  1.0 -0.1974164898
C  C85  1  0.25590000  0.96740000  0.12910000  1.0 -0.0802572927
C  C86  1  0.24410000  0.03260000  0.62910000  1.0 -0.0802572927
C  C87  1  0.74410000  0.46740000  0.37090000  1.0 -0.0802572927
C  C88  1  0.75590000  0.53260000  0.87090000  1.0 -0.0802572927
C  C89  1  0.12910000  0.25590000  0.96740000  1.0 -0.0802572927
C  C90  1  0.62910000  0.24410000  0.03260000  1.0 -0.0802572927
C  C91  1  0.37090000  0.74410000  0.46740000  1.0 -0.0802572927
C  C92  1  0.87090000  0.75590000  0.53260000  1.0 -0.0802572927
C  C93  1  0.96740000  0.12910000  0.25590000  1.0 -0.0802572927
C  C94  1  0.03260000  0.62910000  0.24410000  1.0 -0.0802572927
C  C95  1  0.46740000  0.37090000  0.74410000  1.0 -0.0802572927
C  C96  1  0.53260000  0.87090000  0.75590000  1.0 -0.0802572927
C  C97  1  0.29520000  0.94890000  0.91990000  1.0 -0.0284702493
C  C98  1  0.20480000  0.05110000  0.41990000  1.0 -0.0284702493
C  C99  1  0.70480000  0.44890000  0.58010000  1.0 -0.0284702493
C  C100  1  0.79520000  0.55110000  0.08010000  1.0 -0.0284702493
C  C101  1  0.91990000  0.29520000  0.94890000  1.0 -0.0284702493
C  C102  1  0.41990000  0.20480000  0.05110000  1.0 -0.0284702493
C  C103  1  0.58010000  0.70480000  0.44890000  1.0 -0.0284702493
C  C104  1  0.08010000  0.79520000  0.55110000  1.0 -0.0284702493
C  C105  1  0.94890000  0.91990000  0.29520000  1.0 -0.0284702493
C  C106  1  0.05110000  0.41990000  0.20480000  1.0 -0.0284702493
C  C107  1  0.44890000  0.58010000  0.70480000  1.0 -0.0284702493
C  C108  1  0.55110000  0.08010000  0.79520000  1.0 -0.0284702493
C  C109  1  0.25230000  0.91210000  0.94080000  1.0 -0.0023024752
C  C110  1  0.24770000  0.08790000  0.44080000  1.0 -0.0023024752
C  C111  1  0.74770000  0.41210000  0.55920000  1.0 -0.0023024752
C  C112  1  0.75230000  0.58790000  0.05920000  1.0 -0.0023024752
C  C113  1  0.94080000  0.25230000  0.91210000  1.0 -0.0023024752
C  C114  1  0.44080000  0.24770000  0.08790000  1.0 -0.0023024752
C  C115  1  0.55920000  0.74770000  0.41210000  1.0 -0.0023024752
C  C116  1  0.05920000  0.75230000  0.58790000  1.0 -0.0023024752
C  C117  1  0.91210000  0.94080000  0.25230000  1.0 -0.0023024752
C  C118  1  0.08790000  0.44080000  0.24770000  1.0 -0.0023024752
C  C119  1  0.41210000  0.55920000  0.74770000  1.0 -0.0023024752
C  C120  1  0.58790000  0.05920000  0.75230000  1.0 -0.0023024752
C  C121  1  0.24280000  0.85680000  0.92210000  1.0 0.0074092081
C  C122  1  0.25720000  0.14320000  0.42210000  1.0 0.0074092081
C  C123  1  0.75720000  0.35680000  0.57790000  1.0 0.0074092081
C  C124  1  0.74280000  0.64320000  0.07790000  1.0 0.0074092081
C  C125  1  0.92210000  0.24280000  0.85680000  1.0 0.0074092081
C  C126  1  0.42210000  0.25720000  0.14320000  1.0 0.0074092081
C  C127  1  0.57790000  0.75720000  0.35680000  1.0 0.0074092081
C  C128  1  0.07790000  0.74280000  0.64320000  1.0 0.0074092081
C  C129  1  0.85680000  0.92210000  0.24280000  1.0 0.0074092081
C  C130  1  0.14320000  0.42210000  0.25720000  1.0 0.0074092081
C  C131  1  0.35680000  0.57790000  0.75720000  1.0 0.0074092081
C  C132  1  0.64320000  0.07790000  0.74280000  1.0 0.0074092081
C  C133  1  0.24940000  0.92130000  0.00360000  1.0 -0.4620851581
C  C134  1  0.25060000  0.07870000  0.50360000  1.0 -0.4620851581
C  C135  1  0.75060000  0.42130000  0.49640000  1.0 -0.4620851581
C  C136  1  0.74940000  0.57870000  0.99640000  1.0 -0.4620851581
C  C137  1  0.00360000  0.24940000  0.92130000  1.0 -0.4620851581
C  C138  1  0.50360000  0.25060000  0.07870000  1.0 -0.4620851581
C  C139  1  0.49640000  0.75060000  0.42130000  1.0 -0.4620851581
C  C140  1  0.99640000  0.74940000  0.57870000  1.0 -0.4620851581
C  C141  1  0.92130000  0.00360000  0.24940000  1.0 -0.4620851581
C  C142  1  0.07870000  0.50360000  0.25060000  1.0 -0.4620851581
C  C143  1  0.42130000  0.49640000  0.75060000  1.0 -0.4620851581
C  C144  1  0.57870000  0.99640000  0.74940000  1.0 -0.4620851581
C  C145  1  0.16630000  0.08180000  0.03000000  1.0 0.6275072454
C  C146  1  0.33370000  0.91820000  0.53000000  1.0 0.6275072454
C  C147  1  0.83370000  0.58180000  0.47000000  1.0 0.6275072454
C  C148  1  0.66630000  0.41820000  0.97000000  1.0 0.6275072454
C  C149  1  0.03000000  0.16630000  0.08180000  1.0 0.6275072454
C  C150  1  0.53000000  0.33370000  0.91820000  1.0 0.6275072454
C  C151  1  0.47000000  0.83370000  0.58180000  1.0 0.6275072454
C  C152  1  0.97000000  0.66630000  0.41820000  1.0 0.6275072454
C  C153  1  0.08180000  0.03000000  0.16630000  1.0 0.6275072454
C  C154  1  0.91820000  0.53000000  0.33370000  1.0 0.6275072454
C  C155  1  0.58180000  0.47000000  0.83370000  1.0 0.6275072454
C  C156  1  0.41820000  0.97000000  0.66630000  1.0 0.6275072454
C  C157  1  0.13190000  0.05380000  0.99240000  1.0 -0.5994910044
C  C158  1  0.36810000  0.94620000  0.49240000  1.0 -0.5994910044
C  C159  1  0.86810000  0.55380000  0.50760000  1.0 -0.5994910044
C  C160  1  0.63190000  0.44620000  0.00760000  1.0 -0.5994910044
C  C161  1  0.99240000  0.13190000  0.05380000  1.0 -0.5994910044
C  C162  1  0.49240000  0.36810000  0.94620000  1.0 -0.5994910044
C  C163  1  0.50760000  0.86810000  0.55380000  1.0 -0.5994910044
C  C164  1  0.00760000  0.63190000  0.44620000  1.0 -0.5994910044
C  C165  1  0.05380000  0.99240000  0.13190000  1.0 -0.5994910044
C  C166  1  0.94620000  0.49240000  0.36810000  1.0 -0.5994910044
C  C167  1  0.55380000  0.50760000  0.86810000  1.0 -0.5994910044
C  C168  1  0.44620000  0.00760000  0.63190000  1.0 -0.5994910044
C  C169  1  0.27100000  0.08270000  0.88900000  1.0 0.6372311918
C  C170  1  0.22900000  0.91730000  0.38900000  1.0 0.6372311918
C  C171  1  0.72900000  0.58270000  0.61100000  1.0 0.6372311918
C  C172  1  0.77100000  0.41730000  0.11100000  1.0 0.6372311918
C  C173  1  0.88900000  0.27100000  0.08270000  1.0 0.6372311918
C  C174  1  0.38900000  0.22900000  0.91730000  1.0 0.6372311918
C  C175  1  0.61100000  0.72900000  0.58270000  1.0 0.6372311918
C  C176  1  0.11100000  0.77100000  0.41730000  1.0 0.6372311918
C  C177  1  0.08270000  0.88900000  0.27100000  1.0 0.6372311918
C  C178  1  0.91730000  0.38900000  0.22900000  1.0 0.6372311918
C  C179  1  0.58270000  0.61100000  0.72900000  1.0 0.6372311918
C  C180  1  0.41730000  0.11100000  0.77100000  1.0 0.6372311918
C  C181  1  0.22070000  0.06910000  0.85580000  1.0 -0.5994910044
C  C182  1  0.27930000  0.93090000  0.35580000  1.0 -0.5994910044
C  C183  1  0.77930000  0.56910000  0.64420000  1.0 -0.5994910044
C  C184  1  0.72070000  0.43090000  0.14420000  1.0 -0.5994910044
C  C185  1  0.85580000  0.22070000  0.06910000  1.0 -0.5994910044
C  C186  1  0.35580000  0.27930000  0.93090000  1.0 -0.5994910044
C  C187  1  0.64420000  0.77930000  0.56910000  1.0 -0.5994910044
C  C188  1  0.14420000  0.72070000  0.43090000  1.0 -0.5994910044
C  C189  1  0.06910000  0.85580000  0.22070000  1.0 -0.5994910044
C  C190  1  0.93090000  0.35580000  0.27930000  1.0 -0.5994910044
C  C191  1  0.56910000  0.64420000  0.77930000  1.0 -0.5994910044
C  C192  1  0.43090000  0.14420000  0.72070000  1.0 -0.5994910044
C  C193  1  0.36050000  0.05180000  0.03350000  1.0 0.6598802415
C  C194  1  0.13950000  0.94820000  0.53350000  1.0 0.6598802415
C  C195  1  0.63950000  0.55180000  0.46650000  1.0 0.6598802415
C  C196  1  0.86050000  0.44820000  0.96650000  1.0 0.6598802415
C  C197  1  0.03350000  0.36050000  0.05180000  1.0 0.6598802415
C  C198  1  0.53350000  0.13950000  0.94820000  1.0 0.6598802415
C  C199  1  0.46650000  0.63950000  0.55180000  1.0 0.6598802415
C  C200  1  0.96650000  0.86050000  0.44820000  1.0 0.6598802415
C  C201  1  0.05180000  0.03350000  0.36050000  1.0 0.6598802415
C  C202  1  0.94820000  0.53350000  0.13950000  1.0 0.6598802415
C  C203  1  0.55180000  0.46650000  0.63950000  1.0 0.6598802415
C  C204  1  0.44820000  0.96650000  0.86050000  1.0 0.6598802415
C  C205  1  0.39910000  0.00490000  0.03500000  1.0 -0.5911394151
C  C206  1  0.10090000  0.99510000  0.53500000  1.0 -0.5911394151
C  C207  1  0.60090000  0.50490000  0.46500000  1.0 -0.5911394151
C  C208  1  0.89910000  0.49510000  0.96500000  1.0 -0.5911394151
C  C209  1  0.03500000  0.39910000  0.00490000  1.0 -0.5911394151
C  C210  1  0.53500000  0.10090000  0.99510000  1.0 -0.5911394151
C  C211  1  0.46500000  0.60090000  0.50490000  1.0 -0.5911394151
C  C212  1  0.96500000  0.89910000  0.49510000  1.0 -0.5911394151
C  C213  1  0.00490000  0.03500000  0.39910000  1.0 -0.5911394151
C  C214  1  0.99510000  0.53500000  0.10090000  1.0 -0.5911394151
C  C215  1  0.50490000  0.46500000  0.60090000  1.0 -0.5911394151
C  C216  1  0.49510000  0.96500000  0.89910000  1.0 -0.5911394151
C  C217  1  0.41290000  0.01850000  0.22760000  1.0 -0.1974164898
C  C218  1  0.08710000  0.98150000  0.72760000  1.0 -0.1974164898
C  C219  1  0.58710000  0.51850000  0.27240000  1.0 -0.1974164898
C  C220  1  0.91290000  0.48150000  0.77240000  1.0 -0.1974164898
C  C221  1  0.22760000  0.41290000  0.01850000  1.0 -0.1974164898
C  C222  1  0.72760000  0.08710000  0.98150000  1.0 -0.1974164898
C  C223  1  0.27240000  0.58710000  0.51850000  1.0 -0.1974164898
C  C224  1  0.77240000  0.91290000  0.48150000  1.0 -0.1974164898
C  C225  1  0.01850000  0.22760000  0.41290000  1.0 -0.1974164898
C  C226  1  0.98150000  0.72760000  0.08710000  1.0 -0.1974164898
C  C227  1  0.51850000  0.27240000  0.58710000  1.0 -0.1974164898
C  C228  1  0.48150000  0.77240000  0.91290000  1.0 -0.1974164898
C  C229  1  0.15670000  0.22150000  0.92670000  1.0 -0.0438212918
C  C230  1  0.34330000  0.77850000  0.42670000  1.0 -0.0438212918
C  C231  1  0.84330000  0.72150000  0.57330000  1.0 -0.0438212918
C  C232  1  0.65670000  0.27850000  0.07330000  1.0 -0.0438212918
C  C233  1  0.92670000  0.15670000  0.22150000  1.0 -0.0438212918
C  C234  1  0.42670000  0.34330000  0.77850000  1.0 -0.0438212918
C  C235  1  0.57330000  0.84330000  0.72150000  1.0 -0.0438212918
C  C236  1  0.07330000  0.65670000  0.27850000  1.0 -0.0438212918
C  C237  1  0.22150000  0.92670000  0.15670000  1.0 -0.0438212918
C  C238  1  0.77850000  0.42670000  0.34330000  1.0 -0.0438212918
C  C239  1  0.72150000  0.57330000  0.84330000  1.0 -0.0438212918
C  C240  1  0.27850000  0.07330000  0.65670000  1.0 -0.0438212918
O  O1  1  0.32700000  0.13070000  0.16470000  1.0 -0.5000452249
O  O2  1  0.17300000  0.86930000  0.66470000  1.0 -0.5000452249
O  O3  1  0.67300000  0.63070000  0.33530000  1.0 -0.5000452249
O  O4  1  0.82700000  0.36930000  0.83530000  1.0 -0.5000452249
O  O5  1  0.16470000  0.32700000  0.13070000  1.0 -0.5000452249
O  O6  1  0.66470000  0.17300000  0.86930000  1.0 -0.5000452249
O  O7  1  0.33530000  0.67300000  0.63070000  1.0 -0.5000452249
O  O8  1  0.83530000  0.82700000  0.36930000  1.0 -0.5000452249
O  O9  1  0.13070000  0.16470000  0.32700000  1.0 -0.5000452249
O  O10  1  0.86930000  0.66470000  0.17300000  1.0 -0.5000452249
O  O11  1  0.63070000  0.33530000  0.67300000  1.0 -0.5000452249
O  O12  1  0.36930000  0.83530000  0.82700000  1.0 -0.5000452249
O  O13  1  0.27520000  0.08760000  0.25650000  1.0 -0.5098804327
O  O14  1  0.22480000  0.91240000  0.75650000  1.0 -0.5098804327
O  O15  1  0.72480000  0.58760000  0.24350000  1.0 -0.5098804327
O  O16  1  0.77520000  0.41240000  0.74350000  1.0 -0.5098804327
O  O17  1  0.25650000  0.27520000  0.08760000  1.0 -0.5098804327
O  O18  1  0.75650000  0.22480000  0.91240000  1.0 -0.5098804327
O  O19  1  0.24350000  0.72480000  0.58760000  1.0 -0.5098804327
O  O20  1  0.74350000  0.77520000  0.41240000  1.0 -0.5098804327
O  O21  1  0.08760000  0.25650000  0.27520000  1.0 -0.5098804327
O  O22  1  0.91240000  0.75650000  0.22480000  1.0 -0.5098804327
O  O23  1  0.58760000  0.24350000  0.72480000  1.0 -0.5098804327
O  O24  1  0.41240000  0.74350000  0.77520000  1.0 -0.5098804327
O  O25  1  0.25180000  0.02150000  0.14800000  1.0 -0.5000452249
O  O26  1  0.24820000  0.97850000  0.64800000  1.0 -0.5000452249
O  O27  1  0.74820000  0.52150000  0.35200000  1.0 -0.5000452249
O  O28  1  0.75180000  0.47850000  0.85200000  1.0 -0.5000452249
O  O29  1  0.14800000  0.25180000  0.02150000  1.0 -0.5000452249
O  O30  1  0.64800000  0.24820000  0.97850000  1.0 -0.5000452249
O  O31  1  0.35200000  0.74820000  0.52150000  1.0 -0.5000452249
O  O32  1  0.85200000  0.75180000  0.47850000  1.0 -0.5000452249
O  O33  1  0.02150000  0.14800000  0.25180000  1.0 -0.5000452249
O  O34  1  0.97850000  0.64800000  0.24820000  1.0 -0.5000452249
O  O35  1  0.52150000  0.35200000  0.74820000  1.0 -0.5000452249
O  O36  1  0.47850000  0.85200000  0.75180000  1.0 -0.5000452249
O  O37  1  0.20890000  0.98070000  0.24400000  1.0 -0.5000452249
O  O38  1  0.29110000  0.01930000  0.74400000  1.0 -0.5000452249
O  O39  1  0.79110000  0.48070000  0.25600000  1.0 -0.5000452249
O  O40  1  0.70890000  0.51930000  0.75600000  1.0 -0.5000452249
O  O41  1  0.24400000  0.20890000  0.98070000  1.0 -0.5000452249
O  O42  1  0.74400000  0.29110000  0.01930000  1.0 -0.5000452249
O  O43  1  0.25600000  0.79110000  0.48070000  1.0 -0.5000452249
O  O44  1  0.75600000  0.70890000  0.51930000  1.0 -0.5000452249
O  O45  1  0.98070000  0.24400000  0.20890000  1.0 -0.5000452249
O  O46  1  0.01930000  0.74400000  0.29110000  1.0 -0.5000452249
O  O47  1  0.48070000  0.25600000  0.79110000  1.0 -0.5000452249
O  O48  1  0.51930000  0.75600000  0.70890000  1.0 -0.5000452249
O  O49  1  0.30020000  0.94980000  0.86270000  1.0 -0.5288209283
O  O50  1  0.19980000  0.05020000  0.36270000  1.0 -0.5288209283
O  O51  1  0.69980000  0.44980000  0.63730000  1.0 -0.5288209283
O  O52  1  0.80020000  0.55020000  0.13730000  1.0 -0.5288209283
O  O53  1  0.86270000  0.30020000  0.94980000  1.0 -0.5288209283
O  O54  1  0.36270000  0.19980000  0.05020000  1.0 -0.5288209283
O  O55  1  0.63730000  0.69980000  0.44980000  1.0 -0.5288209283
O  O56  1  0.13730000  0.80020000  0.55020000  1.0 -0.5288209283
O  O57  1  0.94980000  0.86270000  0.30020000  1.0 -0.5288209283
O  O58  1  0.05020000  0.36270000  0.19980000  1.0 -0.5288209283
O  O59  1  0.44980000  0.63730000  0.69980000  1.0 -0.5288209283
O  O60  1  0.55020000  0.13730000  0.80020000  1.0 -0.5288209283
O  O61  1  0.24780000  0.85030000  0.86760000  1.0 -0.4620851581
O  O62  1  0.25220000  0.14970000  0.36760000  1.0 -0.4620851581
O  O63  1  0.75220000  0.35030000  0.63240000  1.0 -0.4620851581
O  O64  1  0.74780000  0.64970000  0.13240000  1.0 -0.4620851581
O  O65  1  0.86760000  0.24780000  0.85030000  1.0 -0.4620851581
O  O66  1  0.36760000  0.25220000  0.14970000  1.0 -0.4620851581
O  O67  1  0.63240000  0.75220000  0.35030000  1.0 -0.4620851581
O  O68  1  0.13240000  0.74780000  0.64970000  1.0 -0.4620851581
O  O69  1  0.85030000  0.86760000  0.24780000  1.0 -0.4620851581
O  O70  1  0.14970000  0.36760000  0.25220000  1.0 -0.4620851581
O  O71  1  0.35030000  0.63240000  0.75220000  1.0 -0.4620851581
O  O72  1  0.64970000  0.13240000  0.74780000  1.0 -0.4620851581
O  O73  1  0.20990000  0.05770000  0.04440000  1.0 -0.5462751182
O  O74  1  0.29010000  0.94230000  0.54440000  1.0 -0.5462751182
O  O75  1  0.79010000  0.55770000  0.45560000  1.0 -0.5462751182
O  O76  1  0.70990000  0.44230000  0.95560000  1.0 -0.5462751182
O  O77  1  0.04440000  0.20990000  0.05770000  1.0 -0.5462751182
O  O78  1  0.54440000  0.29010000  0.94230000  1.0 -0.5462751182
O  O79  1  0.45560000  0.79010000  0.55770000  1.0 -0.5462751182
O  O80  1  0.95560000  0.70990000  0.44230000  1.0 -0.5462751182
O  O81  1  0.05770000  0.04440000  0.20990000  1.0 -0.5462751182
O  O82  1  0.94230000  0.54440000  0.29010000  1.0 -0.5462751182
O  O83  1  0.55770000  0.45560000  0.79010000  1.0 -0.5462751182
O  O84  1  0.44230000  0.95560000  0.70990000  1.0 -0.5462751182
O  O85  1  0.15280000  0.12760000  0.04960000  1.0 -0.5807359409
O  O86  1  0.34720000  0.87240000  0.54960000  1.0 -0.5807359409
O  O87  1  0.84720000  0.62760000  0.45040000  1.0 -0.5807359409
O  O88  1  0.65280000  0.37240000  0.95040000  1.0 -0.5807359409
O  O89  1  0.04960000  0.15280000  0.12760000  1.0 -0.5807359409
O  O90  1  0.54960000  0.34720000  0.87240000  1.0 -0.5807359409
O  O91  1  0.45040000  0.84720000  0.62760000  1.0 -0.5807359409
O  O92  1  0.95040000  0.65280000  0.37240000  1.0 -0.5807359409
O  O93  1  0.12760000  0.04960000  0.15280000  1.0 -0.5807359409
O  O94  1  0.87240000  0.54960000  0.34720000  1.0 -0.5807359409
O  O95  1  0.62760000  0.45040000  0.84720000  1.0 -0.5807359409
O  O96  1  0.37240000  0.95040000  0.65280000  1.0 -0.5807359409
O  O97  1  0.31600000  0.07400000  0.86710000  1.0 -0.5911394151
O  O98  1  0.18400000  0.92600000  0.36710000  1.0 -0.5911394151
O  O99  1  0.68400000  0.57400000  0.63290000  1.0 -0.5911394151
O  O100  1  0.81600000  0.42600000  0.13290000  1.0 -0.5911394151
O  O101  1  0.86710000  0.31600000  0.07400000  1.0 -0.5911394151
O  O102  1  0.36710000  0.18400000  0.92600000  1.0 -0.5911394151
O  O103  1  0.63290000  0.68400000  0.57400000  1.0 -0.5911394151
O  O104  1  0.13290000  0.81600000  0.42600000  1.0 -0.5911394151
O  O105  1  0.07400000  0.86710000  0.31600000  1.0 -0.5911394151
O  O106  1  0.92600000  0.36710000  0.18400000  1.0 -0.5911394151
O  O107  1  0.57400000  0.63290000  0.68400000  1.0 -0.5911394151
O  O108  1  0.42600000  0.13290000  0.81600000  1.0 -0.5911394151
O  O109  1  0.26540000  0.10740000  0.93140000  1.0 -0.5000452249
O  O110  1  0.23460000  0.89260000  0.43140000  1.0 -0.5000452249
O  O111  1  0.73460000  0.60740000  0.56860000  1.0 -0.5000452249
O  O112  1  0.76540000  0.39260000  0.06860000  1.0 -0.5000452249
O  O113  1  0.93140000  0.26540000  0.10740000  1.0 -0.5000452249
O  O114  1  0.43140000  0.23460000  0.89260000  1.0 -0.5000452249
O  O115  1  0.56860000  0.73460000  0.60740000  1.0 -0.5000452249
O  O116  1  0.06860000  0.76540000  0.39260000  1.0 -0.5000452249
O  O117  1  0.10740000  0.93140000  0.26540000  1.0 -0.5000452249
O  O118  1  0.89260000  0.43140000  0.23460000  1.0 -0.5000452249
O  O119  1  0.60740000  0.56860000  0.73460000  1.0 -0.5000452249
O  O120  1  0.39260000  0.06860000  0.76540000  1.0 -0.5000452249
O  O121  1  0.36640000  0.08650000  0.99540000  1.0 -0.6183007749
O  O122  1  0.13360000  0.91350000  0.49540000  1.0 -0.6183007749
O  O123  1  0.63360000  0.58650000  0.50460000  1.0 -0.6183007749
O  O124  1  0.86640000  0.41350000  0.00460000  1.0 -0.6183007749
O  O125  1  0.99540000  0.36640000  0.08650000  1.0 -0.6183007749
O  O126  1  0.49540000  0.13360000  0.91350000  1.0 -0.6183007749
O  O127  1  0.50460000  0.63360000  0.58650000  1.0 -0.6183007749
O  O128  1  0.00460000  0.86640000  0.41350000  1.0 -0.6183007749
O  O129  1  0.08650000  0.99540000  0.36640000  1.0 -0.6183007749
O  O130  1  0.91350000  0.49540000  0.13360000  1.0 -0.6183007749
O  O131  1  0.58650000  0.50460000  0.63360000  1.0 -0.6183007749
O  O132  1  0.41350000  0.00460000  0.86640000  1.0 -0.6183007749
O  O133  1  0.32720000  0.05520000  0.07160000  1.0 -0.5223104449
O  O134  1  0.17280000  0.94480000  0.57160000  1.0 -0.5223104449
O  O135  1  0.67280000  0.55520000  0.42840000  1.0 -0.5223104449
O  O136  1  0.82720000  0.44480000  0.92840000  1.0 -0.5223104449
O  O137  1  0.07160000  0.32720000  0.05520000  1.0 -0.5223104449
O  O138  1  0.57160000  0.17280000  0.94480000  1.0 -0.5223104449
O  O139  1  0.42840000  0.67280000  0.55520000  1.0 -0.5223104449
O  O140  1  0.92840000  0.82720000  0.44480000  1.0 -0.5223104449
O  O141  1  0.05520000  0.07160000  0.32720000  1.0 -0.5223104449
O  O142  1  0.94480000  0.57160000  0.17280000  1.0 -0.5223104449
O  O143  1  0.55520000  0.42840000  0.67280000  1.0 -0.5223104449
O  O144  1  0.44480000  0.92840000  0.82720000  1.0 -0.5223104449
O  O145  1  0.21200000  0.71200000  0.78800000  1.0 -0.8217406513
O  O146  1  0.28800000  0.28800000  0.28800000  1.0 -0.8217406513
O  O147  1  0.78800000  0.21200000  0.71200000  1.0 -0.8217406513
O  O148  1  0.71200000  0.78800000  0.21200000  1.0 -0.8217406513
O  O149  1  0.34080000  0.19080000  0.27200000  1.0 -0.5288209283
O  O150  1  0.15920000  0.80920000  0.77200000  1.0 -0.5352527293
O  O151  1  0.65920000  0.69080000  0.22800000  1.0 -0.5288209283
O  O152  1  0.84080000  0.30920000  0.72800000  1.0 -0.5288209283
O  O153  1  0.27200000  0.34080000  0.19080000  1.0 -0.5288209283
O  O154  1  0.77200000  0.15920000  0.80920000  1.0 -0.5288209283
O  O155  1  0.22800000  0.65920000  0.69080000  1.0 -0.5352527293
O  O156  1  0.72800000  0.84080000  0.30920000  1.0 -0.5288209283
O  O157  1  0.19080000  0.27200000  0.34080000  1.0 -0.5288209283
O  O158  1  0.80920000  0.77200000  0.15920000  1.0 -0.5288209283
O  O159  1  0.69080000  0.22800000  0.65920000  1.0 -0.5288209283
O  O160  1  0.30920000  0.72800000  0.84080000  1.0 -0.5352527293
O  O161  1  0.26660000  0.16220000  0.07380000  1.0 -0.8139519087
O  O162  1  0.23340000  0.83780000  0.57380000  1.0 -0.8139519087
O  O163  1  0.73340000  0.66220000  0.42620000  1.0 -0.8139519087
O  O164  1  0.76660000  0.33780000  0.92620000  1.0 -0.8139519087
O  O165  1  0.07380000  0.26660000  0.16220000  1.0 -0.8139519087
O  O166  1  0.57380000  0.23340000  0.83780000  1.0 -0.8139519087
O  O167  1  0.42620000  0.73340000  0.66220000  1.0 -0.8139519087
O  O168  1  0.92620000  0.76660000  0.33780000  1.0 -0.8139519087
O  O169  1  0.16220000  0.07380000  0.26660000  1.0 -0.8139519087
O  O170  1  0.83780000  0.57380000  0.23340000  1.0 -0.8139519087
O  O171  1  0.66220000  0.42620000  0.73340000  1.0 -0.8139519087
O  O172  1  0.33780000  0.92620000  0.76660000  1.0 -0.8139519087
O  O173  1  0.21550000  0.11500000  0.16680000  1.0 -0.7873229774
O  O174  1  0.28450000  0.88500000  0.66680000  1.0 -0.7873229774
O  O175  1  0.78450000  0.61500000  0.33320000  1.0 -0.7873229774
O  O176  1  0.71550000  0.38500000  0.83320000  1.0 -0.7873229774
O  O177  1  0.16680000  0.21550000  0.11500000  1.0 -0.7873229774
O  O178  1  0.66680000  0.28450000  0.88500000  1.0 -0.7873229774
O  O179  1  0.33320000  0.78450000  0.61500000  1.0 -0.7873229774
O  O180  1  0.83320000  0.71550000  0.38500000  1.0 -0.7873229774
O  O181  1  0.11500000  0.16680000  0.21550000  1.0 -0.7873229774
O  O182  1  0.88500000  0.66680000  0.28450000  1.0 -0.7873229774
O  O183  1  0.61500000  0.33320000  0.78450000  1.0 -0.7873229774
O  O184  1  0.38500000  0.83320000  0.71550000  1.0 -0.7873229774
O  O185  1  0.22180000  0.17630000  0.27240000  1.0 -0.7695229542
O  O186  1  0.27820000  0.82370000  0.77240000  1.0 -0.7695229542
O  O187  1  0.77820000  0.67630000  0.22760000  1.0 -0.7695229542
O  O188  1  0.72180000  0.32370000  0.72760000  1.0 -0.7695229542
O  O189  1  0.27240000  0.22180000  0.17630000  1.0 -0.7695229542
O  O190  1  0.77240000  0.27820000  0.82370000  1.0 -0.7695229542
O  O191  1  0.22760000  0.77820000  0.67630000  1.0 -0.7695229542
O  O192  1  0.72760000  0.72180000  0.32370000  1.0 -0.7695229542
O  O193  1  0.17630000  0.27240000  0.22180000  1.0 -0.7695229542
O  O194  1  0.82370000  0.77240000  0.27820000  1.0 -0.7695229542
O  O195  1  0.67630000  0.22760000  0.77820000  1.0 -0.7695229542
O  O196  1  0.32370000  0.72760000  0.72180000  1.0 -0.7695229542
O  O197  1  0.14820000  0.79090000  0.85530000  1.0 -0.0284702493
O  O198  1  0.35180000  0.20910000  0.35530000  1.0 -0.0284702493
O  O199  1  0.85180000  0.29090000  0.64470000  1.0 -0.0284702493
O  O200  1  0.64820000  0.70910000  0.14470000  1.0 -0.0284702493
O  O201  1  0.85530000  0.14820000  0.79090000  1.0 -0.0284702493
O  O202  1  0.35530000  0.35180000  0.20910000  1.0 -0.0284702493
O  O203  1  0.64470000  0.85180000  0.29090000  1.0 -0.0284702493
O  O204  1  0.14470000  0.64820000  0.70910000  1.0 -0.0284702493
O  O205  1  0.79090000  0.85530000  0.14820000  1.0 -0.0284702493
O  O206  1  0.20910000  0.35530000  0.35180000  1.0 -0.0284702493
O  O207  1  0.29090000  0.64470000  0.85180000  1.0 -0.0284702493
O  O208  1  0.70910000  0.14470000  0.64820000  1.0 -0.0284702493
O  O209  1  0.39170000  0.32650000  0.25220000  1.0 -0.1610790309
O  O210  1  0.10830000  0.67350000  0.75220000  1.0 -0.1610790309
O  O211  1  0.60830000  0.82650000  0.24780000  1.0 -0.1610790309
O  O212  1  0.89170000  0.17350000  0.74780000  1.0 -0.1610790309
O  O213  1  0.25220000  0.39170000  0.32650000  1.0 -0.1610790309
O  O214  1  0.75220000  0.10830000  0.67350000  1.0 -0.1610790309
O  O215  1  0.24780000  0.60830000  0.82650000  1.0 -0.1610790309
O  O216  1  0.74780000  0.89170000  0.17350000  1.0 -0.1610790309
O  O217  1  0.32650000  0.25220000  0.39170000  1.0 -0.1610790309
O  O218  1  0.67350000  0.75220000  0.10830000  1.0 -0.1610790309
O  O219  1  0.82650000  0.24780000  0.60830000  1.0 -0.1610790309
O  O220  1  0.17350000  0.74780000  0.89170000  1.0 -0.1610790309
