# DDEC6 charges by PACMAN v1.1 (https://github.com/mtap-research/PACMAN-charge/)
data_GESMOK_ASR_pacman
_symmetry_space_group_name_H-M   'P 1'
_cell_length_a   15.11740000
_cell_length_b   15.11740000
_cell_length_c   18.85200000
_cell_angle_alpha   90.00000000
_cell_angle_beta   90.00000000
_cell_angle_gamma   120.00000000
_symmetry_Int_Tables_number   1
_chemical_formula_structural   NiH18C32(NO)8
_chemical_formula_sum   'Ni3 H54 C96 N24 O24'
_cell_volume   3731.14624389
_cell_formula_units_Z   3
loop_
 _symmetry_equiv_pos_site_id
 _symmetry_equiv_pos_as_xyz
  1  'x, y, z'
loop_
 _atom_site_type_symbol
 _atom_site_label
 _atom_site_symmetry_multiplicity
 _atom_site_fract_x
 _atom_site_fract_y
 _atom_site_fract_z
 _atom_site_occupancy
 _atom_site_charge
Ni  Ni1  1  0.00000000  0.16425000  0.16667000  1.0 0.6193248851
Ni  Ni2  1  0.16425000  0.00000000  0.83333000  1.0 0.6193248851
Ni  Ni3  1  0.83575000  0.83575000  0.50000000  1.0 0.6193248851
H  H1  1  0.19252000  0.34364000  0.22214000  1.0 0.0898151002
H  H2  1  0.29585000  0.39839000  0.32203000  1.0 0.1419310625
H  H3  1  0.10637000  0.12847000  0.41188000  1.0 0.1419310625
H  H4  1  0.00952000  0.08271000  0.31048000  1.0 0.1108714619
H  H5  1  0.55977000  0.50470000  0.59957000  1.0 0.1419310625
H  H6  1  0.71066000  0.65579000  0.59656000  1.0 0.1108714619
H  H7  1  0.57282000  0.12136000  0.32798000  1.0 0.1308996443
H  H8  1  0.56282000  0.07819000  0.44061000  1.0 0.1242365443
H  H9  1  0.66454000  0.01231000  0.48081000  1.0 0.1997612489
H  H10  1  0.15112000  0.80748000  0.88881000  1.0 0.0898151002
H  H11  1  0.10254000  0.70415000  0.98870000  1.0 0.1419310625
H  H12  1  0.02210000  0.89363000  0.07855000  1.0 0.1419310625
H  H13  1  0.07319000  0.99048000  0.97715000  1.0 0.1108714619
H  H14  1  0.94493000  0.44023000  0.26624000  1.0 0.1419310625
H  H15  1  0.94513000  0.28934000  0.26323000  1.0 0.1108714619
H  H16  1  0.54854000  0.42718000  0.99465000  1.0 0.1308996443
H  H17  1  0.51537000  0.43718000  0.10728000  1.0 0.1308996443
H  H18  1  0.34777000  0.33546000  0.14748000  1.0 0.1997612489
H  H19  1  0.65636000  0.84888000  0.55548000  1.0 0.0898151002
H  H20  1  0.60161000  0.89746000  0.65537000  1.0 0.1419310625
H  H21  1  0.87153000  0.97790000  0.74522000  1.0 0.1419310625
H  H22  1  0.91729000  0.92681000  0.64382000  1.0 0.1108714619
H  H23  1  0.49530000  0.05507000  0.93291000  1.0 0.1419310625
H  H24  1  0.34421000  0.05487000  0.92990000  1.0 0.1108714619
H  H25  1  0.87864000  0.45146000  0.66132000  1.0 0.1308996443
H  H26  1  0.92181000  0.48463000  0.77395000  1.0 0.1242365443
H  H27  1  0.98769000  0.65223000  0.81415000  1.0 0.1997612489
H  H28  1  0.84888000  0.65636000  0.44452000  1.0 0.0898151002
H  H29  1  0.89746000  0.60161000  0.34463000  1.0 0.1419310625
H  H30  1  0.97790000  0.87153000  0.25478000  1.0 0.1419310625
H  H31  1  0.92681000  0.91729000  0.35618000  1.0 0.1108714619
H  H32  1  0.05507000  0.49530000  0.06709000  1.0 0.1419310625
H  H33  1  0.05487000  0.34421000  0.07010000  1.0 0.1108714619
H  H34  1  0.45146000  0.87864000  0.33868000  1.0 0.1308996443
H  H35  1  0.48463000  0.92181000  0.22605000  1.0 0.1242365443
H  H36  1  0.65223000  0.98769000  0.18585000  1.0 0.1997612489
H  H37  1  0.34364000  0.19252000  0.77786000  1.0 0.0898151002
H  H38  1  0.39839000  0.29585000  0.67797000  1.0 0.1419310625
H  H39  1  0.12847000  0.10637000  0.58812000  1.0 0.1419310625
H  H40  1  0.08271000  0.00952000  0.68952000  1.0 0.1108714619
H  H41  1  0.50470000  0.55977000  0.40043000  1.0 0.1419310625
H  H42  1  0.65579000  0.71066000  0.40344000  1.0 0.1108714619
H  H43  1  0.12136000  0.57282000  0.67202000  1.0 0.1308996443
H  H44  1  0.07819000  0.56282000  0.55939000  1.0 0.1242365443
H  H45  1  0.01231000  0.66454000  0.51919000  1.0 0.1997612489
H  H46  1  0.80748000  0.15112000  0.11119000  1.0 0.0898151002
H  H47  1  0.70415000  0.10254000  0.01130000  1.0 0.1419310625
H  H48  1  0.89363000  0.02210000  0.92145000  1.0 0.1419310625
H  H49  1  0.99048000  0.07319000  0.02285000  1.0 0.1108714619
H  H50  1  0.44023000  0.94493000  0.73376000  1.0 0.1419310625
H  H51  1  0.28934000  0.94513000  0.73677000  1.0 0.1108714619
H  H52  1  0.42718000  0.54854000  0.00535000  1.0 0.1308996443
H  H53  1  0.43718000  0.51537000  0.89272000  1.0 0.1242365443
H  H54  1  0.33546000  0.34777000  0.85252000  1.0 0.1997612489
C  C1  1  0.17490000  0.30040000  0.26113000  1.0 0.0898151002
C  C2  1  0.23760000  0.33400000  0.32091000  1.0 -0.1710679161
C  C3  1  0.21077000  0.26907000  0.37830000  1.0 0.0531795526
C  C4  1  0.12510000  0.17390000  0.37411000  1.0 -0.1364383675
C  C5  1  0.06750000  0.14710000  0.31306000  1.0 0.0970750934
C  C6  1  0.27501000  0.30141000  0.44316000  1.0 0.3703508698
C  C7  1  0.57820000  0.54530000  0.55913000  1.0 -0.1571919175
C  C8  1  0.66825000  0.63605000  0.55700000  1.0 0.0835548689
C  C9  1  0.81510000  0.02290000  0.25663000  1.0 0.433282611
C  C10  1  0.73950000  0.04290000  0.31663000  1.0 0.0187507083
C  C11  1  0.67860000  0.08770000  0.29783000  1.0 0.0609801221
C  C12  1  0.61370000  0.09590000  0.34453000  1.0 -0.1327809743
C  C13  1  0.60650000  0.07040000  0.40983000  1.0 -0.2087665823
C  C14  1  0.66740000  0.02970000  0.43323000  1.0 0.0835548689
C  C15  1  0.73150000  0.01430000  0.38853000  1.0 -0.0921355488
C  C16  1  0.12550000  0.82510000  0.92780000  1.0 0.0898151002
C  C17  1  0.09640000  0.76240000  0.98758000  1.0 -0.1710679161
C  C18  1  0.05830000  0.78923000  0.04497000  1.0 0.0531795526
C  C19  1  0.04880000  0.87490000  0.04078000  1.0 -0.1364383675
C  C20  1  0.07960000  0.93250000  0.97973000  1.0 0.0970750934
C  C21  1  0.02640000  0.72499000  0.10983000  1.0 0.3703508698
C  C22  1  0.96710000  0.42180000  0.22580000  1.0 -0.1571919175
C  C23  1  0.96780000  0.33175000  0.22367000  1.0 0.0835548689
C  C24  1  0.20780000  0.18490000  0.92330000  1.0 0.433282611
C  C25  1  0.30340000  0.26050000  0.98330000  1.0 0.0187507083
C  C26  1  0.40910000  0.32140000  0.96450000  1.0 0.0609801221
C  C27  1  0.48220000  0.38630000  0.01120000  1.0 -0.1327809743
C  C28  1  0.46390000  0.39350000  0.07650000  1.0 -0.2087665823
C  C29  1  0.36230000  0.33260000  0.09990000  1.0 0.0835548689
C  C30  1  0.28280000  0.26850000  0.05520000  1.0 -0.0921355488
C  C31  1  0.69960000  0.87450000  0.59447000  1.0 0.0898151002
C  C32  1  0.66600000  0.90360000  0.65425000  1.0 -0.1710679161
C  C33  1  0.73093000  0.94170000  0.71164000  1.0 0.0531795526
C  C34  1  0.82610000  0.95120000  0.70745000  1.0 -0.1364383675
C  C35  1  0.85290000  0.92040000  0.64640000  1.0 0.0970750934
C  C36  1  0.69859000  0.97360000  0.77650000  1.0 0.3703508698
C  C37  1  0.45470000  0.03290000  0.89247000  1.0 -0.1571919175
C  C38  1  0.36395000  0.03220000  0.89034000  1.0 0.0835548689
C  C39  1  0.97710000  0.79220000  0.58997000  1.0 0.433282611
C  C40  1  0.95710000  0.69660000  0.64997000  1.0 0.0187507083
C  C41  1  0.91230000  0.59090000  0.63117000  1.0 0.0609801221
C  C42  1  0.90410000  0.51780000  0.67787000  1.0 -0.1327809743
C  C43  1  0.92960000  0.53610000  0.74317000  1.0 -0.2087665823
C  C44  1  0.97030000  0.63770000  0.76657000  1.0 0.0898151002
C  C45  1  0.98570000  0.71720000  0.72187000  1.0 -0.0921355488
C  C46  1  0.87450000  0.69960000  0.40553000  1.0 0.0898151002
C  C47  1  0.90360000  0.66600000  0.34575000  1.0 -0.1710679161
C  C48  1  0.94170000  0.73093000  0.28836000  1.0 0.0531795526
C  C49  1  0.95120000  0.82610000  0.29255000  1.0 -0.1364383675
C  C50  1  0.92040000  0.85290000  0.35360000  1.0 0.0970750934
C  C51  1  0.97360000  0.69859000  0.22350000  1.0 0.3703508698
C  C52  1  0.03290000  0.45470000  0.10753000  1.0 -0.1571919175
C  C53  1  0.03220000  0.36395000  0.10966000  1.0 0.0835548689
C  C54  1  0.79220000  0.97710000  0.41003000  1.0 0.433282611
C  C55  1  0.69660000  0.95710000  0.35003000  1.0 0.0187507083
C  C56  1  0.59090000  0.91230000  0.36883000  1.0 0.0609801221
C  C57  1  0.51780000  0.90410000  0.32213000  1.0 -0.1327809743
C  C58  1  0.53610000  0.92960000  0.25683000  1.0 -0.2087665823
C  C59  1  0.63770000  0.97030000  0.23343000  1.0 0.0835548689
C  C60  1  0.71720000  0.98570000  0.27813000  1.0 -0.0921355488
C  C61  1  0.30040000  0.17490000  0.73887000  1.0 0.0898151002
C  C62  1  0.33400000  0.23760000  0.67909000  1.0 -0.1710679161
C  C63  1  0.26907000  0.21077000  0.62170000  1.0 0.0531795526
C  C64  1  0.17390000  0.12510000  0.62589000  1.0 -0.1364383675
C  C65  1  0.14710000  0.06750000  0.68694000  1.0 0.0970750934
C  C66  1  0.30141000  0.27501000  0.55684000  1.0 0.3703508698
C  C67  1  0.54530000  0.57820000  0.44087000  1.0 -0.1571919175
C  C68  1  0.63605000  0.66825000  0.44300000  1.0 0.0835548689
C  C69  1  0.02290000  0.81510000  0.74337000  1.0 0.433282611
C  C70  1  0.04290000  0.73950000  0.68337000  1.0 0.0187507083
C  C71  1  0.08770000  0.67860000  0.70217000  1.0 0.0609801221
C  C72  1  0.09590000  0.61370000  0.65547000  1.0 -0.1327809743
C  C73  1  0.07040000  0.60650000  0.59017000  1.0 -0.2087665823
C  C74  1  0.02970000  0.66740000  0.56677000  1.0 0.0835548689
C  C75  1  0.01430000  0.73150000  0.61147000  1.0 -0.0921355488
C  C76  1  0.82510000  0.12550000  0.07220000  1.0 0.0898151002
C  C77  1  0.76240000  0.09640000  0.01242000  1.0 -0.1710679161
C  C78  1  0.78923000  0.05830000  0.95503000  1.0 0.0531795526
C  C79  1  0.87490000  0.04880000  0.95922000  1.0 -0.1364383675
C  C80  1  0.93250000  0.07960000  0.02027000  1.0 0.0970750934
C  C81  1  0.72499000  0.02640000  0.89017000  1.0 0.3703508698
C  C82  1  0.42180000  0.96710000  0.77420000  1.0 -0.1571919175
C  C83  1  0.33175000  0.96780000  0.77633000  1.0 0.0835548689
C  C84  1  0.18490000  0.20780000  0.07670000  1.0 0.433282611
C  C85  1  0.26050000  0.30340000  0.01670000  1.0 0.0187507083
C  C86  1  0.32140000  0.40910000  0.03550000  1.0 0.0657805376
C  C87  1  0.38630000  0.48220000  0.98880000  1.0 -0.1327809743
C  C88  1  0.39350000  0.46390000  0.92350000  1.0 -0.2087665823
C  C89  1  0.33260000  0.36230000  0.90010000  1.0 0.0835548689
C  C90  1  0.26850000  0.28280000  0.94480000  1.0 -0.0921355488
C  C91  1  0.41680000  0.41680000  0.50000000  1.0 0.3601329846
C  C92  1  0.51440000  0.51440000  0.50000000  1.0 0.0609801221
C  C93  1  0.00000000  0.58320000  0.16667000  1.0 0.3601329846
C  C94  1  0.00000000  0.48560000  0.16667000  1.0 0.0531795526
C  C95  1  0.58320000  0.00000000  0.83333000  1.0 0.3601329846
C  C96  1  0.48560000  0.00000000  0.83333000  1.0 0.0609801221
N  N1  1  0.09123000  0.20940000  0.25748000  1.0 -0.2087665823
N  N2  1  0.36136000  0.39176000  0.44064000  1.0 -0.4166525348
N  N3  1  0.66666667  0.09537000  0.22163000  1.0 0.1456614159
N  N4  1  0.11817000  0.90877000  0.92415000  1.0 -0.2087665823
N  N5  1  0.03040000  0.63864000  0.10731000  1.0 -0.4166525348
N  N6  1  0.42870000  0.33333333  0.88830000  1.0 0.1456614159
N  N7  1  0.79060000  0.88183000  0.59082000  1.0 -0.2087665823
N  N8  1  0.60824000  0.96960000  0.77398000  1.0 -0.4166525348
N  N9  1  0.90463000  0.57130000  0.55497000  1.0 0.1308996443
N  N10  1  0.88183000  0.79060000  0.40918000  1.0 -0.2087665823
N  N11  1  0.96960000  0.60824000  0.22602000  1.0 -0.4166525348
N  N12  1  0.57130000  0.90463000  0.44503000  1.0 0.1308996443
N  N13  1  0.20940000  0.09123000  0.74252000  1.0 -0.2087665823
N  N14  1  0.39176000  0.36136000  0.55936000  1.0 -0.4166525348
N  N15  1  0.09537000  0.66666667  0.77837000  1.0 0.1308996443
N  N16  1  0.90877000  0.11817000  0.07585000  1.0 -0.2087665823
N  N17  1  0.63864000  0.03040000  0.89269000  1.0 -0.4166525348
N  N18  1  0.33333333  0.42870000  0.11170000  1.0 0.1308996443
N  N19  1  0.24055000  0.24055000  0.50000000  1.0 -0.4166525348
N  N20  1  0.69809000  0.69809000  0.50000000  1.0 -0.2087665823
N  N21  1  0.00000000  0.75945000  0.16667000  1.0 -0.4166525348
N  N22  1  0.00000000  0.30191000  0.16667000  1.0 -0.2087665823
N  N23  1  0.75945000  0.00000000  0.83333000  1.0 -0.4166525348
N  N24  1  0.30191000  0.00000000  0.83333000  1.0 -0.2087665823
O  O1  1  0.83240000  0.94950000  0.25743000  1.0 -0.4357767083
O  O2  1  0.86827000  0.10597000  0.22813000  1.0 -0.4712873427
O  O3  1  0.68940000  0.18050000  0.22013000  1.0 -0.2627759553
O  O4  1  0.64450000  0.02280000  0.18013000  1.0 -0.1327809743
O  O5  1  0.11710000  0.16760000  0.92410000  1.0 -0.4357767083
O  O6  1  0.23770000  0.13173000  0.89480000  1.0 -0.4712873427
O  O7  1  0.49110000  0.31060000  0.88680000  1.0 -0.2627759553
O  O8  1  0.37830000  0.35550000  0.84680000  1.0 -0.1327809743
O  O9  1  0.05050000  0.88290000  0.59077000  1.0 -0.4357767083
O  O10  1  0.89403000  0.76230000  0.56147000  1.0 -0.4712873427
O  O11  1  0.81950000  0.50890000  0.55347000  1.0 -0.2627759553
O  O12  1  0.97720000  0.62170000  0.51347000  1.0 -0.1327809743
O  O13  1  0.88290000  0.05050000  0.40923000  1.0 -0.4357767083
O  O14  1  0.76230000  0.89403000  0.43853000  1.0 -0.4712873427
O  O15  1  0.50890000  0.81950000  0.44653000  1.0 -0.2654851057
O  O16  1  0.62170000  0.97720000  0.48653000  1.0 -0.1327809743
O  O17  1  0.94950000  0.83240000  0.74257000  1.0 -0.4357767083
O  O18  1  0.10597000  0.86827000  0.77187000  1.0 -0.4712873427
O  O19  1  0.18050000  0.68940000  0.77987000  1.0 -0.2654851057
O  O20  1  0.02280000  0.64450000  0.81987000  1.0 -0.1327809743
O  O21  1  0.16760000  0.11710000  0.07590000  1.0 -0.4357767083
O  O22  1  0.13173000  0.23770000  0.10520000  1.0 -0.4712873427
O  O23  1  0.31060000  0.49110000  0.11320000  1.0 -0.2654851057
O  O24  1  0.35550000  0.37830000  0.15320000  1.0 -0.1327809743
