# DDEC6 charges by PACMAN v1.1 (https://github.com/mtap-research/PACMAN-charge/)
data_GESNIC_FSR_pacman
_symmetry_space_group_name_H-M   'P 1'
_cell_length_a   13.76070000
_cell_length_b   13.76070000
_cell_length_c   14.40850000
_cell_angle_alpha   66.55090000
_cell_angle_beta   113.44900000
_cell_angle_gamma   93.03570000
_symmetry_Int_Tables_number   1
_chemical_formula_structural   La2P5H32C18S2N4O29
_chemical_formula_sum   'La4 P10 H64 C36 S4 N8 O58'
_cell_volume   2278.23686637
_cell_formula_units_Z   2
loop_
 _symmetry_equiv_pos_site_id
 _symmetry_equiv_pos_as_xyz
  1  'x, y, z'
loop_
 _atom_site_type_symbol
 _atom_site_label
 _atom_site_symmetry_multiplicity
 _atom_site_fract_x
 _atom_site_fract_y
 _atom_site_fract_z
 _atom_site_occupancy
 _atom_site_charge
La  La1  1  0.34760000  0.34760000  0.00000000  1.0 2.0171632607
La  La2  1  0.65240000  0.65240000  0.00000000  1.0 2.0171632607
La  La3  1  0.61091000  0.38909000  0.25703000  1.0 1.9339459975
La  La4  1  0.38909000  0.61091000  0.74297000  1.0 1.9339459975
P  P1  1  0.52834000  0.14386000  0.20156000  1.0 1.2828555842
P  P2  1  0.14386000  0.52834000  0.79844000  1.0 1.2828555842
P  P3  1  0.47166000  0.85614000  0.79844000  1.0 1.2828555842
P  P4  1  0.85614000  0.47166000  0.20156000  1.0 1.2828555842
P  P5  1  0.24262000  0.24544000  0.22317000  1.0 1.3022711117
P  P6  1  0.24544000  0.24262000  0.77683000  1.0 1.3022711117
P  P7  1  0.75738000  0.75456000  0.77683000  1.0 1.3022711117
P  P8  1  0.75456000  0.75738000  0.22317000  1.0 1.3022711117
P  P9  1  0.42405000  0.57595000  0.04545000  1.0 1.2557074864
P  P10  1  0.57595000  0.42405000  0.95455000  1.0 1.2557074864
H  H1  1  0.33970000  0.97150000  0.38150000  1.0 0.1572360779
H  H2  1  0.97150000  0.33970000  0.61850000  1.0 0.1572360779
H  H3  1  0.66030000  0.02850000  0.61850000  1.0 0.1572360779
H  H4  1  0.02850000  0.66030000  0.38150000  1.0 0.1572360779
H  H5  1  0.44560000  0.89160000  0.45370000  1.0 0.1393203622
H  H6  1  0.89160000  0.44560000  0.54630000  1.0 0.1393203622
H  H7  1  0.55440000  0.10840000  0.54630000  1.0 0.1393203622
H  H8  1  0.10840000  0.55440000  0.45370000  1.0 0.1393203622
H  H9  1  0.62000000  0.96280000  0.48250000  1.0 0.1393203622
H  H10  1  0.96280000  0.62000000  0.51750000  1.0 0.1393203622
H  H11  1  0.38000000  0.03720000  0.51750000  1.0 0.1393203622
H  H12  1  0.03720000  0.38000000  0.48250000  1.0 0.1393203622
H  H13  1  0.62180000  0.08680000  0.42970000  1.0 0.1505918396
H  H14  1  0.08680000  0.62180000  0.57030000  1.0 0.1505918396
H  H15  1  0.37820000  0.91320000  0.57030000  1.0 0.1505918396
H  H16  1  0.91320000  0.37820000  0.42970000  1.0 0.1505918396
H  H17  1  0.49490000  0.97110000  0.29240000  1.0 0.1505918396
H  H18  1  0.97110000  0.49490000  0.70760000  1.0 0.1505918396
H  H19  1  0.50510000  0.02890000  0.70760000  1.0 0.1505918396
H  H20  1  0.02890000  0.50510000  0.29240000  1.0 0.1505918396
H  H21  1  0.38810000  0.04890000  0.22650000  1.0 0.1794905186
H  H22  1  0.04890000  0.38810000  0.77350000  1.0 0.1794905186
H  H23  1  0.61190000  0.95110000  0.77350000  1.0 0.1794905186
H  H24  1  0.95110000  0.61190000  0.22650000  1.0 0.1794905186
H  H25  1  0.05160000  0.54860000  0.11450000  1.0 0.1393203622
H  H26  1  0.54860000  0.05160000  0.88550000  1.0 0.1393203622
H  H27  1  0.94840000  0.45140000  0.88550000  1.0 0.1393203622
H  H28  1  0.45140000  0.94840000  0.11450000  1.0 0.1393203622
H  H29  1  0.14250000  0.58530000  0.07300000  1.0 0.1393203622
H  H30  1  0.58530000  0.14250000  0.92700000  1.0 0.1393203622
H  H31  1  0.85750000  0.41470000  0.92700000  1.0 0.1393203622
H  H32  1  0.41470000  0.85750000  0.07300000  1.0 0.1393203622
H  H33  1  0.02230000  0.31430000  0.06360000  1.0 0.1572360779
H  H34  1  0.31430000  0.02230000  0.93640000  1.0 0.1572360779
H  H35  1  0.97770000  0.68570000  0.93640000  1.0 0.1572360779
H  H36  1  0.68570000  0.97770000  0.06360000  1.0 0.1572360779
H  H37  1  0.97670000  0.37870000  0.10930000  1.0 0.1505918396
H  H38  1  0.37870000  0.97670000  0.89070000  1.0 0.1505918396
H  H39  1  0.02330000  0.62130000  0.89070000  1.0 0.1505918396
H  H40  1  0.62130000  0.02330000  0.10930000  1.0 0.1505918396
H  H41  1  0.24990000  0.42190000  0.20430000  1.0 0.1794905186
H  H42  1  0.42190000  0.24990000  0.79570000  1.0 0.1794905186
H  H43  1  0.75010000  0.57810000  0.79570000  1.0 0.1794905186
H  H44  1  0.57810000  0.75010000  0.20430000  1.0 0.1794905186
H  H45  1  0.16260000  0.37380000  0.24730000  1.0 0.1572360779
H  H46  1  0.37380000  0.16260000  0.75270000  1.0 0.1572360779
H  H47  1  0.83740000  0.62620000  0.75270000  1.0 0.1572360779
H  H48  1  0.62620000  0.83740000  0.24730000  1.0 0.1572360779
H  H49  1  0.15980000  0.84020000  0.07580000  1.0 0.1301481378
H  H50  1  0.84020000  0.15980000  0.92420000  1.0 0.1301481378
H  H51  1  0.14260000  0.85740000  0.90270000  1.0 0.1505918396
H  H52  1  0.85740000  0.14260000  0.09730000  1.0 0.1505918396
H  H53  1  0.25340000  0.74660000  0.88990000  1.0 0.1572360779
H  H54  1  0.74660000  0.25340000  0.11010000  1.0 0.1572360779
H  H55  1  0.39830000  0.60170000  0.22310000  1.0 0.1301481378
H  H56  1  0.60170000  0.39830000  0.77690000  1.0 0.1301481378
H  H57  1  0.44020000  0.11000000  0.36390000  1.0 0.2983355437
H  H58  1  0.11000000  0.44020000  0.63610000  1.0 0.2983355437
H  H59  1  0.55980000  0.89000000  0.63610000  1.0 0.2983355437
H  H60  1  0.89000000  0.55980000  0.36390000  1.0 0.2983355437
H  H61  1  0.13130000  0.44230000  0.02870000  1.0 0.2930888076
H  H62  1  0.44230000  0.13130000  0.97130000  1.0 0.2930888076
H  H63  1  0.86870000  0.55770000  0.97130000  1.0 0.2930888076
H  H64  1  0.55770000  0.86870000  0.02870000  1.0 0.2930888076
C  C1  1  0.41330000  0.96190000  0.43420000  1.0 -0.0887148944
C  C2  1  0.96190000  0.41330000  0.56580000  1.0 -0.0887148944
C  C3  1  0.58670000  0.03810000  0.56580000  1.0 -0.0887148944
C  C4  1  0.03810000  0.58670000  0.43420000  1.0 -0.0887148944
C  C5  1  0.58430000  0.03150000  0.46290000  1.0 -0.0887148944
C  C6  1  0.03150000  0.58430000  0.53710000  1.0 -0.0887148944
C  C7  1  0.41570000  0.96850000  0.53710000  1.0 -0.0887148944
C  C8  1  0.96850000  0.41570000  0.46290000  1.0 -0.0887148944
C  C9  1  0.46310000  0.04070000  0.27520000  1.0 -0.4197419818
C  C10  1  0.04070000  0.46310000  0.72480000  1.0 -0.4197419818
C  C11  1  0.53690000  0.95930000  0.72480000  1.0 -0.4197419818
C  C12  1  0.95930000  0.53690000  0.27520000  1.0 -0.4197419818
C  C13  1  0.07820000  0.55040000  0.06080000  1.0 -0.1107957945
C  C14  1  0.55040000  0.07820000  0.93920000  1.0 -0.1107957945
C  C15  1  0.92180000  0.44960000  0.93920000  1.0 -0.1107957945
C  C16  1  0.44960000  0.92180000  0.06080000  1.0 -0.1107957945
C  C17  1  0.00530000  0.38550000  0.05570000  1.0 -0.0887148944
C  C18  1  0.38550000  0.00530000  0.94430000  1.0 -0.0887148944
C  C19  1  0.99470000  0.61450000  0.94430000  1.0 -0.0887148944
C  C20  1  0.61450000  0.99470000  0.05570000  1.0 -0.0887148944
C  C21  1  0.19090000  0.37970000  0.19380000  1.0 -0.4057641189
C  C22  1  0.37970000  0.19090000  0.80620000  1.0 -0.4057641189
C  C23  1  0.80910000  0.62030000  0.80620000  1.0 -0.4057641189
C  C24  1  0.62030000  0.80910000  0.19380000  1.0 -0.4057641189
C  C25  1  0.28040000  0.71960000  0.16370000  1.0 -0.1107957945
C  C26  1  0.71960000  0.28040000  0.83630000  1.0 -0.1107957945
C  C27  1  0.20390000  0.79610000  0.06990000  1.0 -0.0733615916
C  C28  1  0.79610000  0.20390000  0.93010000  1.0 -0.0733615916
C  C29  1  0.19380000  0.80620000  0.96680000  1.0 -0.0582935598
C  C30  1  0.80620000  0.19380000  0.03320000  1.0 -0.0582935598
C  C31  1  0.26050000  0.73950000  0.95930000  1.0 -0.0380838748
C  C32  1  0.73950000  0.26050000  0.04070000  1.0 -0.0380838748
C  C33  1  0.33700000  0.66300000  0.05370000  1.0 -0.1262339662
C  C34  1  0.66300000  0.33700000  0.94630000  1.0 -0.1262339662
C  C35  1  0.34720000  0.65280000  0.15840000  1.0 -0.0821324486
C  C36  1  0.65280000  0.34720000  0.84160000  1.0 -0.0821324486
S  S1  1  0.25870000  0.67490000  0.29570000  1.0 0.3483710278
S  S2  1  0.67490000  0.25870000  0.70430000  1.0 0.3483710278
S  S3  1  0.74130000  0.32510000  0.70430000  1.0 0.3483710278
S  S4  1  0.32510000  0.74130000  0.29570000  1.0 0.3483710278
N  N1  1  0.47180000  0.04480000  0.38160000  1.0 0.0334662803
N  N2  1  0.04480000  0.47180000  0.61840000  1.0 0.0334662803
N  N3  1  0.52820000  0.95520000  0.61840000  1.0 0.0334662803
N  N4  1  0.95520000  0.52820000  0.38160000  1.0 0.0334662803
N  N5  1  0.10490000  0.43890000  0.07850000  1.0 0.0459070232
N  N6  1  0.43890000  0.10490000  0.92150000  1.0 0.0459070232
N  N7  1  0.89510000  0.56110000  0.92150000  1.0 0.0459070232
N  N8  1  0.56110000  0.89510000  0.07850000  1.0 0.0459070232
O  O1  1  0.64170000  0.09870000  0.24180000  1.0 -0.6609612863
O  O2  1  0.09870000  0.64170000  0.75820000  1.0 -0.6609612863
O  O3  1  0.35830000  0.90130000  0.75820000  1.0 -0.6609612863
O  O4  1  0.90130000  0.35830000  0.24180000  1.0 -0.6609612863
O  O5  1  0.45850000  0.17070000  0.07870000  1.0 -0.790645824
O  O6  1  0.17070000  0.45850000  0.92130000  1.0 -0.790645824
O  O7  1  0.54150000  0.82930000  0.92130000  1.0 -0.790645824
O  O8  1  0.82930000  0.54150000  0.07870000  1.0 -0.790645824
O  O9  1  0.51450000  0.24150000  0.22310000  1.0 -0.8093215015
O  O10  1  0.24150000  0.51450000  0.77690000  1.0 -0.8093215015
O  O11  1  0.48550000  0.75850000  0.77690000  1.0 -0.8093215015
O  O12  1  0.75850000  0.48550000  0.22310000  1.0 -0.8093215015
O  O13  1  0.15870000  0.17150000  0.23990000  1.0 -0.737300561
O  O14  1  0.17150000  0.15870000  0.76010000  1.0 -0.737300561
O  O15  1  0.84130000  0.82850000  0.76010000  1.0 -0.737300561
O  O16  1  0.82850000  0.84130000  0.23990000  1.0 -0.737300561
O  O17  1  0.34280000  0.21780000  0.32920000  1.0 -0.6674651067
O  O18  1  0.21780000  0.34280000  0.67080000  1.0 -0.6674651067
O  O19  1  0.65720000  0.78220000  0.67080000  1.0 -0.6674651067
O  O20  1  0.78220000  0.65720000  0.32920000  1.0 -0.6674651067
O  O21  1  0.26120000  0.25600000  0.12290000  1.0 -0.8093215015
O  O22  1  0.25600000  0.26120000  0.87710000  1.0 -0.8093215015
O  O23  1  0.73880000  0.74400000  0.87710000  1.0 -0.8093215015
O  O24  1  0.74400000  0.73880000  0.12290000  1.0 -0.8093215015
O  O25  1  0.39880000  0.60120000  0.92580000  1.0 -0.8200317781
O  O26  1  0.60120000  0.39880000  0.07420000  1.0 -0.8200317781
O  O27  1  0.40940000  0.46060000  0.10770000  1.0 -0.8012367647
O  O28  1  0.46060000  0.40940000  0.89230000  1.0 -0.8012367647
O  O29  1  0.59060000  0.53940000  0.89230000  1.0 -0.8012367647
O  O30  1  0.53940000  0.59060000  0.10770000  1.0 -0.8012367647
O  O31  1  0.17920000  0.72820000  0.28350000  1.0 -0.2159951787
O  O32  1  0.72820000  0.17920000  0.71650000  1.0 -0.2159951787
O  O33  1  0.82080000  0.27180000  0.71650000  1.0 -0.2159951787
O  O34  1  0.27180000  0.82080000  0.28350000  1.0 -0.2159951787
O  O35  1  0.35700000  0.66500000  0.37100000  1.0 -0.0203510366
O  O36  1  0.66500000  0.35700000  0.62900000  1.0 -0.0203510366
O  O37  1  0.64300000  0.33500000  0.62900000  1.0 -0.0203510366
O  O38  1  0.33500000  0.64300000  0.37100000  1.0 -0.0203510366
O  O39  1  0.23430000  0.56150000  0.33240000  1.0 -0.2510260876
O  O40  1  0.56150000  0.23430000  0.66760000  1.0 -0.2510260876
O  O41  1  0.76570000  0.43850000  0.66760000  1.0 -0.2510260876
O  O42  1  0.43850000  0.76570000  0.33240000  1.0 -0.2510260876
O  O43  1  0.75750000  0.24250000  0.31050000  1.0 -0.2593363385
O  O44  1  0.24250000  0.75750000  0.68950000  1.0 -0.2593363385
O  O45  1  0.48780000  0.35400000  0.36130000  1.0 -0.3125962675
O  O46  1  0.35400000  0.48780000  0.63870000  1.0 -0.319652633
O  O47  1  0.51220000  0.64600000  0.63870000  1.0 -0.3125962675
O  O48  1  0.64600000  0.51220000  0.36130000  1.0 -0.3125962675
O  O49  1  0.72280000  0.27720000  0.46870000  1.0 -0.319652633
O  O50  1  0.27720000  0.72280000  0.53130000  1.0 -0.319652633
O  O51  1  0.21300000  0.43100000  0.41300000  1.0 -0.1042176626
O  O52  1  0.43100000  0.21300000  0.58700000  1.0 -0.1042176626
O  O53  1  0.78700000  0.56900000  0.58700000  1.0 -0.1042176626
O  O54  1  0.56900000  0.78700000  0.41300000  1.0 -0.1042176626
O  O55  1  0.67700000  0.77700000  0.48000000  1.0 -0.0029016446
O  O56  1  0.77700000  0.67700000  0.52000000  1.0 -0.0029016446
O  O57  1  0.32300000  0.22300000  0.52000000  1.0 -0.0029016446
O  O58  1  0.22300000  0.32300000  0.48000000  1.0 -0.0029016446
