# DDEC6 charges by PACMAN v1.1 (https://github.com/mtap-research/PACMAN-charge/)
data_GEVSAE_ASR_pacman
_symmetry_space_group_name_H-M   'P 1'
_cell_length_a   14.80010000
_cell_length_b   14.80010000
_cell_length_c   19.92800000
_cell_angle_alpha   82.70240000
_cell_angle_beta   97.29760000
_cell_angle_gamma   61.58820000
_symmetry_Int_Tables_number   1
_chemical_formula_structural   Cu3PH33C18N3O13
_chemical_formula_sum   'Cu12 P4 H132 C72 N12 O52'
_cell_volume   3719.26368025
_cell_formula_units_Z   4
loop_
 _symmetry_equiv_pos_site_id
 _symmetry_equiv_pos_as_xyz
  1  'x, y, z'
loop_
 _atom_site_type_symbol
 _atom_site_label
 _atom_site_symmetry_multiplicity
 _atom_site_fract_x
 _atom_site_fract_y
 _atom_site_fract_z
 _atom_site_occupancy
 _atom_site_charge
Cu  Cu1  1  0.87731000  0.96315000  0.29819000  1.0 0.7810349671
Cu  Cu2  1  0.57017000  0.02021000  0.48078000  1.0 0.7628984211
Cu  Cu3  1  0.56217000  0.45145000  0.45980000  1.0 0.8536733596
Cu  Cu4  1  0.96315000  0.87731000  0.20181000  1.0 0.7810349671
Cu  Cu5  1  0.02021000  0.57017000  0.01922000  1.0 0.7628984211
Cu  Cu6  1  0.45145000  0.56217000  0.04020000  1.0 0.8536733596
Cu  Cu7  1  0.12269000  0.03685000  0.70181000  1.0 0.7810349671
Cu  Cu8  1  0.42983000  0.97979000  0.51922000  1.0 0.7628984211
Cu  Cu9  1  0.43783000  0.54855000  0.54020000  1.0 0.8536733596
Cu  Cu10  1  0.03685000  0.12269000  0.79819000  1.0 0.7810349671
Cu  Cu11  1  0.97979000  0.42983000  0.98078000  1.0 0.7628984211
Cu  Cu12  1  0.54855000  0.43783000  0.95980000  1.0 0.8536733596
P  P1  1  0.71453000  0.23389000  0.41992000  1.0 0.9268754183
P  P2  1  0.23389000  0.71453000  0.08008000  1.0 0.9268754183
P  P3  1  0.28547000  0.76611000  0.58008000  1.0 0.9268754183
P  P4  1  0.76611000  0.28547000  0.91992000  1.0 0.9268754183
H  H1  1  0.75168000  0.95322000  0.40441000  1.0 0.1411227209
H  H2  1  0.66726000  0.06080000  0.35537000  1.0 0.1411227209
H  H3  1  0.94668000  0.02460000  0.43205000  1.0 0.1241447686
H  H4  1  0.92673000  0.93117000  0.45355000  1.0 0.1262187718
H  H5  1  0.82253000  0.17575000  0.34099000  1.0 0.1704268819
H  H6  1  0.71176000  0.18990000  0.31162000  1.0 0.1704268819
H  H7  1  0.80531000  0.95093000  0.52968000  1.0 0.1262187718
H  H8  1  0.74910000  0.05688000  0.55444000  1.0 0.1411227209
H  H9  1  0.80339000  0.18503000  0.53506000  1.0 0.1704268819
H  H10  1  0.88217000  0.17161000  0.48596000  1.0 0.1704268819
H  H11  1  0.56892000  0.21208000  0.40029000  1.0 0.1704268819
H  H12  1  0.59931000  0.21059000  0.47904000  1.0 0.1704268819
H  H13  1  0.61855000  0.19309000  0.13113000  1.0 0.1598025693
H  H14  1  0.62886000  0.10542000  0.09087000  1.0 0.1790575907
H  H15  1  0.67982000  0.17398000  0.07097000  1.0 0.1598025693
H  H16  1  0.53587000  0.74759000  0.38797000  1.0 0.1598025693
H  H17  1  0.65206000  0.72524000  0.40076000  1.0 0.1704268819
H  H18  1  0.56888000  0.80938000  0.33609000  1.0 0.1704268819
H  H19  1  0.63321000  0.26213000  0.70223000  1.0 0.1790575907
H  H20  1  0.73430000  0.23494000  0.67272000  1.0 0.1704268819
H  H21  1  0.66277000  0.18871000  0.64897000  1.0 0.1704268819
H  H22  1  0.74609000  0.59095000  0.53669000  1.0 0.1598025693
H  H23  1  0.71636000  0.58816000  0.60938000  1.0 0.1598025693
H  H24  1  0.64754000  0.68824000  0.54961000  1.0 0.1704268819
H  H25  1  0.31262000  0.24636000  0.30926000  1.0 0.1598025693
H  H26  1  0.22645000  0.27137000  0.35345000  1.0 0.1598025693
H  H27  1  0.25188000  0.18380000  0.31041000  1.0 0.1598025693
H  H28  1  0.78678000  0.71016000  0.22164000  1.0 0.068970754
H  H29  1  0.68748000  0.80946000  0.23184000  1.0 0.0417797782
H  H30  1  0.77116000  0.72580000  0.29651000  1.0 0.0545527499
H  H31  1  0.11321000  0.07050000  0.21142000  1.0 0.068970754
H  H32  1  0.03108000  0.15263000  0.24621000  1.0 0.0772625592
H  H33  1  0.13126000  0.05244000  0.29236000  1.0 0.0772625592
H  H34  1  0.95322000  0.75168000  0.09559000  1.0 0.1411227209
H  H35  1  0.06080000  0.66726000  0.14463000  1.0 0.1456697939
H  H36  1  0.02460000  0.94668000  0.06795000  1.0 0.1241447686
H  H37  1  0.93117000  0.92673000  0.04645000  1.0 0.1262187718
H  H38  1  0.17575000  0.82253000  0.15901000  1.0 0.1704268819
H  H39  1  0.18990000  0.71176000  0.18838000  1.0 0.1704268819
H  H40  1  0.95093000  0.80531000  0.97032000  1.0 0.1262187718
H  H41  1  0.05688000  0.74910000  0.94556000  1.0 0.1411227209
H  H42  1  0.18503000  0.80339000  0.96494000  1.0 0.1704268819
H  H43  1  0.17161000  0.88217000  0.01404000  1.0 0.1704268819
H  H44  1  0.21208000  0.56892000  0.09971000  1.0 0.1704268819
H  H45  1  0.21059000  0.59931000  0.02096000  1.0 0.1704268819
H  H46  1  0.19309000  0.61855000  0.36887000  1.0 0.1598025693
H  H47  1  0.10542000  0.62886000  0.40913000  1.0 0.1790575907
H  H48  1  0.17398000  0.67982000  0.42903000  1.0 0.1598025693
H  H49  1  0.74759000  0.53587000  0.11203000  1.0 0.1598025693
H  H50  1  0.72524000  0.65206000  0.09924000  1.0 0.1704268819
H  H51  1  0.80938000  0.56888000  0.16391000  1.0 0.1704268819
H  H52  1  0.26213000  0.63321000  0.79777000  1.0 0.1790575907
H  H53  1  0.23494000  0.73430000  0.82728000  1.0 0.1704268819
H  H54  1  0.18871000  0.66277000  0.85103000  1.0 0.1704268819
H  H55  1  0.59095000  0.74609000  0.96331000  1.0 0.1598025693
H  H56  1  0.58816000  0.71636000  0.89062000  1.0 0.1598025693
H  H57  1  0.68824000  0.64754000  0.95039000  1.0 0.1704268819
H  H58  1  0.24636000  0.31262000  0.19074000  1.0 0.1598025693
H  H59  1  0.27137000  0.22645000  0.14655000  1.0 0.1598025693
H  H60  1  0.18380000  0.25188000  0.18959000  1.0 0.1598025693
H  H61  1  0.71016000  0.78678000  0.27836000  1.0 0.068970754
H  H62  1  0.80946000  0.68748000  0.26816000  1.0 0.0417797782
H  H63  1  0.72580000  0.77116000  0.20349000  1.0 0.0545527499
H  H64  1  0.07050000  0.11321000  0.28858000  1.0 0.068970754
H  H65  1  0.15263000  0.03108000  0.25379000  1.0 0.0772625592
H  H66  1  0.05245000  0.13126000  0.20764000  1.0 0.0772625592
H  H67  1  0.24832000  0.04678000  0.59559000  1.0 0.1411227209
H  H68  1  0.33274000  0.93920000  0.64463000  1.0 0.1411227209
H  H69  1  0.05332000  0.97540000  0.56795000  1.0 0.1241447686
H  H70  1  0.07327000  0.06883000  0.54645000  1.0 0.1262187718
H  H71  1  0.17747000  0.82425000  0.65901000  1.0 0.1704268819
H  H72  1  0.28824000  0.81010000  0.68838000  1.0 0.1704268819
H  H73  1  0.19469000  0.04907000  0.47032000  1.0 0.1262187718
H  H74  1  0.25090000  0.94312000  0.44556000  1.0 0.1411227209
H  H75  1  0.19661000  0.81497000  0.46494000  1.0 0.1704268819
H  H76  1  0.11783000  0.82839000  0.51404000  1.0 0.1704268819
H  H77  1  0.43108000  0.78792000  0.59971000  1.0 0.1704268819
H  H78  1  0.40069000  0.78941000  0.52096000  1.0 0.1704268819
H  H79  1  0.38145000  0.80691000  0.86887000  1.0 0.1598025693
H  H80  1  0.37114000  0.89458000  0.90913000  1.0 0.1790575907
H  H81  1  0.32018000  0.82602000  0.92903000  1.0 0.1598025693
H  H82  1  0.46413000  0.25241000  0.61203000  1.0 0.1598025693
H  H83  1  0.34794000  0.27476000  0.59924000  1.0 0.1704268819
H  H84  1  0.43112000  0.19062000  0.66391000  1.0 0.1704268819
H  H85  1  0.36679000  0.73787000  0.29777000  1.0 0.1790575907
H  H86  1  0.26570000  0.76506000  0.32728000  1.0 0.1704268819
H  H87  1  0.33723000  0.81129000  0.35103000  1.0 0.1704268819
H  H88  1  0.25391000  0.40905000  0.46331000  1.0 0.1598025693
H  H89  1  0.28364000  0.41184000  0.39062000  1.0 0.1598025693
H  H90  1  0.35246000  0.31176000  0.45039000  1.0 0.1704268819
H  H91  1  0.68738000  0.75364000  0.69074000  1.0 0.1598025693
H  H92  1  0.77355000  0.72863000  0.64655000  1.0 0.1598025693
H  H93  1  0.74812000  0.81620000  0.68959000  1.0 0.1598025693
H  H94  1  0.21322000  0.28984000  0.77836000  1.0 0.068970754
H  H95  1  0.31252000  0.19054000  0.76816000  1.0 0.0417797782
H  H96  1  0.22884000  0.27420000  0.70349000  1.0 0.0545527499
H  H97  1  0.88678000  0.92951000  0.78858000  1.0 0.068970754
H  H98  1  0.96891000  0.84737000  0.75379000  1.0 0.0772625592
H  H99  1  0.86873000  0.94756000  0.70764000  1.0 0.0772625592
H  H100  1  0.04678000  0.24832000  0.90441000  1.0 0.1411227209
H  H101  1  0.93920000  0.33274000  0.85537000  1.0 0.1411227209
H  H102  1  0.97540000  0.05332000  0.93205000  1.0 0.1241447686
H  H103  1  0.06883000  0.07327000  0.95355000  1.0 0.1262187718
H  H104  1  0.82425000  0.17747000  0.84099000  1.0 0.1790575907
H  H105  1  0.81010000  0.28824000  0.81162000  1.0 0.1704268819
H  H106  1  0.04907000  0.19469000  0.02968000  1.0 0.1262187718
H  H107  1  0.94312000  0.25090000  0.05444000  1.0 0.1411227209
H  H108  1  0.81497000  0.19661000  0.03506000  1.0 0.1704268819
H  H109  1  0.82839000  0.11783000  0.98596000  1.0 0.1704268819
H  H110  1  0.78792000  0.43108000  0.90029000  1.0 0.1704268819
H  H111  1  0.78941000  0.40069000  0.97904000  1.0 0.1704268819
H  H112  1  0.80691000  0.38145000  0.63113000  1.0 0.1598025693
H  H113  1  0.89458000  0.37114000  0.59087000  1.0 0.1790575907
H  H114  1  0.82602000  0.32018000  0.57097000  1.0 0.1598025693
H  H115  1  0.25241000  0.46413000  0.88797000  1.0 0.1598025693
H  H116  1  0.27476000  0.34794000  0.90076000  1.0 0.1704268819
H  H117  1  0.19062000  0.43112000  0.83609000  1.0 0.1704268819
H  H118  1  0.73787000  0.36679000  0.20223000  1.0 0.1790575907
H  H119  1  0.76506000  0.26570000  0.17272000  1.0 0.1704268819
H  H120  1  0.81129000  0.33723000  0.14897000  1.0 0.1704268819
H  H121  1  0.40905000  0.25391000  0.03669000  1.0 0.1598025693
H  H122  1  0.41184000  0.28364000  0.10938000  1.0 0.1598025693
H  H123  1  0.31176000  0.35246000  0.04961000  1.0 0.1704268819
H  H124  1  0.75364000  0.68738000  0.80926000  1.0 0.1598025693
H  H125  1  0.72863000  0.77355000  0.85345000  1.0 0.1598025693
H  H126  1  0.81620000  0.74812000  0.81041000  1.0 0.1598025693
H  H127  1  0.28984000  0.21322000  0.72164000  1.0 0.068970754
H  H128  1  0.19054000  0.31252000  0.73184000  1.0 0.0417797782
H  H129  1  0.27420000  0.22884000  0.79651000  1.0 0.0545527499
H  H130  1  0.92950000  0.88679000  0.71142000  1.0 0.068970754
H  H131  1  0.84737000  0.96891000  0.74621000  1.0 0.0772625592
H  H132  1  0.94756000  0.86873000  0.79236000  1.0 0.0772625592
C  C1  1  0.72510000  0.02850000  0.39550000  1.0 -0.0284856972
C  C2  1  0.89360000  0.00720000  0.44210000  1.0 -0.0436925178
C  C3  1  0.76680000  0.16400000  0.35290000  1.0 -0.3681665936
C  C4  1  0.77530000  0.02650000  0.51590000  1.0 -0.0284856972
C  C5  1  0.82420000  0.16080000  0.49360000  1.0 -0.3681665936
C  C6  1  0.62740000  0.18560000  0.43950000  1.0 -0.362269351
C  C7  1  0.76360000  0.06240000  0.15950000  1.0 0.6253703444
C  C8  1  0.66380000  0.14080000  0.10850000  1.0 -0.5699826272
C  C9  1  0.36310000  0.13650000  0.39820000  1.0 0.6488646476
C  C10  1  0.55140000  0.86220000  0.42570000  1.0 0.6375728457
C  C11  1  0.57960000  0.77860000  0.38380000  1.0 -0.6083131971
C  C12  1  0.62110000  0.56770000  0.53720000  1.0 0.6626115649
C  C13  1  0.59920000  0.34380000  0.60300000  1.0 0.6735555737
C  C14  1  0.66330000  0.24870000  0.66210000  1.0 -0.5864470692
C  C15  1  0.68890000  0.61290000  0.56030000  1.0 -0.5699826272
C  C16  1  0.28110000  0.21670000  0.33740000  1.0 -0.5699826272
C  C17  1  0.02850000  0.72510000  0.10450000  1.0 -0.0284856972
C  C18  1  0.00720000  0.89360000  0.05790000  1.0 -0.0436925178
C  C19  1  0.16400000  0.76680000  0.14710000  1.0 -0.3681665936
C  C20  1  0.02650000  0.77530000  0.98410000  1.0 -0.0284856972
C  C21  1  0.16080000  0.82420000  0.00640000  1.0 -0.3681665936
C  C22  1  0.18560000  0.62740000  0.06050000  1.0 -0.362269351
C  C23  1  0.06240000  0.76360000  0.34050000  1.0 0.6253703444
C  C24  1  0.14080000  0.66380000  0.39150000  1.0 -0.5699826272
C  C25  1  0.13650000  0.36310000  0.10180000  1.0 0.6488646476
C  C26  1  0.86220000  0.55140000  0.07430000  1.0 0.6375728457
C  C27  1  0.77860000  0.57960000  0.11620000  1.0 -0.6083131971
C  C28  1  0.56770000  0.62110000  0.96280000  1.0 0.6626115649
C  C29  1  0.34380000  0.59920000  0.89700000  1.0 0.6735555737
C  C30  1  0.24870000  0.66330000  0.83790000  1.0 -0.5864470692
C  C31  1  0.61290000  0.68890000  0.93970000  1.0 -0.5699826272
C  C32  1  0.21670000  0.28110000  0.16260000  1.0 -0.5699826272
C  C33  1  0.27490000  0.97150000  0.60450000  1.0 -0.0284856972
C  C34  1  0.10640000  0.99280000  0.55790000  1.0 -0.0436925178
C  C35  1  0.23320000  0.83600000  0.64710000  1.0 -0.3681665936
C  C36  1  0.22470000  0.97350000  0.48410000  1.0 -0.0284856972
C  C37  1  0.17580000  0.83920000  0.50640000  1.0 -0.3681665936
C  C38  1  0.37260000  0.81440000  0.56050000  1.0 -0.362269351
C  C39  1  0.23640000  0.93760000  0.84050000  1.0 0.6253703444
C  C40  1  0.33620000  0.85920000  0.89150000  1.0 -0.5699826272
C  C41  1  0.63690000  0.86350000  0.60180000  1.0 0.6488646476
C  C42  1  0.44860000  0.13780000  0.57430000  1.0 0.6375728457
C  C43  1  0.42040000  0.22140000  0.61620000  1.0 -0.6083131971
C  C44  1  0.37890000  0.43230000  0.46280000  1.0 0.6626115649
C  C45  1  0.40080000  0.65620000  0.39700000  1.0 0.6735555737
C  C46  1  0.33670000  0.75130000  0.33790000  1.0 -0.5864470692
C  C47  1  0.31110000  0.38710000  0.43970000  1.0 -0.5699826272
C  C48  1  0.71890000  0.78330000  0.66260000  1.0 -0.5699826272
C  C49  1  0.97150000  0.27490000  0.89550000  1.0 -0.0284856972
C  C50  1  0.99280000  0.10640000  0.94210000  1.0 -0.0436925178
C  C51  1  0.83600000  0.23320000  0.85290000  1.0 -0.3681665936
C  C52  1  0.97350000  0.22470000  0.01590000  1.0 -0.0284856972
C  C53  1  0.83920000  0.17580000  0.99360000  1.0 -0.3681665936
C  C54  1  0.81440000  0.37260000  0.93950000  1.0 -0.362269351
C  C55  1  0.93760000  0.23640000  0.65950000  1.0 0.6253703444
C  C56  1  0.85920000  0.33620000  0.60850000  1.0 -0.5699826272
C  C57  1  0.86350000  0.63690000  0.89820000  1.0 0.6488646476
C  C58  1  0.13780000  0.44860000  0.92570000  1.0 0.6375728457
C  C59  1  0.22140000  0.42040000  0.88380000  1.0 -0.6083131971
C  C60  1  0.43230000  0.37890000  0.03720000  1.0 0.6626115649
C  C61  1  0.65620000  0.40080000  0.10300000  1.0 0.6735555737
C  C62  1  0.75130000  0.33670000  0.16210000  1.0 -0.5864470692
C  C63  1  0.38710000  0.31110000  0.06030000  1.0 -0.5699826272
C  C64  1  0.78330000  0.71890000  0.83740000  1.0 -0.5699826272
C  C65  1  0.01950000  0.01950000  0.25000000  1.0 0.5921110718
C  C66  1  0.82080000  0.82080000  0.25000000  1.0 0.602549663
C  C67  1  0.76110000  0.76110000  0.25000000  1.0 -0.3284057172
C  C68  1  0.07930000  0.07930000  0.25000000  1.0 -0.3511065783
C  C69  1  0.98050000  0.98050000  0.75000000  1.0 0.5921110718
C  C70  1  0.17920000  0.17920000  0.75000000  1.0 0.602549663
C  C71  1  0.23890000  0.23890000  0.75000000  1.0 -0.3284057172
C  C72  1  0.92070000  0.92070000  0.75000000  1.0 -0.3511065783
N  N1  1  0.80932000  0.04832000  0.37920000  1.0 -0.1296259256
N  N2  1  0.68513000  0.06833000  0.45530000  1.0 -0.1231619583
N  N3  1  0.85707000  0.04827000  0.50210000  1.0 -0.1296259256
N  N4  1  0.04832000  0.80932000  0.12080000  1.0 -0.1296259256
N  N5  1  0.06833000  0.68513000  0.04470000  1.0 -0.1231619583
N  N6  1  0.04827000  0.85707000  0.99790000  1.0 -0.1296259256
N  N7  1  0.19068000  0.95168000  0.62080000  1.0 -0.1296259256
N  N8  1  0.31487000  0.93167000  0.54470000  1.0 -0.1231619583
N  N9  1  0.14293000  0.95173000  0.49790000  1.0 -0.1296259256
N  N10  1  0.95168000  0.19068000  0.87920000  1.0 -0.1296259256
N  N11  1  0.93167000  0.31487000  0.95530000  1.0 -0.1231619583
N  N12  1  0.95173000  0.14293000  0.00210000  1.0 -0.1296259256
O  O1  1  0.77223000  0.07643000  0.22090000  1.0 -0.5407372804
O  O2  1  0.97014000  0.02314000  0.29790000  1.0 -0.5319165877
O  O3  1  0.83148000  0.98848000  0.13800000  1.0 -0.5407372804
O  O4  1  0.79575000  0.89015000  0.28490000  1.0 -0.5560709627
O  O5  1  0.33299000  0.09119000  0.43940000  1.0 -0.5319165877
O  O6  1  0.47921000  0.87821000  0.45800000  1.0 -0.5407372804
O  O7  1  0.45488000  0.12168000  0.40410000  1.0 -0.5184656324
O  O8  1  0.60145000  0.91085000  0.42590000  1.0 -0.5184656324
O  O9  1  0.54324000  0.59004000  0.56400000  1.0 -0.5319165877
O  O10  1  0.52051000  0.42171000  0.61470000  1.0 -0.5033871623
O  O11  1  0.64748000  0.51168000  0.49250000  1.0 -0.5184656324
O  O12  1  0.62787000  0.33947000  0.54610000  1.0 -0.5770540925
O  O13  1  0.66655000  0.35075000  0.40080000  1.0 -0.637047747
O  O14  1  0.07643000  0.77223000  0.27910000  1.0 -0.5407372804
O  O15  1  0.02314000  0.97014000  0.20210000  1.0 -0.5319165877
O  O16  1  0.98848000  0.83148000  0.36200000  1.0 -0.5407372804
O  O17  1  0.89015000  0.79575000  0.21510000  1.0 -0.5560709627
O  O18  1  0.09119000  0.33299000  0.06060000  1.0 -0.5319165877
O  O19  1  0.87821000  0.47921000  0.04200000  1.0 -0.5407372804
O  O20  1  0.12168000  0.45488000  0.09590000  1.0 -0.5184656324
O  O21  1  0.91085000  0.60145000  0.07410000  1.0 -0.5184656324
O  O22  1  0.59004000  0.54324000  0.93600000  1.0 -0.5319165877
O  O23  1  0.42171000  0.52051000  0.88530000  1.0 -0.5033871623
O  O24  1  0.51168000  0.64748000  0.00750000  1.0 -0.5184656324
O  O25  1  0.33947000  0.62787000  0.95390000  1.0 -0.5770540925
O  O26  1  0.35075000  0.66655000  0.09920000  1.0 -0.637047747
O  O27  1  0.22777000  0.92357000  0.77910000  1.0 -0.5407372804
O  O28  1  0.02986000  0.97686000  0.70210000  1.0 -0.5319165877
O  O29  1  0.16852000  0.01152000  0.86200000  1.0 -0.5407372804
O  O30  1  0.20425000  0.10985000  0.71510000  1.0 -0.5560709627
O  O31  1  0.66701000  0.90881000  0.56060000  1.0 -0.5319165877
O  O32  1  0.52079000  0.12179000  0.54200000  1.0 -0.5407372804
O  O33  1  0.54512000  0.87832000  0.59590000  1.0 -0.5184656324
O  O34  1  0.39855000  0.08915000  0.57410000  1.0 -0.5184656324
O  O35  1  0.45676000  0.40996000  0.43600000  1.0 -0.5319165877
O  O36  1  0.47949000  0.57829000  0.38530000  1.0 -0.5033871623
O  O37  1  0.35252000  0.48832000  0.50750000  1.0 -0.5184656324
O  O38  1  0.37213000  0.66053000  0.45390000  1.0 -0.5770540925
O  O39  1  0.33345000  0.64925000  0.59920000  1.0 -0.637047747
O  O40  1  0.92357000  0.22777000  0.72090000  1.0 -0.5407372804
O  O41  1  0.97686000  0.02986000  0.79790000  1.0 -0.5319165877
O  O42  1  0.01152000  0.16852000  0.63800000  1.0 -0.5407372804
O  O43  1  0.10985000  0.20425000  0.78490000  1.0 -0.5560709627
O  O44  1  0.90881000  0.66701000  0.93940000  1.0 -0.5319165877
O  O45  1  0.12179000  0.52079000  0.95800000  1.0 -0.5407372804
O  O46  1  0.87832000  0.54512000  0.90410000  1.0 -0.5184656324
O  O47  1  0.08915000  0.39855000  0.92590000  1.0 -0.5184656324
O  O48  1  0.40996000  0.45676000  0.06400000  1.0 -0.5319165877
O  O49  1  0.57829000  0.47949000  0.11470000  1.0 -0.5033871623
O  O50  1  0.48832000  0.35252000  0.99250000  1.0 -0.5184656324
O  O51  1  0.66053000  0.37213000  0.04610000  1.0 -0.5770540925
O  O52  1  0.64925000  0.33345000  0.90080000  1.0 -0.637047747
