# DDEC6 charges by PACMAN v1.1 (https://github.com/mtap-research/PACMAN-charge/)
data_GEXNUV_ASR_pacman
_symmetry_space_group_name_H-M   'P 1'
_cell_length_a   12.17100000
_cell_length_b   13.19900000
_cell_length_c   19.63300000
_cell_angle_alpha   82.57200000
_cell_angle_beta   72.41700000
_cell_angle_gamma   64.96900000
_symmetry_Int_Tables_number   1
_chemical_formula_structural   CoH17C23S(NO2)3
_chemical_formula_sum   'Co4 H68 C92 S4 N12 O24'
_cell_volume   2724.20655343
_cell_formula_units_Z   4
loop_
 _symmetry_equiv_pos_site_id
 _symmetry_equiv_pos_as_xyz
  1  'x, y, z'
loop_
 _atom_site_type_symbol
 _atom_site_label
 _atom_site_symmetry_multiplicity
 _atom_site_fract_x
 _atom_site_fract_y
 _atom_site_fract_z
 _atom_site_occupancy
 _atom_site_charge
Co  Co1  1  0.79431000  0.94022000  0.37822000  1.0 0.8472109858
Co  Co2  1  0.20569000  0.05978000  0.62178000  1.0 0.8472109858
Co  Co3  1  0.50000000  0.00000000  0.50000000  1.0 1.0803880516
Co  Co4  1  0.00000000  0.00000000  0.00000000  1.0 0.8105417315
H  H1  1  0.93839000  0.62850000  0.52652000  1.0 0.1210189852
H  H2  1  0.91603000  0.48749000  0.60565000  1.0 0.1297907636
H  H3  1  0.55163000  0.59515000  0.60224000  1.0 0.1297907636
H  H4  1  0.57736000  0.73508000  0.52180000  1.0 0.1297907636
H  H5  1  0.51826000  0.36559000  0.66989000  1.0 0.1210189852
H  H6  1  0.51245000  0.23422000  0.60365000  1.0 0.1297907636
H  H7  1  0.88546000  0.13336000  0.50771000  1.0 0.1210189852
H  H8  1  0.89376000  0.26220000  0.57459000  1.0 0.1381808195
H  H9  1  0.31031000  0.19282000  0.34211000  1.0 0.1210189852
H  H10  1  0.22751000  0.31136000  0.25414000  1.0 0.1210189852
H  H11  1  0.57922000  0.27359000  0.13771000  1.0 0.1297907636
H  H12  1  0.65920000  0.16349000  0.22915000  1.0 0.1210189852
H  H13  1  0.11403000  0.36135000  0.13102000  1.0 0.1297907636
H  H14  1  0.06395000  0.23780000  0.08515000  1.0 0.1210189852
H  H15  1  0.42859000  0.07813000  0.97630000  1.0 0.1210189852
H  H16  1  0.47988000  0.19970000  0.02377000  1.0 0.1297907636
H  H17  1  0.95270000  0.82821000  0.13397000  1.0 0.1113521803
H  H18  1  0.11480000  0.68700000  0.18641000  1.0 0.1381808195
H  H19  1  0.27826000  0.83909000  0.02569000  1.0 0.1113521803
H  H20  1  0.43059000  0.64702000  0.07963000  1.0 0.1297907636
H  H21  1  0.36126000  0.61321000  0.15653000  1.0 0.1381808195
H  H22  1  0.21783000  0.85101000  0.21164000  1.0 0.1210189852
H  H23  1  0.47718000  0.94310000  0.23942000  1.0 0.1297907636
H  H24  1  0.58678000  0.67244000  0.12136000  1.0 0.1297907636
H  H25  1  0.74141000  0.72358000  0.13075000  1.0 0.1210189852
H  H26  1  0.69450000  0.85624000  0.12927000  1.0 0.1297907636
H  H27  1  0.84499000  0.61659000  0.23119000  1.0 0.1297907636
H  H28  1  0.90504000  0.67639000  0.32298000  1.0 0.1297907636
H  H29  1  0.68263000  0.94859000  0.24322000  1.0 0.1113521803
H  H30  1  0.23529000  0.01452000  0.32085000  1.0 0.1381808195
H  H31  1  0.23613000  0.08465000  0.24794000  1.0 0.1297907636
H  H32  1  0.07626000  0.07717000  0.17514000  1.0 0.1297907636
H  H33  1  0.88677000  0.03652000  0.21911000  1.0 0.1210189852
H  H34  1  0.04756000  0.96540000  0.37521000  1.0 0.1113521803
H  H35  1  0.06161000  0.37150000  0.47348000  1.0 0.1210189852
H  H36  1  0.08397000  0.51251000  0.39435000  1.0 0.1297907636
H  H37  1  0.44837000  0.40485000  0.39776000  1.0 0.1297907636
H  H38  1  0.42264000  0.26492000  0.47820000  1.0 0.1297907636
H  H39  1  0.48174000  0.63441000  0.33011000  1.0 0.1210189852
H  H40  1  0.48755000  0.76578000  0.39635000  1.0 0.1297907636
H  H41  1  0.11454000  0.86664000  0.49229000  1.0 0.1210189852
H  H42  1  0.10624000  0.73780000  0.42541000  1.0 0.1381808195
H  H43  1  0.68969000  0.80718000  0.65789000  1.0 0.1210189852
H  H44  1  0.77249000  0.68864000  0.74586000  1.0 0.1210189852
H  H45  1  0.42078000  0.72641000  0.86229000  1.0 0.1297907636
H  H46  1  0.34080000  0.83651000  0.77085000  1.0 0.1210189852
H  H47  1  0.88597000  0.63865000  0.86898000  1.0 0.1297907636
H  H48  1  0.93605000  0.76220000  0.91485000  1.0 0.1210189852
H  H49  1  0.57141000  0.92187000  0.02370000  1.0 0.1210189852
H  H50  1  0.52012000  0.80030000  0.97623000  1.0 0.1297907636
H  H51  1  0.04730000  0.17179000  0.86603000  1.0 0.1113521803
H  H52  1  0.88520000  0.31300000  0.81359000  1.0 0.1381808195
H  H53  1  0.72174000  0.16091000  0.97431000  1.0 0.1113521803
H  H54  1  0.56941000  0.35298000  0.92037000  1.0 0.1297907636
H  H55  1  0.63874000  0.38679000  0.84347000  1.0 0.1381808195
H  H56  1  0.78217000  0.14899000  0.78836000  1.0 0.1210189852
H  H57  1  0.52282000  0.05690000  0.76058000  1.0 0.1297907636
H  H58  1  0.41322000  0.32756000  0.87864000  1.0 0.1297907636
H  H59  1  0.25859000  0.27642000  0.86925000  1.0 0.1210189852
H  H60  1  0.30550000  0.14376000  0.87073000  1.0 0.1297907636
H  H61  1  0.15501000  0.38341000  0.76881000  1.0 0.1297907636
H  H62  1  0.09496000  0.32361000  0.67702000  1.0 0.1297907636
H  H63  1  0.31737000  0.05141000  0.75678000  1.0 0.1113521803
H  H64  1  0.76471000  0.98548000  0.67915000  1.0 0.1381808195
H  H65  1  0.76387000  0.91535000  0.75206000  1.0 0.1297907636
H  H66  1  0.92374000  0.92283000  0.82486000  1.0 0.1297907636
H  H67  1  0.11323000  0.96348000  0.78089000  1.0 0.1210189852
H  H68  1  0.95244000  0.03460000  0.62479000  1.0 0.1113521803
C  C1  1  0.77400000  0.78780000  0.46740000  1.0 0.5613944355
C  C2  1  0.75920000  0.69680000  0.51650000  1.0 -0.021609498
C  C3  1  0.85990000  0.62180000  0.54190000  1.0 -0.1010563464
C  C4  1  0.84690000  0.53860000  0.58880000  1.0 -0.1106951611
C  C5  1  0.73160000  0.52960000  0.61160000  1.0 -0.0743804004
C  C6  1  0.63000000  0.60210000  0.58690000  1.0 -0.1010563464
C  C7  1  0.64600000  0.68490000  0.53930000  1.0 -0.0820120202
C  C8  1  0.70670000  0.32680000  0.62700000  1.0 -0.0889349035
C  C9  1  0.59270000  0.31860000  0.63670000  1.0 -0.1106951611
C  C10  1  0.58970000  0.24090000  0.59710000  1.0 -0.1010563464
C  C11  1  0.69770000  0.17260000  0.54810000  1.0 -0.021609498
C  C12  1  0.81070000  0.18090000  0.54050000  1.0 -0.1106951611
C  C13  1  0.81590000  0.25740000  0.57990000  1.0 -0.1106951611
C  C14  1  0.69000000  0.09280000  0.50360000  1.0 0.5829398457
C  C15  1  0.54710000  0.09790000  0.35170000  1.0 0.5678598706
C  C16  1  0.49180000  0.17060000  0.29400000  1.0 -0.021609498
C  C17  1  0.36430000  0.21160000  0.30130000  1.0 -0.1010563464
C  C18  1  0.31570000  0.28010000  0.24900000  1.0 -0.1166378385
C  C19  1  0.39770000  0.30280000  0.18840000  1.0 -0.0820120202
C  C20  1  0.52420000  0.25910000  0.17990000  1.0 -0.0820120202
C  C21  1  0.57130000  0.19330000  0.23380000  1.0 -0.1010563464
C  C22  1  0.30110000  0.29160000  0.08120000  1.0 -0.0889349035
C  C23  1  0.17820000  0.30330000  0.09950000  1.0 -0.1106951611
C  C24  1  0.14860000  0.23080000  0.07210000  1.0 -0.1106951611
C  C25  1  0.24220000  0.14700000  0.02540000  1.0 -0.021609498
C  C26  1  0.36430000  0.13590000  0.00790000  1.0 -0.1010563464
C  C27  1  0.39490000  0.20780000  0.03580000  1.0 -0.1010563464
C  C28  1  0.20690000  0.07000000  0.99410000  1.0 0.5406952921
C  C29  1  0.04020000  0.81250000  0.11830000  1.0 -0.0566293996
C  C30  1  0.12840000  0.73470000  0.14720000  1.0 -0.0889349035
C  C31  1  0.21620000  0.81870000  0.05920000  1.0 0.0966000754
C  C32  1  0.36400000  0.67710000  0.12460000  1.0 -0.1626023155
C  C33  1  0.39620000  0.75200000  0.15980000  1.0 0.1381808195
C  C34  1  0.30330000  0.84030000  0.20210000  1.0 -0.2120643135
C  C35  1  0.33100000  0.91370000  0.23100000  1.0 0.1210189852
C  C36  1  0.45670000  0.89380000  0.21930000  1.0 -0.2158834811
C  C37  1  0.55160000  0.80510000  0.17960000  1.0 0.1297907636
C  C38  1  0.52120000  0.73400000  0.14940000  1.0 -0.2120643135
C  C39  1  0.68790000  0.79210000  0.15990000  1.0 -0.1707285594
C  C40  1  0.81860000  0.69140000  0.24520000  1.0 -0.1166378385
C  C41  1  0.85180000  0.72490000  0.29500000  1.0 -0.021609498
C  C42  1  0.73090000  0.87250000  0.25230000  1.0 0.0822918091
C  C43  1  0.22670000  0.01700000  0.27200000  1.0 -0.1707285594
C  C44  1  0.04740000  0.04950000  0.22110000  1.0 -0.1166378385
C  C45  1  0.94450000  0.02640000  0.24550000  1.0 -0.021609498
C  C46  1  0.03090000  0.98800000  0.33010000  1.0 0.1113521803
C  C47  1  0.22600000  0.21220000  0.53260000  1.0 0.5613944355
C  C48  1  0.24080000  0.30320000  0.48350000  1.0 -0.021609498
C  C49  1  0.14010000  0.37820000  0.45810000  1.0 -0.1010563464
C  C50  1  0.15310000  0.46140000  0.41120000  1.0 -0.1106951611
C  C51  1  0.26840000  0.47040000  0.38840000  1.0 -0.0743804004
C  C52  1  0.37000000  0.39790000  0.41310000  1.0 -0.1010563464
C  C53  1  0.35400000  0.31510000  0.46070000  1.0 -0.0820120202
C  C54  1  0.29330000  0.67320000  0.37300000  1.0 -0.0889349035
C  C55  1  0.40730000  0.68140000  0.36330000  1.0 -0.1106951611
C  C56  1  0.41030000  0.75910000  0.40290000  1.0 -0.1010563464
C  C57  1  0.30230000  0.82740000  0.45190000  1.0 -0.021609498
C  C58  1  0.18930000  0.81910000  0.45950000  1.0 -0.1106951611
C  C59  1  0.18410000  0.74260000  0.42010000  1.0 -0.1106951611
C  C60  1  0.31000000  0.90720000  0.49640000  1.0 0.5829398457
C  C61  1  0.45290000  0.90210000  0.64830000  1.0 0.5678598706
C  C62  1  0.50820000  0.82940000  0.70600000  1.0 -0.021609498
C  C63  1  0.63570000  0.78840000  0.69870000  1.0 -0.1010563464
C  C64  1  0.68430000  0.71990000  0.75100000  1.0 -0.1166378385
C  C65  1  0.60230000  0.69720000  0.81160000  1.0 -0.0820120202
C  C66  1  0.47580000  0.74090000  0.82010000  1.0 -0.0820120202
C  C67  1  0.42870000  0.80670000  0.76620000  1.0 -0.1010563464
C  C68  1  0.69890000  0.70840000  0.91880000  1.0 -0.0889349035
C  C69  1  0.82180000  0.69670000  0.90050000  1.0 -0.1106951611
C  C70  1  0.85140000  0.76920000  0.92790000  1.0 -0.1106951611
C  C71  1  0.75780000  0.85300000  0.97460000  1.0 -0.021609498
C  C72  1  0.63570000  0.86410000  0.99210000  1.0 -0.1010563464
C  C73  1  0.60510000  0.79220000  0.96420000  1.0 -0.1010563464
C  C74  1  0.79310000  0.93000000  0.00590000  1.0 0.5406952921
C  C75  1  0.95980000  0.18750000  0.88170000  1.0 -0.0566293996
C  C76  1  0.87160000  0.26530000  0.85280000  1.0 -0.0889349035
C  C77  1  0.78380000  0.18130000  0.94080000  1.0 0.0966000754
C  C78  1  0.63600000  0.32290000  0.87540000  1.0 -0.1626023155
C  C79  1  0.60380000  0.24800000  0.84020000  1.0 0.1381808195
C  C80  1  0.69670000  0.15970000  0.79790000  1.0 -0.2120643135
C  C81  1  0.66900000  0.08630000  0.76900000  1.0 0.1210189852
C  C82  1  0.54330000  0.10620000  0.78070000  1.0 -0.2158834811
C  C83  1  0.44840000  0.19490000  0.82040000  1.0 0.1297907636
C  C84  1  0.47880000  0.26600000  0.85060000  1.0 -0.2120643135
C  C85  1  0.31210000  0.20790000  0.84010000  1.0 -0.1707285594
C  C86  1  0.18140000  0.30860000  0.75480000  1.0 -0.1166378385
C  C87  1  0.14820000  0.27510000  0.70500000  1.0 -0.021609498
C  C88  1  0.26910000  0.12750000  0.74770000  1.0 0.0822918091
C  C89  1  0.77330000  0.98300000  0.72800000  1.0 -0.1707285594
C  C90  1  0.95260000  0.95050000  0.77890000  1.0 -0.1166378385
C  C91  1  0.05550000  0.97360000  0.75450000  1.0 -0.021609498
C  C92  1  0.96910000  0.01200000  0.66990000  1.0 0.1113521803
S  S1  1  0.71139000  0.42694000  0.67644000  1.0 0.9559820119
S  S2  1  0.33800000  0.38408000  0.11854000  1.0 0.9651628558
S  S3  1  0.28861000  0.57306000  0.32356000  1.0 0.9559820119
S  S4  1  0.66200000  0.61592000  0.88146000  1.0 0.9651628558
N  N1  1  0.09560000  0.86620000  0.06250000  1.0 -0.3144896206
N  N2  1  0.24190000  0.73790000  0.10890000  1.0 0.0384833377
N  N3  1  0.73970000  0.78560000  0.21860000  1.0 0.0460643668
N  N4  1  0.79710000  0.83980000  0.29940000  1.0 -0.2993466433
N  N5  1  0.10210000  0.02450000  0.27670000  1.0 0.0384833377
N  N6  1  0.93520000  0.98650000  0.31380000  1.0 -0.2869244691
N  N7  1  0.90440000  0.13380000  0.93750000  1.0 -0.3144896206
N  N8  1  0.75810000  0.26210000  0.89110000  1.0 0.0384833377
N  N9  1  0.26030000  0.21440000  0.78140000  1.0 0.0460643668
N  N10  1  0.20290000  0.16020000  0.70060000  1.0 -0.2993466433
N  N11  1  0.89790000  0.97550000  0.72330000  1.0 0.0384833377
N  N12  1  0.06480000  0.01350000  0.68620000  1.0 -0.2869244691
O  O1  1  0.67790000  0.86590000  0.45290000  1.0 -0.5741679844
O  O2  1  0.88180000  0.78580000  0.43750000  1.0 -0.5337414321
O  O3  1  0.59000000  0.47740000  0.72740000  1.0 -0.5115366157
O  O4  1  0.82270000  0.37550000  0.70060000  1.0 -0.5115366157
O  O5  1  0.58120000  0.10170000  0.50850000  1.0 -0.5615284916
O  O6  1  0.79120000  0.02610000  0.46330000  1.0 -0.5513595219
O  O7  1  0.66100000  0.07430000  0.34430000  1.0 -0.5513595219
O  O8  1  0.47610000  0.06510000  0.40120000  1.0 -0.5615284916
O  O9  1  0.43730000  0.40530000  0.06670000  1.0 -0.5115366157
O  O10  1  0.22200000  0.47550000  0.14880000  1.0 -0.5115366157
O  O11  1  0.09230000  0.08920000  0.01450000  1.0 -0.5513595219
O  O12  1  0.29230000  0.99620000  0.95110000  1.0 -0.5741679844
O  O13  1  0.32210000  0.13410000  0.54710000  1.0 -0.5741679844
O  O14  1  0.11820000  0.21420000  0.56250000  1.0 -0.5337414321
O  O15  1  0.41000000  0.52260000  0.27260000  1.0 -0.5115366157
O  O16  1  0.17730000  0.62450000  0.29940000  1.0 -0.5115366157
O  O17  1  0.41880000  0.89830000  0.49150000  1.0 -0.5615284916
O  O18  1  0.20880000  0.97390000  0.53670000  1.0 -0.5513595219
O  O19  1  0.33900000  0.92570000  0.65570000  1.0 -0.5513595219
O  O20  1  0.52390000  0.93490000  0.59880000  1.0 -0.5615284916
O  O21  1  0.56270000  0.59470000  0.93330000  1.0 -0.5115366157
O  O22  1  0.77800000  0.52450000  0.85120000  1.0 -0.5115366157
O  O23  1  0.90770000  0.91080000  0.98550000  1.0 -0.5513595219
O  O24  1  0.70770000  0.00380000  0.04890000  1.0 -0.5741679844
