# DDEC6 charges by PACMAN v1.1 (https://github.com/mtap-research/PACMAN-charge/)
data_GEYPIN_ASR_pacman
_symmetry_space_group_name_H-M   'P 1'
_cell_length_a   18.29200000
_cell_length_b   18.29200000
_cell_length_c   18.29200000
_cell_angle_alpha   90.00000000
_cell_angle_beta   90.00000000
_cell_angle_gamma   90.00000000
_symmetry_Int_Tables_number   1
_chemical_formula_structural   Zr3Co3H72C144(N3O4)4
_chemical_formula_sum   'Zr6 Co6 H144 C288 N24 O32'
_cell_volume   6120.45315309
_cell_formula_units_Z   2
loop_
 _symmetry_equiv_pos_site_id
 _symmetry_equiv_pos_as_xyz
  1  'x, y, z'
loop_
 _atom_site_type_symbol
 _atom_site_label
 _atom_site_symmetry_multiplicity
 _atom_site_fract_x
 _atom_site_fract_y
 _atom_site_fract_z
 _atom_site_occupancy
 _atom_site_charge
Zr  Zr1  1  0.36460000  0.50000000  0.50000000  1.0 1.6464197623
Zr  Zr2  1  0.63540000  0.50000000  0.50000000  1.0 1.6464197623
Zr  Zr3  1  0.50000000  0.36460000  0.50000000  1.0 1.6464197623
Zr  Zr4  1  0.50000000  0.63540000  0.50000000  1.0 1.644670652
Zr  Zr5  1  0.50000000  0.50000000  0.36460000  1.0 1.6464197623
Zr  Zr6  1  0.50000000  0.50000000  0.63540000  1.0 1.6464197623
Co  Co1  1  0.00000000  0.00000000  0.42140000  1.0 0.298084981
Co  Co2  1  0.00000000  0.00000000  0.57860000  1.0 0.298084981
Co  Co3  1  0.42140000  0.00000000  0.00000000  1.0 0.298084981
Co  Co4  1  0.57860000  0.00000000  0.00000000  1.0 0.298084981
Co  Co5  1  0.00000000  0.42140000  0.00000000  1.0 0.298084981
Co  Co6  1  0.00000000  0.57860000  0.00000000  1.0 0.298084981
H  H1  1  0.10310000  0.25570000  0.42450000  1.0 0.1006520972
H  H2  1  0.89690000  0.74430000  0.42450000  1.0 0.1006520972
H  H3  1  0.89690000  0.25570000  0.57550000  1.0 0.1006520972
H  H4  1  0.10310000  0.74430000  0.57550000  1.0 0.1006520972
H  H5  1  0.42450000  0.10310000  0.25570000  1.0 0.1006520972
H  H6  1  0.42450000  0.89690000  0.74430000  1.0 0.1006520972
H  H7  1  0.57550000  0.89690000  0.25570000  1.0 0.1006520972
H  H8  1  0.57550000  0.10310000  0.74430000  1.0 0.1006520972
H  H9  1  0.25570000  0.42450000  0.10310000  1.0 0.1006520972
H  H10  1  0.74430000  0.42450000  0.89690000  1.0 0.1006520972
H  H11  1  0.25570000  0.57550000  0.89690000  1.0 0.1006520972
H  H12  1  0.74430000  0.57550000  0.10310000  1.0 0.1006520972
H  H13  1  0.25570000  0.10310000  0.57550000  1.0 0.1006520972
H  H14  1  0.74430000  0.89690000  0.57550000  1.0 0.1006520972
H  H15  1  0.25570000  0.89690000  0.42450000  1.0 0.1006520972
H  H16  1  0.74430000  0.10310000  0.42450000  1.0 0.1006520972
H  H17  1  0.10310000  0.42450000  0.74430000  1.0 0.1006520972
H  H18  1  0.89690000  0.42450000  0.25570000  1.0 0.1006520972
H  H19  1  0.89690000  0.57550000  0.74430000  1.0 0.1006520972
H  H20  1  0.10310000  0.57550000  0.25570000  1.0 0.1006520972
H  H21  1  0.42450000  0.25570000  0.89690000  1.0 0.1006520972
H  H22  1  0.42450000  0.74430000  0.10310000  1.0 0.1006520972
H  H23  1  0.57550000  0.25570000  0.10310000  1.0 0.1006520972
H  H24  1  0.57550000  0.74430000  0.89690000  1.0 0.1006520972
H  H25  1  0.89690000  0.74430000  0.57550000  1.0 0.1006520972
H  H26  1  0.10310000  0.25570000  0.57550000  1.0 0.1006520972
H  H27  1  0.10310000  0.74430000  0.42450000  1.0 0.1006520972
H  H28  1  0.89690000  0.25570000  0.42450000  1.0 0.1006520972
H  H29  1  0.57550000  0.89690000  0.74430000  1.0 0.1006520972
H  H30  1  0.57550000  0.10310000  0.25570000  1.0 0.1006520972
H  H31  1  0.42450000  0.10310000  0.74430000  1.0 0.1006520972
H  H32  1  0.42450000  0.89690000  0.25570000  1.0 0.1006520972
H  H33  1  0.74430000  0.57550000  0.89690000  1.0 0.1006520972
H  H34  1  0.25570000  0.57550000  0.10310000  1.0 0.1006520972
H  H35  1  0.74430000  0.42450000  0.10310000  1.0 0.1006520972
H  H36  1  0.25570000  0.42450000  0.89690000  1.0 0.1006520972
H  H37  1  0.74430000  0.89690000  0.42450000  1.0 0.1006520972
H  H38  1  0.25570000  0.10310000  0.42450000  1.0 0.1006520972
H  H39  1  0.74430000  0.10310000  0.57550000  1.0 0.1006520972
H  H40  1  0.25570000  0.89690000  0.57550000  1.0 0.1006520972
H  H41  1  0.89690000  0.57550000  0.25570000  1.0 0.1006520972
H  H42  1  0.10310000  0.57550000  0.74430000  1.0 0.1006520972
H  H43  1  0.10310000  0.42450000  0.25570000  1.0 0.1006520972
H  H44  1  0.89690000  0.42450000  0.74430000  1.0 0.1006520972
H  H45  1  0.57550000  0.74430000  0.10310000  1.0 0.1006520972
H  H46  1  0.57550000  0.25570000  0.89690000  1.0 0.1006520972
H  H47  1  0.42450000  0.74430000  0.89690000  1.0 0.1006520972
H  H48  1  0.42450000  0.25570000  0.10310000  1.0 0.1006520972
H  H49  1  0.18930000  0.34280000  0.45630000  1.0 0.0744266727
H  H50  1  0.81070000  0.65720000  0.45630000  1.0 0.0744266727
H  H51  1  0.81070000  0.34280000  0.54370000  1.0 0.0744266727
H  H52  1  0.18930000  0.65720000  0.54370000  1.0 0.0744266727
H  H53  1  0.45630000  0.18930000  0.34280000  1.0 0.0744266727
H  H54  1  0.45630000  0.81070000  0.65720000  1.0 0.0744266727
H  H55  1  0.54370000  0.81070000  0.34280000  1.0 0.0744266727
H  H56  1  0.54370000  0.18930000  0.65720000  1.0 0.0744266727
H  H57  1  0.34280000  0.45630000  0.18930000  1.0 0.0744266727
H  H58  1  0.65720000  0.45630000  0.81070000  1.0 0.0744266727
H  H59  1  0.34280000  0.54370000  0.81070000  1.0 0.0744266727
H  H60  1  0.65720000  0.54370000  0.18930000  1.0 0.0744266727
H  H61  1  0.34280000  0.18930000  0.54370000  1.0 0.0744266727
H  H62  1  0.65720000  0.81070000  0.54370000  1.0 0.0744266727
H  H63  1  0.34280000  0.81070000  0.45630000  1.0 0.0744266727
H  H64  1  0.65720000  0.18930000  0.45630000  1.0 0.0744266727
H  H65  1  0.18930000  0.45630000  0.65720000  1.0 0.0744266727
H  H66  1  0.81070000  0.45630000  0.34280000  1.0 0.0744266727
H  H67  1  0.81070000  0.54370000  0.65720000  1.0 0.0744266727
H  H68  1  0.18930000  0.54370000  0.34280000  1.0 0.0744266727
H  H69  1  0.45630000  0.34280000  0.81070000  1.0 0.0744266727
H  H70  1  0.45630000  0.65720000  0.18930000  1.0 0.0744266727
H  H71  1  0.54370000  0.34280000  0.18930000  1.0 0.0744266727
H  H72  1  0.54370000  0.65720000  0.81070000  1.0 0.0744266727
H  H73  1  0.81070000  0.65720000  0.54370000  1.0 0.0744266727
H  H74  1  0.18930000  0.34280000  0.54370000  1.0 0.0744266727
H  H75  1  0.18930000  0.65720000  0.45630000  1.0 0.0744266727
H  H76  1  0.81070000  0.34280000  0.45630000  1.0 0.0744266727
H  H77  1  0.54370000  0.81070000  0.65720000  1.0 0.0744266727
H  H78  1  0.54370000  0.18930000  0.34280000  1.0 0.0744266727
H  H79  1  0.45630000  0.18930000  0.65720000  1.0 0.0744266727
H  H80  1  0.45630000  0.81070000  0.34280000  1.0 0.0744266727
H  H81  1  0.65720000  0.54370000  0.81070000  1.0 0.0744266727
H  H82  1  0.34280000  0.54370000  0.18930000  1.0 0.0744266727
H  H83  1  0.65720000  0.45630000  0.18930000  1.0 0.0744266727
H  H84  1  0.34280000  0.45630000  0.81070000  1.0 0.0744266727
H  H85  1  0.65720000  0.81070000  0.45630000  1.0 0.0744266727
H  H86  1  0.34280000  0.18930000  0.45630000  1.0 0.0744266727
H  H87  1  0.65720000  0.18930000  0.54370000  1.0 0.0744266727
H  H88  1  0.34280000  0.81070000  0.54370000  1.0 0.0744266727
H  H89  1  0.81070000  0.54370000  0.34280000  1.0 0.0744266727
H  H90  1  0.18930000  0.54370000  0.65720000  1.0 0.0744266727
H  H91  1  0.18930000  0.45630000  0.34280000  1.0 0.0744266727
H  H92  1  0.81070000  0.45630000  0.65720000  1.0 0.0744266727
H  H93  1  0.54370000  0.65720000  0.18930000  1.0 0.0744266727
H  H94  1  0.54370000  0.34280000  0.81070000  1.0 0.0744266727
H  H95  1  0.45630000  0.65720000  0.81070000  1.0 0.0744266727
H  H96  1  0.45630000  0.34280000  0.18930000  1.0 0.0744266727
H  H97  1  0.07750000  0.13870000  0.37480000  1.0 0.1006520972
H  H98  1  0.92250000  0.86130000  0.37480000  1.0 0.1006520972
H  H99  1  0.92250000  0.13870000  0.62520000  1.0 0.1006520972
H  H100  1  0.07750000  0.86130000  0.62520000  1.0 0.1006520972
H  H101  1  0.37480000  0.07750000  0.13870000  1.0 0.1006520972
H  H102  1  0.37480000  0.92250000  0.86130000  1.0 0.1006520972
H  H103  1  0.62520000  0.92250000  0.13870000  1.0 0.1006520972
H  H104  1  0.62520000  0.07750000  0.86130000  1.0 0.1006520972
H  H105  1  0.13870000  0.37480000  0.07750000  1.0 0.1006520972
H  H106  1  0.86130000  0.37480000  0.92250000  1.0 0.1006520972
H  H107  1  0.13870000  0.62520000  0.92250000  1.0 0.1006520972
H  H108  1  0.86130000  0.62520000  0.07750000  1.0 0.1006520972
H  H109  1  0.13870000  0.07750000  0.62520000  1.0 0.1006520972
H  H110  1  0.86130000  0.92250000  0.62520000  1.0 0.1006520972
H  H111  1  0.13870000  0.92250000  0.37480000  1.0 0.1006520972
H  H112  1  0.86130000  0.07750000  0.37480000  1.0 0.1006520972
H  H113  1  0.07750000  0.37480000  0.86130000  1.0 0.1006520972
H  H114  1  0.92250000  0.37480000  0.13870000  1.0 0.1006520972
H  H115  1  0.92250000  0.62520000  0.86130000  1.0 0.1006520972
H  H116  1  0.07750000  0.62520000  0.13870000  1.0 0.1006520972
H  H117  1  0.37480000  0.13870000  0.92250000  1.0 0.1006520972
H  H118  1  0.37480000  0.86130000  0.07750000  1.0 0.1006520972
H  H119  1  0.62520000  0.13870000  0.07750000  1.0 0.1006520972
H  H120  1  0.62520000  0.86130000  0.92250000  1.0 0.1006520972
H  H121  1  0.92250000  0.86130000  0.62520000  1.0 0.1006520972
H  H122  1  0.07750000  0.13870000  0.62520000  1.0 0.1006520972
H  H123  1  0.07750000  0.86130000  0.37480000  1.0 0.1006520972
H  H124  1  0.92250000  0.13870000  0.37480000  1.0 0.1006520972
H  H125  1  0.62520000  0.92250000  0.86130000  1.0 0.1006520972
H  H126  1  0.62520000  0.07750000  0.13870000  1.0 0.1006520972
H  H127  1  0.37480000  0.07750000  0.86130000  1.0 0.1006520972
H  H128  1  0.37480000  0.92250000  0.13870000  1.0 0.1006520972
H  H129  1  0.86130000  0.62520000  0.92250000  1.0 0.1006520972
H  H130  1  0.13870000  0.62520000  0.07750000  1.0 0.1006520972
H  H131  1  0.86130000  0.37480000  0.07750000  1.0 0.1006520972
H  H132  1  0.13870000  0.37480000  0.92250000  1.0 0.1006520972
H  H133  1  0.86130000  0.92250000  0.37480000  1.0 0.1006520972
H  H134  1  0.13870000  0.07750000  0.37480000  1.0 0.1006520972
H  H135  1  0.86130000  0.07750000  0.62520000  1.0 0.1006520972
H  H136  1  0.13870000  0.92250000  0.62520000  1.0 0.1006520972
H  H137  1  0.92250000  0.62520000  0.13870000  1.0 0.1006520972
H  H138  1  0.07750000  0.62520000  0.86130000  1.0 0.1006520972
H  H139  1  0.07750000  0.37480000  0.13870000  1.0 0.1006520972
H  H140  1  0.92250000  0.37480000  0.86130000  1.0 0.1006520972
H  H141  1  0.62520000  0.86130000  0.07750000  1.0 0.1006520972
H  H142  1  0.62520000  0.13870000  0.92250000  1.0 0.1006520972
H  H143  1  0.37480000  0.86130000  0.92250000  1.0 0.1006520972
H  H144  1  0.37480000  0.13870000  0.07750000  1.0 0.1006520972
C  C1  1  0.27500000  0.27360000  0.46490000  1.0 0.0060456039
C  C2  1  0.72500000  0.72640000  0.46490000  1.0 0.0060456039
C  C3  1  0.72500000  0.27360000  0.53510000  1.0 0.0060456039
C  C4  1  0.27500000  0.72640000  0.53510000  1.0 0.0060456039
C  C5  1  0.46490000  0.27500000  0.27360000  1.0 0.0060456039
C  C6  1  0.46490000  0.72500000  0.72640000  1.0 0.0060456039
C  C7  1  0.53510000  0.72500000  0.27360000  1.0 0.0060456039
C  C8  1  0.53510000  0.27500000  0.72640000  1.0 0.0060456039
C  C9  1  0.27360000  0.46490000  0.27500000  1.0 0.0060456039
C  C10  1  0.72640000  0.46490000  0.72500000  1.0 0.0060456039
C  C11  1  0.27360000  0.53510000  0.72500000  1.0 0.0060456039
C  C12  1  0.72640000  0.53510000  0.27500000  1.0 0.0060456039
C  C13  1  0.27360000  0.27500000  0.53510000  1.0 0.0060456039
C  C14  1  0.72640000  0.72500000  0.53510000  1.0 0.0060456039
C  C15  1  0.27360000  0.72500000  0.46490000  1.0 0.0060456039
C  C16  1  0.72640000  0.27500000  0.46490000  1.0 0.0060456039
C  C17  1  0.27500000  0.46490000  0.72640000  1.0 0.0060456039
C  C18  1  0.72500000  0.46490000  0.27360000  1.0 0.0060456039
C  C19  1  0.72500000  0.53510000  0.72640000  1.0 0.0060456039
C  C20  1  0.27500000  0.53510000  0.27360000  1.0 0.0060456039
C  C21  1  0.46490000  0.27360000  0.72500000  1.0 0.0060456039
C  C22  1  0.46490000  0.72640000  0.27500000  1.0 0.0060456039
C  C23  1  0.53510000  0.27360000  0.27500000  1.0 0.0060456039
C  C24  1  0.53510000  0.72640000  0.72500000  1.0 0.0060456039
C  C25  1  0.72500000  0.72640000  0.53510000  1.0 0.0060456039
C  C26  1  0.27500000  0.27360000  0.53510000  1.0 0.0060456039
C  C27  1  0.27500000  0.72640000  0.46490000  1.0 0.0060456039
C  C28  1  0.72500000  0.27360000  0.46490000  1.0 0.0060456039
C  C29  1  0.53510000  0.72500000  0.72640000  1.0 0.0060456039
C  C30  1  0.53510000  0.27500000  0.27360000  1.0 0.0060456039
C  C31  1  0.46490000  0.27500000  0.72640000  1.0 0.0060456039
C  C32  1  0.46490000  0.72500000  0.27360000  1.0 0.0060456039
C  C33  1  0.72640000  0.53510000  0.72500000  1.0 0.0060456039
C  C34  1  0.27360000  0.53510000  0.27500000  1.0 0.0060456039
C  C35  1  0.72640000  0.46490000  0.27500000  1.0 0.0060456039
C  C36  1  0.27360000  0.46490000  0.72500000  1.0 0.0060456039
C  C37  1  0.72640000  0.72500000  0.46490000  1.0 0.0060456039
C  C38  1  0.27360000  0.27500000  0.46490000  1.0 0.0060456039
C  C39  1  0.72640000  0.27500000  0.53510000  1.0 0.0060456039
C  C40  1  0.27360000  0.72500000  0.53510000  1.0 0.0060456039
C  C41  1  0.72500000  0.53510000  0.27360000  1.0 0.0060456039
C  C42  1  0.27500000  0.53510000  0.72640000  1.0 0.0060456039
C  C43  1  0.27500000  0.46490000  0.27360000  1.0 0.0060456039
C  C44  1  0.72500000  0.46490000  0.72640000  1.0 0.0060456039
C  C45  1  0.53510000  0.72640000  0.27500000  1.0 0.0060456039
C  C46  1  0.53510000  0.27360000  0.72500000  1.0 0.0060456039
C  C47  1  0.46490000  0.72640000  0.72500000  1.0 0.0060456039
C  C48  1  0.46490000  0.27360000  0.27500000  1.0 0.0060456039
C  C49  1  0.15120000  0.24170000  0.43300000  1.0 -0.1134926809
C  C50  1  0.84880000  0.75830000  0.43300000  1.0 -0.1134926809
C  C51  1  0.84880000  0.24170000  0.56700000  1.0 -0.1134926809
C  C52  1  0.15120000  0.75830000  0.56700000  1.0 -0.1134926809
C  C53  1  0.43300000  0.15120000  0.24170000  1.0 -0.1134926809
C  C54  1  0.43300000  0.84880000  0.75830000  1.0 -0.1134926809
C  C55  1  0.56700000  0.84880000  0.24170000  1.0 -0.1134926809
C  C56  1  0.56700000  0.15120000  0.75830000  1.0 -0.1134926809
C  C57  1  0.24170000  0.43300000  0.15120000  1.0 -0.1134926809
C  C58  1  0.75830000  0.43300000  0.84880000  1.0 -0.1134926809
C  C59  1  0.24170000  0.56700000  0.84880000  1.0 -0.1134926809
C  C60  1  0.75830000  0.56700000  0.15120000  1.0 -0.1134926809
C  C61  1  0.24170000  0.15120000  0.56700000  1.0 -0.1134926809
C  C62  1  0.75830000  0.84880000  0.56700000  1.0 -0.1134926809
C  C63  1  0.24170000  0.84880000  0.43300000  1.0 -0.1134926809
C  C64  1  0.75830000  0.15120000  0.43300000  1.0 -0.1134926809
C  C65  1  0.15120000  0.43300000  0.75830000  1.0 -0.1134926809
C  C66  1  0.84880000  0.43300000  0.24170000  1.0 -0.1134926809
C  C67  1  0.84880000  0.56700000  0.75830000  1.0 -0.1134926809
C  C68  1  0.15120000  0.56700000  0.24170000  1.0 -0.1134926809
C  C69  1  0.43300000  0.24170000  0.84880000  1.0 -0.1134926809
C  C70  1  0.43300000  0.75830000  0.15120000  1.0 -0.1134926809
C  C71  1  0.56700000  0.24170000  0.15120000  1.0 -0.1134926809
C  C72  1  0.56700000  0.75830000  0.84880000  1.0 -0.1134926809
C  C73  1  0.84880000  0.75830000  0.56700000  1.0 -0.1134926809
C  C74  1  0.15120000  0.24170000  0.56700000  1.0 -0.1134926809
C  C75  1  0.15120000  0.75830000  0.43300000  1.0 -0.1134926809
C  C76  1  0.84880000  0.24170000  0.43300000  1.0 -0.1134926809
C  C77  1  0.56700000  0.84880000  0.75830000  1.0 -0.1134926809
C  C78  1  0.56700000  0.15120000  0.24170000  1.0 -0.1134926809
C  C79  1  0.43300000  0.15120000  0.75830000  1.0 -0.1134926809
C  C80  1  0.43300000  0.84880000  0.24170000  1.0 -0.1134926809
C  C81  1  0.75830000  0.56700000  0.84880000  1.0 -0.1134926809
C  C82  1  0.24170000  0.56700000  0.15120000  1.0 -0.1134926809
C  C83  1  0.75830000  0.43300000  0.15120000  1.0 -0.1134926809
C  C84  1  0.24170000  0.43300000  0.84880000  1.0 -0.1134926809
C  C85  1  0.75830000  0.84880000  0.43300000  1.0 -0.1134926809
C  C86  1  0.24170000  0.15120000  0.43300000  1.0 -0.1134926809
C  C87  1  0.75830000  0.15120000  0.56700000  1.0 -0.1134926809
C  C88  1  0.24170000  0.84880000  0.56700000  1.0 -0.1134926809
C  C89  1  0.84880000  0.56700000  0.24170000  1.0 -0.1134926809
C  C90  1  0.15120000  0.56700000  0.75830000  1.0 -0.1134926809
C  C91  1  0.15120000  0.43300000  0.24170000  1.0 -0.1134926809
C  C92  1  0.84880000  0.43300000  0.75830000  1.0 -0.1134926809
C  C93  1  0.56700000  0.75830000  0.15120000  1.0 -0.1134926809
C  C94  1  0.56700000  0.24170000  0.84880000  1.0 -0.1134926809
C  C95  1  0.43300000  0.75830000  0.84880000  1.0 -0.1134926809
C  C96  1  0.43300000  0.24170000  0.15120000  1.0 -0.1134926809
C  C97  1  0.34100000  0.31940000  0.48600000  1.0 0.1600249575
C  C98  1  0.65900000  0.68060000  0.48600000  1.0 0.1600249575
C  C99  1  0.65900000  0.31940000  0.51400000  1.0 0.1600249575
C  C100  1  0.34100000  0.68060000  0.51400000  1.0 0.1600249575
C  C101  1  0.48600000  0.34100000  0.31940000  1.0 0.1600249575
C  C102  1  0.48600000  0.65900000  0.68060000  1.0 0.1600249575
C  C103  1  0.51400000  0.65900000  0.31940000  1.0 0.1600249575
C  C104  1  0.51400000  0.34100000  0.68060000  1.0 0.1600249575
C  C105  1  0.31940000  0.48600000  0.34100000  1.0 0.1600249575
C  C106  1  0.68060000  0.48600000  0.65900000  1.0 0.1600249575
C  C107  1  0.31940000  0.51400000  0.65900000  1.0 0.1600249575
C  C108  1  0.68060000  0.51400000  0.34100000  1.0 0.1600249575
C  C109  1  0.31940000  0.34100000  0.51400000  1.0 0.1600249575
C  C110  1  0.68060000  0.65900000  0.51400000  1.0 0.1600249575
C  C111  1  0.31940000  0.65900000  0.48600000  1.0 0.1600249575
C  C112  1  0.68060000  0.34100000  0.48600000  1.0 0.1600249575
C  C113  1  0.34100000  0.48600000  0.68060000  1.0 0.1600249575
C  C114  1  0.65900000  0.48600000  0.31940000  1.0 0.1600249575
C  C115  1  0.65900000  0.51400000  0.68060000  1.0 0.1600249575
C  C116  1  0.34100000  0.51400000  0.31940000  1.0 0.1600249575
C  C117  1  0.48600000  0.31940000  0.65900000  1.0 0.1600249575
C  C118  1  0.48600000  0.68060000  0.34100000  1.0 0.1600249575
C  C119  1  0.51400000  0.31940000  0.34100000  1.0 0.1600249575
C  C120  1  0.51400000  0.68060000  0.65900000  1.0 0.1600249575
C  C121  1  0.65900000  0.68060000  0.51400000  1.0 0.1600249575
C  C122  1  0.34100000  0.31940000  0.51400000  1.0 0.1600249575
C  C123  1  0.34100000  0.68060000  0.48600000  1.0 0.1600249575
C  C124  1  0.65900000  0.31940000  0.48600000  1.0 0.1600249575
C  C125  1  0.51400000  0.65900000  0.68060000  1.0 0.1600249575
C  C126  1  0.51400000  0.34100000  0.31940000  1.0 0.1600249575
C  C127  1  0.48600000  0.34100000  0.68060000  1.0 0.1600249575
C  C128  1  0.48600000  0.65900000  0.31940000  1.0 0.1600249575
C  C129  1  0.68060000  0.51400000  0.65900000  1.0 0.1600249575
C  C130  1  0.31940000  0.51400000  0.34100000  1.0 0.1600249575
C  C131  1  0.68060000  0.48600000  0.34100000  1.0 0.1600249575
C  C132  1  0.31940000  0.48600000  0.65900000  1.0 0.1600249575
C  C133  1  0.68060000  0.65900000  0.48600000  1.0 0.1600249575
C  C134  1  0.31940000  0.34100000  0.48600000  1.0 0.1600249575
C  C135  1  0.68060000  0.34100000  0.51400000  1.0 0.1600249575
C  C136  1  0.31940000  0.65900000  0.51400000  1.0 0.1600249575
C  C137  1  0.65900000  0.51400000  0.31940000  1.0 0.1600249575
C  C138  1  0.34100000  0.51400000  0.68060000  1.0 0.1600249575
C  C139  1  0.34100000  0.48600000  0.31940000  1.0 0.1600249575
C  C140  1  0.65900000  0.48600000  0.68060000  1.0 0.1600249575
C  C141  1  0.51400000  0.68060000  0.34100000  1.0 0.1600249575
C  C142  1  0.51400000  0.31940000  0.65900000  1.0 0.1600249575
C  C143  1  0.48600000  0.68060000  0.65900000  1.0 0.1600249575
C  C144  1  0.48600000  0.31940000  0.34100000  1.0 0.1600249575
C  C145  1  0.20290000  0.29400000  0.45210000  1.0 -0.119995208
C  C146  1  0.79710000  0.70600000  0.45210000  1.0 -0.119995208
C  C147  1  0.79710000  0.29400000  0.54790000  1.0 -0.119995208
C  C148  1  0.20290000  0.70600000  0.54790000  1.0 -0.119995208
C  C149  1  0.45210000  0.20290000  0.29400000  1.0 -0.119995208
C  C150  1  0.45210000  0.79710000  0.70600000  1.0 -0.119995208
C  C151  1  0.54790000  0.79710000  0.29400000  1.0 -0.119995208
C  C152  1  0.54790000  0.20290000  0.70600000  1.0 -0.119995208
C  C153  1  0.29400000  0.45210000  0.20290000  1.0 -0.119995208
C  C154  1  0.70600000  0.45210000  0.79710000  1.0 -0.119995208
C  C155  1  0.29400000  0.54790000  0.79710000  1.0 -0.119995208
C  C156  1  0.70600000  0.54790000  0.20290000  1.0 -0.119995208
C  C157  1  0.29400000  0.20290000  0.54790000  1.0 -0.119995208
C  C158  1  0.70600000  0.79710000  0.54790000  1.0 -0.119995208
C  C159  1  0.29400000  0.79710000  0.45210000  1.0 -0.119995208
C  C160  1  0.70600000  0.20290000  0.45210000  1.0 -0.119995208
C  C161  1  0.20290000  0.45210000  0.70600000  1.0 -0.119995208
C  C162  1  0.79710000  0.45210000  0.29400000  1.0 -0.119995208
C  C163  1  0.79710000  0.54790000  0.70600000  1.0 -0.119995208
C  C164  1  0.20290000  0.54790000  0.29400000  1.0 -0.119995208
C  C165  1  0.45210000  0.29400000  0.79710000  1.0 -0.119995208
C  C166  1  0.45210000  0.70600000  0.20290000  1.0 -0.119995208
C  C167  1  0.54790000  0.29400000  0.20290000  1.0 -0.119995208
C  C168  1  0.54790000  0.70600000  0.79710000  1.0 -0.119995208
C  C169  1  0.79710000  0.70600000  0.54790000  1.0 -0.119995208
C  C170  1  0.20290000  0.29400000  0.54790000  1.0 -0.119995208
C  C171  1  0.20290000  0.70600000  0.45210000  1.0 -0.119995208
C  C172  1  0.79710000  0.29400000  0.45210000  1.0 -0.119995208
C  C173  1  0.54790000  0.79710000  0.70600000  1.0 -0.119995208
C  C174  1  0.54790000  0.20290000  0.29400000  1.0 -0.119995208
C  C175  1  0.45210000  0.20290000  0.70600000  1.0 -0.119995208
C  C176  1  0.45210000  0.79710000  0.29400000  1.0 -0.119995208
C  C177  1  0.70600000  0.54790000  0.79710000  1.0 -0.119995208
C  C178  1  0.29400000  0.54790000  0.20290000  1.0 -0.119995208
C  C179  1  0.70600000  0.45210000  0.20290000  1.0 -0.119995208
C  C180  1  0.29400000  0.45210000  0.79710000  1.0 -0.119995208
C  C181  1  0.70600000  0.79710000  0.45210000  1.0 -0.119995208
C  C182  1  0.29400000  0.20290000  0.45210000  1.0 -0.119995208
C  C183  1  0.70600000  0.20290000  0.54790000  1.0 -0.119995208
C  C184  1  0.29400000  0.79710000  0.54790000  1.0 -0.119995208
C  C185  1  0.79710000  0.54790000  0.29400000  1.0 -0.119995208
C  C186  1  0.20290000  0.54790000  0.70600000  1.0 -0.119995208
C  C187  1  0.20290000  0.45210000  0.29400000  1.0 -0.119995208
C  C188  1  0.79710000  0.45210000  0.70600000  1.0 -0.119995208
C  C189  1  0.54790000  0.70600000  0.20290000  1.0 -0.119995208
C  C190  1  0.54790000  0.29400000  0.79710000  1.0 -0.119995208
C  C191  1  0.45210000  0.70600000  0.79710000  1.0 -0.119995208
C  C192  1  0.45210000  0.29400000  0.20290000  1.0 -0.119995208
C  C193  1  0.11280000  0.11280000  0.40500000  1.0 -0.1264379054
C  C194  1  0.88720000  0.88720000  0.40500000  1.0 -0.1264379054
C  C195  1  0.88720000  0.11280000  0.59500000  1.0 -0.1264379054
C  C196  1  0.11280000  0.88720000  0.59500000  1.0 -0.1264379054
C  C197  1  0.40500000  0.11280000  0.11280000  1.0 -0.1264379054
C  C198  1  0.40500000  0.88720000  0.88720000  1.0 -0.1264379054
C  C199  1  0.59500000  0.88720000  0.11280000  1.0 -0.1264379054
C  C200  1  0.59500000  0.11280000  0.88720000  1.0 -0.1264379054
C  C201  1  0.11280000  0.40500000  0.11280000  1.0 -0.1264379054
C  C202  1  0.88720000  0.40500000  0.88720000  1.0 -0.1264379054
C  C203  1  0.11280000  0.59500000  0.88720000  1.0 -0.1264379054
C  C204  1  0.88720000  0.59500000  0.11280000  1.0 -0.1264379054
C  C205  1  0.11280000  0.11280000  0.59500000  1.0 -0.1264379054
C  C206  1  0.88720000  0.88720000  0.59500000  1.0 -0.1264379054
C  C207  1  0.11280000  0.88720000  0.40500000  1.0 -0.1264379054
C  C208  1  0.88720000  0.11280000  0.40500000  1.0 -0.1264379054
C  C209  1  0.11280000  0.40500000  0.88720000  1.0 -0.1264379054
C  C210  1  0.88720000  0.40500000  0.11280000  1.0 -0.1264379054
C  C211  1  0.88720000  0.59500000  0.88720000  1.0 -0.1264379054
C  C212  1  0.11280000  0.59500000  0.11280000  1.0 -0.1264379054
C  C213  1  0.40500000  0.11280000  0.88720000  1.0 -0.1264379054
C  C214  1  0.40500000  0.88720000  0.11280000  1.0 -0.1264379054
C  C215  1  0.59500000  0.11280000  0.11280000  1.0 -0.1264379054
C  C216  1  0.59500000  0.88720000  0.88720000  1.0 -0.1264379054
C  C217  1  0.17100000  0.16860000  0.42700000  1.0 -0.011496219
C  C218  1  0.82900000  0.83140000  0.42700000  1.0 -0.011496219
C  C219  1  0.82900000  0.16860000  0.57300000  1.0 -0.011496219
C  C220  1  0.17100000  0.83140000  0.57300000  1.0 -0.011496219
C  C221  1  0.42700000  0.17100000  0.16860000  1.0 -0.011496219
C  C222  1  0.42700000  0.82900000  0.83140000  1.0 -0.011496219
C  C223  1  0.57300000  0.82900000  0.16860000  1.0 -0.011496219
C  C224  1  0.57300000  0.17100000  0.83140000  1.0 -0.011496219
C  C225  1  0.16860000  0.42700000  0.17100000  1.0 -0.011496219
C  C226  1  0.83140000  0.42700000  0.82900000  1.0 -0.011496219
C  C227  1  0.16860000  0.57300000  0.82900000  1.0 -0.011496219
C  C228  1  0.83140000  0.57300000  0.17100000  1.0 -0.011496219
C  C229  1  0.16860000  0.17100000  0.57300000  1.0 -0.011496219
C  C230  1  0.83140000  0.82900000  0.57300000  1.0 -0.011496219
C  C231  1  0.16860000  0.82900000  0.42700000  1.0 -0.011496219
C  C232  1  0.83140000  0.17100000  0.42700000  1.0 -0.011496219
C  C233  1  0.17100000  0.42700000  0.83140000  1.0 -0.011496219
C  C234  1  0.82900000  0.42700000  0.16860000  1.0 -0.011496219
C  C235  1  0.82900000  0.57300000  0.83140000  1.0 -0.011496219
C  C236  1  0.17100000  0.57300000  0.16860000  1.0 -0.011496219
C  C237  1  0.42700000  0.16860000  0.82900000  1.0 -0.011496219
C  C238  1  0.42700000  0.83140000  0.17100000  1.0 -0.011496219
C  C239  1  0.57300000  0.16860000  0.17100000  1.0 -0.011496219
C  C240  1  0.57300000  0.83140000  0.82900000  1.0 -0.011496219
C  C241  1  0.82900000  0.83140000  0.57300000  1.0 -0.011496219
C  C242  1  0.17100000  0.16860000  0.57300000  1.0 -0.011496219
C  C243  1  0.17100000  0.83140000  0.42700000  1.0 -0.011496219
C  C244  1  0.82900000  0.16860000  0.42700000  1.0 -0.011496219
C  C245  1  0.57300000  0.82900000  0.83140000  1.0 -0.011496219
C  C246  1  0.57300000  0.17100000  0.16860000  1.0 -0.011496219
C  C247  1  0.42700000  0.17100000  0.83140000  1.0 -0.011496219
C  C248  1  0.42700000  0.82900000  0.16860000  1.0 -0.011496219
C  C249  1  0.83140000  0.57300000  0.82900000  1.0 -0.011496219
C  C250  1  0.16860000  0.57300000  0.17100000  1.0 -0.011496219
C  C251  1  0.83140000  0.42700000  0.17100000  1.0 -0.011496219
C  C252  1  0.16860000  0.42700000  0.82900000  1.0 -0.011496219
C  C253  1  0.83140000  0.82900000  0.42700000  1.0 -0.011496219
C  C254  1  0.16860000  0.17100000  0.42700000  1.0 -0.011496219
C  C255  1  0.83140000  0.17100000  0.57300000  1.0 -0.011496219
C  C256  1  0.16860000  0.82900000  0.57300000  1.0 -0.011496219
C  C257  1  0.82900000  0.57300000  0.16860000  1.0 -0.011496219
C  C258  1  0.17100000  0.57300000  0.83140000  1.0 -0.011496219
C  C259  1  0.17100000  0.42700000  0.16860000  1.0 -0.011496219
C  C260  1  0.82900000  0.42700000  0.83140000  1.0 -0.011496219
C  C261  1  0.57300000  0.83140000  0.17100000  1.0 -0.011496219
C  C262  1  0.57300000  0.16860000  0.82900000  1.0 -0.011496219
C  C263  1  0.42700000  0.83140000  0.82900000  1.0 -0.011496219
C  C264  1  0.42700000  0.16860000  0.17100000  1.0 -0.011496219
C  C265  1  0.03660000  0.12860000  0.50000000  1.0 -0.1742824138
C  C266  1  0.96340000  0.87140000  0.50000000  1.0 -0.1742824138
C  C267  1  0.96340000  0.12860000  0.50000000  1.0 -0.1742824138
C  C268  1  0.03660000  0.87140000  0.50000000  1.0 -0.1742824138
C  C269  1  0.50000000  0.03660000  0.12860000  1.0 -0.1742824138
C  C270  1  0.50000000  0.96340000  0.87140000  1.0 -0.1742824138
C  C271  1  0.50000000  0.96340000  0.12860000  1.0 -0.1742824138
C  C272  1  0.50000000  0.03660000  0.87140000  1.0 -0.1742824138
C  C273  1  0.12860000  0.50000000  0.03660000  1.0 -0.1742824138
C  C274  1  0.87140000  0.50000000  0.96340000  1.0 -0.1742824138
C  C275  1  0.12860000  0.50000000  0.96340000  1.0 -0.1742824138
C  C276  1  0.87140000  0.50000000  0.03660000  1.0 -0.1742824138
C  C277  1  0.12860000  0.03660000  0.50000000  1.0 -0.1742824138
C  C278  1  0.87140000  0.96340000  0.50000000  1.0 -0.1742824138
C  C279  1  0.12860000  0.96340000  0.50000000  1.0 -0.1742824138
C  C280  1  0.87140000  0.03660000  0.50000000  1.0 -0.1742824138
C  C281  1  0.03660000  0.50000000  0.87140000  1.0 -0.1742824138
C  C282  1  0.96340000  0.50000000  0.12860000  1.0 -0.1742824138
C  C283  1  0.96340000  0.50000000  0.87140000  1.0 -0.1742824138
C  C284  1  0.03660000  0.50000000  0.12860000  1.0 -0.1742824138
C  C285  1  0.50000000  0.12860000  0.96340000  1.0 -0.1742824138
C  C286  1  0.50000000  0.87140000  0.03660000  1.0 -0.1742824138
C  C287  1  0.50000000  0.12860000  0.03660000  1.0 -0.1742824138
C  C288  1  0.50000000  0.87140000  0.96340000  1.0 -0.1742824138
N  N1  1  0.07340000  0.07340000  0.45500000  1.0 -0.0603436974
N  N2  1  0.92660000  0.92660000  0.45500000  1.0 -0.0603436974
N  N3  1  0.92660000  0.07340000  0.54500000  1.0 -0.0603436974
N  N4  1  0.07340000  0.92660000  0.54500000  1.0 -0.0603436974
N  N5  1  0.45500000  0.07340000  0.07340000  1.0 -0.0603436974
N  N6  1  0.45500000  0.92660000  0.92660000  1.0 -0.0603436974
N  N7  1  0.54500000  0.92660000  0.07340000  1.0 -0.0603436974
N  N8  1  0.54500000  0.07340000  0.92660000  1.0 -0.0603436974
N  N9  1  0.07340000  0.45500000  0.07340000  1.0 -0.0603436974
N  N10  1  0.92660000  0.45500000  0.92660000  1.0 -0.0603436974
N  N11  1  0.07340000  0.54500000  0.92660000  1.0 -0.0603436974
N  N12  1  0.92660000  0.54500000  0.07340000  1.0 -0.0603436974
N  N13  1  0.07340000  0.07340000  0.54500000  1.0 -0.0603436974
N  N14  1  0.92660000  0.92660000  0.54500000  1.0 -0.0603436974
N  N15  1  0.07340000  0.92660000  0.45500000  1.0 -0.0603436974
N  N16  1  0.92660000  0.07340000  0.45500000  1.0 -0.0603436974
N  N17  1  0.07340000  0.45500000  0.92660000  1.0 -0.0603436974
N  N18  1  0.92660000  0.45500000  0.07340000  1.0 -0.0603436974
N  N19  1  0.92660000  0.54500000  0.92660000  1.0 -0.0603436974
N  N20  1  0.07340000  0.54500000  0.07340000  1.0 -0.0603436974
N  N21  1  0.45500000  0.07340000  0.92660000  1.0 -0.0603436974
N  N22  1  0.45500000  0.92660000  0.07340000  1.0 -0.0603436974
N  N23  1  0.54500000  0.07340000  0.07340000  1.0 -0.0603436974
N  N24  1  0.54500000  0.92660000  0.92660000  1.0 -0.0603436974
O  O1  1  0.30350000  0.39620000  0.50000000  1.0 -0.2832406544
O  O2  1  0.69650000  0.60380000  0.50000000  1.0 -0.2832406544
O  O3  1  0.69650000  0.39620000  0.50000000  1.0 -0.2832406544
O  O4  1  0.30350000  0.60380000  0.50000000  1.0 -0.2832406544
O  O5  1  0.50000000  0.30350000  0.39620000  1.0 -0.2832406544
O  O6  1  0.50000000  0.69650000  0.60380000  1.0 -0.2832406544
O  O7  1  0.50000000  0.69650000  0.39620000  1.0 -0.2832406544
O  O8  1  0.50000000  0.30350000  0.60380000  1.0 -0.2832406544
O  O9  1  0.39620000  0.50000000  0.30350000  1.0 -0.2832406544
O  O10  1  0.60380000  0.50000000  0.69650000  1.0 -0.2832406544
O  O11  1  0.39620000  0.50000000  0.69650000  1.0 -0.2832406544
O  O12  1  0.60380000  0.50000000  0.30350000  1.0 -0.2832406544
O  O13  1  0.39620000  0.30350000  0.50000000  1.0 -0.2832406544
O  O14  1  0.60380000  0.69650000  0.50000000  1.0 -0.2832406544
O  O15  1  0.39620000  0.69650000  0.50000000  1.0 -0.2832406544
O  O16  1  0.60380000  0.30350000  0.50000000  1.0 -0.2832406544
O  O17  1  0.30350000  0.50000000  0.60380000  1.0 -0.2832406544
O  O18  1  0.69650000  0.50000000  0.39620000  1.0 -0.2832406544
O  O19  1  0.69650000  0.50000000  0.60380000  1.0 -0.2832406544
O  O20  1  0.30350000  0.50000000  0.39620000  1.0 -0.2832406544
O  O21  1  0.50000000  0.39620000  0.69650000  1.0 -0.2832406544
O  O22  1  0.50000000  0.60380000  0.30350000  1.0 -0.2832406544
O  O23  1  0.50000000  0.39620000  0.30350000  1.0 -0.2832406544
O  O24  1  0.50000000  0.60380000  0.69650000  1.0 -0.2832406544
O  O25  1  0.43350000  0.56650000  0.56650000  1.0 -0.7061498298
O  O26  1  0.56650000  0.43350000  0.56650000  1.0 -0.7061498298
O  O27  1  0.56650000  0.56650000  0.43350000  1.0 -0.7061498298
O  O28  1  0.43350000  0.43350000  0.43350000  1.0 -0.7061498298
O  O29  1  0.56650000  0.43350000  0.43350000  1.0 -0.7061498298
O  O30  1  0.43350000  0.56650000  0.43350000  1.0 -0.7061498298
O  O31  1  0.56650000  0.56650000  0.56650000  1.0 -0.7061498298
O  O32  1  0.43350000  0.43350000  0.56650000  1.0 -0.7061498298
