# DDEC6 charges by PACMAN v1.1 (https://github.com/mtap-research/PACMAN-charge/)
data_GEYPOT_ASR_pacman
_symmetry_space_group_name_H-M   'P 1'
_cell_length_a   18.27160000
_cell_length_b   18.27160000
_cell_length_c   18.27160000
_cell_angle_alpha   90.00000000
_cell_angle_beta   90.00000000
_cell_angle_gamma   90.00000000
_symmetry_Int_Tables_number   1
_chemical_formula_structural   Zr3Cu3H72C102(N3O4)4
_chemical_formula_sum   'Zr6 Cu6 H144 C204 N24 O32'
_cell_volume   6099.99862924
_cell_formula_units_Z   2
loop_
 _symmetry_equiv_pos_site_id
 _symmetry_equiv_pos_as_xyz
  1  'x, y, z'
loop_
 _atom_site_type_symbol
 _atom_site_label
 _atom_site_symmetry_multiplicity
 _atom_site_fract_x
 _atom_site_fract_y
 _atom_site_fract_z
 _atom_site_occupancy
 _atom_site_charge
Zr  Zr1  1  0.50000000  0.50000000  0.36464000  1.0 2.3974816456
Zr  Zr2  1  0.50000000  0.50000000  0.63536000  1.0 2.3974816456
Zr  Zr3  1  0.36464000  0.50000000  0.50000000  1.0 2.3974816456
Zr  Zr4  1  0.63536000  0.50000000  0.50000000  1.0 2.3974816456
Zr  Zr5  1  0.50000000  0.36464000  0.50000000  1.0 2.3974816456
Zr  Zr6  1  0.50000000  0.63536000  0.50000000  1.0 2.3974816456
Cu  Cu1  1  0.00000000  0.44080000  0.00000000  1.0 0.238548781
Cu  Cu2  1  0.00000000  0.55920000  0.00000000  1.0 0.238548781
Cu  Cu3  1  0.00000000  0.00000000  0.44080000  1.0 0.238548781
Cu  Cu4  1  0.00000000  0.00000000  0.55920000  1.0 0.238548781
Cu  Cu5  1  0.44080000  0.00000000  0.00000000  1.0 0.238548781
Cu  Cu6  1  0.55920000  0.00000000  0.00000000  1.0 0.238548781
H  H1  1  0.34230000  0.45780000  0.18830000  1.0 0.1100457415
H  H2  1  0.65770000  0.54220000  0.18830000  1.0 0.1100457415
H  H3  1  0.65770000  0.45780000  0.81170000  1.0 0.1100457415
H  H4  1  0.34230000  0.54220000  0.81170000  1.0 0.1100457415
H  H5  1  0.18830000  0.34230000  0.45780000  1.0 0.1100457415
H  H6  1  0.18830000  0.65770000  0.54220000  1.0 0.1100457415
H  H7  1  0.81170000  0.65770000  0.45780000  1.0 0.1100457415
H  H8  1  0.81170000  0.34230000  0.54220000  1.0 0.1100457415
H  H9  1  0.45780000  0.18830000  0.34230000  1.0 0.1100457415
H  H10  1  0.54220000  0.18830000  0.65770000  1.0 0.1100457415
H  H11  1  0.45780000  0.81170000  0.65770000  1.0 0.1100457415
H  H12  1  0.54220000  0.81170000  0.34230000  1.0 0.1100457415
H  H13  1  0.45780000  0.34230000  0.81170000  1.0 0.1100457415
H  H14  1  0.54220000  0.65770000  0.81170000  1.0 0.1100457415
H  H15  1  0.45780000  0.65770000  0.18830000  1.0 0.1100457415
H  H16  1  0.54220000  0.34230000  0.18830000  1.0 0.1100457415
H  H17  1  0.34230000  0.18830000  0.54220000  1.0 0.1100457415
H  H18  1  0.65770000  0.18830000  0.45780000  1.0 0.1100457415
H  H19  1  0.65770000  0.81170000  0.54220000  1.0 0.1100457415
H  H20  1  0.34230000  0.81170000  0.45780000  1.0 0.1100457415
H  H21  1  0.18830000  0.45780000  0.65770000  1.0 0.1100457415
H  H22  1  0.18830000  0.54220000  0.34230000  1.0 0.1100457415
H  H23  1  0.81170000  0.45780000  0.34230000  1.0 0.1100457415
H  H24  1  0.81170000  0.54220000  0.65770000  1.0 0.1100457415
H  H25  1  0.65770000  0.54220000  0.81170000  1.0 0.1100457415
H  H26  1  0.34230000  0.45780000  0.81170000  1.0 0.1100457415
H  H27  1  0.34230000  0.54220000  0.18830000  1.0 0.1100457415
H  H28  1  0.65770000  0.45780000  0.18830000  1.0 0.1100457415
H  H29  1  0.81170000  0.65770000  0.54220000  1.0 0.1100457415
H  H30  1  0.81170000  0.34230000  0.45780000  1.0 0.1100457415
H  H31  1  0.18830000  0.34230000  0.54220000  1.0 0.1100457415
H  H32  1  0.18830000  0.65770000  0.45780000  1.0 0.1100457415
H  H33  1  0.54220000  0.81170000  0.65770000  1.0 0.1100457415
H  H34  1  0.45780000  0.81170000  0.34230000  1.0 0.1100457415
H  H35  1  0.54220000  0.18830000  0.34230000  1.0 0.1100457415
H  H36  1  0.45780000  0.18830000  0.65770000  1.0 0.1100457415
H  H37  1  0.54220000  0.65770000  0.18830000  1.0 0.1100457415
H  H38  1  0.45780000  0.34230000  0.18830000  1.0 0.1100457415
H  H39  1  0.54220000  0.34230000  0.81170000  1.0 0.1100457415
H  H40  1  0.45780000  0.65770000  0.81170000  1.0 0.1100457415
H  H41  1  0.65770000  0.81170000  0.45780000  1.0 0.1100457415
H  H42  1  0.34230000  0.81170000  0.54220000  1.0 0.1100457415
H  H43  1  0.34230000  0.18830000  0.45780000  1.0 0.1100457415
H  H44  1  0.65770000  0.18830000  0.54220000  1.0 0.1100457415
H  H45  1  0.81170000  0.54220000  0.34230000  1.0 0.1100457415
H  H46  1  0.81170000  0.45780000  0.65770000  1.0 0.1100457415
H  H47  1  0.18830000  0.54220000  0.65770000  1.0 0.1100457415
H  H48  1  0.18830000  0.45780000  0.34230000  1.0 0.1100457415
H  H49  1  0.25640000  0.42390000  0.10330000  1.0 0.1225517496
H  H50  1  0.74360000  0.57610000  0.10330000  1.0 0.1225517496
H  H51  1  0.74360000  0.42390000  0.89670000  1.0 0.1225517496
H  H52  1  0.25640000  0.57610000  0.89670000  1.0 0.1225517496
H  H53  1  0.10330000  0.25640000  0.42390000  1.0 0.1225517496
H  H54  1  0.10330000  0.74360000  0.57610000  1.0 0.1225517496
H  H55  1  0.89670000  0.74360000  0.42390000  1.0 0.1225517496
H  H56  1  0.89670000  0.25640000  0.57610000  1.0 0.1225517496
H  H57  1  0.42390000  0.10330000  0.25640000  1.0 0.1225517496
H  H58  1  0.57610000  0.10330000  0.74360000  1.0 0.1225517496
H  H59  1  0.42390000  0.89670000  0.74360000  1.0 0.1225517496
H  H60  1  0.57610000  0.89670000  0.25640000  1.0 0.1225517496
H  H61  1  0.42390000  0.25640000  0.89670000  1.0 0.1225517496
H  H62  1  0.57610000  0.74360000  0.89670000  1.0 0.1225517496
H  H63  1  0.42390000  0.74360000  0.10330000  1.0 0.1225517496
H  H64  1  0.57610000  0.25640000  0.10330000  1.0 0.1225517496
H  H65  1  0.25640000  0.10330000  0.57610000  1.0 0.1225517496
H  H66  1  0.74360000  0.10330000  0.42390000  1.0 0.1225517496
H  H67  1  0.74360000  0.89670000  0.57610000  1.0 0.1225517496
H  H68  1  0.25640000  0.89670000  0.42390000  1.0 0.1225517496
H  H69  1  0.10330000  0.42390000  0.74360000  1.0 0.1225517496
H  H70  1  0.10330000  0.57610000  0.25640000  1.0 0.1225517496
H  H71  1  0.89670000  0.42390000  0.25640000  1.0 0.1225517496
H  H72  1  0.89670000  0.57610000  0.74360000  1.0 0.1225517496
H  H73  1  0.74360000  0.57610000  0.89670000  1.0 0.1225517496
H  H74  1  0.25640000  0.42390000  0.89670000  1.0 0.1225517496
H  H75  1  0.25640000  0.57610000  0.10330000  1.0 0.1225517496
H  H76  1  0.74360000  0.42390000  0.10330000  1.0 0.1225517496
H  H77  1  0.89670000  0.74360000  0.57610000  1.0 0.1225517496
H  H78  1  0.89670000  0.25640000  0.42390000  1.0 0.1225517496
H  H79  1  0.10330000  0.25640000  0.57610000  1.0 0.1225517496
H  H80  1  0.10330000  0.74360000  0.42390000  1.0 0.1225517496
H  H81  1  0.57610000  0.89670000  0.74360000  1.0 0.1225517496
H  H82  1  0.42390000  0.89670000  0.25640000  1.0 0.1225517496
H  H83  1  0.57610000  0.10330000  0.25640000  1.0 0.1225517496
H  H84  1  0.42390000  0.10330000  0.74360000  1.0 0.1225517496
H  H85  1  0.57610000  0.74360000  0.10330000  1.0 0.1225517496
H  H86  1  0.42390000  0.25640000  0.10330000  1.0 0.1225517496
H  H87  1  0.57610000  0.25640000  0.89670000  1.0 0.1225517496
H  H88  1  0.42390000  0.74360000  0.89670000  1.0 0.1225517496
H  H89  1  0.74360000  0.89670000  0.42390000  1.0 0.1225517496
H  H90  1  0.25640000  0.89670000  0.57610000  1.0 0.1225517496
H  H91  1  0.25640000  0.10330000  0.42390000  1.0 0.1225517496
H  H92  1  0.74360000  0.10330000  0.57610000  1.0 0.1225517496
H  H93  1  0.89670000  0.57610000  0.25640000  1.0 0.1225517496
H  H94  1  0.89670000  0.42390000  0.74360000  1.0 0.1225517496
H  H95  1  0.10330000  0.57610000  0.74360000  1.0 0.1225517496
H  H96  1  0.10330000  0.42390000  0.25640000  1.0 0.1225517496
H  H97  1  0.13750000  0.37580000  0.07720000  1.0 0.1397629087
H  H98  1  0.86250000  0.62420000  0.07720000  1.0 0.1397629087
H  H99  1  0.86250000  0.37580000  0.92280000  1.0 0.1397629087
H  H100  1  0.13750000  0.62420000  0.92280000  1.0 0.1397629087
H  H101  1  0.07720000  0.13750000  0.37580000  1.0 0.1397629087
H  H102  1  0.07720000  0.86250000  0.62420000  1.0 0.1397629087
H  H103  1  0.92280000  0.86250000  0.37580000  1.0 0.1397629087
H  H104  1  0.92280000  0.13750000  0.62420000  1.0 0.1397629087
H  H105  1  0.37580000  0.07720000  0.13750000  1.0 0.1397629087
H  H106  1  0.62420000  0.07720000  0.86250000  1.0 0.1397629087
H  H107  1  0.37580000  0.92280000  0.86250000  1.0 0.1397629087
H  H108  1  0.62420000  0.92280000  0.13750000  1.0 0.1397629087
H  H109  1  0.37580000  0.13750000  0.92280000  1.0 0.1397629087
H  H110  1  0.62420000  0.86250000  0.92280000  1.0 0.1397629087
H  H111  1  0.37580000  0.86250000  0.07720000  1.0 0.1397629087
H  H112  1  0.62420000  0.13750000  0.07720000  1.0 0.1397629087
H  H113  1  0.13750000  0.07720000  0.62420000  1.0 0.1397629087
H  H114  1  0.86250000  0.07720000  0.37580000  1.0 0.1397629087
H  H115  1  0.86250000  0.92280000  0.62420000  1.0 0.1397629087
H  H116  1  0.13750000  0.92280000  0.37580000  1.0 0.1397629087
H  H117  1  0.07720000  0.37580000  0.86250000  1.0 0.1397629087
H  H118  1  0.07720000  0.62420000  0.13750000  1.0 0.1397629087
H  H119  1  0.92280000  0.37580000  0.13750000  1.0 0.1397629087
H  H120  1  0.92280000  0.62420000  0.86250000  1.0 0.1397629087
H  H121  1  0.86250000  0.62420000  0.92280000  1.0 0.1397629087
H  H122  1  0.13750000  0.37580000  0.92280000  1.0 0.1397629087
H  H123  1  0.13750000  0.62420000  0.07720000  1.0 0.1397629087
H  H124  1  0.86250000  0.37580000  0.07720000  1.0 0.1397629087
H  H125  1  0.92280000  0.86250000  0.62420000  1.0 0.1397629087
H  H126  1  0.92280000  0.13750000  0.37580000  1.0 0.1397629087
H  H127  1  0.07720000  0.13750000  0.62420000  1.0 0.1397629087
H  H128  1  0.07720000  0.86250000  0.37580000  1.0 0.1397629087
H  H129  1  0.62420000  0.92280000  0.86250000  1.0 0.1397629087
H  H130  1  0.37580000  0.92280000  0.13750000  1.0 0.1397629087
H  H131  1  0.62420000  0.07720000  0.13750000  1.0 0.1397629087
H  H132  1  0.37580000  0.07720000  0.86250000  1.0 0.1397629087
H  H133  1  0.62420000  0.86250000  0.07720000  1.0 0.1397629087
H  H134  1  0.37580000  0.13750000  0.07720000  1.0 0.1397629087
H  H135  1  0.62420000  0.13750000  0.92280000  1.0 0.1397629087
H  H136  1  0.37580000  0.86250000  0.92280000  1.0 0.1397629087
H  H137  1  0.86250000  0.92280000  0.37580000  1.0 0.1397629087
H  H138  1  0.13750000  0.92280000  0.62420000  1.0 0.1397629087
H  H139  1  0.13750000  0.07720000  0.37580000  1.0 0.1397629087
H  H140  1  0.86250000  0.07720000  0.62420000  1.0 0.1397629087
H  H141  1  0.92280000  0.62420000  0.13750000  1.0 0.1397629087
H  H142  1  0.92280000  0.37580000  0.86250000  1.0 0.1397629087
H  H143  1  0.07720000  0.62420000  0.86250000  1.0 0.1397629087
H  H144  1  0.07720000  0.37580000  0.13750000  1.0 0.1397629087
C  C1  1  0.32710000  0.50000000  0.32710000  1.0 0.5392877117
C  C2  1  0.67290000  0.50000000  0.32710000  1.0 0.5392877117
C  C3  1  0.67290000  0.50000000  0.67290000  1.0 0.5392877117
C  C4  1  0.32710000  0.50000000  0.67290000  1.0 0.5392877117
C  C5  1  0.32710000  0.32710000  0.50000000  1.0 0.5392877117
C  C6  1  0.32710000  0.67290000  0.50000000  1.0 0.5392877117
C  C7  1  0.67290000  0.67290000  0.50000000  1.0 0.5392877117
C  C8  1  0.67290000  0.32710000  0.50000000  1.0 0.5392877117
C  C9  1  0.50000000  0.32710000  0.32710000  1.0 0.5392877117
C  C10  1  0.50000000  0.32710000  0.67290000  1.0 0.5392877117
C  C11  1  0.50000000  0.67290000  0.67290000  1.0 0.5392877117
C  C12  1  0.50000000  0.67290000  0.32710000  1.0 0.5392877117
C  C13  1  0.27490000  0.46610000  0.27490000  1.0 -0.0222101401
C  C14  1  0.72510000  0.53390000  0.27490000  1.0 -0.0222101401
C  C15  1  0.72510000  0.46610000  0.72510000  1.0 -0.0222101401
C  C16  1  0.27490000  0.53390000  0.72510000  1.0 -0.0222101401
C  C17  1  0.27490000  0.27490000  0.46610000  1.0 -0.0222101401
C  C18  1  0.27490000  0.72510000  0.53390000  1.0 -0.0222101401
C  C19  1  0.72510000  0.72510000  0.46610000  1.0 -0.0222101401
C  C20  1  0.72510000  0.27490000  0.53390000  1.0 -0.0222101401
C  C21  1  0.46610000  0.27490000  0.27490000  1.0 -0.0222101401
C  C22  1  0.53390000  0.27490000  0.72510000  1.0 -0.0222101401
C  C23  1  0.46610000  0.72510000  0.72510000  1.0 -0.0222101401
C  C24  1  0.53390000  0.72510000  0.27490000  1.0 -0.0222101401
C  C25  1  0.46610000  0.27490000  0.72510000  1.0 -0.0222101401
C  C26  1  0.53390000  0.72510000  0.72510000  1.0 -0.0222101401
C  C27  1  0.46610000  0.72510000  0.27490000  1.0 -0.0222101401
C  C28  1  0.53390000  0.27490000  0.27490000  1.0 -0.0222101401
C  C29  1  0.27490000  0.27490000  0.53390000  1.0 -0.0222101401
C  C30  1  0.72510000  0.27490000  0.46610000  1.0 -0.0222101401
C  C31  1  0.72510000  0.72510000  0.53390000  1.0 -0.0222101401
C  C32  1  0.27490000  0.72510000  0.46610000  1.0 -0.0222101401
C  C33  1  0.27490000  0.46610000  0.72510000  1.0 -0.0222101401
C  C34  1  0.27490000  0.53390000  0.27490000  1.0 -0.0222101401
C  C35  1  0.72510000  0.46610000  0.27490000  1.0 -0.0222101401
C  C36  1  0.72510000  0.53390000  0.72510000  1.0 -0.0222101401
C  C37  1  0.16740000  0.43340000  0.16740000  1.0 0.0953360267
C  C38  1  0.83260000  0.56660000  0.16740000  1.0 0.0953360267
C  C39  1  0.83260000  0.43340000  0.83260000  1.0 0.0953360267
C  C40  1  0.16740000  0.56660000  0.83260000  1.0 0.0953360267
C  C41  1  0.16740000  0.16740000  0.43340000  1.0 0.0953360267
C  C42  1  0.16740000  0.83260000  0.56660000  1.0 0.0953360267
C  C43  1  0.83260000  0.83260000  0.43340000  1.0 0.0953360267
C  C44  1  0.83260000  0.16740000  0.56660000  1.0 0.0953360267
C  C45  1  0.43340000  0.16740000  0.16740000  1.0 0.0953360267
C  C46  1  0.56660000  0.16740000  0.83260000  1.0 0.0953360267
C  C47  1  0.43340000  0.83260000  0.83260000  1.0 0.0953360267
C  C48  1  0.56660000  0.83260000  0.16740000  1.0 0.0953360267
C  C49  1  0.43340000  0.16740000  0.83260000  1.0 0.0953360267
C  C50  1  0.56660000  0.83260000  0.83260000  1.0 0.0953360267
C  C51  1  0.43340000  0.83260000  0.16740000  1.0 0.0953360267
C  C52  1  0.56660000  0.16740000  0.16740000  1.0 0.0953360267
C  C53  1  0.16740000  0.16740000  0.56660000  1.0 0.0953360267
C  C54  1  0.83260000  0.16740000  0.43340000  1.0 0.0953360267
C  C55  1  0.83260000  0.83260000  0.56660000  1.0 0.0953360267
C  C56  1  0.16740000  0.83260000  0.43340000  1.0 0.0953360267
C  C57  1  0.16740000  0.43340000  0.83260000  1.0 0.0953360267
C  C58  1  0.16740000  0.56660000  0.16740000  1.0 0.0953360267
C  C59  1  0.83260000  0.43340000  0.16740000  1.0 0.0953360267
C  C60  1  0.83260000  0.56660000  0.83260000  1.0 0.0953360267
C  C61  1  0.29360000  0.45370000  0.20250000  1.0 -0.0222101401
C  C62  1  0.70640000  0.54630000  0.20250000  1.0 -0.0222101401
C  C63  1  0.70640000  0.45370000  0.79750000  1.0 -0.0222101401
C  C64  1  0.29360000  0.54630000  0.79750000  1.0 -0.0222101401
C  C65  1  0.20250000  0.29360000  0.45370000  1.0 -0.0222101401
C  C66  1  0.20250000  0.70640000  0.54630000  1.0 -0.0222101401
C  C67  1  0.79750000  0.70640000  0.45370000  1.0 -0.0222101401
C  C68  1  0.79750000  0.29360000  0.54630000  1.0 -0.0222101401
C  C69  1  0.45370000  0.20250000  0.29360000  1.0 -0.0222101401
C  C70  1  0.54630000  0.20250000  0.70640000  1.0 -0.0222101401
C  C71  1  0.45370000  0.79750000  0.70640000  1.0 -0.0222101401
C  C72  1  0.54630000  0.79750000  0.29360000  1.0 -0.0222101401
C  C73  1  0.45370000  0.29360000  0.79750000  1.0 -0.0222101401
C  C74  1  0.54630000  0.70640000  0.79750000  1.0 -0.0222101401
C  C75  1  0.45370000  0.70640000  0.20250000  1.0 -0.0222101401
C  C76  1  0.54630000  0.29360000  0.20250000  1.0 -0.0222101401
C  C77  1  0.29360000  0.20250000  0.54630000  1.0 -0.0222101401
C  C78  1  0.70640000  0.20250000  0.45370000  1.0 -0.0222101401
C  C79  1  0.70640000  0.79750000  0.54630000  1.0 -0.0222101401
C  C80  1  0.29360000  0.79750000  0.45370000  1.0 -0.0222101401
C  C81  1  0.20250000  0.45370000  0.70640000  1.0 -0.0222101401
C  C82  1  0.20250000  0.54630000  0.29360000  1.0 -0.0222101401
C  C83  1  0.79750000  0.45370000  0.29360000  1.0 -0.0222101401
C  C84  1  0.79750000  0.54630000  0.70640000  1.0 -0.0222101401
C  C85  1  0.70640000  0.54630000  0.79750000  1.0 -0.0222101401
C  C86  1  0.29360000  0.45370000  0.79750000  1.0 -0.0222101401
C  C87  1  0.29360000  0.54630000  0.20250000  1.0 -0.0222101401
C  C88  1  0.70640000  0.45370000  0.20250000  1.0 -0.0222101401
C  C89  1  0.79750000  0.70640000  0.54630000  1.0 -0.0222101401
C  C90  1  0.79750000  0.29360000  0.45370000  1.0 -0.0222101401
C  C91  1  0.20250000  0.29360000  0.54630000  1.0 -0.0222101401
C  C92  1  0.20250000  0.70640000  0.45370000  1.0 -0.0222101401
C  C93  1  0.54630000  0.79750000  0.70640000  1.0 -0.0222101401
C  C94  1  0.45370000  0.79750000  0.29360000  1.0 -0.0222101401
C  C95  1  0.54630000  0.20250000  0.29360000  1.0 -0.0222101401
C  C96  1  0.45370000  0.20250000  0.70640000  1.0 -0.0222101401
C  C97  1  0.54630000  0.70640000  0.20250000  1.0 -0.0222101401
C  C98  1  0.45370000  0.29360000  0.20250000  1.0 -0.0222101401
C  C99  1  0.54630000  0.29360000  0.79750000  1.0 -0.0222101401
C  C100  1  0.45370000  0.70640000  0.79750000  1.0 -0.0222101401
C  C101  1  0.70640000  0.79750000  0.45370000  1.0 -0.0222101401
C  C102  1  0.29360000  0.79750000  0.54630000  1.0 -0.0222101401
C  C103  1  0.29360000  0.20250000  0.45370000  1.0 -0.0222101401
C  C104  1  0.70640000  0.20250000  0.54630000  1.0 -0.0222101401
C  C105  1  0.79750000  0.54630000  0.29360000  1.0 -0.0222101401
C  C106  1  0.79750000  0.45370000  0.70640000  1.0 -0.0222101401
C  C107  1  0.20250000  0.54630000  0.70640000  1.0 -0.0222101401
C  C108  1  0.20250000  0.45370000  0.29360000  1.0 -0.0222101401
C  C109  1  0.24140000  0.43530000  0.15060000  1.0 -0.2115901533
C  C110  1  0.75860000  0.56470000  0.15060000  1.0 -0.2115901533
C  C111  1  0.75860000  0.43530000  0.84940000  1.0 -0.2115901533
C  C112  1  0.24140000  0.56470000  0.84940000  1.0 -0.2115901533
C  C113  1  0.15060000  0.24140000  0.43530000  1.0 -0.2115901533
C  C114  1  0.15060000  0.75860000  0.56470000  1.0 -0.2115901533
C  C115  1  0.84940000  0.75860000  0.43530000  1.0 -0.2115901533
C  C116  1  0.84940000  0.24140000  0.56470000  1.0 -0.2115901533
C  C117  1  0.43530000  0.15060000  0.24140000  1.0 -0.2115901533
C  C118  1  0.56470000  0.15060000  0.75860000  1.0 -0.2115901533
C  C119  1  0.43530000  0.84940000  0.75860000  1.0 -0.2115901533
C  C120  1  0.56470000  0.84940000  0.24140000  1.0 -0.2115901533
C  C121  1  0.43530000  0.24140000  0.84940000  1.0 -0.2115901533
C  C122  1  0.56470000  0.75860000  0.84940000  1.0 -0.2115901533
C  C123  1  0.43530000  0.75860000  0.15060000  1.0 -0.2115901533
C  C124  1  0.56470000  0.24140000  0.15060000  1.0 -0.2115901533
C  C125  1  0.24140000  0.15060000  0.56470000  1.0 -0.2115901533
C  C126  1  0.75860000  0.15060000  0.43530000  1.0 -0.2115901533
C  C127  1  0.75860000  0.84940000  0.56470000  1.0 -0.2115901533
C  C128  1  0.24140000  0.84940000  0.43530000  1.0 -0.2115901533
C  C129  1  0.15060000  0.43530000  0.75860000  1.0 -0.2115901533
C  C130  1  0.15060000  0.56470000  0.24140000  1.0 -0.2115901533
C  C131  1  0.84940000  0.43530000  0.24140000  1.0 -0.2115901533
C  C132  1  0.84940000  0.56470000  0.75860000  1.0 -0.2115901533
C  C133  1  0.75860000  0.56470000  0.84940000  1.0 -0.2115901533
C  C134  1  0.24140000  0.43530000  0.84940000  1.0 -0.2115901533
C  C135  1  0.24140000  0.56470000  0.15060000  1.0 -0.2115901533
C  C136  1  0.75860000  0.43530000  0.15060000  1.0 -0.2115901533
C  C137  1  0.84940000  0.75860000  0.56470000  1.0 -0.2115901533
C  C138  1  0.84940000  0.24140000  0.43530000  1.0 -0.2115901533
C  C139  1  0.15060000  0.24140000  0.56470000  1.0 -0.2115901533
C  C140  1  0.15060000  0.75860000  0.43530000  1.0 -0.2115901533
C  C141  1  0.56470000  0.84940000  0.75860000  1.0 -0.2115901533
C  C142  1  0.43530000  0.84940000  0.24140000  1.0 -0.2115901533
C  C143  1  0.56470000  0.15060000  0.24140000  1.0 -0.2115901533
C  C144  1  0.43530000  0.15060000  0.75860000  1.0 -0.2115901533
C  C145  1  0.56470000  0.75860000  0.15060000  1.0 -0.2115901533
C  C146  1  0.43530000  0.24140000  0.15060000  1.0 -0.2115901533
C  C147  1  0.56470000  0.24140000  0.84940000  1.0 -0.2115901533
C  C148  1  0.43530000  0.75860000  0.84940000  1.0 -0.2115901533
C  C149  1  0.75860000  0.84940000  0.43530000  1.0 -0.2115901533
C  C150  1  0.24140000  0.84940000  0.56470000  1.0 -0.2115901533
C  C151  1  0.24140000  0.15060000  0.43530000  1.0 -0.2115901533
C  C152  1  0.75860000  0.15060000  0.56470000  1.0 -0.2115901533
C  C153  1  0.84940000  0.56470000  0.24140000  1.0 -0.2115901533
C  C154  1  0.84940000  0.43530000  0.75860000  1.0 -0.2115901533
C  C155  1  0.15060000  0.56470000  0.75860000  1.0 -0.2115901533
C  C156  1  0.15060000  0.43530000  0.24140000  1.0 -0.2115901533
C  C157  1  0.11180000  0.40700000  0.11180000  1.0 -0.2640662238
C  C158  1  0.88820000  0.59300000  0.11180000  1.0 -0.2640662238
C  C159  1  0.88820000  0.40700000  0.88820000  1.0 -0.2640662238
C  C160  1  0.11180000  0.59300000  0.88820000  1.0 -0.2640662238
C  C161  1  0.11180000  0.11180000  0.40700000  1.0 -0.2640662238
C  C162  1  0.11180000  0.88820000  0.59300000  1.0 -0.2640662238
C  C163  1  0.88820000  0.88820000  0.40700000  1.0 -0.2640662238
C  C164  1  0.88820000  0.11180000  0.59300000  1.0 -0.2640662238
C  C165  1  0.40700000  0.11180000  0.11180000  1.0 -0.2640662238
C  C166  1  0.59300000  0.11180000  0.88820000  1.0 -0.2640662238
C  C167  1  0.40700000  0.88820000  0.88820000  1.0 -0.2640662238
C  C168  1  0.59300000  0.88820000  0.11180000  1.0 -0.2640662238
C  C169  1  0.40700000  0.11180000  0.88820000  1.0 -0.2640662238
C  C170  1  0.59300000  0.88820000  0.88820000  1.0 -0.2640662238
C  C171  1  0.40700000  0.88820000  0.11180000  1.0 -0.2640662238
C  C172  1  0.59300000  0.11180000  0.11180000  1.0 -0.2640662238
C  C173  1  0.11180000  0.11180000  0.59300000  1.0 -0.2640662238
C  C174  1  0.88820000  0.11180000  0.40700000  1.0 -0.2640662238
C  C175  1  0.88820000  0.88820000  0.59300000  1.0 -0.2640662238
C  C176  1  0.11180000  0.88820000  0.40700000  1.0 -0.2640662238
C  C177  1  0.11180000  0.40700000  0.88820000  1.0 -0.2640662238
C  C178  1  0.11180000  0.59300000  0.11180000  1.0 -0.2640662238
C  C179  1  0.88820000  0.40700000  0.11180000  1.0 -0.2640662238
C  C180  1  0.88820000  0.59300000  0.88820000  1.0 -0.2640662238
C  C181  1  0.12340000  0.50000000  0.04230000  1.0 -0.1072115204
C  C182  1  0.87660000  0.50000000  0.04230000  1.0 -0.1072115204
C  C183  1  0.87660000  0.50000000  0.95770000  1.0 -0.1072115204
C  C184  1  0.12340000  0.50000000  0.95770000  1.0 -0.1072115204
C  C185  1  0.04230000  0.12340000  0.50000000  1.0 -0.1072115204
C  C186  1  0.04230000  0.87660000  0.50000000  1.0 -0.1072115204
C  C187  1  0.95770000  0.87660000  0.50000000  1.0 -0.1072115204
C  C188  1  0.95770000  0.12340000  0.50000000  1.0 -0.1072115204
C  C189  1  0.50000000  0.04230000  0.12340000  1.0 -0.1072115204
C  C190  1  0.50000000  0.04230000  0.87660000  1.0 -0.1072115204
C  C191  1  0.50000000  0.95770000  0.87660000  1.0 -0.1072115204
C  C192  1  0.50000000  0.95770000  0.12340000  1.0 -0.1072115204
C  C193  1  0.50000000  0.12340000  0.95770000  1.0 -0.1072115204
C  C194  1  0.50000000  0.87660000  0.95770000  1.0 -0.1072115204
C  C195  1  0.50000000  0.87660000  0.04230000  1.0 -0.1072115204
C  C196  1  0.50000000  0.12340000  0.04230000  1.0 -0.1072115204
C  C197  1  0.12340000  0.04230000  0.50000000  1.0 -0.1072115204
C  C198  1  0.87660000  0.04230000  0.50000000  1.0 -0.1072115204
C  C199  1  0.87660000  0.95770000  0.50000000  1.0 -0.1072115204
C  C200  1  0.12340000  0.95770000  0.50000000  1.0 -0.1072115204
C  C201  1  0.04230000  0.50000000  0.87660000  1.0 -0.1072115204
C  C202  1  0.04230000  0.50000000  0.12340000  1.0 -0.1072115204
C  C203  1  0.95770000  0.50000000  0.12340000  1.0 -0.1072115204
C  C204  1  0.95770000  0.50000000  0.87660000  1.0 -0.1072115204
N  N1  1  0.06940000  0.45900000  0.06940000  1.0 0.0627040636
N  N2  1  0.93060000  0.54100000  0.06940000  1.0 0.0627040636
N  N3  1  0.93060000  0.45900000  0.93060000  1.0 0.0627040636
N  N4  1  0.06940000  0.54100000  0.93060000  1.0 0.0627040636
N  N5  1  0.06940000  0.06940000  0.45900000  1.0 0.0627040636
N  N6  1  0.06940000  0.93060000  0.54100000  1.0 0.0627040636
N  N7  1  0.93060000  0.93060000  0.45900000  1.0 0.0627040636
N  N8  1  0.93060000  0.06940000  0.54100000  1.0 0.0627040636
N  N9  1  0.45900000  0.06940000  0.06940000  1.0 0.0627040636
N  N10  1  0.54100000  0.06940000  0.93060000  1.0 0.0627040636
N  N11  1  0.45900000  0.93060000  0.93060000  1.0 0.0627040636
N  N12  1  0.54100000  0.93060000  0.06940000  1.0 0.0627040636
N  N13  1  0.45900000  0.06940000  0.93060000  1.0 0.0627040636
N  N14  1  0.54100000  0.93060000  0.93060000  1.0 0.0627040636
N  N15  1  0.45900000  0.93060000  0.06940000  1.0 0.0627040636
N  N16  1  0.54100000  0.06940000  0.06940000  1.0 0.0627040636
N  N17  1  0.06940000  0.06940000  0.54100000  1.0 0.0627040636
N  N18  1  0.93060000  0.06940000  0.45900000  1.0 0.0627040636
N  N19  1  0.93060000  0.93060000  0.54100000  1.0 0.0627040636
N  N20  1  0.06940000  0.93060000  0.45900000  1.0 0.0627040636
N  N21  1  0.06940000  0.45900000  0.93060000  1.0 0.0627040636
N  N22  1  0.06940000  0.54100000  0.06940000  1.0 0.0627040636
N  N23  1  0.93060000  0.45900000  0.06940000  1.0 0.0627040636
N  N24  1  0.93060000  0.54100000  0.93060000  1.0 0.0627040636
O  O1  1  0.56600000  0.56600000  0.43400000  1.0 -1.0737754449
O  O2  1  0.43400000  0.43400000  0.43400000  1.0 -1.0737754449
O  O3  1  0.43400000  0.56600000  0.56600000  1.0 -1.0737754449
O  O4  1  0.56600000  0.43400000  0.56600000  1.0 -1.0737754449
O  O5  1  0.56600000  0.56600000  0.56600000  1.0 -1.0737754449
O  O6  1  0.43400000  0.43400000  0.56600000  1.0 -1.0737754449
O  O7  1  0.56600000  0.43400000  0.43400000  1.0 -1.0737754449
O  O8  1  0.43400000  0.56600000  0.43400000  1.0 -1.0737754449
O  O9  1  0.39450000  0.50000000  0.30400000  1.0 -0.6123987332
O  O10  1  0.60550000  0.50000000  0.30400000  1.0 -0.6123987332
O  O11  1  0.60550000  0.50000000  0.69600000  1.0 -0.6123987332
O  O12  1  0.39450000  0.50000000  0.69600000  1.0 -0.6123987332
O  O13  1  0.30400000  0.39450000  0.50000000  1.0 -0.6123987332
O  O14  1  0.30400000  0.60550000  0.50000000  1.0 -0.6123987332
O  O15  1  0.69600000  0.60550000  0.50000000  1.0 -0.6123987332
O  O16  1  0.69600000  0.39450000  0.50000000  1.0 -0.6123987332
O  O17  1  0.50000000  0.30400000  0.39450000  1.0 -0.6123987332
O  O18  1  0.50000000  0.30400000  0.60550000  1.0 -0.6123987332
O  O19  1  0.50000000  0.69600000  0.60550000  1.0 -0.6123987332
O  O20  1  0.50000000  0.69600000  0.39450000  1.0 -0.6123987332
O  O21  1  0.50000000  0.39450000  0.69600000  1.0 -0.6123987332
O  O22  1  0.50000000  0.60550000  0.69600000  1.0 -0.6123987332
O  O23  1  0.50000000  0.60550000  0.30400000  1.0 -0.6123987332
O  O24  1  0.50000000  0.39450000  0.30400000  1.0 -0.6123987332
O  O25  1  0.39450000  0.30400000  0.50000000  1.0 -0.6123987332
O  O26  1  0.60550000  0.30400000  0.50000000  1.0 -0.6123987332
O  O27  1  0.60550000  0.69600000  0.50000000  1.0 -0.6123987332
O  O28  1  0.39450000  0.69600000  0.50000000  1.0 -0.6123987332
O  O29  1  0.30400000  0.50000000  0.60550000  1.0 -0.6123987332
O  O30  1  0.30400000  0.50000000  0.39450000  1.0 -0.6123987332
O  O31  1  0.69600000  0.50000000  0.39450000  1.0 -0.6123987332
O  O32  1  0.69600000  0.50000000  0.60550000  1.0 -0.6123987332
