# DDEC6 charges by PACMAN v1.1 (https://github.com/mtap-research/PACMAN-charge/)
data_GEZFIC_ion_pacman
_symmetry_space_group_name_H-M   'P 1'
_cell_length_a   19.70700000
_cell_length_b   19.70700000
_cell_length_c   15.51000000
_cell_angle_alpha   90.00000000
_cell_angle_beta   90.00000000
_cell_angle_gamma   90.00000000
_symmetry_Int_Tables_number   1
_chemical_formula_structural   ZnH18C21N8O7
_chemical_formula_sum   'Zn8 H144 C168 N64 O56'
_cell_volume   6023.55431799
_cell_formula_units_Z   8
loop_
 _symmetry_equiv_pos_site_id
 _symmetry_equiv_pos_as_xyz
  1  'x, y, z'
loop_
 _atom_site_type_symbol
 _atom_site_label
 _atom_site_symmetry_multiplicity
 _atom_site_fract_x
 _atom_site_fract_y
 _atom_site_fract_z
 _atom_site_occupancy
 _atom_site_charge
Zn  Zn1  1  0.50000000  0.50000000  0.00000000  1.0 0.628090635
Zn  Zn2  1  0.00000000  0.00000000  0.00000000  1.0 0.628090635
Zn  Zn3  1  0.00000000  0.00000000  0.50000000  1.0 0.628090635
Zn  Zn4  1  0.50000000  0.50000000  0.50000000  1.0 0.628090635
Zn  Zn5  1  0.00000000  0.50000000  0.68437000  1.0 0.6472932002
Zn  Zn6  1  0.50000000  0.00000000  0.81563000  1.0 0.6449683011
Zn  Zn7  1  0.50000000  0.00000000  0.31563000  1.0 0.6472932002
Zn  Zn8  1  0.00000000  0.50000000  0.18437000  1.0 0.6472932002
H  H1  1  0.33550000  0.51270000  0.75760000  1.0 0.1587894373
H  H2  1  0.66450000  0.48730000  0.75760000  1.0 0.1587894373
H  H3  1  0.01270000  0.16450000  0.75760000  1.0 0.1587894373
H  H4  1  0.98730000  0.83550000  0.75760000  1.0 0.1587894373
H  H5  1  0.83550000  0.98730000  0.74240000  1.0 0.1587894373
H  H6  1  0.16450000  0.01270000  0.74240000  1.0 0.1587894373
H  H7  1  0.51270000  0.33550000  0.74240000  1.0 0.1587894373
H  H8  1  0.48730000  0.66450000  0.74240000  1.0 0.1587894373
H  H9  1  0.16450000  0.98730000  0.24240000  1.0 0.1587894373
H  H10  1  0.83550000  0.01270000  0.24240000  1.0 0.1587894373
H  H11  1  0.48730000  0.33550000  0.24240000  1.0 0.1587894373
H  H12  1  0.51270000  0.66450000  0.24240000  1.0 0.1587894373
H  H13  1  0.66450000  0.51270000  0.25760000  1.0 0.1587894373
H  H14  1  0.33550000  0.48730000  0.25760000  1.0 0.1587894373
H  H15  1  0.98730000  0.16450000  0.25760000  1.0 0.1587894373
H  H16  1  0.01270000  0.83550000  0.25760000  1.0 0.1587894373
H  H17  1  0.41770000  0.46450000  0.84490000  1.0 0.1279655665
H  H18  1  0.58230000  0.53550000  0.84490000  1.0 0.1279655665
H  H19  1  0.96450000  0.08230000  0.84490000  1.0 0.1279655665
H  H20  1  0.03550000  0.91770000  0.84490000  1.0 0.1279655665
H  H21  1  0.91770000  0.03550000  0.65510000  1.0 0.1279655665
H  H22  1  0.08230000  0.96450000  0.65510000  1.0 0.1279655665
H  H23  1  0.46450000  0.41770000  0.65510000  1.0 0.1279655665
H  H24  1  0.53550000  0.58230000  0.65510000  1.0 0.1279655665
H  H25  1  0.08230000  0.03550000  0.15510000  1.0 0.1279655665
H  H26  1  0.91770000  0.96450000  0.15510000  1.0 0.1279655665
H  H27  1  0.53550000  0.41770000  0.15510000  1.0 0.1279655665
H  H28  1  0.46450000  0.58230000  0.15510000  1.0 0.1279655665
H  H29  1  0.58230000  0.46450000  0.34490000  1.0 0.1279655665
H  H30  1  0.41770000  0.53550000  0.34490000  1.0 0.1279655665
H  H31  1  0.03550000  0.08230000  0.34490000  1.0 0.1279655665
H  H32  1  0.96450000  0.91770000  0.34490000  1.0 0.1279655665
H  H33  1  0.42520000  0.62920000  0.99020000  1.0 0.1130812736
H  H34  1  0.57480000  0.37080000  0.99020000  1.0 0.1130812736
H  H35  1  0.12920000  0.07480000  0.99020000  1.0 0.1130812736
H  H36  1  0.87080000  0.92520000  0.99020000  1.0 0.1130812736
H  H37  1  0.92520000  0.87080000  0.50980000  1.0 0.1130812736
H  H38  1  0.07480000  0.12920000  0.50980000  1.0 0.1130812736
H  H39  1  0.62920000  0.42520000  0.50980000  1.0 0.1130812736
H  H40  1  0.37080000  0.57480000  0.50980000  1.0 0.1130812736
H  H41  1  0.07480000  0.87080000  0.00980000  1.0 0.1130812736
H  H42  1  0.92520000  0.12920000  0.00980000  1.0 0.1130812736
H  H43  1  0.37080000  0.42520000  0.00980000  1.0 0.1130812736
H  H44  1  0.62920000  0.57480000  0.00980000  1.0 0.1130812736
H  H45  1  0.57480000  0.62920000  0.49020000  1.0 0.1130812736
H  H46  1  0.42520000  0.37080000  0.49020000  1.0 0.1130812736
H  H47  1  0.87080000  0.07480000  0.49020000  1.0 0.1130812736
H  H48  1  0.12920000  0.92520000  0.49020000  1.0 0.1130812736
H  H49  1  0.34210000  0.68140000  0.90840000  1.0 0.151139604
H  H50  1  0.65790000  0.31860000  0.90840000  1.0 0.151139604
H  H51  1  0.18140000  0.15790000  0.90840000  1.0 0.151139604
H  H52  1  0.81860000  0.84210000  0.90840000  1.0 0.151139604
H  H53  1  0.84210000  0.81860000  0.59160000  1.0 0.151139604
H  H54  1  0.15790000  0.18140000  0.59160000  1.0 0.151139604
H  H55  1  0.68140000  0.34210000  0.59160000  1.0 0.151139604
H  H56  1  0.31860000  0.65790000  0.59160000  1.0 0.151139604
H  H57  1  0.15790000  0.81860000  0.09160000  1.0 0.151139604
H  H58  1  0.84210000  0.18140000  0.09160000  1.0 0.151139604
H  H59  1  0.31860000  0.34210000  0.09160000  1.0 0.151139604
H  H60  1  0.68140000  0.65790000  0.09160000  1.0 0.151139604
H  H61  1  0.65790000  0.68140000  0.40840000  1.0 0.151139604
H  H62  1  0.34210000  0.31860000  0.40840000  1.0 0.151139604
H  H63  1  0.81860000  0.15790000  0.40840000  1.0 0.151139604
H  H64  1  0.18140000  0.84210000  0.40840000  1.0 0.151139604
H  H65  1  0.19660000  0.66390000  0.64150000  1.0 0.151139604
H  H66  1  0.80340000  0.33610000  0.64150000  1.0 0.151139604
H  H67  1  0.16390000  0.30340000  0.64150000  1.0 0.151139604
H  H68  1  0.83610000  0.69660000  0.64150000  1.0 0.151139604
H  H69  1  0.69660000  0.83610000  0.85850000  1.0 0.151139604
H  H70  1  0.30340000  0.16390000  0.85850000  1.0 0.151139604
H  H71  1  0.66390000  0.19660000  0.85850000  1.0 0.151139604
H  H72  1  0.33610000  0.80340000  0.85850000  1.0 0.151139604
H  H73  1  0.30340000  0.83610000  0.35850000  1.0 0.151139604
H  H74  1  0.69660000  0.16390000  0.35850000  1.0 0.151139604
H  H75  1  0.33610000  0.19660000  0.35850000  1.0 0.151139604
H  H76  1  0.66390000  0.80340000  0.35850000  1.0 0.151139604
H  H77  1  0.80340000  0.66390000  0.14150000  1.0 0.151139604
H  H78  1  0.19660000  0.33610000  0.14150000  1.0 0.151139604
H  H79  1  0.83610000  0.30340000  0.14150000  1.0 0.151139604
H  H80  1  0.16390000  0.69660000  0.14150000  1.0 0.151139604
H  H81  1  0.09730000  0.60760000  0.60720000  1.0 0.1279655665
H  H82  1  0.90270000  0.39240000  0.60720000  1.0 0.1279655665
H  H83  1  0.10760000  0.40270000  0.60720000  1.0 0.1279655665
H  H84  1  0.89240000  0.59730000  0.60720000  1.0 0.1279655665
H  H85  1  0.59730000  0.89240000  0.89280000  1.0 0.1279655665
H  H86  1  0.40270000  0.10760000  0.89280000  1.0 0.1279655665
H  H87  1  0.60760000  0.09730000  0.89280000  1.0 0.1279655665
H  H88  1  0.39240000  0.90270000  0.89280000  1.0 0.1279655665
H  H89  1  0.40270000  0.89240000  0.39280000  1.0 0.1279655665
H  H90  1  0.59730000  0.10760000  0.39280000  1.0 0.1279655665
H  H91  1  0.39240000  0.09730000  0.39280000  1.0 0.1279655665
H  H92  1  0.60760000  0.90270000  0.39280000  1.0 0.1279655665
H  H93  1  0.90270000  0.60760000  0.10720000  1.0 0.1279655665
H  H94  1  0.09730000  0.39240000  0.10720000  1.0 0.1279655665
H  H95  1  0.89240000  0.40270000  0.10720000  1.0 0.1279655665
H  H96  1  0.10760000  0.59730000  0.10720000  1.0 0.1279655665
H  H97  1  0.12950000  0.47080000  0.78620000  1.0 0.1177305512
H  H98  1  0.87050000  0.52920000  0.78620000  1.0 0.1177305512
H  H99  1  0.97080000  0.37050000  0.78620000  1.0 0.1177305512
H  H100  1  0.02920000  0.62950000  0.78620000  1.0 0.1177305512
H  H101  1  0.62950000  0.02920000  0.71380000  1.0 0.1177305512
H  H102  1  0.37050000  0.97080000  0.71380000  1.0 0.1177305512
H  H103  1  0.47080000  0.12950000  0.71380000  1.0 0.1177305512
H  H104  1  0.52920000  0.87050000  0.71380000  1.0 0.1177305512
H  H105  1  0.37050000  0.02920000  0.21380000  1.0 0.1177305512
H  H106  1  0.62950000  0.97080000  0.21380000  1.0 0.1177305512
H  H107  1  0.52920000  0.12950000  0.21380000  1.0 0.1177305512
H  H108  1  0.47080000  0.87050000  0.21380000  1.0 0.1177305512
H  H109  1  0.87050000  0.47080000  0.28620000  1.0 0.1177305512
H  H110  1  0.12950000  0.52920000  0.28620000  1.0 0.1177305512
H  H111  1  0.02920000  0.37050000  0.28620000  1.0 0.1177305512
H  H112  1  0.97080000  0.62950000  0.28620000  1.0 0.1177305512
H  H113  1  0.22830000  0.52340000  0.82940000  1.0 0.151139604
H  H114  1  0.77170000  0.47660000  0.82940000  1.0 0.151139604
H  H115  1  0.02340000  0.27170000  0.82940000  1.0 0.151139604
H  H116  1  0.97660000  0.72830000  0.82940000  1.0 0.151139604
H  H117  1  0.72830000  0.97660000  0.67060000  1.0 0.151139604
H  H118  1  0.27170000  0.02340000  0.67060000  1.0 0.151139604
H  H119  1  0.52340000  0.22830000  0.67060000  1.0 0.151139604
H  H120  1  0.47660000  0.77170000  0.67060000  1.0 0.151139604
H  H121  1  0.27170000  0.97660000  0.17060000  1.0 0.151139604
H  H122  1  0.72830000  0.02340000  0.17060000  1.0 0.151139604
H  H123  1  0.47660000  0.22830000  0.17060000  1.0 0.151139604
H  H124  1  0.52340000  0.77170000  0.17060000  1.0 0.151139604
H  H125  1  0.77170000  0.52340000  0.32940000  1.0 0.151139604
H  H126  1  0.22830000  0.47660000  0.32940000  1.0 0.151139604
H  H127  1  0.97660000  0.27170000  0.32940000  1.0 0.151139604
H  H128  1  0.02340000  0.72830000  0.32940000  1.0 0.151139604
H  H129  1  0.26600000  0.71990000  0.69990000  1.0 0.136455074
H  H130  1  0.73400000  0.28010000  0.69990000  1.0 0.136455074
H  H131  1  0.21990000  0.23400000  0.69990000  1.0 0.136455074
H  H132  1  0.78010000  0.76600000  0.69990000  1.0 0.136455074
H  H133  1  0.76600000  0.78010000  0.80010000  1.0 0.136455074
H  H134  1  0.23400000  0.21990000  0.80010000  1.0 0.136455074
H  H135  1  0.71990000  0.26600000  0.80010000  1.0 0.136455074
H  H136  1  0.28010000  0.73400000  0.80010000  1.0 0.136455074
H  H137  1  0.23400000  0.78010000  0.30010000  1.0 0.136455074
H  H138  1  0.76600000  0.21990000  0.30010000  1.0 0.136455074
H  H139  1  0.28010000  0.26600000  0.30010000  1.0 0.136455074
H  H140  1  0.71990000  0.73400000  0.30010000  1.0 0.136455074
H  H141  1  0.73400000  0.71990000  0.19990000  1.0 0.136455074
H  H142  1  0.26600000  0.28010000  0.19990000  1.0 0.136455074
H  H143  1  0.78010000  0.23400000  0.19990000  1.0 0.136455074
H  H144  1  0.21990000  0.76600000  0.19990000  1.0 0.136455074
C  C1  1  0.35301000  0.53730000  0.80537000  1.0 -0.2009619734
C  C2  1  0.64699000  0.46270000  0.80537000  1.0 -0.2009619734
C  C3  1  0.03730000  0.14699000  0.80537000  1.0 -0.2009619734
C  C4  1  0.96270000  0.85301000  0.80537000  1.0 -0.2009619734
C  C5  1  0.85301000  0.96270000  0.69463000  1.0 -0.2009619734
C  C6  1  0.14699000  0.03730000  0.69463000  1.0 -0.2009619734
C  C7  1  0.53730000  0.35301000  0.69463000  1.0 -0.2009619734
C  C8  1  0.46270000  0.64699000  0.69463000  1.0 -0.2009619734
C  C9  1  0.14699000  0.96270000  0.19463000  1.0 -0.2009619734
C  C10  1  0.85301000  0.03730000  0.19463000  1.0 -0.2009619734
C  C11  1  0.46270000  0.35301000  0.19463000  1.0 -0.2009619734
C  C12  1  0.53730000  0.64699000  0.19463000  1.0 -0.2009619734
C  C13  1  0.64699000  0.53730000  0.30537000  1.0 -0.2009619734
C  C14  1  0.35301000  0.46270000  0.30537000  1.0 -0.2009619734
C  C15  1  0.96270000  0.14699000  0.30537000  1.0 -0.2009619734
C  C16  1  0.03730000  0.85301000  0.30537000  1.0 -0.2009619734
C  C17  1  0.40210000  0.50906000  0.85739000  1.0 0.0943333051
C  C18  1  0.59790000  0.49094000  0.85739000  1.0 0.0943333051
C  C19  1  0.00906000  0.09790000  0.85739000  1.0 0.0943333051
C  C20  1  0.99094000  0.90210000  0.85739000  1.0 0.0943333051
C  C21  1  0.90210000  0.99094000  0.64261000  1.0 0.0943333051
C  C22  1  0.09790000  0.00906000  0.64261000  1.0 0.0943333051
C  C23  1  0.50906000  0.40210000  0.64261000  1.0 0.0943333051
C  C24  1  0.49094000  0.59790000  0.64261000  1.0 0.0943333051
C  C25  1  0.09790000  0.99094000  0.14261000  1.0 0.0943333051
C  C26  1  0.90210000  0.00906000  0.14261000  1.0 0.0943333051
C  C27  1  0.49094000  0.40210000  0.14261000  1.0 0.0943333051
C  C28  1  0.50906000  0.59790000  0.14261000  1.0 0.0943333051
C  C29  1  0.59790000  0.50906000  0.35739000  1.0 0.0943333051
C  C30  1  0.40210000  0.49094000  0.35739000  1.0 0.0943333051
C  C31  1  0.99094000  0.09790000  0.35739000  1.0 0.0943333051
C  C32  1  0.00906000  0.90210000  0.35739000  1.0 0.0943333051
C  C33  1  0.40633000  0.60541000  0.94266000  1.0 0.1279655665
C  C34  1  0.59367000  0.39459000  0.94266000  1.0 0.1279655665
C  C35  1  0.10541000  0.09367000  0.94266000  1.0 0.1279655665
C  C36  1  0.89459000  0.90633000  0.94266000  1.0 0.1279655665
C  C37  1  0.90633000  0.89459000  0.55734000  1.0 0.1279655665
C  C38  1  0.09367000  0.10541000  0.55734000  1.0 0.1279655665
C  C39  1  0.60541000  0.40633000  0.55734000  1.0 0.1279655665
C  C40  1  0.39459000  0.59367000  0.55734000  1.0 0.1279655665
C  C41  1  0.09367000  0.89459000  0.05734000  1.0 0.1279655665
C  C42  1  0.90633000  0.10541000  0.05734000  1.0 0.1279655665
C  C43  1  0.39459000  0.40633000  0.05734000  1.0 0.1279655665
C  C44  1  0.60541000  0.59367000  0.05734000  1.0 0.1279655665
C  C45  1  0.59367000  0.60541000  0.44266000  1.0 0.1279655665
C  C46  1  0.40633000  0.39459000  0.44266000  1.0 0.1279655665
C  C47  1  0.89459000  0.09367000  0.44266000  1.0 0.1279655665
C  C48  1  0.10541000  0.90633000  0.44266000  1.0 0.1279655665
C  C49  1  0.35700000  0.63694000  0.89414000  1.0 -0.2087794244
C  C50  1  0.64300000  0.36306000  0.89414000  1.0 -0.2087794244
C  C51  1  0.13694000  0.14300000  0.89414000  1.0 -0.2087794244
C  C52  1  0.86306000  0.85700000  0.89414000  1.0 -0.2087794244
C  C53  1  0.85700000  0.86306000  0.60586000  1.0 -0.2087794244
C  C54  1  0.14300000  0.13694000  0.60586000  1.0 -0.2087794244
C  C55  1  0.63694000  0.35700000  0.60586000  1.0 -0.2087794244
C  C56  1  0.36306000  0.64300000  0.60586000  1.0 -0.2087794244
C  C57  1  0.14300000  0.86306000  0.10586000  1.0 -0.2087794244
C  C58  1  0.85700000  0.13694000  0.10586000  1.0 -0.2087794244
C  C59  1  0.36306000  0.35700000  0.10586000  1.0 -0.2087794244
C  C60  1  0.63694000  0.64300000  0.10586000  1.0 -0.2087794244
C  C61  1  0.64300000  0.63694000  0.39414000  1.0 -0.2087794244
C  C62  1  0.35700000  0.36306000  0.39414000  1.0 -0.2087794244
C  C63  1  0.86306000  0.14300000  0.39414000  1.0 -0.2087794244
C  C64  1  0.13694000  0.85700000  0.39414000  1.0 -0.2087794244
C  C65  1  0.32916000  0.60271000  0.82374000  1.0 0.2237830312
C  C66  1  0.67084000  0.39729000  0.82374000  1.0 0.2237830312
C  C67  1  0.10271000  0.17084000  0.82374000  1.0 0.2237830312
C  C68  1  0.89729000  0.82916000  0.82374000  1.0 0.2237830312
C  C69  1  0.82916000  0.89729000  0.67626000  1.0 0.2237830312
C  C70  1  0.17084000  0.10271000  0.67626000  1.0 0.2237830312
C  C71  1  0.60271000  0.32916000  0.67626000  1.0 0.2237830312
C  C72  1  0.39729000  0.67084000  0.67626000  1.0 0.2237830312
C  C73  1  0.17084000  0.89729000  0.17626000  1.0 0.2237830312
C  C74  1  0.82916000  0.10271000  0.17626000  1.0 0.2237830312
C  C75  1  0.39729000  0.32916000  0.17626000  1.0 0.2237830312
C  C76  1  0.60271000  0.67084000  0.17626000  1.0 0.2237830312
C  C77  1  0.67084000  0.60271000  0.32374000  1.0 0.2237830312
C  C78  1  0.32916000  0.39729000  0.32374000  1.0 0.2237830312
C  C79  1  0.89729000  0.17084000  0.32374000  1.0 0.2237830312
C  C80  1  0.10271000  0.82916000  0.32374000  1.0 0.2237830312
C  C81  1  0.22395000  0.60115000  0.74128000  1.0 0.2337154272
C  C82  1  0.77605000  0.39885000  0.74128000  1.0 0.2337154272
C  C83  1  0.10115000  0.27605000  0.74128000  1.0 0.2337154272
C  C84  1  0.89885000  0.72395000  0.74128000  1.0 0.2337154272
C  C85  1  0.72395000  0.89885000  0.75872000  1.0 0.2337154272
C  C86  1  0.27605000  0.10115000  0.75872000  1.0 0.2337154272
C  C87  1  0.60115000  0.22395000  0.75872000  1.0 0.2337154272
C  C88  1  0.39885000  0.77605000  0.75872000  1.0 0.2337154272
C  C89  1  0.27605000  0.89885000  0.25872000  1.0 0.2337154272
C  C90  1  0.72395000  0.10115000  0.25872000  1.0 0.2337154272
C  C91  1  0.39885000  0.22395000  0.25872000  1.0 0.2337154272
C  C92  1  0.60115000  0.77605000  0.25872000  1.0 0.2337154272
C  C93  1  0.77605000  0.60115000  0.24128000  1.0 0.2337154272
C  C94  1  0.22395000  0.39885000  0.24128000  1.0 0.2337154272
C  C95  1  0.89885000  0.27605000  0.24128000  1.0 0.2337154272
C  C96  1  0.10115000  0.72395000  0.24128000  1.0 0.2337154272
C  C97  1  0.18351000  0.62481000  0.67332000  1.0 -0.2273535008
C  C98  1  0.81649000  0.37519000  0.67332000  1.0 -0.2273535008
C  C99  1  0.12481000  0.31649000  0.67332000  1.0 -0.2273535008
C  C100  1  0.87519000  0.68351000  0.67332000  1.0 -0.2273535008
C  C101  1  0.68351000  0.87519000  0.82668000  1.0 -0.2273535008
C  C102  1  0.31649000  0.12481000  0.82668000  1.0 -0.2273535008
C  C103  1  0.62481000  0.18351000  0.82668000  1.0 -0.2273535008
C  C104  1  0.37519000  0.81649000  0.82668000  1.0 -0.2273535008
C  C105  1  0.31649000  0.87519000  0.32668000  1.0 -0.2273535008
C  C106  1  0.68351000  0.12481000  0.32668000  1.0 -0.2273535008
C  C107  1  0.37519000  0.18351000  0.32668000  1.0 -0.2273535008
C  C108  1  0.62481000  0.81649000  0.32668000  1.0 -0.2273535008
C  C109  1  0.81649000  0.62481000  0.17332000  1.0 -0.2273535008
C  C110  1  0.18351000  0.37519000  0.17332000  1.0 -0.2273535008
C  C111  1  0.87519000  0.31649000  0.17332000  1.0 -0.2273535008
C  C112  1  0.12481000  0.68351000  0.17332000  1.0 -0.2273535008
C  C113  1  0.12433000  0.59061000  0.65313000  1.0 0.1130812736
C  C114  1  0.87567000  0.40939000  0.65313000  1.0 0.1177305512
C  C115  1  0.09061000  0.37567000  0.65313000  1.0 0.1130812736
C  C116  1  0.90939000  0.62433000  0.65313000  1.0 0.1177305512
C  C117  1  0.62433000  0.90939000  0.84687000  1.0 0.1130812736
C  C118  1  0.37567000  0.09061000  0.84687000  1.0 0.1177305512
C  C119  1  0.59061000  0.12433000  0.84687000  1.0 0.1177305512
C  C120  1  0.40939000  0.87567000  0.84687000  1.0 0.1130812736
C  C121  1  0.37567000  0.90939000  0.34687000  1.0 0.1130812736
C  C122  1  0.62433000  0.09061000  0.34687000  1.0 0.1177305512
C  C123  1  0.40939000  0.12433000  0.34687000  1.0 0.1177305512
C  C124  1  0.59061000  0.87567000  0.34687000  1.0 0.1130812736
C  C125  1  0.87567000  0.59061000  0.15313000  1.0 0.1130812736
C  C126  1  0.12433000  0.40939000  0.15313000  1.0 0.1130812736
C  C127  1  0.90939000  0.37567000  0.15313000  1.0 0.1130812736
C  C128  1  0.09061000  0.62433000  0.15313000  1.0 0.1130812736
C  C129  1  0.14289000  0.51126000  0.75758000  1.0 0.1130812736
C  C130  1  0.85711000  0.48874000  0.75758000  1.0 0.1130812736
C  C131  1  0.01126000  0.35711000  0.75758000  1.0 0.1130812736
C  C132  1  0.98874000  0.64289000  0.75758000  1.0 0.1130812736
C  C133  1  0.64289000  0.98874000  0.74242000  1.0 0.1130812736
C  C134  1  0.35711000  0.01126000  0.74242000  1.0 0.1130812736
C  C135  1  0.51126000  0.14289000  0.74242000  1.0 0.1130812736
C  C136  1  0.48874000  0.85711000  0.74242000  1.0 0.1130812736
C  C137  1  0.35711000  0.98874000  0.24242000  1.0 0.1130812736
C  C138  1  0.64289000  0.01126000  0.24242000  1.0 0.1130812736
C  C139  1  0.48874000  0.14289000  0.24242000  1.0 0.1130812736
C  C140  1  0.51126000  0.85711000  0.24242000  1.0 0.1130812736
C  C141  1  0.85711000  0.51126000  0.25758000  1.0 0.1130812736
C  C142  1  0.14289000  0.48874000  0.25758000  1.0 0.1130812736
C  C143  1  0.98874000  0.35711000  0.25758000  1.0 0.1130812736
C  C144  1  0.01126000  0.64289000  0.25758000  1.0 0.1130812736
C  C145  1  0.20233000  0.54199000  0.78352000  1.0 -0.2243637293
C  C146  1  0.79767000  0.45801000  0.78352000  1.0 -0.2243637293
C  C147  1  0.04199000  0.29767000  0.78352000  1.0 -0.2243637293
C  C148  1  0.95801000  0.70233000  0.78352000  1.0 -0.2243637293
C  C149  1  0.70233000  0.95801000  0.71648000  1.0 -0.2243637293
C  C150  1  0.29767000  0.04199000  0.71648000  1.0 -0.2243637293
C  C151  1  0.54199000  0.20233000  0.71648000  1.0 -0.2243637293
C  C152  1  0.45801000  0.79767000  0.71648000  1.0 -0.2243637293
C  C153  1  0.29767000  0.95801000  0.21648000  1.0 -0.2243637293
C  C154  1  0.70233000  0.04199000  0.21648000  1.0 -0.2243637293
C  C155  1  0.45801000  0.20233000  0.21648000  1.0 -0.2243637293
C  C156  1  0.54199000  0.79767000  0.21648000  1.0 -0.2243637293
C  C157  1  0.79767000  0.54199000  0.28352000  1.0 -0.2243637293
C  C158  1  0.20233000  0.45801000  0.28352000  1.0 -0.2243637293
C  C159  1  0.95801000  0.29767000  0.28352000  1.0 -0.2243637293
C  C160  1  0.04199000  0.70233000  0.28352000  1.0 -0.2273535008
C  C161  1  0.29390000  0.70610000  0.75000000  1.0 -0.005786985
C  C162  1  0.70610000  0.29390000  0.75000000  1.0 -0.005786985
C  C163  1  0.20610000  0.20610000  0.75000000  1.0 -0.005786985
C  C164  1  0.79390000  0.79390000  0.75000000  1.0 -0.005786985
C  C165  1  0.20610000  0.79390000  0.25000000  1.0 -0.005786985
C  C166  1  0.79390000  0.20610000  0.25000000  1.0 -0.005786985
C  C167  1  0.29390000  0.29390000  0.25000000  1.0 -0.005786985
C  C168  1  0.70610000  0.70610000  0.25000000  1.0 -0.005786985
N  N1  1  0.42899000  0.54238000  0.92558000  1.0 -0.2273535008
N  N2  1  0.57101000  0.45762000  0.92558000  1.0 -0.2273535008
N  N3  1  0.04238000  0.07101000  0.92558000  1.0 -0.2273535008
N  N4  1  0.95762000  0.92899000  0.92558000  1.0 -0.2273535008
N  N5  1  0.92899000  0.95762000  0.57442000  1.0 -0.2273535008
N  N6  1  0.07101000  0.04238000  0.57442000  1.0 -0.2273535008
N  N7  1  0.54238000  0.42899000  0.57442000  1.0 -0.2273535008
N  N8  1  0.45762000  0.57101000  0.57442000  1.0 -0.2273535008
N  N9  1  0.07101000  0.95762000  0.07442000  1.0 -0.2243637293
N  N10  1  0.92899000  0.04238000  0.07442000  1.0 -0.2273535008
N  N11  1  0.45762000  0.42899000  0.07442000  1.0 -0.2273535008
N  N12  1  0.54238000  0.57101000  0.07442000  1.0 -0.2273535008
N  N13  1  0.57101000  0.54238000  0.42558000  1.0 -0.2273535008
N  N14  1  0.42899000  0.45762000  0.42558000  1.0 -0.2273535008
N  N15  1  0.95762000  0.07101000  0.42558000  1.0 -0.2273535008
N  N16  1  0.04238000  0.92899000  0.42558000  1.0 -0.2273535008
N  N17  1  0.28214000  0.63479000  0.76898000  1.0 -0.1084674913
N  N18  1  0.71786000  0.36521000  0.76898000  1.0 -0.1084674913
N  N19  1  0.13479000  0.21786000  0.76898000  1.0 -0.1084674913
N  N20  1  0.86521000  0.78214000  0.76898000  1.0 -0.1084674913
N  N21  1  0.78214000  0.86521000  0.73102000  1.0 -0.1084674913
N  N22  1  0.21786000  0.13479000  0.73102000  1.0 -0.1084674913
N  N23  1  0.63479000  0.28214000  0.73102000  1.0 -0.1084674913
N  N24  1  0.36521000  0.71786000  0.73102000  1.0 -0.1084674913
N  N25  1  0.21786000  0.86521000  0.23102000  1.0 -0.1084674913
N  N26  1  0.78214000  0.13479000  0.23102000  1.0 -0.1084674913
N  N27  1  0.36521000  0.28214000  0.23102000  1.0 -0.1084674913
N  N28  1  0.63479000  0.71786000  0.23102000  1.0 -0.1084674913
N  N29  1  0.71786000  0.63479000  0.26898000  1.0 -0.1084674913
N  N30  1  0.28214000  0.36521000  0.26898000  1.0 -0.1084674913
N  N31  1  0.86521000  0.21786000  0.26898000  1.0 -0.1084674913
N  N32  1  0.13479000  0.78214000  0.26898000  1.0 -0.1084674913
N  N33  1  0.10289000  0.53475000  0.69469000  1.0 -0.2273535008
N  N34  1  0.89711000  0.46525000  0.69469000  1.0 -0.2273535008
N  N35  1  0.03475000  0.39711000  0.69469000  1.0 -0.2273535008
N  N36  1  0.96525000  0.60289000  0.69469000  1.0 -0.2273535008
N  N37  1  0.60289000  0.96525000  0.80531000  1.0 -0.2273535008
N  N38  1  0.39711000  0.03475000  0.80531000  1.0 -0.2273535008
N  N39  1  0.53475000  0.10289000  0.80531000  1.0 -0.2273535008
N  N40  1  0.46525000  0.89711000  0.80531000  1.0 -0.2273535008
N  N41  1  0.39711000  0.96525000  0.30531000  1.0 -0.2273535008
N  N42  1  0.60289000  0.03475000  0.30531000  1.0 -0.2273535008
N  N43  1  0.46525000  0.10289000  0.30531000  1.0 -0.2273535008
N  N44  1  0.53475000  0.89711000  0.30531000  1.0 -0.2273535008
N  N45  1  0.89711000  0.53475000  0.19469000  1.0 -0.2273535008
N  N46  1  0.10289000  0.46525000  0.19469000  1.0 -0.2273535008
N  N47  1  0.96525000  0.39711000  0.19469000  1.0 -0.2273535008
N  N48  1  0.03475000  0.60289000  0.19469000  1.0 -0.2273535008
N  N49  1  0.45904000  0.27070000  0.93410000  1.0 0.6926009395
N  N50  1  0.54096000  0.72930000  0.93410000  1.0 0.6926009395
N  N51  1  0.77070000  0.04096000  0.93410000  1.0 0.6926009395
N  N52  1  0.22930000  0.95904000  0.93410000  1.0 0.6926009395
N  N53  1  0.95904000  0.22930000  0.56590000  1.0 0.6926009395
N  N54  1  0.04096000  0.77070000  0.56590000  1.0 0.6926009395
N  N55  1  0.27070000  0.45904000  0.56590000  1.0 0.6926009395
N  N56  1  0.72930000  0.54096000  0.56590000  1.0 0.6926009395
N  N57  1  0.04096000  0.22930000  0.06590000  1.0 0.6926009395
N  N58  1  0.95904000  0.77070000  0.06590000  1.0 0.6926009395
N  N59  1  0.72930000  0.45904000  0.06590000  1.0 0.6926009395
N  N60  1  0.27070000  0.54096000  0.06590000  1.0 0.6926009395
N  N61  1  0.54096000  0.27070000  0.43410000  1.0 0.6926009395
N  N62  1  0.45904000  0.72930000  0.43410000  1.0 0.6926009395
N  N63  1  0.22930000  0.04096000  0.43410000  1.0 0.6926009395
N  N64  1  0.77070000  0.95904000  0.43410000  1.0 0.6926009395
O  O1  1  0.00000000  0.50000000  0.55080000  1.0 -0.4066714495
O  O2  1  0.50000000  0.00000000  0.94920000  1.0 -0.396122583
O  O3  1  0.50000000  0.00000000  0.44920000  1.0 -0.396122583
O  O4  1  0.00000000  0.50000000  0.05080000  1.0 -0.4066714495
O  O5  1  0.00000000  0.50000000  0.83100000  1.0 -0.3518649239
O  O6  1  0.50000000  0.00000000  0.66900000  1.0 -0.3518649239
O  O7  1  0.50000000  0.00000000  0.16900000  1.0 -0.3574512004
O  O8  1  0.00000000  0.50000000  0.33100000  1.0 -0.3518649239
O  O9  1  0.45254000  0.33900000  0.87900000  1.0 -0.6074269935
O  O10  1  0.49884000  0.26570000  0.99270000  1.0 -0.396122583
O  O11  1  0.39874000  0.23650000  0.93130000  1.0 -0.5346704125
O  O12  1  0.54746000  0.66100000  0.87900000  1.0 -0.6074269935
O  O13  1  0.50116000  0.73430000  0.99270000  1.0 -0.396122583
O  O14  1  0.60126000  0.76350000  0.93130000  1.0 -0.5346704125
O  O15  1  0.83900000  0.04746000  0.87900000  1.0 -0.6074269935
O  O16  1  0.76570000  0.00116000  0.99270000  1.0 -0.396122583
O  O17  1  0.73650000  0.10126000  0.93130000  1.0 -0.5346704125
O  O18  1  0.16100000  0.95254000  0.87900000  1.0 -0.6074269935
O  O19  1  0.23430000  0.99884000  0.99270000  1.0 -0.396122583
O  O20  1  0.26350000  0.89874000  0.93130000  1.0 -0.5346704125
O  O21  1  0.95254000  0.16100000  0.62100000  1.0 -0.6074269935
O  O22  1  0.99884000  0.23430000  0.50730000  1.0 -0.396122583
O  O23  1  0.89874000  0.26350000  0.56870000  1.0 -0.5346704125
O  O24  1  0.04746000  0.83900000  0.62100000  1.0 -0.6074269935
O  O25  1  0.00116000  0.76570000  0.50730000  1.0 -0.396122583
O  O26  1  0.10126000  0.73650000  0.56870000  1.0 -0.5346704125
O  O27  1  0.33900000  0.45254000  0.62100000  1.0 -0.6074269935
O  O28  1  0.26570000  0.49884000  0.50730000  1.0 -0.396122583
O  O29  1  0.23650000  0.39874000  0.56870000  1.0 -0.5346704125
O  O30  1  0.66100000  0.54746000  0.62100000  1.0 -0.6074269935
O  O31  1  0.73430000  0.50116000  0.50730000  1.0 -0.396122583
O  O32  1  0.76350000  0.60126000  0.56870000  1.0 -0.5346704125
O  O33  1  0.04746000  0.16100000  0.12100000  1.0 -0.6074269935
O  O34  1  0.00116000  0.23430000  0.00730000  1.0 -0.396122583
O  O35  1  0.10126000  0.26350000  0.06870000  1.0 -0.5346704125
O  O36  1  0.95254000  0.83900000  0.12100000  1.0 -0.6074269935
O  O37  1  0.99884000  0.76570000  0.00730000  1.0 -0.396122583
O  O38  1  0.89874000  0.73650000  0.06870000  1.0 -0.5346704125
O  O39  1  0.66100000  0.45254000  0.12100000  1.0 -0.6074269935
O  O40  1  0.73430000  0.49884000  0.00730000  1.0 -0.396122583
O  O41  1  0.76350000  0.39874000  0.06870000  1.0 -0.5346704125
O  O42  1  0.33900000  0.54746000  0.12100000  1.0 -0.6074269935
O  O43  1  0.26570000  0.50116000  0.00730000  1.0 -0.396122583
O  O44  1  0.23650000  0.60126000  0.06870000  1.0 -0.5346704125
O  O45  1  0.54746000  0.33900000  0.37900000  1.0 -0.6074269935
O  O46  1  0.50116000  0.26570000  0.49270000  1.0 -0.396122583
O  O47  1  0.60126000  0.23650000  0.43130000  1.0 -0.5346704125
O  O48  1  0.45254000  0.66100000  0.37900000  1.0 -0.6074269935
O  O49  1  0.49884000  0.73430000  0.49270000  1.0 -0.396122583
O  O50  1  0.39874000  0.76350000  0.43130000  1.0 -0.5346704125
O  O51  1  0.16100000  0.04746000  0.37900000  1.0 -0.6074269935
O  O52  1  0.23430000  0.00116000  0.49270000  1.0 -0.396122583
O  O53  1  0.26350000  0.10126000  0.43130000  1.0 -0.5346704125
O  O54  1  0.83900000  0.95254000  0.37900000  1.0 -0.6074269935
O  O55  1  0.76570000  0.99884000  0.49270000  1.0 -0.396122583
O  O56  1  0.73650000  0.89874000  0.43130000  1.0 -0.5346704125
