# DDEC6 charges by PACMAN v1.1 (https://github.com/mtap-research/PACMAN-charge/)
data_GEZNOS_FSR_pacman
_symmetry_space_group_name_H-M   'P 1'
_cell_length_a   10.53600000
_cell_length_b   14.35300000
_cell_length_c   15.58200000
_cell_angle_alpha   88.80000000
_cell_angle_beta   83.09900000
_cell_angle_gamma   88.28300000
_symmetry_Int_Tables_number   1
_chemical_formula_structural   FeH68Ru4C88N4(O8F5)2
_chemical_formula_sum   'Fe1 H68 Ru4 C88 N4 O16 F10'
_cell_volume   2337.88135209
_cell_formula_units_Z   1
loop_
 _symmetry_equiv_pos_site_id
 _symmetry_equiv_pos_as_xyz
  1  'x, y, z'
loop_
 _atom_site_type_symbol
 _atom_site_label
 _atom_site_symmetry_multiplicity
 _atom_site_fract_x
 _atom_site_fract_y
 _atom_site_fract_z
 _atom_site_occupancy
 _atom_site_charge
Fe  Fe1  1  0.50000000  0.00000000  0.50000000  1.0 -0.0605877698
H  H1  1  0.36093000  0.96815000  0.30271000  1.0 0.1211309494
H  H2  1  0.63907000  0.03185000  0.69729000  1.0 0.1211309494
H  H3  1  0.26037000  0.05248000  0.32508000  1.0 0.1308105314
H  H4  1  0.73963000  0.94752000  0.67492000  1.0 0.1308105314
H  H5  1  0.41057000  0.07011000  0.31783000  1.0 0.1385364518
H  H6  1  0.58943000  0.92989000  0.68217000  1.0 0.1385364518
H  H7  1  0.28165000  0.19806000  0.54758000  1.0 0.1308105314
H  H8  1  0.71835000  0.80194000  0.45242000  1.0 0.1308105314
H  H9  1  0.36470000  0.19926000  0.45457000  1.0 0.1385364518
H  H10  1  0.63530000  0.80074000  0.54543000  1.0 0.1385364518
H  H11  1  0.21470000  0.18065000  0.46263000  1.0 0.1308105314
H  H12  1  0.78530000  0.81935000  0.53737000  1.0 0.1308105314
H  H13  1  0.28631000  0.12454000  0.66312000  1.0 0.1308105314
H  H14  1  0.71369000  0.87546000  0.33688000  1.0 0.1308105314
H  H15  1  0.22606000  0.02884000  0.70063000  1.0 0.1385364518
H  H16  1  0.77394000  0.97116000  0.29937000  1.0 0.1385364518
H  H17  1  0.37628000  0.04415000  0.69820000  1.0 0.1308105314
H  H18  1  0.62372000  0.95585000  0.30180000  1.0 0.1308105314
H  H19  1  0.34435000  0.86425000  0.68081000  1.0 0.1308105314
H  H20  1  0.65565000  0.13575000  0.31919000  1.0 0.1308105314
H  H21  1  0.43865000  0.80814000  0.61058000  1.0 0.1308105314
H  H22  1  0.56135000  0.19186000  0.38942000  1.0 0.1308105314
H  H23  1  0.28728000  0.79700000  0.61523000  1.0 0.1308105314
H  H24  1  0.71272000  0.20300000  0.38477000  1.0 0.1308105314
H  H25  1  0.38778000  0.83536000  0.35764000  1.0 0.1211309494
H  H26  1  0.61222000  0.16464000  0.64236000  1.0 0.1211309494
H  H27  1  0.31324000  0.78054000  0.43794000  1.0 0.1385364518
H  H28  1  0.68676000  0.21946000  0.56206000  1.0 0.1385364518
H  H29  1  0.46426000  0.79356000  0.43310000  1.0 0.1385364518
H  H30  1  0.53574000  0.20644000  0.56690000  1.0 0.1385364518
H  H31  1  0.59161000  0.39305000  0.44823000  1.0 0.1579996846
H  H32  1  0.40839000  0.60695000  0.55177000  1.0 0.1579996846
H  H33  1  0.67847000  0.64924000  0.34613000  1.0 0.1308105314
H  H34  1  0.32153000  0.35076000  0.65387000  1.0 0.1308105314
H  H35  1  0.85931000  0.53052000  0.79629000  1.0 0.1520516924
H  H36  1  0.14069000  0.46948000  0.20371000  1.0 0.1520516924
H  H37  1  0.87848000  0.77786000  0.66511000  1.0 0.1211309494
H  H38  1  0.12152000  0.22214000  0.33489000  1.0 0.1211309494
H  H39  1  0.48279000  0.65847000  0.29019000  1.0 0.1211309494
H  H40  1  0.51721000  0.34153000  0.70981000  1.0 0.1211309494
H  H41  1  0.81810000  0.85627000  0.79524000  1.0 0.1211309494
H  H42  1  0.18190000  0.14373000  0.20476000  1.0 0.1211309494
H  H43  1  0.95266000  0.15593000  0.46978000  1.0 0.1211309494
H  H44  1  0.04734000  0.84407000  0.53022000  1.0 0.1211309494
H  H45  1  0.00792000  0.94765000  0.64201000  1.0 0.1211309494
H  H46  1  0.99208000  0.05235000  0.35799000  1.0 0.1211309494
H  H47  1  0.34016000  0.53489000  0.31260000  1.0 0.1520516924
H  H48  1  0.65984000  0.46511000  0.68740000  1.0 0.1520516924
H  H49  1  0.78668000  0.77237000  0.92605000  1.0 0.1385364518
H  H50  1  0.21332000  0.22763000  0.07395000  1.0 0.1385364518
H  H51  1  0.37489000  0.12917000  0.83864000  1.0 0.1385364518
H  H52  1  0.62511000  0.87083000  0.16136000  1.0 0.1385364518
H  H53  1  0.40277000  0.08115000  0.09352000  1.0 0.1308105314
H  H54  1  0.59723000  0.91885000  0.90648000  1.0 0.1308105314
H  H55  1  0.83558000  0.32027000  0.99336000  1.0 0.1308105314
H  H56  1  0.16442000  0.67973000  0.00664000  1.0 0.1308105314
H  H57  1  0.87998000  0.21181000  0.23067000  1.0 0.1520516924
H  H58  1  0.12002000  0.78819000  0.76933000  1.0 0.1520516924
H  H59  1  0.61081000  0.13499000  0.07216000  1.0 0.2375259004
H  H60  1  0.38919000  0.86501000  0.92784000  1.0 0.2375259004
H  H61  1  0.76963000  0.46252000  0.05595000  1.0 0.1211309494
H  H62  1  0.23037000  0.53748000  0.94405000  1.0 0.1211309494
H  H63  1  0.70560000  0.18065000  0.93483000  1.0 0.1385364518
H  H64  1  0.29440000  0.81935000  0.06517000  1.0 0.1385364518
H  H65  1  0.75753000  0.47971000  0.20626000  1.0 0.1385364518
H  H66  1  0.24247000  0.52029000  0.79374000  1.0 0.1385364518
H  H67  1  0.58378000  0.17811000  0.81918000  1.0 0.2294516168
H  H68  1  0.41622000  0.82189000  0.18082000  1.0 0.2294516168
Ru  Ru1  1  0.96917000  0.43245000  0.53566000  1.0 0.8044921658
Ru  Ru2  1  0.03083000  0.56755000  0.46434000  1.0 0.8060718677
Ru  Ru3  1  0.98547000  0.02719000  0.93230000  1.0 0.7197567127
Ru  Ru4  1  0.01453000  0.97281000  0.06770000  1.0 0.7197567127
C  C1  1  0.34200000  0.00310000  0.43030000  1.0 0.0502356454
C  C2  1  0.65800000  0.99690000  0.56970000  1.0 0.0502356454
C  C3  1  0.32020000  0.06720000  0.49880000  1.0 0.0502356454
C  C4  1  0.67980000  0.93280000  0.50120000  1.0 0.0502356454
C  C5  1  0.32370000  0.01580000  0.57810000  1.0 0.0502356454
C  C6  1  0.67630000  0.98420000  0.42190000  1.0 0.0502356454
C  C7  1  0.34360000  0.02540000  0.33580000  1.0 -0.4387616116
C  C8  1  0.65640000  0.97460000  0.66420000  1.0 -0.4387616116
C  C9  1  0.29290000  0.17030000  0.49010000  1.0 -0.4387616116
C  C10  1  0.70710000  0.82970000  0.50990000  1.0 -0.4387616116
C  C11  1  0.30110000  0.05700000  0.66800000  1.0 -0.4335455843
C  C12  1  0.69890000  0.94300000  0.33200000  1.0 -0.4335455843
C  C13  1  0.34830000  0.92090000  0.55820000  1.0 0.0384679004
C  C14  1  0.65170000  0.07910000  0.44180000  1.0 0.0384679004
C  C15  1  0.36020000  0.91210000  0.46750000  1.0 0.0502356454
C  C16  1  0.63980000  0.08790000  0.53250000  1.0 0.0502356454
C  C17  1  0.35530000  0.84050000  0.62180000  1.0 -0.4387616116
C  C18  1  0.64470000  0.15950000  0.37820000  1.0 -0.4387616116
C  C19  1  0.38340000  0.82270000  0.42000000  1.0 -0.4335455843
C  C20  1  0.61660000  0.17730000  0.58000000  1.0 -0.4335455843
C  C21  1  0.77810000  0.51470000  0.43880000  1.0 0.5276569627
C  C22  1  0.22190000  0.48530000  0.56120000  1.0 0.5276569627
C  C23  1  0.91380000  0.59630000  0.63750000  1.0 0.5276569627
C  C24  1  0.08620000  0.40370000  0.36250000  1.0 0.5276569627
C  C25  1  0.93020000  0.22360000  0.62160000  1.0 0.2709827922
C  C26  1  0.06980000  0.77640000  0.37840000  1.0 0.2709827922
C  C27  1  0.65410000  0.52120000  0.40300000  1.0 -0.0095619913
C  C28  1  0.34590000  0.47880000  0.59700000  1.0 -0.0095619913
C  C29  1  0.87240000  0.64780000  0.71790000  1.0 0.0006098158
C  C30  1  0.12760000  0.35220000  0.28210000  1.0 0.0006098158
C  C31  1  0.95130000  0.12990000  0.63990000  1.0 -0.1677624383
C  C32  1  0.04870000  0.87010000  0.36010000  1.0 -0.1677624383
C  C33  1  0.57020000  0.44730000  0.41640000  1.0 -0.2331422665
C  C34  1  0.42980000  0.55270000  0.58360000  1.0 -0.2331422665
C  C35  1  0.62120000  0.59920000  0.35570000  1.0 -0.1220069402
C  C36  1  0.37880000  0.40080000  0.64430000  1.0 -0.1220069402
C  C37  1  0.85270000  0.59670000  0.79550000  1.0 -0.2462585666
C  C38  1  0.14730000  0.40330000  0.20450000  1.0 -0.2462585666
C  C39  1  0.86230000  0.74350000  0.71780000  1.0 -0.1273886286
C  C40  1  0.13770000  0.25650000  0.28220000  1.0 -0.1273886286
C  C41  1  0.95140000  0.10220000  0.72670000  1.0 0.2793916516
C  C42  1  0.04860000  0.89780000  0.27330000  1.0 0.2793916516
C  C43  1  0.97570000  0.06340000  0.56870000  1.0 0.1048481218
C  C44  1  0.02430000  0.93660000  0.43130000  1.0 0.1048481218
C  C45  1  0.45540000  0.45520000  0.38220000  1.0 0.291009476
C  C46  1  0.54460000  0.54480000  0.61780000  1.0 0.291009476
C  C47  1  0.50470000  0.60460000  0.32230000  1.0 -0.0605877698
C  C48  1  0.49530000  0.39540000  0.67770000  1.0 -0.0605877698
C  C49  1  0.82350000  0.64550000  0.87040000  1.0 0.2963740728
C  C50  1  0.17650000  0.35450000  0.12960000  1.0 0.2963740728
C  C51  1  0.82810000  0.79030000  0.79570000  1.0 -0.0444109072
C  C52  1  0.17190000  0.20970000  0.20430000  1.0 -0.0444109072
C  C53  1  0.97190000  0.09240000  0.48240000  1.0 -0.1398299747
C  C54  1  0.02810000  0.90760000  0.51760000  1.0 -0.1398299747
C  C55  1  0.00450000  0.96930000  0.58430000  1.0 -0.1398299747
C  C56  1  0.99550000  0.03070000  0.41570000  1.0 -0.1398299747
C  C57  1  0.41990000  0.53180000  0.33530000  1.0 -0.2093368171
C  C58  1  0.58010000  0.46820000  0.66470000  1.0 -0.2093368171
C  C59  1  0.80900000  0.74130000  0.87290000  1.0 -0.2093368171
C  C60  1  0.19100000  0.25870000  0.12710000  1.0 -0.2093368171
C  C61  1  0.23560000  0.06490000  0.97900000  1.0 0.5163420341
C  C62  1  0.76440000  0.93510000  0.02100000  1.0 0.5163420341
C  C63  1  0.91150000  0.16100000  0.06720000  1.0 0.5276569627
C  C64  1  0.08850000  0.83900000  0.93280000  1.0 0.5276569627
C  C65  1  0.36870000  0.09930000  0.96690000  1.0 -0.0025520235
C  C66  1  0.63130000  0.90070000  0.03310000  1.0 -0.0025520235
C  C67  1  0.86380000  0.25200000  0.10540000  1.0 -0.0025520235
C  C68  1  0.13620000  0.74800000  0.89460000  1.0 -0.0025520235
C  C69  1  0.42310000  0.12910000  0.88640000  1.0 -0.1815021881
C  C70  1  0.57690000  0.87090000  0.11360000  1.0 -0.1815021881
C  C71  1  0.43920000  0.10110000  0.03770000  1.0 -0.1929071941
C  C72  1  0.56080000  0.89890000  0.96230000  1.0 -0.1929071941
C  C73  1  0.83110000  0.32690000  0.05420000  1.0 -0.1273886286
C  C74  1  0.16890000  0.67310000  0.94580000  1.0 -0.1273886286
C  C75  1  0.85770000  0.26230000  0.19450000  1.0 -0.2245228984
C  C76  1  0.14230000  0.73770000  0.80550000  1.0 -0.2245228984
C  C77  1  0.54720000  0.15860000  0.87510000  1.0 0.1106615863
C  C78  1  0.45280000  0.84140000  0.12490000  1.0 0.1106615863
C  C79  1  0.56310000  0.13260000  0.02430000  1.0 0.0945951469
C  C80  1  0.43690000  0.86740000  0.97570000  1.0 0.0945951469
C  C81  1  0.79190000  0.41150000  0.09150000  1.0 -0.0605877698
C  C82  1  0.20810000  0.58850000  0.90850000  1.0 -0.0605877698
C  C83  1  0.81870000  0.34740000  0.22870000  1.0 0.2793916516
C  C84  1  0.18130000  0.65260000  0.77130000  1.0 0.2793916516
C  C85  1  0.61980000  0.16070000  0.94320000  1.0 -0.2431966164
C  C86  1  0.38020000  0.83930000  0.05680000  1.0 -0.2431966164
C  C87  1  0.78490000  0.42220000  0.18020000  1.0 -0.2093368171
C  C88  1  0.21510000  0.57780000  0.81980000  1.0 -0.2093368171
N  N1  1  0.90980000  0.29970000  0.60170000  1.0 -0.3717147209
N  N2  1  0.09020000  0.70030000  0.39830000  1.0 -0.3717147209
N  N3  1  0.95370000  0.07720000  0.79700000  1.0 -0.3784442343
N  N4  1  0.04630000  0.92280000  0.20300000  1.0 -0.3784442343
O  O1  1  0.79850000  0.44570000  0.48869000  1.0 -0.4601476141
O  O2  1  0.20150000  0.55430000  0.51131000  1.0 -0.4601476141
O  O3  1  0.90240000  0.50759000  0.64063000  1.0 -0.4601476141
O  O4  1  0.09760000  0.49241000  0.35937000  1.0 -0.4601476141
O  O5  1  0.14110000  0.42165000  0.58144000  1.0 -0.4501570933
O  O6  1  0.85890000  0.57835000  0.41856000  1.0 -0.4501570933
O  O7  1  0.04050000  0.35957000  0.42960000  1.0 -0.4501570933
O  O8  1  0.95950000  0.64043000  0.57040000  1.0 -0.4501570933
O  O9  1  0.16830000  0.07680000  0.91751000  1.0 -0.4501570933
O  O10  1  0.83170000  0.92320000  0.08249000  1.0 -0.4501570933
O  O11  1  0.91770000  0.15296000  0.98593000  1.0 -0.4601476141
O  O12  1  0.08230000  0.84704000  0.01407000  1.0 -0.4601476141
O  O13  1  0.80360000  0.97433000  0.94903000  1.0 -0.4669837155
O  O14  1  0.19640000  0.02567000  0.05097000  1.0 -0.4669837155
O  O15  1  0.05710000  0.90201000  0.88140000  1.0 -0.4501570933
O  O16  1  0.94290000  0.09799000  0.11860000  1.0 -0.4501570933
F  F1  1  0.37460000  0.38344000  0.39582000  1.0 -0.1398299747
F  F2  1  0.62540000  0.61656000  0.60418000  1.0 -0.1398299747
F  F3  1  0.81080000  0.59760000  0.94650000  1.0 -0.1815021881
F  F4  1  0.18920000  0.40240000  0.05350000  1.0 -0.1815021881
F  F5  1  0.60150000  0.18300000  0.79340000  1.0 -0.1398299747
F  F6  1  0.39850000  0.81700000  0.20660000  1.0 -0.1398299747
F  F7  1  0.81580000  0.35746000  0.31509000  1.0 -0.1398299747
F  F8  1  0.18420000  0.64254000  0.68491000  1.0 -0.1398299747
F  F9  1  0.62060000  0.12600000  0.10340000  1.0 -0.1606750958
F  F10  1  0.37940000  0.87400000  0.89660000  1.0 -0.1606750958
