# DDEC6 charges by PACMAN v1.1 (https://github.com/mtap-research/PACMAN-charge/)
data_GEZRAG_ASR_pacman
_symmetry_space_group_name_H-M   'P 1'
_cell_length_a   26.45290000
_cell_length_b   26.45290000
_cell_length_c   26.45290000
_cell_angle_alpha   90.00000000
_cell_angle_beta   90.00000000
_cell_angle_gamma   90.00000000
_symmetry_Int_Tables_number   1
_chemical_formula_structural   Co10H66C59N4O31
_chemical_formula_sum   'Co80 H528 C472 N32 O248'
_cell_volume   18510.57333411
_cell_formula_units_Z   8
loop_
 _symmetry_equiv_pos_site_id
 _symmetry_equiv_pos_as_xyz
  1  'x, y, z'
loop_
 _atom_site_type_symbol
 _atom_site_label
 _atom_site_symmetry_multiplicity
 _atom_site_fract_x
 _atom_site_fract_y
 _atom_site_fract_z
 _atom_site_occupancy
 _atom_site_charge
Co  Co1  1  0.16149000  0.13200000  0.22476000  1.0 0.8552056235
Co  Co2  1  0.33851000  0.86800000  0.72476000  1.0 0.8552056235
Co  Co3  1  0.83851000  0.63200000  0.27524000  1.0 0.8552056235
Co  Co4  1  0.66149000  0.36800000  0.77524000  1.0 0.8552056235
Co  Co5  1  0.22476000  0.16149000  0.13200000  1.0 0.8552056235
Co  Co6  1  0.13200000  0.22476000  0.16149000  1.0 0.8552056235
Co  Co7  1  0.77524000  0.66149000  0.36800000  1.0 0.8552056235
Co  Co8  1  0.86800000  0.72476000  0.33851000  1.0 0.8552056235
Co  Co9  1  0.27524000  0.83851000  0.63200000  1.0 0.8552056235
Co  Co10  1  0.36800000  0.77524000  0.66149000  1.0 0.8552056235
Co  Co11  1  0.72476000  0.33851000  0.86800000  1.0 0.8552056235
Co  Co12  1  0.63200000  0.27524000  0.83851000  1.0 0.8552056235
Co  Co13  1  0.83851000  0.86800000  0.77524000  1.0 0.8552056235
Co  Co14  1  0.66149000  0.13200000  0.27524000  1.0 0.8552056235
Co  Co15  1  0.16149000  0.36800000  0.72476000  1.0 0.8552056235
Co  Co16  1  0.33851000  0.63200000  0.22476000  1.0 0.8552056235
Co  Co17  1  0.77524000  0.83851000  0.86800000  1.0 0.8552056235
Co  Co18  1  0.86800000  0.77524000  0.83851000  1.0 0.8552056235
Co  Co19  1  0.22476000  0.33851000  0.63200000  1.0 0.8552056235
Co  Co20  1  0.13200000  0.27524000  0.66149000  1.0 0.8552056235
Co  Co21  1  0.72476000  0.16149000  0.36800000  1.0 0.8552056235
Co  Co22  1  0.63200000  0.22476000  0.33851000  1.0 0.8552056235
Co  Co23  1  0.27524000  0.66149000  0.13200000  1.0 0.8552056235
Co  Co24  1  0.36800000  0.72476000  0.16149000  1.0 0.8552056235
Co  Co25  1  0.17535000  0.23982000  0.26793000  1.0 0.88359543
Co  Co26  1  0.32465000  0.76018000  0.76793000  1.0 0.88359543
Co  Co27  1  0.82465000  0.73982000  0.23207000  1.0 0.88359543
Co  Co28  1  0.67535000  0.26018000  0.73207000  1.0 0.88359543
Co  Co29  1  0.26793000  0.17535000  0.23982000  1.0 0.88359543
Co  Co30  1  0.23982000  0.26793000  0.17535000  1.0 0.88359543
Co  Co31  1  0.73207000  0.67535000  0.26018000  1.0 0.88359543
Co  Co32  1  0.76018000  0.76793000  0.32465000  1.0 0.88359543
Co  Co33  1  0.23207000  0.82465000  0.73982000  1.0 0.88359543
Co  Co34  1  0.26018000  0.73207000  0.67535000  1.0 0.88359543
Co  Co35  1  0.76793000  0.32465000  0.76018000  1.0 0.88359543
Co  Co36  1  0.73982000  0.23207000  0.82465000  1.0 0.88359543
Co  Co37  1  0.82465000  0.76018000  0.73207000  1.0 0.88359543
Co  Co38  1  0.67535000  0.23982000  0.23207000  1.0 0.88359543
Co  Co39  1  0.17535000  0.26018000  0.76793000  1.0 0.88359543
Co  Co40  1  0.32465000  0.73982000  0.26793000  1.0 0.88359543
Co  Co41  1  0.73207000  0.82465000  0.76018000  1.0 0.88359543
Co  Co42  1  0.76018000  0.73207000  0.82465000  1.0 0.88359543
Co  Co43  1  0.26793000  0.32465000  0.73982000  1.0 0.88359543
Co  Co44  1  0.23982000  0.23207000  0.67535000  1.0 0.88359543
Co  Co45  1  0.76793000  0.17535000  0.26018000  1.0 0.88359543
Co  Co46  1  0.73982000  0.26793000  0.32465000  1.0 0.88359543
Co  Co47  1  0.23207000  0.67535000  0.23982000  1.0 0.88359543
Co  Co48  1  0.26018000  0.76793000  0.17535000  1.0 0.88359543
Co  Co49  1  0.21052000  0.14369000  0.33164000  1.0 0.7976456912
Co  Co50  1  0.28948000  0.85631000  0.83164000  1.0 0.7976456912
Co  Co51  1  0.78948000  0.64369000  0.16836000  1.0 0.7976456912
Co  Co52  1  0.71052000  0.35631000  0.66836000  1.0 0.7976456912
Co  Co53  1  0.33164000  0.21052000  0.14369000  1.0 0.7976456912
Co  Co54  1  0.14369000  0.33164000  0.21052000  1.0 0.7976456912
Co  Co55  1  0.66836000  0.71052000  0.35631000  1.0 0.7976456912
Co  Co56  1  0.85631000  0.83164000  0.28948000  1.0 0.7976456912
Co  Co57  1  0.16836000  0.78948000  0.64369000  1.0 0.7976456912
Co  Co58  1  0.35631000  0.66836000  0.71052000  1.0 0.7976456912
Co  Co59  1  0.83164000  0.28948000  0.85631000  1.0 0.7976456912
Co  Co60  1  0.64369000  0.16836000  0.78948000  1.0 0.7976456912
Co  Co61  1  0.78948000  0.85631000  0.66836000  1.0 0.7976456912
Co  Co62  1  0.71052000  0.14369000  0.16836000  1.0 0.7976456912
Co  Co63  1  0.21052000  0.35631000  0.83164000  1.0 0.7976456912
Co  Co64  1  0.28948000  0.64369000  0.33164000  1.0 0.7976456912
Co  Co65  1  0.66836000  0.78948000  0.85631000  1.0 0.7976456912
Co  Co66  1  0.85631000  0.66836000  0.78948000  1.0 0.7976456912
Co  Co67  1  0.33164000  0.28948000  0.64369000  1.0 0.7976456912
Co  Co68  1  0.14369000  0.16836000  0.71052000  1.0 0.7976456912
Co  Co69  1  0.83164000  0.21052000  0.35631000  1.0 0.7976456912
Co  Co70  1  0.64369000  0.33164000  0.28948000  1.0 0.7976456912
Co  Co71  1  0.16836000  0.71052000  0.14369000  1.0 0.7976456912
Co  Co72  1  0.35631000  0.83164000  0.21052000  1.0 0.7976456912
Co  Co73  1  0.11777000  0.11777000  0.11777000  1.0 0.7877182793
Co  Co74  1  0.38223000  0.88223000  0.61777000  1.0 0.7877182793
Co  Co75  1  0.88223000  0.61777000  0.38223000  1.0 0.7877182793
Co  Co76  1  0.61777000  0.38223000  0.88223000  1.0 0.7877182793
Co  Co77  1  0.88223000  0.88223000  0.88223000  1.0 0.7877182793
Co  Co78  1  0.61777000  0.11777000  0.38223000  1.0 0.7877182793
Co  Co79  1  0.11777000  0.38223000  0.61777000  1.0 0.7877182793
Co  Co80  1  0.38223000  0.61777000  0.11777000  1.0 0.7877182793
H  H1  1  0.93960000  0.23890000  0.37910000  1.0 0.1078349307
H  H2  1  0.56040000  0.76110000  0.87910000  1.0 0.1078349307
H  H3  1  0.06040000  0.73890000  0.12090000  1.0 0.1078349307
H  H4  1  0.43960000  0.26110000  0.62090000  1.0 0.1078349307
H  H5  1  0.37910000  0.93960000  0.23890000  1.0 0.1078349307
H  H6  1  0.23890000  0.37910000  0.93960000  1.0 0.1078349307
H  H7  1  0.62090000  0.43960000  0.26110000  1.0 0.1078349307
H  H8  1  0.76110000  0.87910000  0.56040000  1.0 0.1078349307
H  H9  1  0.12090000  0.06040000  0.73890000  1.0 0.1078349307
H  H10  1  0.26110000  0.62090000  0.43960000  1.0 0.1078349307
H  H11  1  0.87910000  0.56040000  0.76110000  1.0 0.1078349307
H  H12  1  0.73890000  0.12090000  0.06040000  1.0 0.1078349307
H  H13  1  0.06040000  0.76110000  0.62090000  1.0 0.1078349307
H  H14  1  0.43960000  0.23890000  0.12090000  1.0 0.1078349307
H  H15  1  0.93960000  0.26110000  0.87910000  1.0 0.1078349307
H  H16  1  0.56040000  0.73890000  0.37910000  1.0 0.1078349307
H  H17  1  0.62090000  0.06040000  0.76110000  1.0 0.1078349307
H  H18  1  0.76110000  0.62090000  0.06040000  1.0 0.1078349307
H  H19  1  0.37910000  0.56040000  0.73890000  1.0 0.1078349307
H  H20  1  0.23890000  0.12090000  0.43960000  1.0 0.1078349307
H  H21  1  0.87910000  0.93960000  0.26110000  1.0 0.1078349307
H  H22  1  0.73890000  0.37910000  0.56040000  1.0 0.1078349307
H  H23  1  0.12090000  0.43960000  0.23890000  1.0 0.1078349307
H  H24  1  0.26110000  0.87910000  0.93960000  1.0 0.1078349307
H  H25  1  0.01880000  0.23690000  0.34550000  1.0 0.1309321355
H  H26  1  0.48120000  0.76310000  0.84550000  1.0 0.1309321355
H  H27  1  0.98120000  0.73690000  0.15450000  1.0 0.1309321355
H  H28  1  0.51880000  0.26310000  0.65450000  1.0 0.1309321355
H  H29  1  0.34550000  0.01880000  0.23690000  1.0 0.1309321355
H  H30  1  0.23690000  0.34550000  0.01880000  1.0 0.1309321355
H  H31  1  0.65450000  0.51880000  0.26310000  1.0 0.1309321355
H  H32  1  0.76310000  0.84550000  0.48120000  1.0 0.1309321355
H  H33  1  0.15450000  0.98120000  0.73690000  1.0 0.1309321355
H  H34  1  0.26310000  0.65450000  0.51880000  1.0 0.1309321355
H  H35  1  0.84550000  0.48120000  0.76310000  1.0 0.1309321355
H  H36  1  0.73690000  0.15450000  0.98120000  1.0 0.1309321355
H  H37  1  0.98120000  0.76310000  0.65450000  1.0 0.1309321355
H  H38  1  0.51880000  0.23690000  0.15450000  1.0 0.1309321355
H  H39  1  0.01880000  0.26310000  0.84550000  1.0 0.1309321355
H  H40  1  0.48120000  0.73690000  0.34550000  1.0 0.1309321355
H  H41  1  0.65450000  0.98120000  0.76310000  1.0 0.1309321355
H  H42  1  0.76310000  0.65450000  0.98120000  1.0 0.1309321355
H  H43  1  0.34550000  0.48120000  0.73690000  1.0 0.1309321355
H  H44  1  0.23690000  0.15450000  0.51880000  1.0 0.1309321355
H  H45  1  0.84550000  0.01880000  0.26310000  1.0 0.1309321355
H  H46  1  0.73690000  0.34550000  0.48120000  1.0 0.1309321355
H  H47  1  0.15450000  0.51880000  0.23690000  1.0 0.1309321355
H  H48  1  0.26310000  0.84550000  0.01880000  1.0 0.1309321355
H  H49  1  0.88830000  0.15320000  0.27360000  1.0 0.1008789273
H  H50  1  0.61170000  0.84680000  0.77360000  1.0 0.1008789273
H  H51  1  0.11170000  0.65320000  0.22640000  1.0 0.1008789273
H  H52  1  0.38830000  0.34680000  0.72640000  1.0 0.1008789273
H  H53  1  0.27360000  0.88830000  0.15320000  1.0 0.1008789273
H  H54  1  0.15320000  0.27360000  0.88830000  1.0 0.1008789273
H  H55  1  0.72640000  0.38830000  0.34680000  1.0 0.1008789273
H  H56  1  0.84680000  0.77360000  0.61170000  1.0 0.1008789273
H  H57  1  0.22640000  0.11170000  0.65320000  1.0 0.1008789273
H  H58  1  0.34680000  0.72640000  0.38830000  1.0 0.1008789273
H  H59  1  0.77360000  0.61170000  0.84680000  1.0 0.1008789273
H  H60  1  0.65320000  0.22640000  0.11170000  1.0 0.1008789273
H  H61  1  0.11170000  0.84680000  0.72640000  1.0 0.1008789273
H  H62  1  0.38830000  0.15320000  0.22640000  1.0 0.1008789273
H  H63  1  0.88830000  0.34680000  0.77360000  1.0 0.1008789273
H  H64  1  0.61170000  0.65320000  0.27360000  1.0 0.1008789273
H  H65  1  0.72640000  0.11170000  0.84680000  1.0 0.1008789273
H  H66  1  0.84680000  0.72640000  0.11170000  1.0 0.1008789273
H  H67  1  0.27360000  0.61170000  0.65320000  1.0 0.1008789273
H  H68  1  0.15320000  0.22640000  0.38830000  1.0 0.1008789273
H  H69  1  0.77360000  0.88830000  0.34680000  1.0 0.1008789273
H  H70  1  0.65320000  0.27360000  0.61170000  1.0 0.1008789273
H  H71  1  0.22640000  0.38830000  0.15320000  1.0 0.1008789273
H  H72  1  0.34680000  0.77360000  0.88830000  1.0 0.1008789273
H  H73  1  0.96640000  0.14730000  0.23670000  1.0 0.1309321355
H  H74  1  0.53360000  0.85270000  0.73670000  1.0 0.1309321355
H  H75  1  0.03360000  0.64730000  0.26330000  1.0 0.1309321355
H  H76  1  0.46640000  0.35270000  0.76330000  1.0 0.1309321355
H  H77  1  0.23670000  0.96640000  0.14730000  1.0 0.1309321355
H  H78  1  0.14730000  0.23670000  0.96640000  1.0 0.1309321355
H  H79  1  0.76330000  0.46640000  0.35270000  1.0 0.1309321355
H  H80  1  0.85270000  0.73670000  0.53360000  1.0 0.1309321355
H  H81  1  0.26330000  0.03360000  0.64730000  1.0 0.1309321355
H  H82  1  0.35270000  0.76330000  0.46640000  1.0 0.1309321355
H  H83  1  0.73670000  0.53360000  0.85270000  1.0 0.1309321355
H  H84  1  0.64730000  0.26330000  0.03360000  1.0 0.1309321355
H  H85  1  0.03360000  0.85270000  0.76330000  1.0 0.1309321355
H  H86  1  0.46640000  0.14730000  0.26330000  1.0 0.1309321355
H  H87  1  0.96640000  0.35270000  0.73670000  1.0 0.1309321355
H  H88  1  0.53360000  0.64730000  0.23670000  1.0 0.1309321355
H  H89  1  0.76330000  0.03360000  0.85270000  1.0 0.1309321355
H  H90  1  0.85270000  0.76330000  0.03360000  1.0 0.1309321355
H  H91  1  0.23670000  0.53360000  0.64730000  1.0 0.1309321355
H  H92  1  0.14730000  0.26330000  0.46640000  1.0 0.1309321355
H  H93  1  0.73670000  0.96640000  0.35270000  1.0 0.1309321355
H  H94  1  0.64730000  0.23670000  0.53360000  1.0 0.1309321355
H  H95  1  0.26330000  0.46640000  0.14730000  1.0 0.1309321355
H  H96  1  0.35270000  0.73670000  0.96640000  1.0 0.1309321355
H  H97  1  0.03960000  0.26040000  0.22330000  1.0 0.0892854324
H  H98  1  0.46040000  0.73960000  0.72330000  1.0 0.0892854324
H  H99  1  0.96040000  0.76040000  0.27670000  1.0 0.0892854324
H  H100  1  0.53960000  0.23960000  0.77670000  1.0 0.0892854324
H  H101  1  0.22330000  0.03960000  0.26040000  1.0 0.0892854324
H  H102  1  0.26040000  0.22330000  0.03960000  1.0 0.0892854324
H  H103  1  0.77670000  0.53960000  0.23960000  1.0 0.0892854324
H  H104  1  0.73960000  0.72330000  0.46040000  1.0 0.0892854324
H  H105  1  0.27670000  0.96040000  0.76040000  1.0 0.0892854324
H  H106  1  0.23960000  0.77670000  0.53960000  1.0 0.0892854324
H  H107  1  0.72330000  0.46040000  0.73960000  1.0 0.0892854324
H  H108  1  0.76040000  0.27670000  0.96040000  1.0 0.0892854324
H  H109  1  0.96040000  0.73960000  0.77670000  1.0 0.0892854324
H  H110  1  0.53960000  0.26040000  0.27670000  1.0 0.0892854324
H  H111  1  0.03960000  0.23960000  0.72330000  1.0 0.0892854324
H  H112  1  0.46040000  0.76040000  0.22330000  1.0 0.0892854324
H  H113  1  0.77670000  0.96040000  0.73960000  1.0 0.0892854324
H  H114  1  0.73960000  0.77670000  0.96040000  1.0 0.0892854324
H  H115  1  0.22330000  0.46040000  0.76040000  1.0 0.0892854324
H  H116  1  0.26040000  0.27670000  0.53960000  1.0 0.0892854324
H  H117  1  0.72330000  0.03960000  0.23960000  1.0 0.0892854324
H  H118  1  0.76040000  0.22330000  0.46040000  1.0 0.0892854324
H  H119  1  0.27670000  0.53960000  0.26040000  1.0 0.0892854324
H  H120  1  0.23960000  0.72330000  0.03960000  1.0 0.0892854324
H  H121  1  0.06160000  0.27060000  0.27730000  1.0 0.0892854324
H  H122  1  0.43840000  0.72940000  0.77730000  1.0 0.0892854324
H  H123  1  0.93840000  0.77060000  0.22270000  1.0 0.0892854324
H  H124  1  0.56160000  0.22940000  0.72270000  1.0 0.0892854324
H  H125  1  0.27730000  0.06160000  0.27060000  1.0 0.0892854324
H  H126  1  0.27060000  0.27730000  0.06160000  1.0 0.0892854324
H  H127  1  0.72270000  0.56160000  0.22940000  1.0 0.0892854324
H  H128  1  0.72940000  0.77730000  0.43840000  1.0 0.0892854324
H  H129  1  0.22270000  0.93840000  0.77060000  1.0 0.0892854324
H  H130  1  0.22940000  0.72270000  0.56160000  1.0 0.0892854324
H  H131  1  0.77730000  0.43840000  0.72940000  1.0 0.0892854324
H  H132  1  0.77060000  0.22270000  0.93840000  1.0 0.0892854324
H  H133  1  0.93840000  0.72940000  0.72270000  1.0 0.0892854324
H  H134  1  0.56160000  0.27060000  0.22270000  1.0 0.0892854324
H  H135  1  0.06160000  0.22940000  0.77730000  1.0 0.0892854324
H  H136  1  0.43840000  0.77060000  0.27730000  1.0 0.0892854324
H  H137  1  0.72270000  0.93840000  0.72940000  1.0 0.0892854324
H  H138  1  0.72940000  0.72270000  0.93840000  1.0 0.0892854324
H  H139  1  0.27730000  0.43840000  0.77060000  1.0 0.0892854324
H  H140  1  0.27060000  0.22270000  0.56160000  1.0 0.0892854324
H  H141  1  0.77730000  0.06160000  0.22940000  1.0 0.0892854324
H  H142  1  0.77060000  0.27730000  0.43840000  1.0 0.0892854324
H  H143  1  0.22270000  0.56160000  0.27060000  1.0 0.0892854324
H  H144  1  0.22940000  0.77730000  0.06160000  1.0 0.0892854324
H  H145  1  0.08860000  0.19290000  0.33360000  1.0 0.0801360885
H  H146  1  0.41140000  0.80710000  0.83360000  1.0 0.0801360885
H  H147  1  0.91140000  0.69290000  0.16640000  1.0 0.0801360885
H  H148  1  0.58860000  0.30710000  0.66640000  1.0 0.0801360885
H  H149  1  0.33360000  0.08860000  0.19290000  1.0 0.0801360885
H  H150  1  0.19290000  0.33360000  0.08860000  1.0 0.0801360885
H  H151  1  0.66640000  0.58860000  0.30710000  1.0 0.0801360885
H  H152  1  0.80710000  0.83360000  0.41140000  1.0 0.0801360885
H  H153  1  0.16640000  0.91140000  0.69290000  1.0 0.0801360885
H  H154  1  0.30710000  0.66640000  0.58860000  1.0 0.0801360885
H  H155  1  0.83360000  0.41140000  0.80710000  1.0 0.0801360885
H  H156  1  0.69290000  0.16640000  0.91140000  1.0 0.0801360885
H  H157  1  0.91140000  0.80710000  0.66640000  1.0 0.0801360885
H  H158  1  0.58860000  0.19290000  0.16640000  1.0 0.0801360885
H  H159  1  0.08860000  0.30710000  0.83360000  1.0 0.0801360885
H  H160  1  0.41140000  0.69290000  0.33360000  1.0 0.0801360885
H  H161  1  0.66640000  0.91140000  0.80710000  1.0 0.0801360885
H  H162  1  0.80710000  0.66640000  0.91140000  1.0 0.0801360885
H  H163  1  0.33360000  0.41140000  0.69290000  1.0 0.0801360885
H  H164  1  0.19290000  0.16640000  0.58860000  1.0 0.0801360885
H  H165  1  0.83360000  0.08860000  0.30710000  1.0 0.0801360885
H  H166  1  0.69290000  0.33360000  0.41140000  1.0 0.0801360885
H  H167  1  0.16640000  0.58860000  0.19290000  1.0 0.0801360885
H  H168  1  0.30710000  0.83360000  0.08860000  1.0 0.0801360885
H  H169  1  0.08210000  0.13830000  0.31170000  1.0 0.0892854324
H  H170  1  0.41790000  0.86170000  0.81170000  1.0 0.0892854324
H  H171  1  0.91790000  0.63830000  0.18830000  1.0 0.0892854324
H  H172  1  0.58210000  0.36170000  0.68830000  1.0 0.0892854324
H  H173  1  0.31170000  0.08210000  0.13830000  1.0 0.0892854324
H  H174  1  0.13830000  0.31170000  0.08210000  1.0 0.0892854324
H  H175  1  0.68830000  0.58210000  0.36170000  1.0 0.0892854324
H  H176  1  0.86170000  0.81170000  0.41790000  1.0 0.0892854324
H  H177  1  0.18830000  0.91790000  0.63830000  1.0 0.0892854324
H  H178  1  0.36170000  0.68830000  0.58210000  1.0 0.0892854324
H  H179  1  0.81170000  0.41790000  0.86170000  1.0 0.0892854324
H  H180  1  0.63830000  0.18830000  0.91790000  1.0 0.0892854324
H  H181  1  0.91790000  0.86170000  0.68830000  1.0 0.0892854324
H  H182  1  0.58210000  0.13830000  0.18830000  1.0 0.0892854324
H  H183  1  0.08210000  0.36170000  0.81170000  1.0 0.0892854324
H  H184  1  0.41790000  0.63830000  0.31170000  1.0 0.0892854324
H  H185  1  0.68830000  0.91790000  0.86170000  1.0 0.0892854324
H  H186  1  0.86170000  0.68830000  0.91790000  1.0 0.0892854324
H  H187  1  0.31170000  0.41790000  0.63830000  1.0 0.0892854324
H  H188  1  0.13830000  0.18830000  0.58210000  1.0 0.0892854324
H  H189  1  0.81170000  0.08210000  0.36170000  1.0 0.0892854324
H  H190  1  0.63830000  0.31170000  0.41790000  1.0 0.0892854324
H  H191  1  0.18830000  0.58210000  0.13830000  1.0 0.0892854324
H  H192  1  0.36170000  0.81170000  0.08210000  1.0 0.0892854324
H  H193  1  0.04630000  0.12550000  0.22330000  1.0 0.0732210862
H  H194  1  0.45370000  0.87450000  0.72330000  1.0 0.0732210862
H  H195  1  0.95370000  0.62550000  0.27670000  1.0 0.0732210862
H  H196  1  0.54630000  0.37450000  0.77670000  1.0 0.0732210862
H  H197  1  0.22330000  0.04630000  0.12550000  1.0 0.0732210862
H  H198  1  0.12550000  0.22330000  0.04630000  1.0 0.0732210862
H  H199  1  0.77670000  0.54630000  0.37450000  1.0 0.0732210862
H  H200  1  0.87450000  0.72330000  0.45370000  1.0 0.0732210862
H  H201  1  0.27670000  0.95370000  0.62550000  1.0 0.0732210862
H  H202  1  0.37450000  0.77670000  0.54630000  1.0 0.0732210862
H  H203  1  0.72330000  0.45370000  0.87450000  1.0 0.0732210862
H  H204  1  0.62550000  0.27670000  0.95370000  1.0 0.0732210862
H  H205  1  0.95370000  0.87450000  0.77670000  1.0 0.0732210862
H  H206  1  0.54630000  0.12550000  0.27670000  1.0 0.0732210862
H  H207  1  0.04630000  0.37450000  0.72330000  1.0 0.0732210862
H  H208  1  0.45370000  0.62550000  0.22330000  1.0 0.0732210862
H  H209  1  0.77670000  0.95370000  0.87450000  1.0 0.0732210862
H  H210  1  0.87450000  0.77670000  0.95370000  1.0 0.0732210862
H  H211  1  0.22330000  0.45370000  0.62550000  1.0 0.0732210862
H  H212  1  0.12550000  0.27670000  0.54630000  1.0 0.0732210862
H  H213  1  0.72330000  0.04630000  0.37450000  1.0 0.0732210862
H  H214  1  0.62550000  0.22330000  0.45370000  1.0 0.0732210862
H  H215  1  0.27670000  0.54630000  0.12550000  1.0 0.0732210862
H  H216  1  0.37450000  0.72330000  0.04630000  1.0 0.0732210862
H  H217  1  0.02890000  0.17190000  0.19100000  1.0 0.0801360885
H  H218  1  0.47110000  0.82810000  0.69100000  1.0 0.0801360885
H  H219  1  0.97110000  0.67190000  0.30900000  1.0 0.0801360885
H  H220  1  0.52890000  0.32810000  0.80900000  1.0 0.0801360885
H  H221  1  0.19100000  0.02890000  0.17190000  1.0 0.0801360885
H  H222  1  0.17190000  0.19100000  0.02890000  1.0 0.0801360885
H  H223  1  0.80900000  0.52890000  0.32810000  1.0 0.0801360885
H  H224  1  0.82810000  0.69100000  0.47110000  1.0 0.0801360885
H  H225  1  0.30900000  0.97110000  0.67190000  1.0 0.0801360885
H  H226  1  0.32810000  0.80900000  0.52890000  1.0 0.0801360885
H  H227  1  0.69100000  0.47110000  0.82810000  1.0 0.0801360885
H  H228  1  0.67190000  0.30900000  0.97110000  1.0 0.0801360885
H  H229  1  0.97110000  0.82810000  0.80900000  1.0 0.0801360885
H  H230  1  0.52890000  0.17190000  0.30900000  1.0 0.0801360885
H  H231  1  0.02890000  0.32810000  0.69100000  1.0 0.0801360885
H  H232  1  0.47110000  0.67190000  0.19100000  1.0 0.0801360885
H  H233  1  0.80900000  0.97110000  0.82810000  1.0 0.0801360885
H  H234  1  0.82810000  0.80900000  0.97110000  1.0 0.0801360885
H  H235  1  0.19100000  0.47110000  0.67190000  1.0 0.0801360885
H  H236  1  0.17190000  0.30900000  0.52890000  1.0 0.0801360885
H  H237  1  0.69100000  0.02890000  0.32810000  1.0 0.0801360885
H  H238  1  0.67190000  0.19100000  0.47110000  1.0 0.0801360885
H  H239  1  0.30900000  0.52890000  0.17190000  1.0 0.0801360885
H  H240  1  0.32810000  0.69100000  0.02890000  1.0 0.0801360885
H  H241  1  0.29780000  0.23130000  0.34170000  1.0 0.1008789273
H  H242  1  0.20220000  0.76870000  0.84170000  1.0 0.1008789273
H  H243  1  0.70220000  0.73130000  0.15830000  1.0 0.1008789273
H  H244  1  0.79780000  0.26870000  0.65830000  1.0 0.1008789273
H  H245  1  0.34170000  0.29780000  0.23130000  1.0 0.1008789273
H  H246  1  0.23130000  0.34170000  0.29780000  1.0 0.1008789273
H  H247  1  0.65830000  0.79780000  0.26870000  1.0 0.1008789273
H  H248  1  0.76870000  0.84170000  0.20220000  1.0 0.1008789273
H  H249  1  0.15830000  0.70220000  0.73130000  1.0 0.1008789273
H  H250  1  0.26870000  0.65830000  0.79780000  1.0 0.1008789273
H  H251  1  0.84170000  0.20220000  0.76870000  1.0 0.1008789273
H  H252  1  0.73130000  0.15830000  0.70220000  1.0 0.1008789273
H  H253  1  0.70220000  0.76870000  0.65830000  1.0 0.1008789273
H  H254  1  0.79780000  0.23130000  0.15830000  1.0 0.1008789273
H  H255  1  0.29780000  0.26870000  0.84170000  1.0 0.1008789273
H  H256  1  0.20220000  0.73130000  0.34170000  1.0 0.1008789273
H  H257  1  0.65830000  0.70220000  0.76870000  1.0 0.1008789273
H  H258  1  0.76870000  0.65830000  0.70220000  1.0 0.1008789273
H  H259  1  0.34170000  0.20220000  0.73130000  1.0 0.1008789273
H  H260  1  0.23130000  0.15830000  0.79780000  1.0 0.1008789273
H  H261  1  0.84170000  0.29780000  0.26870000  1.0 0.1008789273
H  H262  1  0.73130000  0.34170000  0.20220000  1.0 0.1008789273
H  H263  1  0.15830000  0.79780000  0.23130000  1.0 0.1008789273
H  H264  1  0.26870000  0.84170000  0.29780000  1.0 0.1008789273
H  H265  1  0.25060000  0.26500000  0.35320000  1.0 0.1008789273
H  H266  1  0.24940000  0.73500000  0.85320000  1.0 0.1008789273
H  H267  1  0.74940000  0.76500000  0.14680000  1.0 0.1008789273
H  H268  1  0.75060000  0.23500000  0.64680000  1.0 0.1008789273
H  H269  1  0.35320000  0.25060000  0.26500000  1.0 0.1008789273
H  H270  1  0.26500000  0.35320000  0.25060000  1.0 0.1008789273
H  H271  1  0.64680000  0.75060000  0.23500000  1.0 0.1008789273
H  H272  1  0.73500000  0.85320000  0.24940000  1.0 0.1008789273
H  H273  1  0.14680000  0.74940000  0.76500000  1.0 0.1008789273
H  H274  1  0.23500000  0.64680000  0.75060000  1.0 0.1008789273
H  H275  1  0.85320000  0.24940000  0.73500000  1.0 0.1008789273
H  H276  1  0.76500000  0.14680000  0.74940000  1.0 0.1008789273
H  H277  1  0.74940000  0.73500000  0.64680000  1.0 0.1008789273
H  H278  1  0.75060000  0.26500000  0.14680000  1.0 0.1008789273
H  H279  1  0.25060000  0.23500000  0.85320000  1.0 0.1008789273
H  H280  1  0.24940000  0.76500000  0.35320000  1.0 0.1008789273
H  H281  1  0.64680000  0.74940000  0.73500000  1.0 0.1008789273
H  H282  1  0.73500000  0.64680000  0.74940000  1.0 0.1008789273
H  H283  1  0.35320000  0.24940000  0.76500000  1.0 0.1008789273
H  H284  1  0.26500000  0.14680000  0.75060000  1.0 0.1008789273
H  H285  1  0.85320000  0.25060000  0.23500000  1.0 0.1008789273
H  H286  1  0.76500000  0.35320000  0.24940000  1.0 0.1008789273
H  H287  1  0.14680000  0.75060000  0.26500000  1.0 0.1008789273
H  H288  1  0.23500000  0.85320000  0.25060000  1.0 0.1008789273
H  H289  1  0.31060000  0.29180000  0.39220000  1.0 0.1078349307
H  H290  1  0.18940000  0.70820000  0.89220000  1.0 0.1078349307
H  H291  1  0.68940000  0.79180000  0.10780000  1.0 0.1078349307
H  H292  1  0.81060000  0.20820000  0.60780000  1.0 0.1078349307
H  H293  1  0.39220000  0.31060000  0.29180000  1.0 0.1078349307
H  H294  1  0.29180000  0.39220000  0.31060000  1.0 0.1078349307
H  H295  1  0.60780000  0.81060000  0.20820000  1.0 0.1078349307
H  H296  1  0.70820000  0.89220000  0.18940000  1.0 0.1078349307
H  H297  1  0.10780000  0.68940000  0.79180000  1.0 0.1078349307
H  H298  1  0.20820000  0.60780000  0.81060000  1.0 0.1078349307
H  H299  1  0.89220000  0.18940000  0.70820000  1.0 0.1078349307
H  H300  1  0.79180000  0.10780000  0.68940000  1.0 0.1078349307
H  H301  1  0.68940000  0.70820000  0.60780000  1.0 0.1078349307
H  H302  1  0.81060000  0.29180000  0.10780000  1.0 0.1078349307
H  H303  1  0.31060000  0.20820000  0.89220000  1.0 0.1078349307
H  H304  1  0.18940000  0.79180000  0.39220000  1.0 0.1078349307
H  H305  1  0.60780000  0.68940000  0.70820000  1.0 0.1078349307
H  H306  1  0.70820000  0.60780000  0.68940000  1.0 0.1078349307
H  H307  1  0.39220000  0.18940000  0.79180000  1.0 0.1078349307
H  H308  1  0.29180000  0.10780000  0.81060000  1.0 0.1078349307
H  H309  1  0.89220000  0.31060000  0.20820000  1.0 0.1078349307
H  H310  1  0.79180000  0.39220000  0.18940000  1.0 0.1078349307
H  H311  1  0.10780000  0.81060000  0.29180000  1.0 0.1078349307
H  H312  1  0.20820000  0.89220000  0.31060000  1.0 0.1078349307
H  H313  1  0.36100000  0.34290000  0.44280000  1.0 0.0892854324
H  H314  1  0.13900000  0.65710000  0.94280000  1.0 0.0892854324
H  H315  1  0.63900000  0.84290000  0.05720000  1.0 0.0892854324
H  H316  1  0.86100000  0.15710000  0.55720000  1.0 0.0892854324
H  H317  1  0.44280000  0.36100000  0.34290000  1.0 0.0892854324
H  H318  1  0.34290000  0.44280000  0.36100000  1.0 0.0892854324
H  H319  1  0.55720000  0.86100000  0.15710000  1.0 0.0892854324
H  H320  1  0.65710000  0.94280000  0.13900000  1.0 0.0892854324
H  H321  1  0.05720000  0.63900000  0.84290000  1.0 0.0892854324
H  H322  1  0.15710000  0.55720000  0.86100000  1.0 0.0892854324
H  H323  1  0.94280000  0.13900000  0.65710000  1.0 0.0892854324
H  H324  1  0.84290000  0.05720000  0.63900000  1.0 0.0892854324
H  H325  1  0.63900000  0.65710000  0.55720000  1.0 0.0892854324
H  H326  1  0.86100000  0.34290000  0.05720000  1.0 0.0892854324
H  H327  1  0.36100000  0.15710000  0.94280000  1.0 0.0892854324
H  H328  1  0.13900000  0.84290000  0.44280000  1.0 0.0892854324
H  H329  1  0.55720000  0.63900000  0.65710000  1.0 0.0892854324
H  H330  1  0.65710000  0.55720000  0.63900000  1.0 0.0892854324
H  H331  1  0.44280000  0.13900000  0.84290000  1.0 0.0892854324
H  H332  1  0.34290000  0.05720000  0.86100000  1.0 0.0892854324
H  H333  1  0.94280000  0.36100000  0.15710000  1.0 0.0892854324
H  H334  1  0.84290000  0.44280000  0.13900000  1.0 0.0892854324
H  H335  1  0.05720000  0.86100000  0.34290000  1.0 0.0892854324
H  H336  1  0.15710000  0.94280000  0.36100000  1.0 0.0892854324
H  H337  1  0.40160000  0.41890000  0.32090000  1.0 0.0801360885
H  H338  1  0.09840000  0.58110000  0.82090000  1.0 0.0801360885
H  H339  1  0.59840000  0.91890000  0.17910000  1.0 0.0892854324
H  H340  1  0.90160000  0.08110000  0.67910000  1.0 0.0892854324
H  H341  1  0.32090000  0.40160000  0.41890000  1.0 0.0801360885
H  H342  1  0.41890000  0.32090000  0.40160000  1.0 0.0801360885
H  H343  1  0.67910000  0.90160000  0.08110000  1.0 0.0892854324
H  H344  1  0.58110000  0.82090000  0.09840000  1.0 0.0801360885
H  H345  1  0.17910000  0.59840000  0.91890000  1.0 0.0892854324
H  H346  1  0.08110000  0.67910000  0.90160000  1.0 0.0892854324
H  H347  1  0.82090000  0.09840000  0.58110000  1.0 0.0801360885
H  H348  1  0.91890000  0.17910000  0.59840000  1.0 0.0892854324
H  H349  1  0.59840000  0.58110000  0.67910000  1.0 0.0892854324
H  H350  1  0.90160000  0.41890000  0.17910000  1.0 0.0892854324
H  H351  1  0.40160000  0.08110000  0.82090000  1.0 0.0801360885
H  H352  1  0.09840000  0.91890000  0.32090000  1.0 0.0892854324
H  H353  1  0.67910000  0.59840000  0.58110000  1.0 0.0892854324
H  H354  1  0.58110000  0.67910000  0.59840000  1.0 0.0892854324
H  H355  1  0.32090000  0.09840000  0.91890000  1.0 0.0892854324
H  H356  1  0.41890000  0.17910000  0.90160000  1.0 0.0892854324
H  H357  1  0.82090000  0.40160000  0.08110000  1.0 0.0801360885
H  H358  1  0.91890000  0.32090000  0.09840000  1.0 0.0892854324
H  H359  1  0.17910000  0.90160000  0.41890000  1.0 0.0892854324
H  H360  1  0.08110000  0.82090000  0.40160000  1.0 0.0801360885
H  H361  1  0.35030000  0.37140000  0.26750000  1.0 0.1008789273
H  H362  1  0.14970000  0.62860000  0.76750000  1.0 0.1008789273
H  H363  1  0.64970000  0.87140000  0.23250000  1.0 0.1008789273
H  H364  1  0.85030000  0.12860000  0.73250000  1.0 0.1008789273
H  H365  1  0.26750000  0.35030000  0.37140000  1.0 0.1008789273
H  H366  1  0.37140000  0.26750000  0.35030000  1.0 0.1008789273
H  H367  1  0.73250000  0.85030000  0.12860000  1.0 0.1008789273
H  H368  1  0.62860000  0.76750000  0.14970000  1.0 0.1008789273
H  H369  1  0.23250000  0.64970000  0.87140000  1.0 0.1008789273
H  H370  1  0.12860000  0.73250000  0.85030000  1.0 0.1008789273
H  H371  1  0.76750000  0.14970000  0.62860000  1.0 0.1008789273
H  H372  1  0.87140000  0.23250000  0.64970000  1.0 0.1008789273
H  H373  1  0.64970000  0.62860000  0.73250000  1.0 0.1008789273
H  H374  1  0.85030000  0.37140000  0.23250000  1.0 0.1008789273
H  H375  1  0.35030000  0.12860000  0.76750000  1.0 0.1008789273
H  H376  1  0.14970000  0.87140000  0.26750000  1.0 0.1008789273
H  H377  1  0.73250000  0.64970000  0.62860000  1.0 0.1008789273
H  H378  1  0.62860000  0.73250000  0.64970000  1.0 0.1008789273
H  H379  1  0.26750000  0.14970000  0.87140000  1.0 0.1008789273
H  H380  1  0.37140000  0.23250000  0.85030000  1.0 0.1008789273
H  H381  1  0.76750000  0.35030000  0.12860000  1.0 0.1008789273
H  H382  1  0.87140000  0.26750000  0.14970000  1.0 0.1008789273
H  H383  1  0.23250000  0.85030000  0.37140000  1.0 0.1008789273
H  H384  1  0.12860000  0.76750000  0.35030000  1.0 0.1008789273
H  H385  1  0.11620000  0.34110000  0.39940000  1.0 0.0892854324
H  H386  1  0.38380000  0.65890000  0.89940000  1.0 0.0892854324
H  H387  1  0.88380000  0.84110000  0.10060000  1.0 0.0892854324
H  H388  1  0.61620000  0.15890000  0.60060000  1.0 0.0892854324
H  H389  1  0.39940000  0.11620000  0.34110000  1.0 0.0892854324
H  H390  1  0.34110000  0.39940000  0.11620000  1.0 0.0892854324
H  H391  1  0.60060000  0.61620000  0.15890000  1.0 0.0892854324
H  H392  1  0.65890000  0.89940000  0.38380000  1.0 0.0892854324
H  H393  1  0.10060000  0.88380000  0.84110000  1.0 0.0892854324
H  H394  1  0.15890000  0.60060000  0.61620000  1.0 0.0892854324
H  H395  1  0.89940000  0.38380000  0.65890000  1.0 0.0892854324
H  H396  1  0.84110000  0.10060000  0.88380000  1.0 0.0892854324
H  H397  1  0.88380000  0.65890000  0.60060000  1.0 0.0892854324
H  H398  1  0.61620000  0.34110000  0.10060000  1.0 0.0892854324
H  H399  1  0.11620000  0.15890000  0.89940000  1.0 0.0892854324
H  H400  1  0.38380000  0.84110000  0.39940000  1.0 0.0892854324
H  H401  1  0.60060000  0.88380000  0.65890000  1.0 0.0892854324
H  H402  1  0.65890000  0.60060000  0.88380000  1.0 0.0892854324
H  H403  1  0.39940000  0.38380000  0.84110000  1.0 0.0892854324
H  H404  1  0.34110000  0.10060000  0.61620000  1.0 0.0892854324
H  H405  1  0.89940000  0.11620000  0.15890000  1.0 0.0892854324
H  H406  1  0.84110000  0.39940000  0.38380000  1.0 0.0892854324
H  H407  1  0.10060000  0.61620000  0.34110000  1.0 0.0892854324
H  H408  1  0.15890000  0.89940000  0.11620000  1.0 0.0892854324
H  H409  1  0.11860000  0.39220000  0.36950000  1.0 0.0641380633
H  H410  1  0.38140000  0.60780000  0.86950000  1.0 0.0641380633
H  H411  1  0.88140000  0.89220000  0.13050000  1.0 0.0641380633
H  H412  1  0.61860000  0.10780000  0.63050000  1.0 0.0641380633
H  H413  1  0.36950000  0.11860000  0.39220000  1.0 0.0641380633
H  H414  1  0.39220000  0.36950000  0.11860000  1.0 0.0641380633
H  H415  1  0.63050000  0.61860000  0.10780000  1.0 0.0641380633
H  H416  1  0.60780000  0.86950000  0.38140000  1.0 0.0641380633
H  H417  1  0.13050000  0.88140000  0.89220000  1.0 0.0641380633
H  H418  1  0.10780000  0.63050000  0.61860000  1.0 0.0641380633
H  H419  1  0.86950000  0.38140000  0.60780000  1.0 0.0641380633
H  H420  1  0.89220000  0.13050000  0.88140000  1.0 0.0641380633
H  H421  1  0.88140000  0.60780000  0.63050000  1.0 0.0641380633
H  H422  1  0.61860000  0.39220000  0.13050000  1.0 0.0641380633
H  H423  1  0.11860000  0.10780000  0.86950000  1.0 0.0641380633
H  H424  1  0.38140000  0.89220000  0.36950000  1.0 0.0641380633
H  H425  1  0.63050000  0.88140000  0.60780000  1.0 0.0641380633
H  H426  1  0.60780000  0.63050000  0.88140000  1.0 0.0641380633
H  H427  1  0.36950000  0.38140000  0.89220000  1.0 0.0641380633
H  H428  1  0.39220000  0.13050000  0.61860000  1.0 0.0641380633
H  H429  1  0.86950000  0.11860000  0.10780000  1.0 0.0641380633
H  H430  1  0.89220000  0.36950000  0.38140000  1.0 0.0641380633
H  H431  1  0.13050000  0.61860000  0.39220000  1.0 0.0641380633
H  H432  1  0.10780000  0.86950000  0.11860000  1.0 0.0641380633
H  H433  1  0.16860000  0.36330000  0.38290000  1.0 0.0801360885
H  H434  1  0.33140000  0.63670000  0.88290000  1.0 0.0801360885
H  H435  1  0.83140000  0.86330000  0.11710000  1.0 0.0801360885
H  H436  1  0.66860000  0.13670000  0.61710000  1.0 0.0801360885
H  H437  1  0.38290000  0.16860000  0.36330000  1.0 0.0801360885
H  H438  1  0.36330000  0.38290000  0.16860000  1.0 0.0801360885
H  H439  1  0.61710000  0.66860000  0.13670000  1.0 0.0801360885
H  H440  1  0.63670000  0.88290000  0.33140000  1.0 0.0801360885
H  H441  1  0.11710000  0.83140000  0.86330000  1.0 0.0801360885
H  H442  1  0.13670000  0.61710000  0.66860000  1.0 0.0801360885
H  H443  1  0.88290000  0.33140000  0.63670000  1.0 0.0801360885
H  H444  1  0.86330000  0.11710000  0.83140000  1.0 0.0801360885
H  H445  1  0.83140000  0.63670000  0.61710000  1.0 0.0801360885
H  H446  1  0.66860000  0.36330000  0.11710000  1.0 0.0801360885
H  H447  1  0.16860000  0.13670000  0.88290000  1.0 0.0801360885
H  H448  1  0.33140000  0.86330000  0.38290000  1.0 0.0801360885
H  H449  1  0.61710000  0.83140000  0.63670000  1.0 0.0801360885
H  H450  1  0.63670000  0.61710000  0.83140000  1.0 0.0801360885
H  H451  1  0.38290000  0.33140000  0.86330000  1.0 0.0801360885
H  H452  1  0.36330000  0.11710000  0.66860000  1.0 0.0801360885
H  H453  1  0.88290000  0.16860000  0.13670000  1.0 0.0801360885
H  H454  1  0.86330000  0.38290000  0.33140000  1.0 0.0801360885
H  H455  1  0.11710000  0.66860000  0.36330000  1.0 0.0801360885
H  H456  1  0.13670000  0.88290000  0.16860000  1.0 0.0801360885
H  H457  1  0.10250000  0.38760000  0.36670000  1.0 0.0641380633
H  H458  1  0.39750000  0.61240000  0.86670000  1.0 0.0732210862
H  H459  1  0.89750000  0.88760000  0.13330000  1.0 0.0732210862
H  H460  1  0.60250000  0.11240000  0.63330000  1.0 0.0641380633
H  H461  1  0.36670000  0.10250000  0.38760000  1.0 0.0641380633
H  H462  1  0.38760000  0.36670000  0.10250000  1.0 0.0641380633
H  H463  1  0.63330000  0.60250000  0.11240000  1.0 0.0641380633
H  H464  1  0.61240000  0.86670000  0.39750000  1.0 0.0732210862
H  H465  1  0.13330000  0.89750000  0.88760000  1.0 0.0641380633
H  H466  1  0.11240000  0.63330000  0.60250000  1.0 0.0641380633
H  H467  1  0.86670000  0.39750000  0.61240000  1.0 0.0732210862
H  H468  1  0.88760000  0.13330000  0.89750000  1.0 0.0732210862
H  H469  1  0.89750000  0.61240000  0.63330000  1.0 0.0641380633
H  H470  1  0.60250000  0.38760000  0.13330000  1.0 0.0641380633
H  H471  1  0.10250000  0.11240000  0.86670000  1.0 0.0732210862
H  H472  1  0.39750000  0.88760000  0.36670000  1.0 0.0641380633
H  H473  1  0.63330000  0.89750000  0.61240000  1.0 0.0641380633
H  H474  1  0.61240000  0.63330000  0.89750000  1.0 0.0641380633
H  H475  1  0.36670000  0.39750000  0.88760000  1.0 0.0732210862
H  H476  1  0.38760000  0.13330000  0.60250000  1.0 0.0641380633
H  H477  1  0.86670000  0.10250000  0.11240000  1.0 0.0732210862
H  H478  1  0.88760000  0.36670000  0.39750000  1.0 0.0732210862
H  H479  1  0.13330000  0.60250000  0.38760000  1.0 0.0641380633
H  H480  1  0.11240000  0.86670000  0.10250000  1.0 0.0641380633
H  H481  1  0.12820000  0.34500000  0.39890000  1.0 0.0801360885
H  H482  1  0.37180000  0.65500000  0.89890000  1.0 0.0801360885
H  H483  1  0.87180000  0.84500000  0.10110000  1.0 0.0801360885
H  H484  1  0.62820000  0.15500000  0.60110000  1.0 0.0801360885
H  H485  1  0.39890000  0.12820000  0.34500000  1.0 0.0801360885
H  H486  1  0.34500000  0.39890000  0.12820000  1.0 0.0801360885
H  H487  1  0.60110000  0.62820000  0.15500000  1.0 0.0801360885
H  H488  1  0.65500000  0.89890000  0.37180000  1.0 0.0801360885
H  H489  1  0.10110000  0.87180000  0.84500000  1.0 0.0801360885
H  H490  1  0.15500000  0.60110000  0.62820000  1.0 0.0801360885
H  H491  1  0.89890000  0.37180000  0.65500000  1.0 0.0801360885
H  H492  1  0.84500000  0.10110000  0.87180000  1.0 0.0801360885
H  H493  1  0.87180000  0.65500000  0.60110000  1.0 0.0801360885
H  H494  1  0.62820000  0.34500000  0.10110000  1.0 0.0801360885
H  H495  1  0.12820000  0.15500000  0.89890000  1.0 0.0801360885
H  H496  1  0.37180000  0.84500000  0.39890000  1.0 0.0801360885
H  H497  1  0.60110000  0.87180000  0.65500000  1.0 0.0801360885
H  H498  1  0.65500000  0.60110000  0.87180000  1.0 0.0801360885
H  H499  1  0.39890000  0.37180000  0.84500000  1.0 0.0801360885
H  H500  1  0.34500000  0.10110000  0.62820000  1.0 0.0801360885
H  H501  1  0.89890000  0.12820000  0.15500000  1.0 0.0801360885
H  H502  1  0.84500000  0.39890000  0.37180000  1.0 0.0801360885
H  H503  1  0.10110000  0.62820000  0.34500000  1.0 0.0801360885
H  H504  1  0.15500000  0.89890000  0.12820000  1.0 0.0801360885
H  H505  1  0.07420000  0.33630000  0.37600000  1.0 0.0801360885
H  H506  1  0.42580000  0.66370000  0.87600000  1.0 0.0801360885
H  H507  1  0.92580000  0.83630000  0.12400000  1.0 0.0801360885
H  H508  1  0.57420000  0.16370000  0.62400000  1.0 0.0801360885
H  H509  1  0.37600000  0.07420000  0.33630000  1.0 0.0801360885
H  H510  1  0.33630000  0.37600000  0.07420000  1.0 0.0801360885
H  H511  1  0.62400000  0.57420000  0.16370000  1.0 0.0801360885
H  H512  1  0.66370000  0.87600000  0.42580000  1.0 0.0801360885
H  H513  1  0.12400000  0.92580000  0.83630000  1.0 0.0801360885
H  H514  1  0.16370000  0.62400000  0.57420000  1.0 0.0801360885
H  H515  1  0.87600000  0.42580000  0.66370000  1.0 0.0801360885
H  H516  1  0.83630000  0.12400000  0.92580000  1.0 0.0801360885
H  H517  1  0.92580000  0.66370000  0.62400000  1.0 0.0801360885
H  H518  1  0.57420000  0.33630000  0.12400000  1.0 0.0801360885
H  H519  1  0.07420000  0.16370000  0.87600000  1.0 0.0801360885
H  H520  1  0.42580000  0.83630000  0.37600000  1.0 0.0801360885
H  H521  1  0.62400000  0.92580000  0.66370000  1.0 0.0801360885
H  H522  1  0.66370000  0.62400000  0.92580000  1.0 0.0801360885
H  H523  1  0.37600000  0.42580000  0.83630000  1.0 0.0801360885
H  H524  1  0.33630000  0.12400000  0.57420000  1.0 0.0801360885
H  H525  1  0.87600000  0.07420000  0.16370000  1.0 0.0801360885
H  H526  1  0.83630000  0.37600000  0.42580000  1.0 0.0801360885
H  H527  1  0.12400000  0.57420000  0.33630000  1.0 0.0801360885
H  H528  1  0.16370000  0.87600000  0.07420000  1.0 0.0801360885
C  C1  1  0.94470000  0.22090000  0.34930000  1.0 0.0732210862
C  C2  1  0.55530000  0.77910000  0.84930000  1.0 0.0732210862
C  C3  1  0.05530000  0.72090000  0.15070000  1.0 0.0732210862
C  C4  1  0.44470000  0.27910000  0.65070000  1.0 0.0732210862
C  C5  1  0.34930000  0.94470000  0.22090000  1.0 0.0732210862
C  C6  1  0.22090000  0.34930000  0.94470000  1.0 0.0732210862
C  C7  1  0.65070000  0.44470000  0.27910000  1.0 0.0732210862
C  C8  1  0.77910000  0.84930000  0.55530000  1.0 0.0732210862
C  C9  1  0.15070000  0.05530000  0.72090000  1.0 0.0732210862
C  C10  1  0.27910000  0.65070000  0.44470000  1.0 0.0732210862
C  C11  1  0.84930000  0.55530000  0.77910000  1.0 0.0732210862
C  C12  1  0.72090000  0.15070000  0.05530000  1.0 0.0732210862
C  C13  1  0.05530000  0.77910000  0.65070000  1.0 0.0732210862
C  C14  1  0.44470000  0.22090000  0.15070000  1.0 0.0732210862
C  C15  1  0.94470000  0.27910000  0.84930000  1.0 0.0732210862
C  C16  1  0.55530000  0.72090000  0.34930000  1.0 0.0732210862
C  C17  1  0.65070000  0.05530000  0.77910000  1.0 0.0732210862
C  C18  1  0.77910000  0.65070000  0.05530000  1.0 0.0732210862
C  C19  1  0.34930000  0.55530000  0.72090000  1.0 0.0732210862
C  C20  1  0.22090000  0.15070000  0.44470000  1.0 0.0732210862
C  C21  1  0.84930000  0.94470000  0.27910000  1.0 0.0732210862
C  C22  1  0.72090000  0.34930000  0.55530000  1.0 0.0732210862
C  C23  1  0.15070000  0.44470000  0.22090000  1.0 0.0732210862
C  C24  1  0.27910000  0.84930000  0.94470000  1.0 0.0732210862
C  C25  1  0.99280000  0.21970000  0.32930000  1.0 -0.2293826577
C  C26  1  0.50720000  0.78030000  0.82930000  1.0 -0.2293826577
C  C27  1  0.00720000  0.71970000  0.17070000  1.0 -0.2293826577
C  C28  1  0.49280000  0.28030000  0.67070000  1.0 -0.2293826577
C  C29  1  0.32930000  0.99280000  0.21970000  1.0 -0.2293826577
C  C30  1  0.21970000  0.32930000  0.99280000  1.0 -0.2293826577
C  C31  1  0.67070000  0.49280000  0.28030000  1.0 -0.2293826577
C  C32  1  0.78030000  0.82930000  0.50720000  1.0 -0.2293826577
C  C33  1  0.17070000  0.00720000  0.71970000  1.0 -0.2293826577
C  C34  1  0.28030000  0.67070000  0.49280000  1.0 -0.2293826577
C  C35  1  0.82930000  0.50720000  0.78030000  1.0 -0.2293826577
C  C36  1  0.71970000  0.17070000  0.00720000  1.0 -0.2293826577
C  C37  1  0.00720000  0.78030000  0.67070000  1.0 -0.2293826577
C  C38  1  0.49280000  0.21970000  0.17070000  1.0 -0.2293826577
C  C39  1  0.99280000  0.28030000  0.82930000  1.0 -0.2293826577
C  C40  1  0.50720000  0.71970000  0.32930000  1.0 -0.2293826577
C  C41  1  0.67070000  0.00720000  0.78030000  1.0 -0.2293826577
C  C42  1  0.78030000  0.67070000  0.00720000  1.0 -0.2293826577
C  C43  1  0.32930000  0.50720000  0.71970000  1.0 -0.2293826577
C  C44  1  0.21970000  0.17070000  0.49280000  1.0 -0.2293826577
C  C45  1  0.82930000  0.99280000  0.28030000  1.0 -0.2293826577
C  C46  1  0.71970000  0.32930000  0.50720000  1.0 -0.2293826577
C  C47  1  0.17070000  0.49280000  0.21970000  1.0 -0.2293826577
C  C48  1  0.28030000  0.82930000  0.99280000  1.0 -0.2293826577
C  C49  1  0.91490000  0.17100000  0.28810000  1.0 0.0801360885
C  C50  1  0.58510000  0.82900000  0.78810000  1.0 0.0801360885
C  C51  1  0.08510000  0.67100000  0.21190000  1.0 0.0801360885
C  C52  1  0.41490000  0.32900000  0.71190000  1.0 0.0801360885
C  C53  1  0.28810000  0.91490000  0.17100000  1.0 0.0801360885
C  C54  1  0.17100000  0.28810000  0.91490000  1.0 0.0801360885
C  C55  1  0.71190000  0.41490000  0.32900000  1.0 0.0801360885
C  C56  1  0.82900000  0.78810000  0.58510000  1.0 0.0801360885
C  C57  1  0.21190000  0.08510000  0.67100000  1.0 0.0801360885
C  C58  1  0.32900000  0.71190000  0.41490000  1.0 0.0801360885
C  C59  1  0.78810000  0.58510000  0.82900000  1.0 0.0801360885
C  C60  1  0.67100000  0.21190000  0.08510000  1.0 0.0801360885
C  C61  1  0.08510000  0.82900000  0.71190000  1.0 0.0801360885
C  C62  1  0.41490000  0.17100000  0.21190000  1.0 0.0801360885
C  C63  1  0.91490000  0.32900000  0.78810000  1.0 0.0801360885
C  C64  1  0.58510000  0.67100000  0.28810000  1.0 0.0801360885
C  C65  1  0.71190000  0.08510000  0.82900000  1.0 0.0801360885
C  C66  1  0.82900000  0.71190000  0.08510000  1.0 0.0801360885
C  C67  1  0.28810000  0.58510000  0.67100000  1.0 0.0801360885
C  C68  1  0.17100000  0.21190000  0.41490000  1.0 0.0801360885
C  C69  1  0.78810000  0.91490000  0.32900000  1.0 0.0801360885
C  C70  1  0.67100000  0.28810000  0.58510000  1.0 0.0801360885
C  C71  1  0.21190000  0.41490000  0.17100000  1.0 0.0801360885
C  C72  1  0.32900000  0.78810000  0.91490000  1.0 0.0801360885
C  C73  1  0.96220000  0.16730000  0.26530000  1.0 -0.2293826577
C  C74  1  0.53780000  0.83270000  0.76530000  1.0 -0.2293826577
C  C75  1  0.03780000  0.66730000  0.23470000  1.0 -0.2293826577
C  C76  1  0.46220000  0.33270000  0.73470000  1.0 -0.2293826577
C  C77  1  0.26530000  0.96220000  0.16730000  1.0 -0.2293826577
C  C78  1  0.16730000  0.26530000  0.96220000  1.0 -0.2293826577
C  C79  1  0.73470000  0.46220000  0.33270000  1.0 -0.2293826577
C  C80  1  0.83270000  0.76530000  0.53780000  1.0 -0.2293826577
C  C81  1  0.23470000  0.03780000  0.66730000  1.0 -0.2293826577
C  C82  1  0.33270000  0.73470000  0.46220000  1.0 -0.2293826577
C  C83  1  0.76530000  0.53780000  0.83270000  1.0 -0.2293826577
C  C84  1  0.66730000  0.23470000  0.03780000  1.0 -0.2293826577
C  C85  1  0.03780000  0.83270000  0.73470000  1.0 -0.2293826577
C  C86  1  0.46220000  0.16730000  0.23470000  1.0 -0.2293826577
C  C87  1  0.96220000  0.33270000  0.76530000  1.0 -0.2293826577
C  C88  1  0.53780000  0.66730000  0.26530000  1.0 -0.2293826577
C  C89  1  0.73470000  0.03780000  0.83270000  1.0 -0.2293826577
C  C90  1  0.83270000  0.73470000  0.03780000  1.0 -0.2293826577
C  C91  1  0.26530000  0.53780000  0.66730000  1.0 -0.2293826577
C  C92  1  0.16730000  0.23470000  0.46220000  1.0 -0.2293826577
C  C93  1  0.76530000  0.96220000  0.33270000  1.0 -0.2293826577
C  C94  1  0.66730000  0.26530000  0.53780000  1.0 -0.2293826577
C  C95  1  0.23470000  0.46220000  0.16730000  1.0 -0.2293826577
C  C96  1  0.33270000  0.76530000  0.96220000  1.0 -0.2293826577
C  C97  1  0.00300000  0.19320000  0.28520000  1.0 0.0892854324
C  C98  1  0.49700000  0.80680000  0.78520000  1.0 0.0892854324
C  C99  1  0.99700000  0.69320000  0.21480000  1.0 0.0892854324
C  C100  1  0.50300000  0.30680000  0.71480000  1.0 0.0892854324
C  C101  1  0.28520000  0.00300000  0.19320000  1.0 0.0892854324
C  C102  1  0.19320000  0.28520000  0.00300000  1.0 0.0892854324
C  C103  1  0.71480000  0.50300000  0.30680000  1.0 0.0892854324
C  C104  1  0.80680000  0.78520000  0.49700000  1.0 0.0892854324
C  C105  1  0.21480000  0.99700000  0.69320000  1.0 0.0892854324
C  C106  1  0.30680000  0.71480000  0.50300000  1.0 0.0892854324
C  C107  1  0.78520000  0.49700000  0.80680000  1.0 0.0892854324
C  C108  1  0.69320000  0.21480000  0.99700000  1.0 0.0892854324
C  C109  1  0.99700000  0.80680000  0.71480000  1.0 0.0892854324
C  C110  1  0.50300000  0.19320000  0.21480000  1.0 0.0892854324
C  C111  1  0.00300000  0.30680000  0.78520000  1.0 0.0892854324
C  C112  1  0.49700000  0.69320000  0.28520000  1.0 0.0892854324
C  C113  1  0.71480000  0.99700000  0.80680000  1.0 0.0892854324
C  C114  1  0.80680000  0.71480000  0.99700000  1.0 0.0892854324
C  C115  1  0.28520000  0.49700000  0.69320000  1.0 0.0892854324
C  C116  1  0.19320000  0.21480000  0.50300000  1.0 0.0892854324
C  C117  1  0.78520000  0.00300000  0.30680000  1.0 0.0892854324
C  C118  1  0.69320000  0.28520000  0.49700000  1.0 0.0892854324
C  C119  1  0.21480000  0.50300000  0.19320000  1.0 0.0892854324
C  C120  1  0.30680000  0.78520000  0.00300000  1.0 0.0892854324
C  C121  1  0.05640000  0.19360000  0.26160000  1.0 0.0383421057
C  C122  1  0.44360000  0.80640000  0.76160000  1.0 0.0383421057
C  C123  1  0.94360000  0.69360000  0.23840000  1.0 0.0383421057
C  C124  1  0.55640000  0.30640000  0.73840000  1.0 0.0383421057
C  C125  1  0.26160000  0.05640000  0.19360000  1.0 0.0383421057
C  C126  1  0.19360000  0.26160000  0.05640000  1.0 0.0383421057
C  C127  1  0.73840000  0.55640000  0.30640000  1.0 0.0383421057
C  C128  1  0.80640000  0.76160000  0.44360000  1.0 0.0383421057
C  C129  1  0.23840000  0.94360000  0.69360000  1.0 0.0383421057
C  C130  1  0.30640000  0.73840000  0.55640000  1.0 0.0383421057
C  C131  1  0.76160000  0.44360000  0.80640000  1.0 0.0383421057
C  C132  1  0.69360000  0.23840000  0.94360000  1.0 0.0383421057
C  C133  1  0.94360000  0.80640000  0.73840000  1.0 0.0383421057
C  C134  1  0.55640000  0.19360000  0.23840000  1.0 0.0383421057
C  C135  1  0.05640000  0.30640000  0.76160000  1.0 0.0383421057
C  C136  1  0.44360000  0.69360000  0.26160000  1.0 0.0383421057
C  C137  1  0.73840000  0.94360000  0.80640000  1.0 0.0383421057
C  C138  1  0.80640000  0.73840000  0.94360000  1.0 0.0383421057
C  C139  1  0.26160000  0.44360000  0.69360000  1.0 0.0383421057
C  C140  1  0.19360000  0.23840000  0.55640000  1.0 0.0383421057
C  C141  1  0.76160000  0.05640000  0.30640000  1.0 0.0383421057
C  C142  1  0.69360000  0.26160000  0.44360000  1.0 0.0383421057
C  C143  1  0.23840000  0.55640000  0.19360000  1.0 0.0383421057
C  C144  1  0.30640000  0.76160000  0.05640000  1.0 0.0383421057
C  C145  1  0.06530000  0.25000000  0.24730000  1.0 -0.0648740978
C  C146  1  0.43470000  0.75000000  0.74730000  1.0 -0.0648740978
C  C147  1  0.93470000  0.75000000  0.25270000  1.0 -0.0648740978
C  C148  1  0.56530000  0.25000000  0.75270000  1.0 -0.0648740978
C  C149  1  0.24730000  0.06530000  0.25000000  1.0 -0.0648740978
C  C150  1  0.25000000  0.24730000  0.06530000  1.0 -0.0648740978
C  C151  1  0.75270000  0.56530000  0.25000000  1.0 -0.0648740978
C  C152  1  0.75000000  0.74730000  0.43470000  1.0 -0.0648740978
C  C153  1  0.25270000  0.93470000  0.75000000  1.0 -0.0648740978
C  C154  1  0.25000000  0.75270000  0.56530000  1.0 -0.0648740978
C  C155  1  0.74730000  0.43470000  0.75000000  1.0 -0.0648740978
C  C156  1  0.75000000  0.25270000  0.93470000  1.0 -0.0648740978
C  C157  1  0.93470000  0.75000000  0.75270000  1.0 -0.0648740978
C  C158  1  0.56530000  0.25000000  0.25270000  1.0 -0.0648740978
C  C159  1  0.06530000  0.25000000  0.74730000  1.0 -0.0648740978
C  C160  1  0.43470000  0.75000000  0.24730000  1.0 -0.0648740978
C  C161  1  0.75270000  0.93470000  0.75000000  1.0 -0.0648740978
C  C162  1  0.75000000  0.75270000  0.93470000  1.0 -0.0648740978
C  C163  1  0.24730000  0.43470000  0.75000000  1.0 -0.0648740978
C  C164  1  0.25000000  0.25270000  0.56530000  1.0 -0.0668311222
C  C165  1  0.74730000  0.06530000  0.25000000  1.0 -0.0648740978
C  C166  1  0.75000000  0.24730000  0.43470000  1.0 -0.0648740978
C  C167  1  0.25270000  0.56530000  0.25000000  1.0 -0.0648740978
C  C168  1  0.25000000  0.74730000  0.06530000  1.0 -0.0648740978
C  C169  1  0.09250000  0.17250000  0.30340000  1.0 -0.0414822207
C  C170  1  0.40750000  0.82750000  0.80340000  1.0 -0.0414822207
C  C171  1  0.90750000  0.67250000  0.19660000  1.0 -0.0414822207
C  C172  1  0.59250000  0.32750000  0.69660000  1.0 -0.0414822207
C  C173  1  0.30340000  0.09250000  0.17250000  1.0 -0.0414822207
C  C174  1  0.17250000  0.30340000  0.09250000  1.0 -0.0414822207
C  C175  1  0.69660000  0.59250000  0.32750000  1.0 -0.0414822207
C  C176  1  0.82750000  0.80340000  0.40750000  1.0 -0.0414822207
C  C177  1  0.19660000  0.90750000  0.67250000  1.0 -0.0414822207
C  C178  1  0.32750000  0.69660000  0.59250000  1.0 -0.0414822207
C  C179  1  0.80340000  0.40750000  0.82750000  1.0 -0.0414822207
C  C180  1  0.67250000  0.19660000  0.90750000  1.0 -0.0414822207
C  C181  1  0.90750000  0.82750000  0.69660000  1.0 -0.0414822207
C  C182  1  0.59250000  0.17250000  0.19660000  1.0 -0.0414822207
C  C183  1  0.09250000  0.32750000  0.80340000  1.0 -0.0414822207
C  C184  1  0.40750000  0.67250000  0.30340000  1.0 -0.0414822207
C  C185  1  0.69660000  0.90750000  0.82750000  1.0 -0.0414822207
C  C186  1  0.82750000  0.69660000  0.90750000  1.0 -0.0414822207
C  C187  1  0.30340000  0.40750000  0.67250000  1.0 -0.0414822207
C  C188  1  0.17250000  0.19660000  0.59250000  1.0 -0.0414822207
C  C189  1  0.80340000  0.09250000  0.32750000  1.0 -0.0414822207
C  C190  1  0.67250000  0.30340000  0.40750000  1.0 -0.0414822207
C  C191  1  0.19660000  0.59250000  0.17250000  1.0 -0.0414822207
C  C192  1  0.32750000  0.80340000  0.09250000  1.0 -0.0414822207
C  C193  1  0.05520000  0.15970000  0.21340000  1.0 -0.0805831588
C  C194  1  0.44480000  0.84030000  0.71340000  1.0 -0.0805831588
C  C195  1  0.94480000  0.65970000  0.28660000  1.0 -0.0805831588
C  C196  1  0.55520000  0.34030000  0.78660000  1.0 -0.0805831588
C  C197  1  0.21340000  0.05520000  0.15970000  1.0 -0.0805831588
C  C198  1  0.15970000  0.21340000  0.05520000  1.0 -0.0805831588
C  C199  1  0.78660000  0.55520000  0.34030000  1.0 -0.0805831588
C  C200  1  0.84030000  0.71340000  0.44480000  1.0 -0.0805831588
C  C201  1  0.28660000  0.94480000  0.65970000  1.0 -0.0805831588
C  C202  1  0.34030000  0.78660000  0.55520000  1.0 -0.0805831588
C  C203  1  0.71340000  0.44480000  0.84030000  1.0 -0.0805831588
C  C204  1  0.65970000  0.28660000  0.94480000  1.0 -0.0805831588
C  C205  1  0.94480000  0.84030000  0.78660000  1.0 -0.0805831588
C  C206  1  0.55520000  0.15970000  0.28660000  1.0 -0.0805831588
C  C207  1  0.05520000  0.34030000  0.71340000  1.0 -0.0805831588
C  C208  1  0.44480000  0.65970000  0.21340000  1.0 -0.0805831588
C  C209  1  0.78660000  0.94480000  0.84030000  1.0 -0.0805831588
C  C210  1  0.84030000  0.78660000  0.94480000  1.0 -0.0805831588
C  C211  1  0.21340000  0.44480000  0.65970000  1.0 -0.0805831588
C  C212  1  0.15970000  0.28660000  0.55520000  1.0 -0.0805831588
C  C213  1  0.71340000  0.05520000  0.34030000  1.0 -0.0805831588
C  C214  1  0.65970000  0.21340000  0.44480000  1.0 -0.0805831588
C  C215  1  0.28660000  0.55520000  0.15970000  1.0 -0.0805831588
C  C216  1  0.34030000  0.71340000  0.05520000  1.0 -0.0805831588
C  C217  1  0.26960000  0.24900000  0.32630000  1.0 -0.1379931801
C  C218  1  0.23040000  0.75100000  0.82630000  1.0 -0.1379931801
C  C219  1  0.73040000  0.74900000  0.17370000  1.0 -0.1379931801
C  C220  1  0.76960000  0.25100000  0.67370000  1.0 -0.1379931801
C  C221  1  0.32630000  0.26960000  0.24900000  1.0 -0.1379931801
C  C222  1  0.24900000  0.32630000  0.26960000  1.0 -0.1379931801
C  C223  1  0.67370000  0.76960000  0.25100000  1.0 -0.1379931801
C  C224  1  0.75100000  0.82630000  0.23040000  1.0 -0.1379931801
C  C225  1  0.17370000  0.73040000  0.74900000  1.0 -0.1379931801
C  C226  1  0.25100000  0.67370000  0.76960000  1.0 -0.1379931801
C  C227  1  0.82630000  0.23040000  0.75100000  1.0 -0.1379931801
C  C228  1  0.74900000  0.17370000  0.73040000  1.0 -0.1379931801
C  C229  1  0.73040000  0.75100000  0.67370000  1.0 -0.1379931801
C  C230  1  0.76960000  0.24900000  0.17370000  1.0 -0.1379931801
C  C231  1  0.26960000  0.25100000  0.82630000  1.0 -0.1379931801
C  C232  1  0.23040000  0.74900000  0.32630000  1.0 -0.1379931801
C  C233  1  0.67370000  0.73040000  0.75100000  1.0 -0.1379931801
C  C234  1  0.75100000  0.67370000  0.73040000  1.0 -0.1379931801
C  C235  1  0.32630000  0.23040000  0.74900000  1.0 -0.1379931801
C  C236  1  0.24900000  0.17370000  0.76960000  1.0 -0.1379931801
C  C237  1  0.82630000  0.26960000  0.25100000  1.0 -0.1379931801
C  C238  1  0.74900000  0.32630000  0.23040000  1.0 -0.1379931801
C  C239  1  0.17370000  0.76960000  0.24900000  1.0 -0.1379931801
C  C240  1  0.25100000  0.82630000  0.26960000  1.0 -0.1379931801
C  C241  1  0.29080000  0.29080000  0.29080000  1.0 0.0801360885
C  C242  1  0.20920000  0.70920000  0.79080000  1.0 0.0801360885
C  C243  1  0.70920000  0.79080000  0.20920000  1.0 0.0801360885
C  C244  1  0.79080000  0.20920000  0.70920000  1.0 0.0801360885
C  C245  1  0.70920000  0.70920000  0.70920000  1.0 0.0801360885
C  C246  1  0.79080000  0.29080000  0.20920000  1.0 0.0801360885
C  C247  1  0.29080000  0.20920000  0.79080000  1.0 0.0801360885
C  C248  1  0.20920000  0.79080000  0.29080000  1.0 0.0801360885
C  C249  1  0.32470000  0.32470000  0.32470000  1.0 0.0532420409
C  C250  1  0.17530000  0.67530000  0.82470000  1.0 0.0532420409
C  C251  1  0.67530000  0.82470000  0.17530000  1.0 0.0532420409
C  C252  1  0.82470000  0.17530000  0.67530000  1.0 0.0532420409
C  C253  1  0.67530000  0.67530000  0.67530000  1.0 0.0532420409
C  C254  1  0.82470000  0.32470000  0.17530000  1.0 0.0532420409
C  C255  1  0.32470000  0.17530000  0.82470000  1.0 0.0532420409
C  C256  1  0.17530000  0.82470000  0.32470000  1.0 0.0532420409
C  C257  1  0.32940000  0.31860000  0.37660000  1.0 -0.0464272372
C  C258  1  0.17060000  0.68140000  0.87660000  1.0 -0.0464272372
C  C259  1  0.67060000  0.81860000  0.12340000  1.0 -0.0464272372
C  C260  1  0.82940000  0.18140000  0.62340000  1.0 -0.0464272372
C  C261  1  0.37660000  0.32940000  0.31860000  1.0 -0.0464272372
C  C262  1  0.31860000  0.37660000  0.32940000  1.0 -0.0464272372
C  C263  1  0.62340000  0.82940000  0.18140000  1.0 -0.0464272372
C  C264  1  0.68140000  0.87660000  0.17060000  1.0 -0.0464272372
C  C265  1  0.12340000  0.67060000  0.81860000  1.0 -0.0464272372
C  C266  1  0.18140000  0.62340000  0.82940000  1.0 -0.0464272372
C  C267  1  0.87660000  0.17060000  0.68140000  1.0 -0.0464272372
C  C268  1  0.81860000  0.12340000  0.67060000  1.0 -0.0464272372
C  C269  1  0.67060000  0.68140000  0.62340000  1.0 -0.0464272372
C  C270  1  0.82940000  0.31860000  0.12340000  1.0 -0.0464272372
C  C271  1  0.32940000  0.18140000  0.87660000  1.0 -0.0464272372
C  C272  1  0.17060000  0.81860000  0.37660000  1.0 -0.0464272372
C  C273  1  0.62340000  0.67060000  0.68140000  1.0 -0.0464272372
C  C274  1  0.68140000  0.62340000  0.67060000  1.0 -0.0464272372
C  C275  1  0.37660000  0.17060000  0.81860000  1.0 -0.0464272372
C  C276  1  0.31860000  0.12340000  0.82940000  1.0 -0.0464272372
C  C277  1  0.87660000  0.32940000  0.18140000  1.0 -0.0464272372
C  C278  1  0.81860000  0.37660000  0.17060000  1.0 -0.0464272372
C  C279  1  0.12340000  0.82940000  0.31860000  1.0 -0.0464272372
C  C280  1  0.18140000  0.87660000  0.32940000  1.0 -0.0464272372
C  C281  1  0.35960000  0.34860000  0.40700000  1.0 -0.0320875863
C  C282  1  0.14040000  0.65140000  0.90700000  1.0 -0.0320875863
C  C283  1  0.64040000  0.84860000  0.09300000  1.0 -0.0320875863
C  C284  1  0.85960000  0.15140000  0.59300000  1.0 -0.0320875863
C  C285  1  0.40700000  0.35960000  0.34860000  1.0 -0.0320875863
C  C286  1  0.34860000  0.40700000  0.35960000  1.0 -0.0320875863
C  C287  1  0.59300000  0.85960000  0.15140000  1.0 -0.0320875863
C  C288  1  0.65140000  0.90700000  0.14040000  1.0 -0.0320875863
C  C289  1  0.09300000  0.64040000  0.84860000  1.0 -0.0320875863
C  C290  1  0.15140000  0.59300000  0.85960000  1.0 -0.0320875863
C  C291  1  0.90700000  0.14040000  0.65140000  1.0 -0.0320875863
C  C292  1  0.84860000  0.09300000  0.64040000  1.0 -0.0320875863
C  C293  1  0.64040000  0.65140000  0.59300000  1.0 -0.0320875863
C  C294  1  0.85960000  0.34860000  0.09300000  1.0 -0.0320875863
C  C295  1  0.35960000  0.15140000  0.90700000  1.0 -0.0320875863
C  C296  1  0.14040000  0.84860000  0.40700000  1.0 -0.0320875863
C  C297  1  0.59300000  0.64040000  0.65140000  1.0 -0.0320875863
C  C298  1  0.65140000  0.59300000  0.64040000  1.0 -0.0320875863
C  C299  1  0.40700000  0.14040000  0.84860000  1.0 -0.0320875863
C  C300  1  0.34860000  0.09300000  0.85960000  1.0 -0.0320875863
C  C301  1  0.90700000  0.35960000  0.15140000  1.0 -0.0320875863
C  C302  1  0.84860000  0.40700000  0.14040000  1.0 -0.0320875863
C  C303  1  0.09300000  0.85960000  0.34860000  1.0 -0.0320875863
C  C304  1  0.15140000  0.90700000  0.35960000  1.0 -0.0320875863
C  C305  1  0.38190000  0.39220000  0.33570000  1.0 -0.0052147597
C  C306  1  0.11810000  0.60780000  0.83570000  1.0 -0.0052147597
C  C307  1  0.61810000  0.89220000  0.16430000  1.0 -0.0052147597
C  C308  1  0.88190000  0.10780000  0.66430000  1.0 -0.0052147597
C  C309  1  0.33570000  0.38190000  0.39220000  1.0 -0.0052147597
C  C310  1  0.39220000  0.33570000  0.38190000  1.0 -0.0052147597
C  C311  1  0.66430000  0.88190000  0.10780000  1.0 -0.0052147597
C  C312  1  0.60780000  0.83570000  0.11810000  1.0 -0.0052147597
C  C313  1  0.16430000  0.61810000  0.89220000  1.0 -0.0052147597
C  C314  1  0.10780000  0.66430000  0.88190000  1.0 -0.0052147597
C  C315  1  0.83570000  0.11810000  0.60780000  1.0 -0.0052147597
C  C316  1  0.89220000  0.16430000  0.61810000  1.0 -0.0052147597
C  C317  1  0.61810000  0.60780000  0.66430000  1.0 -0.0052147597
C  C318  1  0.88190000  0.39220000  0.16430000  1.0 -0.0052147597
C  C319  1  0.38190000  0.10780000  0.83570000  1.0 -0.0052147597
C  C320  1  0.11810000  0.89220000  0.33570000  1.0 -0.0052147597
C  C321  1  0.66430000  0.61810000  0.60780000  1.0 -0.0052147597
C  C322  1  0.60780000  0.66430000  0.61810000  1.0 -0.0052147597
C  C323  1  0.33570000  0.11810000  0.89220000  1.0 -0.0052147597
C  C324  1  0.39220000  0.16430000  0.88190000  1.0 -0.0052147597
C  C325  1  0.83570000  0.38190000  0.10780000  1.0 -0.0052147597
C  C326  1  0.89220000  0.33570000  0.11810000  1.0 -0.0052147597
C  C327  1  0.16430000  0.88190000  0.39220000  1.0 -0.0052147597
C  C328  1  0.10780000  0.83570000  0.38190000  1.0 -0.0052147597
C  C329  1  0.35240000  0.36390000  0.30300000  1.0 -0.1161092839
C  C330  1  0.14760000  0.63610000  0.80300000  1.0 -0.1161092839
C  C331  1  0.64760000  0.86390000  0.19700000  1.0 -0.1161092839
C  C332  1  0.85240000  0.13610000  0.69700000  1.0 -0.1161092839
C  C333  1  0.30300000  0.35240000  0.36390000  1.0 -0.1161092839
C  C334  1  0.36390000  0.30300000  0.35240000  1.0 -0.1161092839
C  C335  1  0.69700000  0.85240000  0.13610000  1.0 -0.1161092839
C  C336  1  0.63610000  0.80300000  0.14760000  1.0 -0.1161092839
C  C337  1  0.19700000  0.64760000  0.86390000  1.0 -0.1161092839
C  C338  1  0.13610000  0.69700000  0.85240000  1.0 -0.1161092839
C  C339  1  0.80300000  0.14760000  0.63610000  1.0 -0.1161092839
C  C340  1  0.86390000  0.19700000  0.64760000  1.0 -0.1161092839
C  C341  1  0.64760000  0.63610000  0.69700000  1.0 -0.1161092839
C  C342  1  0.85240000  0.36390000  0.19700000  1.0 -0.1161092839
C  C343  1  0.35240000  0.13610000  0.80300000  1.0 -0.1161092839
C  C344  1  0.14760000  0.86390000  0.30300000  1.0 -0.1161092839
C  C345  1  0.69700000  0.64760000  0.63610000  1.0 -0.1161092839
C  C346  1  0.63610000  0.69700000  0.64760000  1.0 -0.1161092839
C  C347  1  0.30300000  0.14760000  0.86390000  1.0 -0.1161092839
C  C348  1  0.36390000  0.19700000  0.85240000  1.0 -0.1161092839
C  C349  1  0.80300000  0.35240000  0.13610000  1.0 -0.1161092839
C  C350  1  0.86390000  0.30300000  0.14760000  1.0 -0.1161092839
C  C351  1  0.19700000  0.85240000  0.36390000  1.0 -0.1161092839
C  C352  1  0.13610000  0.80300000  0.35240000  1.0 -0.1161092839
C  C353  1  0.13030000  0.33000000  0.32280000  1.0 0.5347779917
C  C354  1  0.36970000  0.67000000  0.82280000  1.0 0.5347779917
C  C355  1  0.86970000  0.83000000  0.17720000  1.0 0.5347779917
C  C356  1  0.63030000  0.17000000  0.67720000  1.0 0.5347779917
C  C357  1  0.32280000  0.13030000  0.33000000  1.0 0.5347779917
C  C358  1  0.33000000  0.32280000  0.13030000  1.0 0.5347779917
C  C359  1  0.67720000  0.63030000  0.17000000  1.0 0.5347779917
C  C360  1  0.67000000  0.82280000  0.36970000  1.0 0.5358141494
C  C361  1  0.17720000  0.86970000  0.83000000  1.0 0.5347779917
C  C362  1  0.17000000  0.67720000  0.63030000  1.0 0.5347779917
C  C363  1  0.82280000  0.36970000  0.67000000  1.0 0.5358141494
C  C364  1  0.83000000  0.17720000  0.86970000  1.0 0.5347779917
C  C365  1  0.86970000  0.67000000  0.67720000  1.0 0.5347779917
C  C366  1  0.63030000  0.33000000  0.17720000  1.0 0.5358141494
C  C367  1  0.13030000  0.17000000  0.82280000  1.0 0.5347779917
C  C368  1  0.36970000  0.83000000  0.32280000  1.0 0.5347779917
C  C369  1  0.67720000  0.86970000  0.67000000  1.0 0.5347779917
C  C370  1  0.67000000  0.67720000  0.86970000  1.0 0.5347779917
C  C371  1  0.32280000  0.36970000  0.83000000  1.0 0.5347779917
C  C372  1  0.33000000  0.17720000  0.63030000  1.0 0.5347779917
C  C373  1  0.82280000  0.13030000  0.17000000  1.0 0.5358141494
C  C374  1  0.83000000  0.32280000  0.36970000  1.0 0.5358141494
C  C375  1  0.17720000  0.63030000  0.33000000  1.0 0.5347779917
C  C376  1  0.17000000  0.82280000  0.13030000  1.0 0.5347779917
C  C377  1  0.13400000  0.35950000  0.37350000  1.0 -0.2564218556
C  C378  1  0.36600000  0.64050000  0.87350000  1.0 -0.2564218556
C  C379  1  0.86600000  0.85950000  0.12650000  1.0 -0.2564218556
C  C380  1  0.63400000  0.14050000  0.62650000  1.0 -0.2564218556
C  C381  1  0.37350000  0.13400000  0.35950000  1.0 -0.2564218556
C  C382  1  0.35950000  0.37350000  0.13400000  1.0 -0.2564218556
C  C383  1  0.62650000  0.63400000  0.14050000  1.0 -0.2564218556
C  C384  1  0.64050000  0.87350000  0.36600000  1.0 -0.2564218556
C  C385  1  0.12650000  0.86600000  0.85950000  1.0 -0.2564218556
C  C386  1  0.14050000  0.62650000  0.63400000  1.0 -0.2564218556
C  C387  1  0.87350000  0.36600000  0.64050000  1.0 -0.2564218556
C  C388  1  0.85950000  0.12650000  0.86600000  1.0 -0.2564218556
C  C389  1  0.86600000  0.64050000  0.62650000  1.0 -0.2564218556
C  C390  1  0.63400000  0.35950000  0.12650000  1.0 -0.2564218556
C  C391  1  0.13400000  0.14050000  0.87350000  1.0 -0.2564218556
C  C392  1  0.36600000  0.85950000  0.37350000  1.0 -0.2564218556
C  C393  1  0.62650000  0.86600000  0.64050000  1.0 -0.2564218556
C  C394  1  0.64050000  0.62650000  0.86600000  1.0 -0.2564218556
C  C395  1  0.37350000  0.36600000  0.85950000  1.0 -0.2564218556
C  C396  1  0.35950000  0.12650000  0.63400000  1.0 -0.2564218556
C  C397  1  0.87350000  0.13400000  0.14050000  1.0 -0.2564218556
C  C398  1  0.85950000  0.37350000  0.36600000  1.0 -0.2564218556
C  C399  1  0.12650000  0.63400000  0.35950000  1.0 -0.2564218556
C  C400  1  0.14050000  0.87350000  0.13400000  1.0 -0.2564218556
C  C401  1  0.10150000  0.02780000  0.23590000  1.0 0.3192326632
C  C402  1  0.39850000  0.97220000  0.73590000  1.0 0.3192326632
C  C403  1  0.89850000  0.52780000  0.26410000  1.0 0.3192326632
C  C404  1  0.60150000  0.47220000  0.76410000  1.0 0.3192326632
C  C405  1  0.23590000  0.10150000  0.02780000  1.0 0.3192326632
C  C406  1  0.02780000  0.23590000  0.10150000  1.0 0.3192326632
C  C407  1  0.76410000  0.60150000  0.47220000  1.0 0.3192326632
C  C408  1  0.97220000  0.73590000  0.39850000  1.0 0.3192326632
C  C409  1  0.26410000  0.89850000  0.52780000  1.0 0.3192326632
C  C410  1  0.47220000  0.76410000  0.60150000  1.0 0.3192326632
C  C411  1  0.73590000  0.39850000  0.97220000  1.0 0.3192326632
C  C412  1  0.52780000  0.26410000  0.89850000  1.0 0.3192326632
C  C413  1  0.89850000  0.97220000  0.76410000  1.0 0.3192326632
C  C414  1  0.60150000  0.02780000  0.26410000  1.0 0.3192326632
C  C415  1  0.10150000  0.47220000  0.73590000  1.0 0.3192326632
C  C416  1  0.39850000  0.52780000  0.23590000  1.0 0.3192326632
C  C417  1  0.76410000  0.89850000  0.97220000  1.0 0.3192326632
C  C418  1  0.97220000  0.76410000  0.89850000  1.0 0.3192326632
C  C419  1  0.23590000  0.39850000  0.52780000  1.0 0.3192326632
C  C420  1  0.02780000  0.26410000  0.60150000  1.0 0.3192326632
C  C421  1  0.73590000  0.10150000  0.47220000  1.0 0.3192326632
C  C422  1  0.52780000  0.23590000  0.39850000  1.0 0.3192326632
C  C423  1  0.26410000  0.60150000  0.02780000  1.0 0.3192326632
C  C424  1  0.47220000  0.73590000  0.10150000  1.0 0.3192326632
C  C425  1  0.10660000  0.35170000  0.37050000  1.0 -0.2564218556
C  C426  1  0.39340000  0.64830000  0.87050000  1.0 -0.2564218556
C  C427  1  0.89340000  0.85170000  0.12950000  1.0 -0.2564218556
C  C428  1  0.60660000  0.14830000  0.62950000  1.0 -0.2564218556
C  C429  1  0.37050000  0.10660000  0.35170000  1.0 -0.2564218556
C  C430  1  0.35170000  0.37050000  0.10660000  1.0 -0.2564218556
C  C431  1  0.62950000  0.60660000  0.14830000  1.0 -0.2564218556
C  C432  1  0.64830000  0.87050000  0.39340000  1.0 -0.2564218556
C  C433  1  0.12950000  0.89340000  0.85170000  1.0 -0.2564218556
C  C434  1  0.14830000  0.62950000  0.60660000  1.0 -0.2564218556
C  C435  1  0.87050000  0.39340000  0.64830000  1.0 -0.2564218556
C  C436  1  0.85170000  0.12950000  0.89340000  1.0 -0.2564218556
C  C437  1  0.89340000  0.64830000  0.62950000  1.0 -0.2564218556
C  C438  1  0.60660000  0.35170000  0.12950000  1.0 -0.2564218556
C  C439  1  0.10660000  0.14830000  0.87050000  1.0 -0.2564218556
C  C440  1  0.39340000  0.85170000  0.37050000  1.0 -0.2564218556
C  C441  1  0.62950000  0.89340000  0.64830000  1.0 -0.2564218556
C  C442  1  0.64830000  0.62950000  0.89340000  1.0 -0.2564218556
C  C443  1  0.37050000  0.39340000  0.85170000  1.0 -0.2564218556
C  C444  1  0.35170000  0.12950000  0.60660000  1.0 -0.2564218556
C  C445  1  0.87050000  0.10660000  0.14830000  1.0 -0.2564218556
C  C446  1  0.85170000  0.37050000  0.39340000  1.0 -0.2564218556
C  C447  1  0.12950000  0.60660000  0.35170000  1.0 -0.2564218556
C  C448  1  0.14830000  0.87050000  0.10660000  1.0 -0.2564218556
C  C449  1  0.08090000  0.00820000  0.21440000  1.0 -0.2396674414
C  C450  1  0.41910000  0.99180000  0.71440000  1.0 -0.2396674414
C  C451  1  0.91910000  0.50820000  0.28560000  1.0 -0.2396674414
C  C452  1  0.58090000  0.49180000  0.78560000  1.0 -0.2463341555
C  C453  1  0.21440000  0.08090000  0.00820000  1.0 -0.2463341555
C  C454  1  0.00820000  0.21440000  0.08090000  1.0 -0.2396674414
C  C455  1  0.78560000  0.58090000  0.49180000  1.0 -0.2463341555
C  C456  1  0.99180000  0.71440000  0.41910000  1.0 -0.2396674414
C  C457  1  0.28560000  0.91910000  0.50820000  1.0 -0.2396674414
C  C458  1  0.49180000  0.78560000  0.58090000  1.0 -0.2463341555
C  C459  1  0.71440000  0.41910000  0.99180000  1.0 -0.2396674414
C  C460  1  0.50820000  0.28560000  0.91910000  1.0 -0.2396674414
C  C461  1  0.91910000  0.99180000  0.78560000  1.0 -0.2463341555
C  C462  1  0.58090000  0.00820000  0.28560000  1.0 -0.2463341555
C  C463  1  0.08090000  0.49180000  0.71440000  1.0 -0.2463341555
C  C464  1  0.41910000  0.50820000  0.21440000  1.0 -0.2396674414
C  C465  1  0.78560000  0.91910000  0.99180000  1.0 -0.2396674414
C  C466  1  0.99180000  0.78560000  0.91910000  1.0 -0.2463341555
C  C467  1  0.21440000  0.41910000  0.50820000  1.0 -0.2396674414
C  C468  1  0.00820000  0.28560000  0.58090000  1.0 -0.2463341555
C  C469  1  0.71440000  0.08090000  0.49180000  1.0 -0.2463341555
C  C470  1  0.50820000  0.21440000  0.41910000  1.0 -0.2396674414
C  C471  1  0.28560000  0.58090000  0.00820000  1.0 -0.2463341555
C  C472  1  0.49180000  0.71440000  0.08090000  1.0 -0.2463341555
N  N1  1  0.90550000  0.19810000  0.32870000  1.0 -0.2463341555
N  N2  1  0.59450000  0.80190000  0.82870000  1.0 -0.2463341555
N  N3  1  0.09450000  0.69810000  0.17130000  1.0 -0.2463341555
N  N4  1  0.40550000  0.30190000  0.67130000  1.0 -0.2463341555
N  N5  1  0.32870000  0.90550000  0.19810000  1.0 -0.2463341555
N  N6  1  0.19810000  0.32870000  0.90550000  1.0 -0.2463341555
N  N7  1  0.67130000  0.40550000  0.30190000  1.0 -0.2463341555
N  N8  1  0.80190000  0.82870000  0.59450000  1.0 -0.2463341555
N  N9  1  0.17130000  0.09450000  0.69810000  1.0 -0.2463341555
N  N10  1  0.30190000  0.67130000  0.40550000  1.0 -0.2463341555
N  N11  1  0.82870000  0.59450000  0.80190000  1.0 -0.2463341555
N  N12  1  0.69810000  0.17130000  0.09450000  1.0 -0.2463341555
N  N13  1  0.09450000  0.80190000  0.67130000  1.0 -0.2463341555
N  N14  1  0.40550000  0.19810000  0.17130000  1.0 -0.2463341555
N  N15  1  0.90550000  0.30190000  0.82870000  1.0 -0.2463341555
N  N16  1  0.59450000  0.69810000  0.32870000  1.0 -0.2463341555
N  N17  1  0.67130000  0.09450000  0.80190000  1.0 -0.2463341555
N  N18  1  0.80190000  0.67130000  0.09450000  1.0 -0.2463341555
N  N19  1  0.32870000  0.59450000  0.69810000  1.0 -0.2463341555
N  N20  1  0.19810000  0.17130000  0.40550000  1.0 -0.2463341555
N  N21  1  0.82870000  0.90550000  0.30190000  1.0 -0.2463341555
N  N22  1  0.69810000  0.32870000  0.59450000  1.0 -0.2463341555
N  N23  1  0.17130000  0.40550000  0.19810000  1.0 -0.2463341555
N  N24  1  0.30190000  0.82870000  0.90550000  1.0 -0.2463341555
N  N25  1  0.38600000  0.38600000  0.38600000  1.0 -0.1379931801
N  N26  1  0.11400000  0.61400000  0.88600000  1.0 -0.1336951721
N  N27  1  0.61400000  0.88600000  0.11400000  1.0 -0.1379931801
N  N28  1  0.88600000  0.11400000  0.61400000  1.0 -0.1379931801
N  N29  1  0.61400000  0.61400000  0.61400000  1.0 -0.1379931801
N  N30  1  0.88600000  0.38600000  0.11400000  1.0 -0.1379931801
N  N31  1  0.38600000  0.11400000  0.88600000  1.0 -0.1379931801
N  N32  1  0.11400000  0.88600000  0.38600000  1.0 -0.1336951721
O  O1  1  0.20004000  0.20004000  0.20004000  1.0 -0.8081929329
O  O2  1  0.29996000  0.79996000  0.70004000  1.0 -0.8081929329
O  O3  1  0.79996000  0.70004000  0.29996000  1.0 -0.8081929329
O  O4  1  0.70004000  0.29996000  0.79996000  1.0 -0.8081929329
O  O5  1  0.79996000  0.79996000  0.79996000  1.0 -0.8081929329
O  O6  1  0.70004000  0.20004000  0.29996000  1.0 -0.8081929329
O  O7  1  0.20004000  0.29996000  0.70004000  1.0 -0.8081929329
O  O8  1  0.29996000  0.70004000  0.20004000  1.0 -0.8081929329
O  O9  1  0.11389000  0.25905000  0.22575000  1.0 -0.5613786596
O  O10  1  0.38611000  0.74095000  0.72575000  1.0 -0.5537749696
O  O11  1  0.88611000  0.75905000  0.27425000  1.0 -0.5537749696
O  O12  1  0.61389000  0.24095000  0.77425000  1.0 -0.5613786596
O  O13  1  0.22575000  0.11389000  0.25905000  1.0 -0.5613786596
O  O14  1  0.25905000  0.22575000  0.11389000  1.0 -0.5613786596
O  O15  1  0.77425000  0.61389000  0.24095000  1.0 -0.5613786596
O  O16  1  0.74095000  0.72575000  0.38611000  1.0 -0.5537749696
O  O17  1  0.27425000  0.88611000  0.75905000  1.0 -0.5537749696
O  O18  1  0.24095000  0.77425000  0.61389000  1.0 -0.5613786596
O  O19  1  0.72575000  0.38611000  0.74095000  1.0 -0.5537749696
O  O20  1  0.75905000  0.27425000  0.88611000  1.0 -0.5537749696
O  O21  1  0.88611000  0.74095000  0.77425000  1.0 -0.5537749696
O  O22  1  0.61389000  0.25905000  0.27425000  1.0 -0.5537749696
O  O23  1  0.11389000  0.24095000  0.72575000  1.0 -0.5613786596
O  O24  1  0.38611000  0.75905000  0.22575000  1.0 -0.5613786596
O  O25  1  0.77425000  0.88611000  0.74095000  1.0 -0.5537749696
O  O26  1  0.74095000  0.77425000  0.88611000  1.0 -0.5537749696
O  O27  1  0.22575000  0.38611000  0.75905000  1.0 -0.5613786596
O  O28  1  0.25905000  0.27425000  0.61389000  1.0 -0.5537749696
O  O29  1  0.72575000  0.11389000  0.24095000  1.0 -0.5613786596
O  O30  1  0.75905000  0.22575000  0.38611000  1.0 -0.5613786596
O  O31  1  0.27425000  0.61389000  0.25905000  1.0 -0.5537749696
O  O32  1  0.24095000  0.72575000  0.11389000  1.0 -0.5613786596
O  O33  1  0.14426000  0.17188000  0.28942000  1.0 -0.5613786596
O  O34  1  0.35574000  0.82812000  0.78942000  1.0 -0.5613786596
O  O35  1  0.85574000  0.67188000  0.21058000  1.0 -0.5613786596
O  O36  1  0.64426000  0.32812000  0.71058000  1.0 -0.5613786596
O  O37  1  0.28942000  0.14426000  0.17188000  1.0 -0.5613786596
O  O38  1  0.17188000  0.28942000  0.14426000  1.0 -0.5613786596
O  O39  1  0.71058000  0.64426000  0.32812000  1.0 -0.5613786596
O  O40  1  0.82812000  0.78942000  0.35574000  1.0 -0.5613786596
O  O41  1  0.21058000  0.85574000  0.67188000  1.0 -0.5613786596
O  O42  1  0.32812000  0.71058000  0.64426000  1.0 -0.5613786596
O  O43  1  0.78942000  0.35574000  0.82812000  1.0 -0.5613786596
O  O44  1  0.67188000  0.21058000  0.85574000  1.0 -0.5613786596
O  O45  1  0.85574000  0.82812000  0.71058000  1.0 -0.5613786596
O  O46  1  0.64426000  0.17188000  0.21058000  1.0 -0.5613786596
O  O47  1  0.14426000  0.32812000  0.78942000  1.0 -0.5613786596
O  O48  1  0.35574000  0.67188000  0.28942000  1.0 -0.5613786596
O  O49  1  0.71058000  0.85574000  0.82812000  1.0 -0.5613786596
O  O50  1  0.82812000  0.71058000  0.85574000  1.0 -0.5613786596
O  O51  1  0.28942000  0.35574000  0.67188000  1.0 -0.5613786596
O  O52  1  0.17188000  0.21058000  0.64426000  1.0 -0.5613786596
O  O53  1  0.78942000  0.14426000  0.32812000  1.0 -0.5613786596
O  O54  1  0.67188000  0.28942000  0.35574000  1.0 -0.5613786596
O  O55  1  0.21058000  0.64426000  0.17188000  1.0 -0.5613786596
O  O56  1  0.32812000  0.78942000  0.14426000  1.0 -0.5613786596
O  O57  1  0.10155000  0.15833000  0.18654000  1.0 -0.6199256945
O  O58  1  0.39845000  0.84167000  0.68654000  1.0 -0.6199256945
O  O59  1  0.89845000  0.65833000  0.31346000  1.0 -0.6199256945
O  O60  1  0.60155000  0.34167000  0.81346000  1.0 -0.6199256945
O  O61  1  0.18654000  0.10155000  0.15833000  1.0 -0.6199256945
O  O62  1  0.15833000  0.18654000  0.10155000  1.0 -0.6199256945
O  O63  1  0.81346000  0.60155000  0.34167000  1.0 -0.6199256945
O  O64  1  0.84167000  0.68654000  0.39845000  1.0 -0.6199256945
O  O65  1  0.31346000  0.89845000  0.65833000  1.0 -0.6199256945
O  O66  1  0.34167000  0.81346000  0.60155000  1.0 -0.6199256945
O  O67  1  0.68654000  0.39845000  0.84167000  1.0 -0.6199256945
O  O68  1  0.65833000  0.31346000  0.89845000  1.0 -0.6199256945
O  O69  1  0.89845000  0.84167000  0.81346000  1.0 -0.6199256945
O  O70  1  0.60155000  0.15833000  0.31346000  1.0 -0.6199256945
O  O71  1  0.10155000  0.34167000  0.68654000  1.0 -0.6199256945
O  O72  1  0.39845000  0.65833000  0.18654000  1.0 -0.6199256945
O  O73  1  0.81346000  0.89845000  0.84167000  1.0 -0.6199256945
O  O74  1  0.84167000  0.81346000  0.89845000  1.0 -0.6199256945
O  O75  1  0.18654000  0.39845000  0.65833000  1.0 -0.6199256945
O  O76  1  0.15833000  0.31346000  0.60155000  1.0 -0.6199256945
O  O77  1  0.68654000  0.10155000  0.34167000  1.0 -0.6199256945
O  O78  1  0.65833000  0.18654000  0.39845000  1.0 -0.6199256945
O  O79  1  0.31346000  0.60155000  0.15833000  1.0 -0.6199256945
O  O80  1  0.34167000  0.68654000  0.10155000  1.0 -0.6199256945
O  O81  1  0.23807000  0.21326000  0.30168000  1.0 -0.5357307909
O  O82  1  0.26193000  0.78674000  0.80168000  1.0 -0.5357307909
O  O83  1  0.76193000  0.71326000  0.19832000  1.0 -0.5357307909
O  O84  1  0.73807000  0.28674000  0.69832000  1.0 -0.5357307909
O  O85  1  0.30168000  0.23807000  0.21326000  1.0 -0.5357307909
O  O86  1  0.21326000  0.30168000  0.23807000  1.0 -0.5357307909
O  O87  1  0.69832000  0.73807000  0.28674000  1.0 -0.5357307909
O  O88  1  0.78674000  0.80168000  0.26193000  1.0 -0.5357307909
O  O89  1  0.19832000  0.76193000  0.71326000  1.0 -0.5357307909
O  O90  1  0.28674000  0.69832000  0.73807000  1.0 -0.5357307909
O  O91  1  0.80168000  0.26193000  0.78674000  1.0 -0.5357307909
O  O92  1  0.71326000  0.19832000  0.76193000  1.0 -0.5357307909
O  O93  1  0.76193000  0.78674000  0.69832000  1.0 -0.5357307909
O  O94  1  0.73807000  0.21326000  0.19832000  1.0 -0.5357307909
O  O95  1  0.23807000  0.28674000  0.80168000  1.0 -0.5357307909
O  O96  1  0.26193000  0.71326000  0.30168000  1.0 -0.5357307909
O  O97  1  0.69832000  0.76193000  0.78674000  1.0 -0.5357307909
O  O98  1  0.78674000  0.69832000  0.76193000  1.0 -0.5357307909
O  O99  1  0.30168000  0.26193000  0.71326000  1.0 -0.5357307909
O  O100  1  0.21326000  0.19832000  0.73807000  1.0 -0.5357307909
O  O101  1  0.80168000  0.23807000  0.28674000  1.0 -0.5357307909
O  O102  1  0.71326000  0.30168000  0.26193000  1.0 -0.5357307909
O  O103  1  0.19832000  0.73807000  0.21326000  1.0 -0.5357307909
O  O104  1  0.28674000  0.80168000  0.23807000  1.0 -0.5357307909
O  O105  1  0.14850000  0.28580000  0.32640000  1.0 -0.5235515007
O  O106  1  0.35150000  0.71420000  0.82640000  1.0 -0.5235515007
O  O107  1  0.85150000  0.78580000  0.17360000  1.0 -0.5235515007
O  O108  1  0.64850000  0.21420000  0.67360000  1.0 -0.5235515007
O  O109  1  0.32640000  0.14850000  0.28580000  1.0 -0.5235515007
O  O110  1  0.28580000  0.32640000  0.14850000  1.0 -0.5235515007
O  O111  1  0.67360000  0.64850000  0.21420000  1.0 -0.5235515007
O  O112  1  0.71420000  0.82640000  0.35150000  1.0 -0.5235515007
O  O113  1  0.17360000  0.85150000  0.78580000  1.0 -0.5235515007
O  O114  1  0.21420000  0.67360000  0.64850000  1.0 -0.5235515007
O  O115  1  0.82640000  0.35150000  0.71420000  1.0 -0.5235515007
O  O116  1  0.78580000  0.17360000  0.85150000  1.0 -0.5235515007
O  O117  1  0.85150000  0.71420000  0.67360000  1.0 -0.5235515007
O  O118  1  0.64850000  0.28580000  0.17360000  1.0 -0.5235515007
O  O119  1  0.14850000  0.21420000  0.82640000  1.0 -0.5235515007
O  O120  1  0.35150000  0.78580000  0.32640000  1.0 -0.5235515007
O  O121  1  0.67360000  0.85150000  0.71420000  1.0 -0.5235515007
O  O122  1  0.71420000  0.67360000  0.85150000  1.0 -0.5235515007
O  O123  1  0.32640000  0.35150000  0.78580000  1.0 -0.5235515007
O  O124  1  0.28580000  0.17360000  0.64850000  1.0 -0.5235515007
O  O125  1  0.82640000  0.14850000  0.21420000  1.0 -0.5235515007
O  O126  1  0.78580000  0.32640000  0.35150000  1.0 -0.5235515007
O  O127  1  0.17360000  0.64850000  0.28580000  1.0 -0.5235515007
O  O128  1  0.21420000  0.82640000  0.14850000  1.0 -0.5235515007
O  O129  1  0.12260000  0.35390000  0.28290000  1.0 -0.5125323006
O  O130  1  0.37740000  0.64610000  0.78290000  1.0 -0.5125323006
O  O131  1  0.87740000  0.85390000  0.21710000  1.0 -0.5125323006
O  O132  1  0.62260000  0.14610000  0.71710000  1.0 -0.5125323006
O  O133  1  0.28290000  0.12260000  0.35390000  1.0 -0.5125323006
O  O134  1  0.35390000  0.28290000  0.12260000  1.0 -0.5125323006
O  O135  1  0.71710000  0.62260000  0.14610000  1.0 -0.5125323006
O  O136  1  0.64610000  0.78290000  0.37740000  1.0 -0.5125323006
O  O137  1  0.21710000  0.87740000  0.85390000  1.0 -0.5125323006
O  O138  1  0.14610000  0.71710000  0.62260000  1.0 -0.5125323006
O  O139  1  0.78290000  0.37740000  0.64610000  1.0 -0.5125323006
O  O140  1  0.85390000  0.21710000  0.87740000  1.0 -0.5125323006
O  O141  1  0.87740000  0.64610000  0.71710000  1.0 -0.5125323006
O  O142  1  0.62260000  0.35390000  0.21710000  1.0 -0.5125323006
O  O143  1  0.12260000  0.14610000  0.78290000  1.0 -0.5125323006
O  O144  1  0.37740000  0.85390000  0.28290000  1.0 -0.5125323006
O  O145  1  0.71710000  0.87740000  0.64610000  1.0 -0.5125323006
O  O146  1  0.64610000  0.71710000  0.87740000  1.0 -0.5125323006
O  O147  1  0.28290000  0.37740000  0.85390000  1.0 -0.5125323006
O  O148  1  0.35390000  0.21710000  0.62260000  1.0 -0.5125323006
O  O149  1  0.78290000  0.12260000  0.14610000  1.0 -0.5125323006
O  O150  1  0.85390000  0.28290000  0.37740000  1.0 -0.5125323006
O  O151  1  0.21710000  0.62260000  0.35390000  1.0 -0.5125323006
O  O152  1  0.14610000  0.78290000  0.12260000  1.0 -0.5125323006
O  O153  1  0.13050000  0.07060000  0.25750000  1.0 -0.2396674414
O  O154  1  0.36950000  0.92940000  0.75750000  1.0 -0.2396674414
O  O155  1  0.86950000  0.57060000  0.24250000  1.0 -0.2396674414
O  O156  1  0.63050000  0.42940000  0.74250000  1.0 -0.2396674414
O  O157  1  0.25750000  0.13050000  0.07060000  1.0 -0.2396674414
O  O158  1  0.07060000  0.25750000  0.13050000  1.0 -0.2396674414
O  O159  1  0.74250000  0.63050000  0.42940000  1.0 -0.2396674414
O  O160  1  0.92940000  0.75750000  0.36950000  1.0 -0.2396674414
O  O161  1  0.24250000  0.86950000  0.57060000  1.0 -0.2396674414
O  O162  1  0.42940000  0.74250000  0.63050000  1.0 -0.2396674414
O  O163  1  0.75750000  0.36950000  0.92940000  1.0 -0.2396674414
O  O164  1  0.57060000  0.24250000  0.86950000  1.0 -0.2396674414
O  O165  1  0.86950000  0.92940000  0.74250000  1.0 -0.2396674414
O  O166  1  0.63050000  0.07060000  0.24250000  1.0 -0.2396674414
O  O167  1  0.13050000  0.42940000  0.75750000  1.0 -0.2396674414
O  O168  1  0.36950000  0.57060000  0.25750000  1.0 -0.2396674414
O  O169  1  0.74250000  0.86950000  0.92940000  1.0 -0.2396674414
O  O170  1  0.92940000  0.74250000  0.86950000  1.0 -0.2396674414
O  O171  1  0.25750000  0.36950000  0.57060000  1.0 -0.2396674414
O  O172  1  0.07060000  0.24250000  0.63050000  1.0 -0.2396674414
O  O173  1  0.75750000  0.13050000  0.42940000  1.0 -0.2396674414
O  O174  1  0.57060000  0.25750000  0.36950000  1.0 -0.2396674414
O  O175  1  0.24250000  0.63050000  0.07060000  1.0 -0.2396674414
O  O176  1  0.42940000  0.75750000  0.13050000  1.0 -0.2396674414
O  O177  1  0.08250000  0.05500000  0.13150000  1.0 -0.1691068206
O  O178  1  0.41750000  0.94500000  0.63150000  1.0 -0.1691068206
O  O179  1  0.91750000  0.55500000  0.36850000  1.0 -0.1691068206
O  O180  1  0.58250000  0.44500000  0.86850000  1.0 -0.1691068206
O  O181  1  0.13150000  0.08250000  0.05500000  1.0 -0.1691068206
O  O182  1  0.05500000  0.13150000  0.08250000  1.0 -0.1691068206
O  O183  1  0.86850000  0.58250000  0.44500000  1.0 -0.1691068206
O  O184  1  0.94500000  0.63150000  0.41750000  1.0 -0.1691068206
O  O185  1  0.36850000  0.91750000  0.55500000  1.0 -0.1691068206
O  O186  1  0.44500000  0.86850000  0.58250000  1.0 -0.1691068206
O  O187  1  0.63150000  0.41750000  0.94500000  1.0 -0.1691068206
O  O188  1  0.55500000  0.36850000  0.91750000  1.0 -0.1691068206
O  O189  1  0.91750000  0.94500000  0.86850000  1.0 -0.1691068206
O  O190  1  0.58250000  0.05500000  0.36850000  1.0 -0.1691068206
O  O191  1  0.08250000  0.44500000  0.63150000  1.0 -0.1691068206
O  O192  1  0.41750000  0.55500000  0.13150000  1.0 -0.1691068206
O  O193  1  0.86850000  0.91750000  0.94500000  1.0 -0.1691068206
O  O194  1  0.94500000  0.86850000  0.91750000  1.0 -0.1691068206
O  O195  1  0.13150000  0.41750000  0.55500000  1.0 -0.1691068206
O  O196  1  0.05500000  0.36850000  0.58250000  1.0 -0.1691068206
O  O197  1  0.63150000  0.08250000  0.44500000  1.0 -0.1691068206
O  O198  1  0.55500000  0.13150000  0.41750000  1.0 -0.1691068206
O  O199  1  0.36850000  0.58250000  0.05500000  1.0 -0.1691068206
O  O200  1  0.44500000  0.63150000  0.08250000  1.0 -0.1691068206
O  O201  1  0.12420000  0.06080000  0.24760000  1.0 -0.0668311222
O  O202  1  0.37580000  0.93920000  0.74760000  1.0 -0.0668311222
O  O203  1  0.87580000  0.56080000  0.25240000  1.0 -0.0668311222
O  O204  1  0.62420000  0.43920000  0.75240000  1.0 -0.0668311222
O  O205  1  0.24760000  0.12420000  0.06080000  1.0 -0.0668311222
O  O206  1  0.06080000  0.24760000  0.12420000  1.0 -0.0668311222
O  O207  1  0.75240000  0.62420000  0.43920000  1.0 -0.0668311222
O  O208  1  0.93920000  0.74760000  0.37580000  1.0 -0.0668311222
O  O209  1  0.25240000  0.87580000  0.56080000  1.0 -0.0668311222
O  O210  1  0.43920000  0.75240000  0.62420000  1.0 -0.0668311222
O  O211  1  0.74760000  0.37580000  0.93920000  1.0 -0.0668311222
O  O212  1  0.56080000  0.25240000  0.87580000  1.0 -0.0668311222
O  O213  1  0.87580000  0.93920000  0.75240000  1.0 -0.0668311222
O  O214  1  0.62420000  0.06080000  0.25240000  1.0 -0.0668311222
O  O215  1  0.12420000  0.43920000  0.74760000  1.0 -0.0668311222
O  O216  1  0.37580000  0.56080000  0.24760000  1.0 -0.0648740978
O  O217  1  0.75240000  0.87580000  0.93920000  1.0 -0.0668311222
O  O218  1  0.93920000  0.75240000  0.87580000  1.0 -0.0668311222
O  O219  1  0.24760000  0.37580000  0.56080000  1.0 -0.0648740978
O  O220  1  0.06080000  0.25240000  0.62420000  1.0 -0.0668311222
O  O221  1  0.74760000  0.12420000  0.43920000  1.0 -0.0668311222
O  O222  1  0.56080000  0.24760000  0.37580000  1.0 -0.0648740978
O  O223  1  0.25240000  0.62420000  0.06080000  1.0 -0.0668311222
O  O224  1  0.43920000  0.74760000  0.12420000  1.0 -0.0668311222
O  O225  1  0.09100000  0.04640000  0.17410000  1.0 0.0892854324
O  O226  1  0.40900000  0.95360000  0.67410000  1.0 0.0892854324
O  O227  1  0.90900000  0.54640000  0.32590000  1.0 0.0892854324
O  O228  1  0.59100000  0.45360000  0.82590000  1.0 0.0892854324
O  O229  1  0.17410000  0.09100000  0.04640000  1.0 0.0892854324
O  O230  1  0.04640000  0.17410000  0.09100000  1.0 0.0892854324
O  O231  1  0.82590000  0.59100000  0.45360000  1.0 0.0892854324
O  O232  1  0.95360000  0.67410000  0.40900000  1.0 0.0892854324
O  O233  1  0.32590000  0.90900000  0.54640000  1.0 0.0892854324
O  O234  1  0.45360000  0.82590000  0.59100000  1.0 0.0892854324
O  O235  1  0.67410000  0.40900000  0.95360000  1.0 0.0892854324
O  O236  1  0.54640000  0.32590000  0.90900000  1.0 0.0892854324
O  O237  1  0.90900000  0.95360000  0.82590000  1.0 0.0892854324
O  O238  1  0.59100000  0.04640000  0.32590000  1.0 0.0892854324
O  O239  1  0.09100000  0.45360000  0.67410000  1.0 0.0892854324
O  O240  1  0.40900000  0.54640000  0.17410000  1.0 0.0892854324
O  O241  1  0.82590000  0.90900000  0.95360000  1.0 0.0892854324
O  O242  1  0.95360000  0.82590000  0.90900000  1.0 0.0892854324
O  O243  1  0.17410000  0.40900000  0.54640000  1.0 0.0892854324
O  O244  1  0.04640000  0.32590000  0.59100000  1.0 0.0892854324
O  O245  1  0.67410000  0.09100000  0.45360000  1.0 0.0892854324
O  O246  1  0.54640000  0.17410000  0.40900000  1.0 0.0892854324
O  O247  1  0.32590000  0.59100000  0.04640000  1.0 0.0892854324
O  O248  1  0.45360000  0.67410000  0.09100000  1.0 0.0892854324
