# DDEC6 charges by PACMAN v1.1 (https://github.com/mtap-research/PACMAN-charge/)
data_GIFJUD_ASR_pacman
_symmetry_space_group_name_H-M   'P 1'
_cell_length_a   13.37270000
_cell_length_b   13.37270000
_cell_length_c   24.53650000
_cell_angle_alpha   81.90840000
_cell_angle_beta   98.09160000
_cell_angle_gamma   115.29700000
_symmetry_Int_Tables_number   1
_chemical_formula_structural   Yb4H19C49(N3O13)2
_chemical_formula_sum   'Yb8 H38 C98 N12 O52'
_cell_volume   3911.61422532
_cell_formula_units_Z   2
loop_
 _symmetry_equiv_pos_site_id
 _symmetry_equiv_pos_as_xyz
  1  'x, y, z'
loop_
 _atom_site_type_symbol
 _atom_site_label
 _atom_site_symmetry_multiplicity
 _atom_site_fract_x
 _atom_site_fract_y
 _atom_site_fract_z
 _atom_site_occupancy
 _atom_site_charge
Yb  Yb1  1  0.01407000  0.49989000  0.82947000  1.0 2.0891724053
Yb  Yb2  1  0.37084000  0.66604000  0.74876000  1.0 2.0891724053
Yb  Yb3  1  0.49989000  0.01407000  0.67053000  1.0 2.0891724053
Yb  Yb4  1  0.66604000  0.37084000  0.75124000  1.0 2.0891724053
Yb  Yb5  1  0.98593000  0.50011000  0.17053000  1.0 2.0891724053
Yb  Yb6  1  0.62916000  0.33396000  0.25124000  1.0 2.0891724053
Yb  Yb7  1  0.50011000  0.98593000  0.32947000  1.0 2.0891724053
Yb  Yb8  1  0.33396000  0.62916000  0.24876000  1.0 2.0891724053
H  H1  1  0.49120000  0.60260000  0.60580000  1.0 0.140581166
H  H2  1  0.52390000  0.67210000  0.44250000  1.0 0.140581166
H  H3  1  0.52570000  0.90230000  0.53300000  1.0 0.1496008074
H  H4  1  0.97720000  0.15760000  0.82980000  1.0 0.140581166
H  H5  1  0.27260000  0.16300000  0.79210000  1.0 0.140581166
H  H6  1  0.77200000  0.84240000  0.79680000  1.0 0.140581166
H  H7  1  0.39180000  0.93300000  0.79330000  1.0 0.140581166
H  H8  1  0.07880000  0.83880000  0.83060000  1.0 0.140581166
H  H9  1  0.64950000  0.06990000  0.79260000  1.0 0.140581166
H  H10  1  0.60260000  0.49120000  0.89420000  1.0 0.140581166
H  H11  1  0.67210000  0.52390000  0.05750000  1.0 0.140581166
H  H12  1  0.90230000  0.52570000  0.96700000  1.0 0.1496008074
H  H13  1  0.15760000  0.97720000  0.67020000  1.0 0.140581166
H  H14  1  0.16300000  0.27260000  0.70790000  1.0 0.140581166
H  H15  1  0.84240000  0.77200000  0.70320000  1.0 0.140581166
H  H16  1  0.93300000  0.39180000  0.70670000  1.0 0.140581166
H  H17  1  0.83880000  0.07880000  0.66940000  1.0 0.140581166
H  H18  1  0.06990000  0.64950000  0.70740000  1.0 0.140581166
H  H19  1  0.50880000  0.39740000  0.39420000  1.0 0.140581166
H  H20  1  0.47610000  0.32790000  0.55750000  1.0 0.140581166
H  H21  1  0.47430000  0.09770000  0.46700000  1.0 0.1496008074
H  H22  1  0.02280000  0.84240000  0.17020000  1.0 0.140581166
H  H23  1  0.72740000  0.83700000  0.20790000  1.0 0.140581166
H  H24  1  0.22800000  0.15760000  0.20320000  1.0 0.140581166
H  H25  1  0.60820000  0.06700000  0.20670000  1.0 0.140581166
H  H26  1  0.92120000  0.16120000  0.16940000  1.0 0.140581166
H  H27  1  0.35050000  0.93010000  0.20740000  1.0 0.140581166
H  H28  1  0.39740000  0.50880000  0.10580000  1.0 0.140581166
H  H29  1  0.32790000  0.47610000  0.94250000  1.0 0.140581166
H  H30  1  0.09770000  0.47430000  0.03300000  1.0 0.1496008074
H  H31  1  0.84240000  0.02280000  0.32980000  1.0 0.140581166
H  H32  1  0.83700000  0.72740000  0.29210000  1.0 0.140581166
H  H33  1  0.15760000  0.22800000  0.29680000  1.0 0.140581166
H  H34  1  0.06700000  0.60820000  0.29330000  1.0 0.140581166
H  H35  1  0.16120000  0.92120000  0.33060000  1.0 0.140581166
H  H36  1  0.93010000  0.35050000  0.29260000  1.0 0.140581166
H  H37  1  0.60960000  0.60960000  0.75000000  1.0 0.140581166
H  H38  1  0.39040000  0.39040000  0.25000000  1.0 0.140581166
C  C1  1  0.50010000  0.65230000  0.57440000  1.0 -0.147044557
C  C2  1  0.49850000  0.79070000  0.63220000  1.0 0.6628204919
C  C3  1  0.21970000  0.74930000  0.81940000  1.0 0.6652933541
C  C4  1  0.51870000  0.69370000  0.47610000  1.0 -0.1413063583
C  C5  1  0.45770000  0.14410000  0.77010000  1.0 0.6484516385
C  C6  1  0.50740000  0.75680000  0.57760000  1.0 -0.0092323576
C  C7  1  0.82790000  0.24590000  0.81800000  1.0 0.6628204919
C  C8  1  0.53020000  0.87340000  0.42720000  1.0 0.5602960411
C  C9  1  0.89040000  0.99620000  0.81290000  1.0 0.155824286
C  C10  1  0.51980000  0.83120000  0.53040000  1.0 -0.0820996639
C  C11  1  0.52340000  0.79840000  0.47900000  1.0 0.0059210561
C  C12  1  0.69310000  0.94410000  0.79180000  1.0 -0.0092323576
C  C13  1  0.90640000  0.10420000  0.82040000  1.0 -0.131639202
C  C14  1  0.26260000  0.08920000  0.79680000  1.0 -0.1413063583
C  C15  1  0.50630000  0.62170000  0.52370000  1.0 0.1496008074
C  C16  1  0.78310000  0.91490000  0.80000000  1.0 -0.1413063583
C  C17  1  0.33400000  0.95120000  0.79830000  1.0 -0.1051602651
C  C18  1  0.14630000  0.89410000  0.82040000  1.0 -0.131639202
C  C19  1  0.23380000  0.86700000  0.81430000  1.0 -0.0244169868
C  C20  1  0.81480000  0.13080000  0.81380000  1.0 -0.0244169868
C  C21  1  0.16090000  0.00410000  0.81100000  1.0 0.1496008074
C  C22  1  0.34870000  0.06030000  0.78980000  1.0 -0.0092323576
C  C23  1  0.70960000  0.05080000  0.79850000  1.0 -0.1024583307
C  C24  1  0.57840000  0.86140000  0.77500000  1.0 0.6312143627
C  C25  1  0.65230000  0.50010000  0.92560000  1.0 -0.147044557
C  C26  1  0.79070000  0.49850000  0.86780000  1.0 0.6628204919
C  C27  1  0.74930000  0.21970000  0.68060000  1.0 0.6652933541
C  C28  1  0.69370000  0.51870000  0.02390000  1.0 -0.1413063583
C  C29  1  0.14410000  0.45770000  0.72990000  1.0 0.6484516385
C  C30  1  0.75680000  0.50740000  0.92240000  1.0 -0.0092323576
C  C31  1  0.24590000  0.82790000  0.68200000  1.0 0.6628204919
C  C32  1  0.87340000  0.53020000  0.07280000  1.0 0.5602960411
C  C33  1  0.99620000  0.89040000  0.68710000  1.0 0.155824286
C  C34  1  0.83120000  0.51980000  0.96960000  1.0 -0.0820996639
C  C35  1  0.79840000  0.52340000  0.02100000  1.0 0.0059210561
C  C36  1  0.94410000  0.69310000  0.70820000  1.0 -0.0092323576
C  C37  1  0.10420000  0.90640000  0.67960000  1.0 -0.131639202
C  C38  1  0.08920000  0.26260000  0.70320000  1.0 -0.1413063583
C  C39  1  0.62170000  0.50630000  0.97630000  1.0 0.1496008074
C  C40  1  0.91490000  0.78310000  0.70000000  1.0 -0.1413063583
C  C41  1  0.95120000  0.33400000  0.70170000  1.0 -0.1051602651
C  C42  1  0.89410000  0.14630000  0.67960000  1.0 -0.131639202
C  C43  1  0.86700000  0.23380000  0.68570000  1.0 -0.0244169868
C  C44  1  0.13080000  0.81480000  0.68620000  1.0 -0.0244169868
C  C45  1  0.00410000  0.16090000  0.68900000  1.0 0.1496008074
C  C46  1  0.06030000  0.34870000  0.71020000  1.0 -0.0092323576
C  C47  1  0.05080000  0.70960000  0.70150000  1.0 -0.1024583307
C  C48  1  0.86140000  0.57840000  0.72500000  1.0 0.6312143627
C  C49  1  0.49990000  0.34770000  0.42560000  1.0 -0.147044557
C  C50  1  0.50150000  0.20930000  0.36780000  1.0 0.6628204919
C  C51  1  0.78030000  0.25070000  0.18060000  1.0 0.6652933541
C  C52  1  0.48130000  0.30630000  0.52390000  1.0 -0.1413063583
C  C53  1  0.54230000  0.85590000  0.22990000  1.0 0.6484516385
C  C54  1  0.49260000  0.24320000  0.42240000  1.0 -0.0092323576
C  C55  1  0.17210000  0.75410000  0.18200000  1.0 0.6628204919
C  C56  1  0.46980000  0.12660000  0.57280000  1.0 0.5602960411
C  C57  1  0.10960000  0.00380000  0.18710000  1.0 0.155824286
C  C58  1  0.48020000  0.16880000  0.46960000  1.0 -0.0820996639
C  C59  1  0.47660000  0.20160000  0.52100000  1.0 0.0059210561
C  C60  1  0.30690000  0.05590000  0.20820000  1.0 -0.0092323576
C  C61  1  0.09360000  0.89580000  0.17960000  1.0 -0.131639202
C  C62  1  0.73740000  0.91080000  0.20320000  1.0 -0.1413063583
C  C63  1  0.49370000  0.37830000  0.47630000  1.0 0.1496008074
C  C64  1  0.21690000  0.08510000  0.20000000  1.0 -0.1413063583
C  C65  1  0.66600000  0.04880000  0.20170000  1.0 -0.1051602651
C  C66  1  0.85370000  0.10590000  0.17960000  1.0 -0.131639202
C  C67  1  0.76620000  0.13300000  0.18570000  1.0 -0.0244169868
C  C68  1  0.18520000  0.86920000  0.18620000  1.0 -0.0244169868
C  C69  1  0.83910000  0.99590000  0.18900000  1.0 0.1496008074
C  C70  1  0.65130000  0.93970000  0.21020000  1.0 -0.0092323576
C  C71  1  0.29040000  0.94920000  0.20150000  1.0 -0.1024583307
C  C72  1  0.42160000  0.13860000  0.22500000  1.0 0.6312143627
C  C73  1  0.34770000  0.49990000  0.07440000  1.0 -0.147044557
C  C74  1  0.20930000  0.50150000  0.13220000  1.0 0.6652933541
C  C75  1  0.25070000  0.78030000  0.31940000  1.0 0.6652933541
C  C76  1  0.30630000  0.48130000  0.97610000  1.0 -0.1413063583
C  C77  1  0.85590000  0.54230000  0.27010000  1.0 0.6484516385
C  C78  1  0.24320000  0.49260000  0.07760000  1.0 -0.0092323576
C  C79  1  0.75410000  0.17210000  0.31800000  1.0 0.6628204919
C  C80  1  0.12660000  0.46980000  0.92720000  1.0 0.5602960411
C  C81  1  0.00380000  0.10960000  0.31290000  1.0 0.155824286
C  C82  1  0.16880000  0.48020000  0.03040000  1.0 -0.0820996639
C  C83  1  0.20160000  0.47660000  0.97900000  1.0 0.0059210561
C  C84  1  0.05590000  0.30690000  0.29180000  1.0 -0.0092323576
C  C85  1  0.89580000  0.09360000  0.32040000  1.0 -0.131639202
C  C86  1  0.91080000  0.73740000  0.29680000  1.0 -0.1413063583
C  C87  1  0.37830000  0.49370000  0.02370000  1.0 0.1496008074
C  C88  1  0.08510000  0.21690000  0.30000000  1.0 -0.1413063583
C  C89  1  0.04880000  0.66600000  0.29830000  1.0 -0.1051602651
C  C90  1  0.10590000  0.85370000  0.32040000  1.0 -0.131639202
C  C91  1  0.13300000  0.76620000  0.31430000  1.0 -0.0244169868
C  C92  1  0.86920000  0.18520000  0.31380000  1.0 -0.0244169868
C  C93  1  0.99590000  0.83910000  0.31100000  1.0 0.1496008074
C  C94  1  0.93970000  0.65130000  0.28980000  1.0 -0.0092323576
C  C95  1  0.94920000  0.29040000  0.29850000  1.0 -0.1024583307
C  C96  1  0.13860000  0.42160000  0.27500000  1.0 0.6312143627
C  C97  1  0.54460000  0.54460000  0.75000000  1.0 0.5949357572
C  C98  1  0.45540000  0.45540000  0.25000000  1.0 0.5949357572
N  N1  1  0.97850000  0.96110000  0.81540000  1.0 -0.1169321117
N  N2  1  0.49840000  0.51140000  0.52350000  1.0 -0.1051602651
N  N3  1  0.07380000  0.03940000  0.81340000  1.0 -0.1169321117
N  N4  1  0.96110000  0.97850000  0.68460000  1.0 -0.1169321117
N  N5  1  0.51140000  0.49840000  0.97650000  1.0 -0.1051602651
N  N6  1  0.03940000  0.07380000  0.68660000  1.0 -0.1169321117
N  N7  1  0.02150000  0.03890000  0.18460000  1.0 -0.1169321117
N  N8  1  0.50160000  0.48860000  0.47650000  1.0 -0.1051602651
N  N9  1  0.92620000  0.96060000  0.18660000  1.0 -0.1169321117
N  N10  1  0.03890000  0.02150000  0.31540000  1.0 -0.1169321117
N  N11  1  0.48860000  0.50160000  0.02350000  1.0 -0.1051602651
N  N12  1  0.96060000  0.92620000  0.31340000  1.0 -0.1169321117
O  O1  1  0.12620000  0.67600000  0.83320000  1.0 -0.6913968799
O  O2  1  0.51000000  0.89700000  0.74730000  1.0 -0.7380925593
O  O3  1  0.53110000  0.83950000  0.38150000  1.0 -0.6306843933
O  O4  1  0.50400000  0.23860000  0.78810000  1.0 -0.6232196269
O  O5  1  0.45380000  0.55240000  0.74490000  1.0 -0.6024875817
O  O6  1  0.92380000  0.31700000  0.83260000  1.0 -0.6913968799
O  O7  1  0.54360000  0.89180000  0.63840000  1.0 -0.650185543
O  O8  1  0.74380000  0.26560000  0.80580000  1.0 -0.6604831693
O  O9  1  0.29740000  0.72960000  0.80830000  1.0 -0.6604831693
O  O10  1  0.50240000  0.11500000  0.73680000  1.0 -0.7196096954
O  O11  1  0.44840000  0.71400000  0.66740000  1.0 -0.6604831693
O  O12  1  0.52940000  0.96640000  0.42800000  1.0 -0.6024875817
O  O13  1  0.55100000  0.76020000  0.78920000  1.0 -0.6422888812
O  O14  1  0.67600000  0.12620000  0.66680000  1.0 -0.6913968799
O  O15  1  0.89700000  0.51000000  0.75270000  1.0 -0.7380925593
O  O16  1  0.83950000  0.53110000  0.11850000  1.0 -0.6306843933
O  O17  1  0.23860000  0.50400000  0.71190000  1.0 -0.6232196269
O  O18  1  0.55240000  0.45380000  0.75510000  1.0 -0.6024875817
O  O19  1  0.31700000  0.92380000  0.66740000  1.0 -0.6913968799
O  O20  1  0.89180000  0.54360000  0.86160000  1.0 -0.650185543
O  O21  1  0.26560000  0.74380000  0.69420000  1.0 -0.6604831693
O  O22  1  0.72960000  0.29740000  0.69170000  1.0 -0.6604831693
O  O23  1  0.11500000  0.50240000  0.76320000  1.0 -0.7196096954
O  O24  1  0.71400000  0.44840000  0.83260000  1.0 -0.6604831693
O  O25  1  0.96640000  0.52940000  0.07200000  1.0 -0.6024875817
O  O26  1  0.76020000  0.55100000  0.71080000  1.0 -0.6422888812
O  O27  1  0.87380000  0.32400000  0.16680000  1.0 -0.6913968799
O  O28  1  0.49000000  0.10300000  0.25270000  1.0 -0.7380925593
O  O29  1  0.46890000  0.16050000  0.61850000  1.0 -0.6306843933
O  O30  1  0.49600000  0.76140000  0.21190000  1.0 -0.6232196269
O  O31  1  0.54620000  0.44760000  0.25510000  1.0 -0.6024875817
O  O32  1  0.07620000  0.68300000  0.16740000  1.0 -0.6913968799
O  O33  1  0.45640000  0.10820000  0.36160000  1.0 -0.650185543
O  O34  1  0.25620000  0.73440000  0.19420000  1.0 -0.6604831693
O  O35  1  0.70260000  0.27040000  0.19170000  1.0 -0.6604831693
O  O36  1  0.49760000  0.88500000  0.26320000  1.0 -0.7196096954
O  O37  1  0.55160000  0.28600000  0.33260000  1.0 -0.6604831693
O  O38  1  0.47060000  0.03360000  0.57200000  1.0 -0.6024875817
O  O39  1  0.44900000  0.23980000  0.21080000  1.0 -0.6422888812
O  O40  1  0.32400000  0.87380000  0.33320000  1.0 -0.6913968799
O  O41  1  0.10300000  0.49000000  0.24730000  1.0 -0.7380925593
O  O42  1  0.16050000  0.46890000  0.88150000  1.0 -0.6306843933
O  O43  1  0.76140000  0.49600000  0.28810000  1.0 -0.6232196269
O  O44  1  0.44760000  0.54620000  0.24490000  1.0 -0.6024875817
O  O45  1  0.68300000  0.07620000  0.33260000  1.0 -0.6913968799
O  O46  1  0.10820000  0.45640000  0.13840000  1.0 -0.650185543
O  O47  1  0.73440000  0.25620000  0.30580000  1.0 -0.6604831693
O  O48  1  0.27040000  0.70260000  0.30830000  1.0 -0.6604831693
O  O49  1  0.88500000  0.49760000  0.23680000  1.0 -0.7196096954
O  O50  1  0.28600000  0.55160000  0.16740000  1.0 -0.6604831693
O  O51  1  0.03360000  0.47060000  0.92800000  1.0 -0.6024875817
O  O52  1  0.23980000  0.44900000  0.28920000  1.0 -0.6422888812
