# DDEC6 charges by PACMAN v1.1 (https://github.com/mtap-research/PACMAN-charge/)
data_GIGDOT_ASR_pacman
_symmetry_space_group_name_H-M   'P 1'
_cell_length_a   14.56560000
_cell_length_b   14.56560000
_cell_length_c   29.98100000
_cell_angle_alpha   90.00000000
_cell_angle_beta   90.00000000
_cell_angle_gamma   121.90700000
_symmetry_Int_Tables_number   1
_chemical_formula_structural   Sc3H64C108O13
_chemical_formula_sum   'Sc6 H128 C216 O26'
_cell_volume   5399.61815812
_cell_formula_units_Z   2
loop_
 _symmetry_equiv_pos_site_id
 _symmetry_equiv_pos_as_xyz
  1  'x, y, z'
loop_
 _atom_site_type_symbol
 _atom_site_label
 _atom_site_symmetry_multiplicity
 _atom_site_fract_x
 _atom_site_fract_y
 _atom_site_fract_z
 _atom_site_occupancy
 _atom_site_charge
Sc  Sc1  1  0.12813000  0.99109000  0.91931000  1.0 1.796837924
Sc  Sc2  1  0.87187000  0.00891000  0.41931000  1.0 1.796837924
Sc  Sc3  1  0.00891000  0.87187000  0.41931000  1.0 1.7941485226
Sc  Sc4  1  0.99109000  0.12813000  0.91931000  1.0 1.796837924
Sc  Sc5  1  0.84797000  0.84797000  0.93141000  1.0 1.7774968326
Sc  Sc6  1  0.15203000  0.15203000  0.43141000  1.0 1.7774968326
H  H1  1  0.12169000  0.78659000  0.81722000  1.0 0.110510742
H  H2  1  0.10795000  0.69329000  0.75219000  1.0 0.1260956183
H  H3  1  0.78840000  0.49790000  0.76873000  1.0 0.1196197961
H  H4  1  0.79636000  0.61286000  0.82454000  1.0 0.110510742
H  H5  1  0.92835000  0.67121000  0.68827000  1.0 0.110510742
H  H6  1  0.95348000  0.74174000  0.61732000  1.0 0.110510742
H  H7  1  0.95131000  0.63597000  0.55633000  1.0 0.0997383941
H  H8  1  0.96779000  0.48819000  0.57126000  1.0 0.110510742
H  H9  1  0.97802000  0.23514000  0.67529000  1.0 0.1196197961
H  H10  1  0.98724000  0.18730000  0.74816000  1.0 0.110510742
H  H11  1  0.97401000  0.28161000  0.80761000  1.0 0.110510742
H  H12  1  0.94932000  0.42614000  0.79458000  1.0 0.110510742
H  H13  1  0.14857000  0.33207000  0.54393000  1.0 0.0997383941
H  H14  1  0.13207000  0.41897000  0.60583000  1.0 0.1196197961
H  H15  1  0.80712000  0.23540000  0.59602000  1.0 0.1196197961
H  H16  1  0.82274000  0.15062000  0.53238000  1.0 0.1196197961
H  H17  1  0.13155000  0.28359000  0.79048000  1.0 0.0800526056
H  H18  1  0.22304000  0.36376000  0.72453000  1.0 0.0889677733
H  H19  1  0.46277000  0.32079000  0.75590000  1.0 0.0997383941
H  H20  1  0.35502000  0.20636000  0.81345000  1.0 0.0800526056
H  H21  1  0.52106000  0.53690000  0.77391000  1.0 0.1196197961
H  H22  1  0.69472000  0.67606000  0.78653000  1.0 0.0997383941
H  H23  1  0.80501000  0.77513000  0.72419000  1.0 0.0696876452
H  H24  1  0.73706000  0.71494000  0.65268000  1.0 0.0800526056
H  H25  1  0.45565000  0.45809000  0.55054000  1.0 0.1196197961
H  H26  1  0.27827000  0.31553000  0.54034000  1.0 0.0800526056
H  H27  1  0.17576000  0.21318000  0.60066000  1.0 0.0613404225
H  H28  1  0.23803000  0.27097000  0.67377000  1.0 0.0613404225
H  H29  1  0.67059000  0.82427000  0.52851000  1.0 0.0997383941
H  H30  1  0.57077000  0.71829000  0.58936000  1.0 0.0997383941
H  H31  1  0.69103000  0.52727000  0.57091000  1.0 0.0800526056
H  H32  1  0.78482000  0.62808000  0.50727000  1.0 0.0889677733
H  H33  1  0.87831000  0.21341000  0.31722000  1.0 0.110510742
H  H34  1  0.89205000  0.30671000  0.25219000  1.0 0.1260956183
H  H35  1  0.21160000  0.50210000  0.26873000  1.0 0.1196197961
H  H36  1  0.20364000  0.38714000  0.32454000  1.0 0.110510742
H  H37  1  0.07165000  0.32879000  0.18827000  1.0 0.110510742
H  H38  1  0.04652000  0.25826000  0.11732000  1.0 0.110510742
H  H39  1  0.04869000  0.36403000  0.05633000  1.0 0.0997383941
H  H40  1  0.03221000  0.51181000  0.07126000  1.0 0.110510742
H  H41  1  0.02198000  0.76486000  0.17529000  1.0 0.1196197961
H  H42  1  0.01276000  0.81270000  0.24816000  1.0 0.110510742
H  H43  1  0.02599000  0.71839000  0.30761000  1.0 0.110510742
H  H44  1  0.05068000  0.57386000  0.29458000  1.0 0.110510742
H  H45  1  0.85143000  0.66793000  0.04393000  1.0 0.0997383941
H  H46  1  0.86793000  0.58103000  0.10583000  1.0 0.1196197961
H  H47  1  0.19288000  0.76460000  0.09602000  1.0 0.1196197961
H  H48  1  0.17726000  0.84938000  0.03238000  1.0 0.1196197961
H  H49  1  0.86845000  0.71641000  0.29048000  1.0 0.0800526056
H  H50  1  0.77696000  0.63624000  0.22453000  1.0 0.0889677733
H  H51  1  0.53723000  0.67921000  0.25590000  1.0 0.0997383941
H  H52  1  0.64498000  0.79364000  0.31345000  1.0 0.0889677733
H  H53  1  0.47894000  0.46310000  0.27391000  1.0 0.1196197961
H  H54  1  0.30528000  0.32394000  0.28653000  1.0 0.0997383941
H  H55  1  0.19499000  0.22487000  0.22419000  1.0 0.0696876452
H  H56  1  0.26294000  0.28506000  0.15268000  1.0 0.0800526056
H  H57  1  0.54435000  0.54191000  0.05054000  1.0 0.1196197961
H  H58  1  0.72173000  0.68447000  0.04034000  1.0 0.0800526056
H  H59  1  0.82424000  0.78682000  0.10066000  1.0 0.0613404225
H  H60  1  0.76197000  0.72903000  0.17377000  1.0 0.0613404225
H  H61  1  0.32941000  0.17573000  0.02851000  1.0 0.0997383941
H  H62  1  0.42923000  0.28171000  0.08936000  1.0 0.0997383941
H  H63  1  0.30897000  0.47273000  0.07091000  1.0 0.0800526056
H  H64  1  0.21518000  0.37192000  0.00727000  1.0 0.0889677733
H  H65  1  0.21341000  0.87831000  0.31722000  1.0 0.110510742
H  H66  1  0.30671000  0.89205000  0.25219000  1.0 0.1260956183
H  H67  1  0.50210000  0.21160000  0.26873000  1.0 0.1196197961
H  H68  1  0.38714000  0.20364000  0.32454000  1.0 0.110510742
H  H69  1  0.32879000  0.07165000  0.18827000  1.0 0.110510742
H  H70  1  0.25826000  0.04652000  0.11732000  1.0 0.110510742
H  H71  1  0.36403000  0.04869000  0.05633000  1.0 0.0997383941
H  H72  1  0.51181000  0.03221000  0.07126000  1.0 0.110510742
H  H73  1  0.76486000  0.02198000  0.17529000  1.0 0.1196197961
H  H74  1  0.81270000  0.01276000  0.24816000  1.0 0.110510742
H  H75  1  0.71839000  0.02599000  0.30761000  1.0 0.110510742
H  H76  1  0.57386000  0.05068000  0.29458000  1.0 0.110510742
H  H77  1  0.66793000  0.85143000  0.04393000  1.0 0.0997383941
H  H78  1  0.58103000  0.86793000  0.10583000  1.0 0.1196197961
H  H79  1  0.76460000  0.19288000  0.09602000  1.0 0.1196197961
H  H80  1  0.84938000  0.17726000  0.03238000  1.0 0.1196197961
H  H81  1  0.71641000  0.86845000  0.29048000  1.0 0.0800526056
H  H82  1  0.63624000  0.77696000  0.22453000  1.0 0.0889677733
H  H83  1  0.67921000  0.53723000  0.25590000  1.0 0.0997383941
H  H84  1  0.79364000  0.64498000  0.31345000  1.0 0.0800526056
H  H85  1  0.46310000  0.47894000  0.27391000  1.0 0.1196197961
H  H86  1  0.32394000  0.30528000  0.28653000  1.0 0.0997383941
H  H87  1  0.22487000  0.19499000  0.22419000  1.0 0.0696876452
H  H88  1  0.28506000  0.26294000  0.15268000  1.0 0.0800526056
H  H89  1  0.54191000  0.54435000  0.05054000  1.0 0.1196197961
H  H90  1  0.68447000  0.72173000  0.04034000  1.0 0.0800526056
H  H91  1  0.78682000  0.82424000  0.10066000  1.0 0.0613404225
H  H92  1  0.72903000  0.76197000  0.17377000  1.0 0.0613404225
H  H93  1  0.17573000  0.32941000  0.02851000  1.0 0.0997383941
H  H94  1  0.28171000  0.42923000  0.08936000  1.0 0.0997383941
H  H95  1  0.47273000  0.30897000  0.07091000  1.0 0.0800526056
H  H96  1  0.37192000  0.21518000  0.00727000  1.0 0.0889677733
H  H97  1  0.78659000  0.12169000  0.81722000  1.0 0.110510742
H  H98  1  0.69329000  0.10795000  0.75219000  1.0 0.1260956183
H  H99  1  0.49790000  0.78840000  0.76873000  1.0 0.1196197961
H  H100  1  0.61286000  0.79636000  0.82454000  1.0 0.110510742
H  H101  1  0.67121000  0.92835000  0.68827000  1.0 0.110510742
H  H102  1  0.74174000  0.95348000  0.61732000  1.0 0.110510742
H  H103  1  0.63597000  0.95131000  0.55633000  1.0 0.0997383941
H  H104  1  0.48819000  0.96779000  0.57126000  1.0 0.110510742
H  H105  1  0.23514000  0.97802000  0.67529000  1.0 0.1196197961
H  H106  1  0.18730000  0.98724000  0.74816000  1.0 0.110510742
H  H107  1  0.28161000  0.97401000  0.80761000  1.0 0.110510742
H  H108  1  0.42614000  0.94932000  0.79458000  1.0 0.110510742
H  H109  1  0.33207000  0.14857000  0.54393000  1.0 0.0997383941
H  H110  1  0.41897000  0.13207000  0.60583000  1.0 0.1196197961
H  H111  1  0.23540000  0.80712000  0.59602000  1.0 0.1196197961
H  H112  1  0.15062000  0.82274000  0.53238000  1.0 0.1196197961
H  H113  1  0.28359000  0.13155000  0.79048000  1.0 0.0800526056
H  H114  1  0.36376000  0.22304000  0.72453000  1.0 0.0889677733
H  H115  1  0.32079000  0.46277000  0.75590000  1.0 0.0997383941
H  H116  1  0.20636000  0.35502000  0.81345000  1.0 0.0800526056
H  H117  1  0.53690000  0.52106000  0.77391000  1.0 0.1196197961
H  H118  1  0.67606000  0.69472000  0.78653000  1.0 0.0997383941
H  H119  1  0.77513000  0.80501000  0.72419000  1.0 0.0696876452
H  H120  1  0.71494000  0.73706000  0.65268000  1.0 0.0800526056
H  H121  1  0.45809000  0.45565000  0.55054000  1.0 0.1196197961
H  H122  1  0.31553000  0.27827000  0.54034000  1.0 0.0800526056
H  H123  1  0.21318000  0.17576000  0.60066000  1.0 0.0613404225
H  H124  1  0.27097000  0.23803000  0.67377000  1.0 0.0613404225
H  H125  1  0.82427000  0.67059000  0.52851000  1.0 0.0997383941
H  H126  1  0.71829000  0.57077000  0.58936000  1.0 0.0997383941
H  H127  1  0.52727000  0.69103000  0.57091000  1.0 0.0800526056
H  H128  1  0.62808000  0.78482000  0.50727000  1.0 0.0889677733
C  C1  1  0.96550000  0.78110000  0.86290000  1.0 0.6253512085
C  C2  1  0.95820000  0.71100000  0.82770000  1.0 -0.0807403203
C  C3  1  0.05280000  0.73160000  0.80640000  1.0 -0.0807403203
C  C4  1  0.04440000  0.67040000  0.76930000  1.0 -0.1599841548
C  C5  1  0.95180000  0.58040000  0.75590000  1.0 0.0800526056
C  C6  1  0.85630000  0.55850000  0.77750000  1.0 -0.1795776768
C  C7  1  0.86180000  0.62600000  0.81170000  1.0 -0.0980262112
C  C8  1  0.94950000  0.51250000  0.71720000  1.0 -0.0349050358
C  C9  1  0.95190000  0.55050000  0.67500000  1.0 0.041153411
C  C10  1  0.94190000  0.63650000  0.66460000  1.0 -0.1883288592
C  C11  1  0.95020000  0.67560000  0.62220000  1.0 -0.1795776768
C  C12  1  0.95350000  0.61550000  0.58620000  1.0 -0.1416739643
C  C13  1  0.96020000  0.52580000  0.59540000  1.0 -0.1416739643
C  C14  1  0.95600000  0.48840000  0.63870000  1.0 0.041153411
C  C15  1  0.96330000  0.39770000  0.64640000  1.0 -0.0395077163
C  C16  1  0.95750000  0.36010000  0.68960000  1.0 0.041153411
C  C17  1  0.97210000  0.27450000  0.69920000  1.0 -0.1795776768
C  C18  1  0.97790000  0.24610000  0.74260000  1.0 -0.1694752196
C  C19  1  0.97040000  0.30220000  0.77790000  1.0 -0.1159739614
C  C20  1  0.95750000  0.38930000  0.77020000  1.0 -0.1599841548
C  C21  1  0.95680000  0.42220000  0.72600000  1.0 0.0316405252
C  C22  1  0.98770000  0.23310000  0.53240000  1.0 -0.0675586507
C  C23  1  0.07890000  0.31250000  0.55430000  1.0 -0.0980262112
C  C24  1  0.06880000  0.36380000  0.59130000  1.0 -0.1694752196
C  C25  1  0.96830000  0.33570000  0.60720000  1.0 0.0889677733
C  C26  1  0.87670000  0.25570000  0.58530000  1.0 -0.1599841548
C  C27  1  0.88570000  0.20450000  0.54750000  1.0 -0.0807403203
C  C28  1  0.99610000  0.18010000  0.49340000  1.0 0.6243499697
C  C29  1  0.19650000  0.28650000  0.78320000  1.0 -0.0675586507
C  C30  1  0.25690000  0.34330000  0.74600000  1.0 -0.0513543407
C  C31  1  0.35930000  0.37170000  0.73800000  1.0 -0.0020497453
C  C32  1  0.39570000  0.31370000  0.76270000  1.0 -0.0513543407
C  C33  1  0.33070000  0.24590000  0.79740000  1.0 -0.0513543407
C  C34  1  0.42290000  0.44330000  0.69880000  1.0 0.0212314396
C  C35  1  0.52360000  0.53040000  0.70790000  1.0 0.0212314396
C  C36  1  0.56640000  0.57080000  0.74880000  1.0 -0.1694752196
C  C37  1  0.66870000  0.65590000  0.75690000  1.0 -0.0920568601
C  C38  1  0.73460000  0.71320000  0.72010000  1.0 0.0004609821
C  C39  1  0.69330000  0.67610000  0.67760000  1.0 -0.0920568601
C  C40  1  0.59170000  0.58530000  0.66960000  1.0 -0.0020497453
C  C41  1  0.55560000  0.54900000  0.62620000  1.0 -0.01213938
C  C42  1  0.45150000  0.46170000  0.61880000  1.0 0.0126604966
C  C43  1  0.41110000  0.42330000  0.57580000  1.0 -0.2246612131
C  C44  1  0.30690000  0.33550000  0.56970000  1.0 0.0212314396
C  C45  1  0.24450000  0.27690000  0.60550000  1.0 -0.0395077163
C  C46  1  0.28180000  0.31060000  0.64900000  1.0 -0.0562861546
C  C47  1  0.38510000  0.40430000  0.65570000  1.0 0.0316405252
C  C48  1  0.67480000  0.76380000  0.53700000  1.0 -0.0807403203
C  C49  1  0.61670000  0.70150000  0.57360000  1.0 -0.0513543407
C  C50  1  0.62490000  0.61530000  0.58730000  1.0 0.0126604966
C  C51  1  0.68650000  0.58750000  0.56240000  1.0 -0.0675586507
C  C52  1  0.74370000  0.64830000  0.52460000  1.0 -0.0562861546
C  C53  1  0.03450000  0.21890000  0.36290000  1.0 0.6253512085
C  C54  1  0.04180000  0.28900000  0.32770000  1.0 -0.0807403203
C  C55  1  0.94720000  0.26840000  0.30640000  1.0 -0.0807403203
C  C56  1  0.95560000  0.32960000  0.26930000  1.0 -0.1599841548
C  C57  1  0.04820000  0.41960000  0.25590000  1.0 0.0800526056
C  C58  1  0.14370000  0.44150000  0.27750000  1.0 -0.1795776768
C  C59  1  0.13820000  0.37400000  0.31170000  1.0 -0.0980262112
C  C60  1  0.05050000  0.48750000  0.21720000  1.0 -0.0349050358
C  C61  1  0.04810000  0.44950000  0.17500000  1.0 0.041153411
C  C62  1  0.05810000  0.36350000  0.16460000  1.0 -0.1883288592
C  C63  1  0.04980000  0.32440000  0.12220000  1.0 -0.1883288592
C  C64  1  0.04650000  0.38450000  0.08620000  1.0 -0.1416739643
C  C65  1  0.03980000  0.47420000  0.09540000  1.0 -0.1416739643
C  C66  1  0.04400000  0.51160000  0.13870000  1.0 0.041153411
C  C67  1  0.03670000  0.60230000  0.14640000  1.0 -0.0395077163
C  C68  1  0.04250000  0.63990000  0.18960000  1.0 0.041153411
C  C69  1  0.02790000  0.72550000  0.19920000  1.0 -0.1795776768
C  C70  1  0.02210000  0.75390000  0.24260000  1.0 -0.1694752196
C  C71  1  0.02960000  0.69780000  0.27790000  1.0 -0.1159739614
C  C72  1  0.04250000  0.61070000  0.27020000  1.0 -0.1599841548
C  C73  1  0.04320000  0.57780000  0.22600000  1.0 0.0316405252
C  C74  1  0.01230000  0.76690000  0.03240000  1.0 -0.0675586507
C  C75  1  0.92110000  0.68750000  0.05430000  1.0 -0.0980262112
C  C76  1  0.93120000  0.63620000  0.09130000  1.0 -0.1694752196
C  C77  1  0.03170000  0.66430000  0.10720000  1.0 0.0889677733
C  C78  1  0.12330000  0.74430000  0.08530000  1.0 -0.1599841548
C  C79  1  0.11430000  0.79550000  0.04750000  1.0 -0.0807403203
C  C80  1  0.00390000  0.81990000  0.99340000  1.0 0.6243499697
C  C81  1  0.80350000  0.71350000  0.28320000  1.0 -0.0675586507
C  C82  1  0.74310000  0.65670000  0.24600000  1.0 -0.0513543407
C  C83  1  0.64070000  0.62830000  0.23800000  1.0 -0.0020497453
C  C84  1  0.60430000  0.68630000  0.26270000  1.0 -0.0513543407
C  C85  1  0.66930000  0.75410000  0.29740000  1.0 -0.0513543407
C  C86  1  0.57710000  0.55670000  0.19880000  1.0 0.0212314396
C  C87  1  0.47640000  0.46960000  0.20790000  1.0 0.0212314396
C  C88  1  0.43360000  0.42920000  0.24880000  1.0 -0.1694752196
C  C89  1  0.33130000  0.34410000  0.25690000  1.0 -0.0920568601
C  C90  1  0.26540000  0.28680000  0.22010000  1.0 0.0004609821
C  C91  1  0.30670000  0.32390000  0.17760000  1.0 -0.0920568601
C  C92  1  0.40830000  0.41470000  0.16960000  1.0 -0.0020497453
C  C93  1  0.44440000  0.45100000  0.12620000  1.0 -0.01213938
C  C94  1  0.54850000  0.53830000  0.11880000  1.0 0.0126604966
C  C95  1  0.58890000  0.57670000  0.07580000  1.0 -0.2251691341
C  C96  1  0.69310000  0.66450000  0.06970000  1.0 0.0212314396
C  C97  1  0.75550000  0.72310000  0.10550000  1.0 -0.0395077163
C  C98  1  0.71820000  0.68940000  0.14900000  1.0 -0.0562861546
C  C99  1  0.61490000  0.59570000  0.15570000  1.0 0.0316405252
C  C100  1  0.32520000  0.23620000  0.03700000  1.0 -0.0807403203
C  C101  1  0.38330000  0.29850000  0.07360000  1.0 -0.0513543407
C  C102  1  0.37510000  0.38470000  0.08730000  1.0 0.0126604966
C  C103  1  0.31350000  0.41250000  0.06240000  1.0 -0.0675586507
C  C104  1  0.25630000  0.35170000  0.02460000  1.0 -0.0562861546
C  C105  1  0.21890000  0.03450000  0.36290000  1.0 0.6243499697
C  C106  1  0.28900000  0.04180000  0.32770000  1.0 -0.0807403203
C  C107  1  0.26840000  0.94720000  0.30640000  1.0 -0.0807403203
C  C108  1  0.32960000  0.95560000  0.26930000  1.0 -0.1599841548
C  C109  1  0.41960000  0.04820000  0.25590000  1.0 0.0800526056
C  C110  1  0.44150000  0.14370000  0.27750000  1.0 -0.1795776768
C  C111  1  0.37400000  0.13820000  0.31170000  1.0 -0.0980262112
C  C112  1  0.48750000  0.05050000  0.21720000  1.0 -0.0395077163
C  C113  1  0.44950000  0.04810000  0.17500000  1.0 0.041153411
C  C114  1  0.36350000  0.05810000  0.16460000  1.0 -0.1883288592
C  C115  1  0.32440000  0.04980000  0.12220000  1.0 -0.1795776768
C  C116  1  0.38450000  0.04650000  0.08620000  1.0 -0.1416739643
C  C117  1  0.47420000  0.03980000  0.09540000  1.0 -0.1416739643
C  C118  1  0.51160000  0.04400000  0.13870000  1.0 0.041153411
C  C119  1  0.60230000  0.03670000  0.14640000  1.0 -0.0395077163
C  C120  1  0.63990000  0.04250000  0.18960000  1.0 0.041153411
C  C121  1  0.72550000  0.02790000  0.19920000  1.0 -0.1795776768
C  C122  1  0.75390000  0.02210000  0.24260000  1.0 -0.1694752196
C  C123  1  0.69780000  0.02960000  0.27790000  1.0 -0.1159739614
C  C124  1  0.61070000  0.04250000  0.27020000  1.0 -0.1599841548
C  C125  1  0.57780000  0.04320000  0.22600000  1.0 0.0316405252
C  C126  1  0.76690000  0.01230000  0.03240000  1.0 -0.0675586507
C  C127  1  0.68750000  0.92110000  0.05430000  1.0 -0.0980262112
C  C128  1  0.63620000  0.93120000  0.09130000  1.0 -0.1694752196
C  C129  1  0.66430000  0.03170000  0.10720000  1.0 0.0889677733
C  C130  1  0.74430000  0.12330000  0.08530000  1.0 -0.1599841548
C  C131  1  0.79550000  0.11430000  0.04750000  1.0 -0.0807403203
C  C132  1  0.81990000  0.00390000  0.99340000  1.0 0.6243499697
C  C133  1  0.71350000  0.80350000  0.28320000  1.0 -0.0675586507
C  C134  1  0.65670000  0.74310000  0.24600000  1.0 -0.0513543407
C  C135  1  0.62830000  0.64070000  0.23800000  1.0 -0.0020497453
C  C136  1  0.68630000  0.60430000  0.26270000  1.0 -0.0513543407
C  C137  1  0.75410000  0.66930000  0.29740000  1.0 -0.0513543407
C  C138  1  0.55670000  0.57710000  0.19880000  1.0 0.0212314396
C  C139  1  0.46960000  0.47640000  0.20790000  1.0 0.0212314396
C  C140  1  0.42920000  0.43360000  0.24880000  1.0 -0.1694752196
C  C141  1  0.34410000  0.33130000  0.25690000  1.0 -0.0920568601
C  C142  1  0.28680000  0.26540000  0.22010000  1.0 0.0004609821
C  C143  1  0.32390000  0.30670000  0.17760000  1.0 -0.0920568601
C  C144  1  0.41470000  0.40830000  0.16960000  1.0 -0.0020497453
C  C145  1  0.45100000  0.44440000  0.12620000  1.0 -0.01213938
C  C146  1  0.53830000  0.54850000  0.11880000  1.0 0.0126604966
C  C147  1  0.57670000  0.58890000  0.07580000  1.0 -0.2251691341
C  C148  1  0.66450000  0.69310000  0.06970000  1.0 0.0212314396
C  C149  1  0.72310000  0.75550000  0.10550000  1.0 -0.0395077163
C  C150  1  0.68940000  0.71820000  0.14900000  1.0 -0.0562861546
C  C151  1  0.59570000  0.61490000  0.15570000  1.0 0.0316405252
C  C152  1  0.23620000  0.32520000  0.03700000  1.0 -0.0807403203
C  C153  1  0.29850000  0.38330000  0.07360000  1.0 -0.0513543407
C  C154  1  0.38470000  0.37510000  0.08730000  1.0 0.0126604966
C  C155  1  0.41250000  0.31350000  0.06240000  1.0 -0.0675586507
C  C156  1  0.35170000  0.25630000  0.02460000  1.0 -0.0562861546
C  C157  1  0.78110000  0.96550000  0.86290000  1.0 0.6253512085
C  C158  1  0.71100000  0.95820000  0.82770000  1.0 -0.0807403203
C  C159  1  0.73160000  0.05280000  0.80640000  1.0 -0.0807403203
C  C160  1  0.67040000  0.04440000  0.76930000  1.0 -0.1599841548
C  C161  1  0.58040000  0.95180000  0.75590000  1.0 0.0800526056
C  C162  1  0.55850000  0.85630000  0.77750000  1.0 -0.1795776768
C  C163  1  0.62600000  0.86180000  0.81170000  1.0 -0.0980262112
C  C164  1  0.51250000  0.94950000  0.71720000  1.0 -0.0349050358
C  C165  1  0.55050000  0.95190000  0.67500000  1.0 0.041153411
C  C166  1  0.63650000  0.94190000  0.66460000  1.0 -0.1883288592
C  C167  1  0.67560000  0.95020000  0.62220000  1.0 -0.1795776768
C  C168  1  0.61550000  0.95350000  0.58620000  1.0 -0.1416739643
C  C169  1  0.52580000  0.96020000  0.59540000  1.0 -0.1416739643
C  C170  1  0.48840000  0.95600000  0.63870000  1.0 0.041153411
C  C171  1  0.39770000  0.96330000  0.64640000  1.0 -0.0395077163
C  C172  1  0.36010000  0.95750000  0.68960000  1.0 0.041153411
C  C173  1  0.27450000  0.97210000  0.69920000  1.0 -0.1795776768
C  C174  1  0.24610000  0.97790000  0.74260000  1.0 -0.1694752196
C  C175  1  0.30220000  0.97040000  0.77790000  1.0 -0.1159739614
C  C176  1  0.38930000  0.95750000  0.77020000  1.0 -0.1599841548
C  C177  1  0.42220000  0.95680000  0.72600000  1.0 0.0316405252
C  C178  1  0.23310000  0.98770000  0.53240000  1.0 -0.0675586507
C  C179  1  0.31250000  0.07890000  0.55430000  1.0 -0.0980262112
C  C180  1  0.36380000  0.06880000  0.59130000  1.0 -0.1694752196
C  C181  1  0.33570000  0.96830000  0.60720000  1.0 0.0889677733
C  C182  1  0.25570000  0.87670000  0.58530000  1.0 -0.1599841548
C  C183  1  0.20450000  0.88570000  0.54750000  1.0 -0.0807403203
C  C184  1  0.18010000  0.99610000  0.49340000  1.0 0.6243499697
C  C185  1  0.28650000  0.19650000  0.78320000  1.0 -0.0675586507
C  C186  1  0.34330000  0.25690000  0.74600000  1.0 -0.0513543407
C  C187  1  0.37170000  0.35930000  0.73800000  1.0 -0.0020497453
C  C188  1  0.31370000  0.39570000  0.76270000  1.0 -0.0513543407
C  C189  1  0.24590000  0.33070000  0.79740000  1.0 -0.0513543407
C  C190  1  0.44330000  0.42290000  0.69880000  1.0 0.0212314396
C  C191  1  0.53040000  0.52360000  0.70790000  1.0 0.0212314396
C  C192  1  0.57080000  0.56640000  0.74880000  1.0 -0.1694752196
C  C193  1  0.65590000  0.66870000  0.75690000  1.0 -0.0920568601
C  C194  1  0.71320000  0.73460000  0.72010000  1.0 0.0004609821
C  C195  1  0.67610000  0.69330000  0.67760000  1.0 -0.0920568601
C  C196  1  0.58530000  0.59170000  0.66960000  1.0 -0.0020497453
C  C197  1  0.54900000  0.55560000  0.62620000  1.0 -0.01213938
C  C198  1  0.46170000  0.45150000  0.61880000  1.0 0.0126604966
C  C199  1  0.42330000  0.41110000  0.57580000  1.0 -0.2246612131
C  C200  1  0.33550000  0.30690000  0.56970000  1.0 0.0212314396
C  C201  1  0.27690000  0.24450000  0.60550000  1.0 -0.0395077163
C  C202  1  0.31060000  0.28180000  0.64900000  1.0 -0.0562861546
C  C203  1  0.40430000  0.38510000  0.65570000  1.0 0.0316405252
C  C204  1  0.76380000  0.67480000  0.53700000  1.0 -0.0807403203
C  C205  1  0.70150000  0.61670000  0.57360000  1.0 -0.0513543407
C  C206  1  0.61530000  0.62490000  0.58730000  1.0 0.0126604966
C  C207  1  0.58750000  0.68650000  0.56240000  1.0 -0.0675586507
C  C208  1  0.64830000  0.74370000  0.52460000  1.0 -0.0562861546
C  C209  1  0.16760000  0.16760000  0.84600000  1.0 0.526075083
C  C210  1  0.23380000  0.23380000  0.80950000  1.0 -0.0395077163
C  C211  1  0.73830000  0.73830000  0.51290000  1.0 -0.0513543407
C  C212  1  0.80300000  0.80300000  0.47550000  1.0 0.4923566759
C  C213  1  0.83240000  0.83240000  0.34600000  1.0 0.5237823308
C  C214  1  0.76620000  0.76620000  0.30950000  1.0 -0.0395077163
C  C215  1  0.26170000  0.26170000  0.01290000  1.0 -0.0513543407
C  C216  1  0.19700000  0.19700000  0.97550000  1.0 0.4923566759
O  O1  1  0.05670000  0.85470000  0.87590000  1.0 -0.627201137
O  O2  1  0.88090000  0.76430000  0.88170000  1.0 -0.6225630462
O  O3  1  0.08860000  0.20520000  0.48000000  1.0 -0.6464344084
O  O4  1  0.91140000  0.11020000  0.47380000  1.0 -0.6441555441
O  O5  1  0.18255000  0.09725000  0.86220000  1.0 -0.5943719864
O  O6  1  0.78650000  0.87310000  0.46000000  1.0 -0.6125840366
O  O7  1  0.94330000  0.14530000  0.37590000  1.0 -0.627201137
O  O8  1  0.11910000  0.23570000  0.38170000  1.0 -0.6225630462
O  O9  1  0.91140000  0.79480000  0.98000000  1.0 -0.6464344084
O  O10  1  0.08860000  0.88980000  0.97380000  1.0 -0.6464344084
O  O11  1  0.81745000  0.90275000  0.36220000  1.0 -0.5943719864
O  O12  1  0.21350000  0.12690000  0.96000000  1.0 -0.6125840366
O  O13  1  0.14530000  0.94330000  0.37590000  1.0 -0.627201137
O  O14  1  0.23570000  0.11910000  0.38170000  1.0 -0.6225630462
O  O15  1  0.79480000  0.91140000  0.98000000  1.0 -0.6464344084
O  O16  1  0.88980000  0.08860000  0.97380000  1.0 -0.6441555441
O  O17  1  0.90275000  0.81745000  0.36220000  1.0 -0.5943719864
O  O18  1  0.12690000  0.21350000  0.96000000  1.0 -0.6125840366
O  O19  1  0.85470000  0.05670000  0.87590000  1.0 -0.627201137
O  O20  1  0.76430000  0.88090000  0.88170000  1.0 -0.6225630462
O  O21  1  0.20520000  0.08860000  0.48000000  1.0 -0.6464344084
O  O22  1  0.11020000  0.91140000  0.47380000  1.0 -0.6464344084
O  O23  1  0.09725000  0.18255000  0.86220000  1.0 -0.5943719864
O  O24  1  0.87310000  0.78650000  0.46000000  1.0 -0.6125840366
O  O25  1  0.99000000  0.99000000  0.92080000  1.0 -1.2322866142
O  O26  1  0.01000000  0.01000000  0.42080000  1.0 -1.2322866142
