# DDEC6 charges by PACMAN v1.1 (https://github.com/mtap-research/PACMAN-charge/)
data_GIGFEL_ASR_pacman
_symmetry_space_group_name_H-M   'P 1'
_cell_length_a   14.33380000
_cell_length_b   14.33380000
_cell_length_c   30.09470000
_cell_angle_alpha   90.00000000
_cell_angle_beta   90.00000000
_cell_angle_gamma   120.02700000
_symmetry_Int_Tables_number   1
_chemical_formula_structural   Sc3H63C108O13
_chemical_formula_sum   'Sc6 H126 C216 O26'
_cell_volume   5353.34346588
_cell_formula_units_Z   2
loop_
 _symmetry_equiv_pos_site_id
 _symmetry_equiv_pos_as_xyz
  1  'x, y, z'
loop_
 _atom_site_type_symbol
 _atom_site_label
 _atom_site_symmetry_multiplicity
 _atom_site_fract_x
 _atom_site_fract_y
 _atom_site_fract_z
 _atom_site_occupancy
 _atom_site_charge
Sc  Sc1  1  0.86050000  0.00082000  0.08270000  1.0 1.8015254722
Sc  Sc2  1  0.13950000  0.99918000  0.58270000  1.0 1.8015254722
Sc  Sc3  1  0.99918000  0.13950000  0.58270000  1.0 1.8015254722
Sc  Sc4  1  0.00082000  0.86050000  0.08270000  1.0 1.8015254722
Sc  Sc5  1  0.13952000  0.13952000  0.06972000  1.0 1.8015254722
Sc  Sc6  1  0.86048000  0.86048000  0.56972000  1.0 1.8015254722
H  H1  1  0.86502000  0.22398000  0.17932000  1.0 0.1103064069
H  H2  1  0.88133000  0.33531000  0.23752000  1.0 0.1266335981
H  H3  1  0.20104000  0.47156000  0.23769000  1.0 0.1193288549
H  H4  1  0.19030000  0.36032000  0.17872000  1.0 0.1103064069
H  H5  1  0.02691000  0.30919000  0.30829000  1.0 0.1103064069
H  H6  1  0.07139000  0.26881000  0.37737000  1.0 0.1103064069
H  H7  1  0.05150000  0.36484000  0.43966000  1.0 0.0981974856
H  H8  1  0.04225000  0.51957000  0.42805000  1.0 0.1103064069
H  H9  1  0.01363000  0.76599000  0.32462000  1.0 0.1103064069
H  H10  1  0.03595000  0.83849000  0.25390000  1.0 0.1193288549
H  H11  1  0.03490000  0.73684000  0.19251000  1.0 0.1103064069
H  H12  1  0.01410000  0.56394000  0.20356000  1.0 0.1103064069
H  H13  1  0.86452000  0.67414000  0.45989000  1.0 0.0918052374
H  H14  1  0.87665000  0.58581000  0.39707000  1.0 0.1193288549
H  H15  1  0.20174000  0.77368000  0.39962000  1.0 0.1193288549
H  H16  1  0.18952000  0.85348000  0.46372000  1.0 0.1193288549
H  H17  1  0.86014000  0.69016000  0.20265000  1.0 0.0981974856
H  H18  1  0.77587000  0.60937000  0.26844000  1.0 0.069955241
H  H19  1  0.55673000  0.69701000  0.25396000  1.0 0.0790273428
H  H20  1  0.64834000  0.79758000  0.19102000  1.0 0.1103064069
H  H21  1  0.50180000  0.46068000  0.23063000  1.0 0.069955241
H  H22  1  0.34270000  0.30572000  0.21608000  1.0 0.069955241
H  H23  1  0.27271000  0.28471000  0.34941000  1.0 0.1193288549
H  H24  1  0.54613000  0.54307000  0.45055000  1.0 0.1193288549
H  H25  1  0.70802000  0.69932000  0.46288000  1.0 0.1103064069
H  H26  1  0.82446000  0.78772000  0.40411000  1.0 0.069955241
H  H27  1  0.77604000  0.72796000  0.33039000  1.0 0.0503243637
H  H28  1  0.33131000  0.17361000  0.47286000  1.0 0.0918052374
H  H29  1  0.42930000  0.27326000  0.41145000  1.0 0.069955241
H  H30  1  0.32383000  0.48453000  0.43260000  1.0 0.069955241
H  H31  1  0.22294000  0.38202000  0.49164000  1.0 0.0918052374
H  H32  1  0.13498000  0.77602000  0.67932000  1.0 0.1103064069
H  H33  1  0.11867000  0.66469000  0.73752000  1.0 0.1266335981
H  H34  1  0.79896000  0.52844000  0.73769000  1.0 0.1193288549
H  H35  1  0.80970000  0.63968000  0.67872000  1.0 0.1103064069
H  H36  1  0.97309000  0.69081000  0.80829000  1.0 0.1103064069
H  H37  1  0.92861000  0.73119000  0.87737000  1.0 0.1103064069
H  H38  1  0.94850000  0.63516000  0.93966000  1.0 0.0981974856
H  H39  1  0.95775000  0.48043000  0.92805000  1.0 0.1103064069
H  H40  1  0.98637000  0.23401000  0.82462000  1.0 0.1103064069
H  H41  1  0.96405000  0.16151000  0.75390000  1.0 0.1193288549
H  H42  1  0.96510000  0.26316000  0.69251000  1.0 0.1103064069
H  H43  1  0.98590000  0.43606000  0.70356000  1.0 0.1103064069
H  H44  1  0.13548000  0.32586000  0.95989000  1.0 0.0918052374
H  H45  1  0.12335000  0.41419000  0.89707000  1.0 0.1193288549
H  H46  1  0.79826000  0.22632000  0.89962000  1.0 0.1193288549
H  H47  1  0.81048000  0.14652000  0.96372000  1.0 0.1193288549
H  H48  1  0.13986000  0.30984000  0.70265000  1.0 0.0981974856
H  H49  1  0.22413000  0.39063000  0.76844000  1.0 0.0790273428
H  H50  1  0.44327000  0.30299000  0.75396000  1.0 0.0790273428
H  H51  1  0.35166000  0.20242000  0.69102000  1.0 0.1103064069
H  H52  1  0.49820000  0.53932000  0.73063000  1.0 0.069955241
H  H53  1  0.65730000  0.69428000  0.71608000  1.0 0.069955241
H  H54  1  0.72729000  0.71529000  0.84941000  1.0 0.1193288549
H  H55  1  0.45387000  0.45693000  0.95055000  1.0 0.1193288549
H  H56  1  0.29198000  0.30068000  0.96288000  1.0 0.1103064069
H  H57  1  0.17554000  0.21228000  0.90411000  1.0 0.069955241
H  H58  1  0.22396000  0.27204000  0.83039000  1.0 0.0503243637
H  H59  1  0.66869000  0.82639000  0.97286000  1.0 0.0918052374
H  H60  1  0.57070000  0.72674000  0.91145000  1.0 0.069955241
H  H61  1  0.67617000  0.51547000  0.93260000  1.0 0.069955241
H  H62  1  0.77706000  0.61798000  0.99164000  1.0 0.0918052374
H  H63  1  0.77602000  0.13498000  0.67932000  1.0 0.1103064069
H  H64  1  0.66469000  0.11867000  0.73752000  1.0 0.1266335981
H  H65  1  0.52844000  0.79896000  0.73769000  1.0 0.1193288549
H  H66  1  0.63968000  0.80970000  0.67872000  1.0 0.1103064069
H  H67  1  0.69081000  0.97309000  0.80829000  1.0 0.1103064069
H  H68  1  0.73119000  0.92861000  0.87737000  1.0 0.1103064069
H  H69  1  0.63516000  0.94850000  0.93966000  1.0 0.0981974856
H  H70  1  0.48043000  0.95775000  0.92805000  1.0 0.1103064069
H  H71  1  0.23401000  0.98637000  0.82462000  1.0 0.1103064069
H  H72  1  0.16151000  0.96405000  0.75390000  1.0 0.1193288549
H  H73  1  0.26316000  0.96510000  0.69251000  1.0 0.1103064069
H  H74  1  0.43606000  0.98590000  0.70356000  1.0 0.1103064069
H  H75  1  0.32586000  0.13548000  0.95989000  1.0 0.0918052374
H  H76  1  0.41419000  0.12335000  0.89707000  1.0 0.1193288549
H  H77  1  0.22632000  0.79826000  0.89962000  1.0 0.1193288549
H  H78  1  0.14652000  0.81048000  0.96372000  1.0 0.1193288549
H  H79  1  0.30984000  0.13986000  0.70265000  1.0 0.0981974856
H  H80  1  0.39063000  0.22413000  0.76844000  1.0 0.0790273428
H  H81  1  0.30299000  0.44327000  0.75396000  1.0 0.0790273428
H  H82  1  0.20242000  0.35166000  0.69102000  1.0 0.1103064069
H  H83  1  0.53932000  0.49820000  0.73063000  1.0 0.069955241
H  H84  1  0.69428000  0.65730000  0.71608000  1.0 0.069955241
H  H85  1  0.71529000  0.72729000  0.84941000  1.0 0.1193288549
H  H86  1  0.45693000  0.45387000  0.95055000  1.0 0.1193288549
H  H87  1  0.30068000  0.29198000  0.96288000  1.0 0.1103064069
H  H88  1  0.21228000  0.17554000  0.90411000  1.0 0.069955241
H  H89  1  0.27204000  0.22396000  0.83039000  1.0 0.0503243637
H  H90  1  0.82639000  0.66869000  0.97286000  1.0 0.0918052374
H  H91  1  0.72674000  0.57070000  0.91145000  1.0 0.069955241
H  H92  1  0.51547000  0.67617000  0.93260000  1.0 0.069955241
H  H93  1  0.61798000  0.77706000  0.99164000  1.0 0.0918052374
H  H94  1  0.22398000  0.86502000  0.17932000  1.0 0.1103064069
H  H95  1  0.33531000  0.88133000  0.23752000  1.0 0.1266335981
H  H96  1  0.47156000  0.20104000  0.23769000  1.0 0.1193288549
H  H97  1  0.36032000  0.19030000  0.17872000  1.0 0.1103064069
H  H98  1  0.30919000  0.02691000  0.30829000  1.0 0.1103064069
H  H99  1  0.26881000  0.07139000  0.37737000  1.0 0.1103064069
H  H100  1  0.36484000  0.05150000  0.43966000  1.0 0.0981974856
H  H101  1  0.51957000  0.04225000  0.42805000  1.0 0.1103064069
H  H102  1  0.76599000  0.01363000  0.32462000  1.0 0.1103064069
H  H103  1  0.83849000  0.03595000  0.25390000  1.0 0.1193288549
H  H104  1  0.73684000  0.03490000  0.19251000  1.0 0.1103064069
H  H105  1  0.56394000  0.01410000  0.20356000  1.0 0.1103064069
H  H106  1  0.67414000  0.86452000  0.45989000  1.0 0.0918052374
H  H107  1  0.58581000  0.87665000  0.39707000  1.0 0.1193288549
H  H108  1  0.77368000  0.20174000  0.39962000  1.0 0.1193288549
H  H109  1  0.85348000  0.18952000  0.46372000  1.0 0.1193288549
H  H110  1  0.69016000  0.86014000  0.20265000  1.0 0.0981974856
H  H111  1  0.60937000  0.77587000  0.26844000  1.0 0.069955241
H  H112  1  0.69701000  0.55673000  0.25396000  1.0 0.0790273428
H  H113  1  0.79758000  0.64834000  0.19102000  1.0 0.1103064069
H  H114  1  0.46068000  0.50180000  0.23063000  1.0 0.069955241
H  H115  1  0.30572000  0.34270000  0.21608000  1.0 0.069955241
H  H116  1  0.28471000  0.27271000  0.34941000  1.0 0.1193288549
H  H117  1  0.54307000  0.54613000  0.45055000  1.0 0.1193288549
H  H118  1  0.69932000  0.70802000  0.46288000  1.0 0.1103064069
H  H119  1  0.78772000  0.82446000  0.40411000  1.0 0.069955241
H  H120  1  0.72796000  0.77604000  0.33039000  1.0 0.0503243637
H  H121  1  0.17361000  0.33131000  0.47286000  1.0 0.0918052374
H  H122  1  0.27326000  0.42930000  0.41145000  1.0 0.069955241
H  H123  1  0.48453000  0.32383000  0.43260000  1.0 0.069955241
H  H124  1  0.38202000  0.22294000  0.49164000  1.0 0.0918052374
H  H125  1  0.22103000  0.22103000  0.27808000  1.0 0.0981974856
H  H126  1  0.77897000  0.77897000  0.77808000  1.0 0.0981974856
C  C1  1  0.01880000  0.20420000  0.13920000  1.0 0.6319796578
C  C2  1  0.02540000  0.27420000  0.17440000  1.0 -0.0781208494
C  C3  1  0.93420000  0.27220000  0.19120000  1.0 -0.0781208494
C  C4  1  0.94560000  0.34180000  0.22560000  1.0 -0.1590026084
C  C5  1  0.03930000  0.41750000  0.24360000  1.0 0.0790273428
C  C6  1  0.13250000  0.42150000  0.22590000  1.0 -0.1883726506
C  C7  1  0.12600000  0.35320000  0.19110000  1.0 -0.0926965861
C  C8  1  0.03980000  0.48860000  0.28100000  1.0 -0.0404422163
C  C9  1  0.05280000  0.45560000  0.32270000  1.0 0.0390409756
C  C10  1  0.04420000  0.35880000  0.33210000  1.0 -0.1363746686
C  C11  1  0.05860000  0.32720000  0.37330000  1.0 -0.1883726506
C  C12  1  0.05290000  0.38910000  0.41020000  1.0 -0.1246155067
C  C13  1  0.04950000  0.48190000  0.40360000  1.0 -0.1479381337
C  C14  1  0.05690000  0.52070000  0.35960000  1.0 0.0503243637
C  C15  1  0.04410000  0.61090000  0.35140000  1.0 -0.0404422163
C  C16  1  0.04590000  0.64730000  0.30840000  1.0 0.0390409756
C  C17  1  0.02860000  0.73320000  0.30030000  1.0 -0.1768628819
C  C18  1  0.03270000  0.77130000  0.25830000  1.0 -0.1479381337
C  C19  1  0.03210000  0.71050000  0.22170000  1.0 -0.1339450045
C  C20  1  0.02740000  0.61140000  0.22780000  1.0 -0.1590026084
C  C21  1  0.04330000  0.58430000  0.27120000  1.0 0.0326715582
C  C22  1  0.02650000  0.77150000  0.46870000  1.0 -0.0716939369
C  C23  1  0.93310000  0.69330000  0.44790000  1.0 -0.0926965861
C  C24  1  0.94020000  0.64320000  0.40980000  1.0 -0.1674743159
C  C25  1  0.03880000  0.67580000  0.38990000  1.0 0.0918052374
C  C26  1  0.13290000  0.75370000  0.41170000  1.0 -0.1590026084
C  C27  1  0.12550000  0.80010000  0.44970000  1.0 -0.0781208494
C  C28  1  0.01910000  0.82350000  0.50850000  1.0 0.6319796578
C  C29  1  0.77000000  0.76220000  0.19150000  1.0 -0.1113642095
C  C30  1  0.80100000  0.69640000  0.21310000  1.0 0.0189860884
C  C31  1  0.74320000  0.63980000  0.25060000  1.0 -0.1013124002
C  C32  1  0.64760000  0.62300000  0.26430000  1.0 0.0390409756
C  C33  1  0.61700000  0.69340000  0.24300000  1.0 -0.0154783534
C  C34  1  0.67460000  0.75720000  0.20620000  1.0 -0.0097994672
C  C35  1  0.59160000  0.55580000  0.30520000  1.0 -0.0097994672
C  C36  1  0.49360000  0.46600000  0.29580000  1.0 0.0326715582
C  C37  1  0.45660000  0.42340000  0.25510000  1.0 -0.0716939369
C  C38  1  0.36150000  0.33310000  0.24550000  1.0 0.0189860884
C  C39  1  0.29110000  0.28110000  0.28310000  1.0 -0.0716939369
C  C40  1  0.32160000  0.31760000  0.32540000  1.0 -0.2002198169
C  C41  1  0.42610000  0.40690000  0.33300000  1.0 0.0790273428
C  C42  1  0.45490000  0.45210000  0.37610000  1.0 -0.2105666711
C  C43  1  0.55660000  0.54220000  0.38330000  1.0 0.069955241
C  C44  1  0.59090000  0.58090000  0.42600000  1.0 -0.2002198169
C  C45  1  0.68810000  0.67210000  0.43350000  1.0 -0.052482882
C  C46  1  0.75630000  0.72610000  0.39820000  1.0 -0.0097994672
C  C47  1  0.72800000  0.69200000  0.35430000  1.0 -0.0716939369
C  C48  1  0.62410000  0.60110000  0.34690000  1.0 0.0390409756
C  C49  1  0.33000000  0.23700000  0.46470000  1.0 -0.0404422163
C  C50  1  0.38900000  0.29680000  0.42830000  1.0 -0.052482882
C  C51  1  0.32590000  0.42150000  0.44070000  1.0 -0.0404422163
C  C52  1  0.26680000  0.36100000  0.47590000  1.0 -0.0404422163
C  C53  1  0.98120000  0.79580000  0.63920000  1.0 0.6319796578
C  C54  1  0.97460000  0.72580000  0.67440000  1.0 -0.0781208494
C  C55  1  0.06580000  0.72780000  0.69120000  1.0 -0.0781208494
C  C56  1  0.05440000  0.65820000  0.72560000  1.0 -0.1590026084
C  C57  1  0.96070000  0.58250000  0.74360000  1.0 0.0790273428
C  C58  1  0.86750000  0.57850000  0.72590000  1.0 -0.1883726506
C  C59  1  0.87400000  0.64680000  0.69110000  1.0 -0.0926965861
C  C60  1  0.96020000  0.51140000  0.78100000  1.0 -0.0404422163
C  C61  1  0.94720000  0.54440000  0.82270000  1.0 0.0390409756
C  C62  1  0.95580000  0.64120000  0.83210000  1.0 -0.1363746686
C  C63  1  0.94140000  0.67280000  0.87330000  1.0 -0.1883726506
C  C64  1  0.94710000  0.61090000  0.91020000  1.0 -0.1246155067
C  C65  1  0.95050000  0.51810000  0.90360000  1.0 -0.1479381337
C  C66  1  0.94310000  0.47930000  0.85960000  1.0 0.0503243637
C  C67  1  0.95590000  0.38910000  0.85140000  1.0 -0.0404422163
C  C68  1  0.95410000  0.35270000  0.80840000  1.0 0.0390409756
C  C69  1  0.97140000  0.26680000  0.80030000  1.0 -0.1768628819
C  C70  1  0.96730000  0.22870000  0.75830000  1.0 -0.1479381337
C  C71  1  0.96790000  0.28950000  0.72170000  1.0 -0.1339450045
C  C72  1  0.97260000  0.38860000  0.72780000  1.0 -0.1590026084
C  C73  1  0.95670000  0.41570000  0.77120000  1.0 0.0326715582
C  C74  1  0.97350000  0.22850000  0.96870000  1.0 -0.0716939369
C  C75  1  0.06690000  0.30670000  0.94790000  1.0 -0.0926965861
C  C76  1  0.05980000  0.35680000  0.90980000  1.0 -0.1674743159
C  C77  1  0.96120000  0.32420000  0.88990000  1.0 0.0918052374
C  C78  1  0.86710000  0.24630000  0.91170000  1.0 -0.1590026084
C  C79  1  0.87450000  0.19990000  0.94970000  1.0 -0.0781208494
C  C80  1  0.98090000  0.17650000  0.00850000  1.0 0.6319796578
C  C81  1  0.23000000  0.23780000  0.69150000  1.0 -0.1113642095
C  C82  1  0.19900000  0.30360000  0.71310000  1.0 0.0145894183
C  C83  1  0.25680000  0.36020000  0.75060000  1.0 -0.1013124002
C  C84  1  0.35240000  0.37700000  0.76430000  1.0 0.0390409756
C  C85  1  0.38300000  0.30660000  0.74300000  1.0 -0.0154783534
C  C86  1  0.32540000  0.24280000  0.70620000  1.0 -0.0097994672
C  C87  1  0.40840000  0.44420000  0.80520000  1.0 -0.0097994672
C  C88  1  0.50640000  0.53400000  0.79580000  1.0 0.0326715582
C  C89  1  0.54340000  0.57660000  0.75510000  1.0 -0.0716939369
C  C90  1  0.63850000  0.66690000  0.74550000  1.0 0.0189860884
C  C91  1  0.70890000  0.71890000  0.78310000  1.0 -0.0716939369
C  C92  1  0.67840000  0.68240000  0.82540000  1.0 -0.2002198169
C  C93  1  0.57390000  0.59310000  0.83300000  1.0 0.0790273428
C  C94  1  0.54510000  0.54790000  0.87610000  1.0 -0.2105666711
C  C95  1  0.44340000  0.45780000  0.88330000  1.0 0.069955241
C  C96  1  0.40910000  0.41910000  0.92600000  1.0 -0.2002198169
C  C97  1  0.31190000  0.32790000  0.93350000  1.0 -0.052482882
C  C98  1  0.24370000  0.27390000  0.89820000  1.0 -0.0097994672
C  C99  1  0.27200000  0.30800000  0.85430000  1.0 -0.0781208494
C  C100  1  0.37590000  0.39890000  0.84690000  1.0 0.0390409756
C  C101  1  0.67000000  0.76300000  0.96470000  1.0 -0.0404422163
C  C102  1  0.61100000  0.70320000  0.92830000  1.0 -0.052482882
C  C103  1  0.67410000  0.57850000  0.94070000  1.0 -0.0404422163
C  C104  1  0.73320000  0.63900000  0.97590000  1.0 -0.0404422163
C  C105  1  0.79580000  0.98120000  0.63920000  1.0 0.6319796578
C  C106  1  0.72580000  0.97460000  0.67440000  1.0 -0.0781208494
C  C107  1  0.72780000  0.06580000  0.69120000  1.0 -0.0781208494
C  C108  1  0.65820000  0.05440000  0.72560000  1.0 -0.1590026084
C  C109  1  0.58250000  0.96070000  0.74360000  1.0 0.0790273428
C  C110  1  0.57850000  0.86750000  0.72590000  1.0 -0.1883726506
C  C111  1  0.64680000  0.87400000  0.69110000  1.0 -0.0926965861
C  C112  1  0.51140000  0.96020000  0.78100000  1.0 -0.0404422163
C  C113  1  0.54440000  0.94720000  0.82270000  1.0 0.0390409756
C  C114  1  0.64120000  0.95580000  0.83210000  1.0 -0.1363746686
C  C115  1  0.67280000  0.94140000  0.87330000  1.0 -0.1883726506
C  C116  1  0.61090000  0.94710000  0.91020000  1.0 -0.1246155067
C  C117  1  0.51810000  0.95050000  0.90360000  1.0 -0.1479381337
C  C118  1  0.47930000  0.94310000  0.85960000  1.0 0.0503243637
C  C119  1  0.38910000  0.95590000  0.85140000  1.0 -0.0404422163
C  C120  1  0.35270000  0.95410000  0.80840000  1.0 0.0390409756
C  C121  1  0.26680000  0.97140000  0.80030000  1.0 -0.1768628819
C  C122  1  0.22870000  0.96730000  0.75830000  1.0 -0.1479381337
C  C123  1  0.28950000  0.96790000  0.72170000  1.0 -0.1339450045
C  C124  1  0.38860000  0.97260000  0.72780000  1.0 -0.1590026084
C  C125  1  0.41570000  0.95670000  0.77120000  1.0 0.0326715582
C  C126  1  0.22850000  0.97350000  0.96870000  1.0 -0.0716939369
C  C127  1  0.30670000  0.06690000  0.94790000  1.0 -0.0926965861
C  C128  1  0.35680000  0.05980000  0.90980000  1.0 -0.1674743159
C  C129  1  0.32420000  0.96120000  0.88990000  1.0 0.0918052374
C  C130  1  0.24630000  0.86710000  0.91170000  1.0 -0.1590026084
C  C131  1  0.19990000  0.87450000  0.94970000  1.0 -0.0781208494
C  C132  1  0.17650000  0.98090000  0.00850000  1.0 0.6319796578
C  C133  1  0.23780000  0.23000000  0.69150000  1.0 -0.1113642095
C  C134  1  0.30360000  0.19900000  0.71310000  1.0 0.0145894183
C  C135  1  0.36020000  0.25680000  0.75060000  1.0 -0.1013124002
C  C136  1  0.37700000  0.35240000  0.76430000  1.0 0.0390409756
C  C137  1  0.30660000  0.38300000  0.74300000  1.0 -0.0154783534
C  C138  1  0.24280000  0.32540000  0.70620000  1.0 -0.0097994672
C  C139  1  0.44420000  0.40840000  0.80520000  1.0 -0.0097994672
C  C140  1  0.53400000  0.50640000  0.79580000  1.0 0.0326715582
C  C141  1  0.57660000  0.54340000  0.75510000  1.0 -0.0716939369
C  C142  1  0.66690000  0.63850000  0.74550000  1.0 0.0189860884
C  C143  1  0.71890000  0.70890000  0.78310000  1.0 -0.0716939369
C  C144  1  0.68240000  0.67840000  0.82540000  1.0 -0.2002198169
C  C145  1  0.59310000  0.57390000  0.83300000  1.0 0.0790273428
C  C146  1  0.54790000  0.54510000  0.87610000  1.0 -0.2105666711
C  C147  1  0.45780000  0.44340000  0.88330000  1.0 0.069955241
C  C148  1  0.41910000  0.40910000  0.92600000  1.0 -0.2002198169
C  C149  1  0.32790000  0.31190000  0.93350000  1.0 -0.052482882
C  C150  1  0.27390000  0.24370000  0.89820000  1.0 -0.0097994672
C  C151  1  0.30800000  0.27200000  0.85430000  1.0 -0.0781208494
C  C152  1  0.39890000  0.37590000  0.84690000  1.0 0.0390409756
C  C153  1  0.76300000  0.67000000  0.96470000  1.0 -0.0404422163
C  C154  1  0.70320000  0.61100000  0.92830000  1.0 -0.052482882
C  C155  1  0.57850000  0.67410000  0.94070000  1.0 -0.0404422163
C  C156  1  0.63900000  0.73320000  0.97590000  1.0 -0.0404422163
C  C157  1  0.20420000  0.01880000  0.13920000  1.0 0.6319796578
C  C158  1  0.27420000  0.02540000  0.17440000  1.0 -0.0781208494
C  C159  1  0.27220000  0.93420000  0.19120000  1.0 -0.0781208494
C  C160  1  0.34180000  0.94560000  0.22560000  1.0 -0.1590026084
C  C161  1  0.41750000  0.03930000  0.24360000  1.0 0.0790273428
C  C162  1  0.42150000  0.13250000  0.22590000  1.0 -0.1883726506
C  C163  1  0.35320000  0.12600000  0.19110000  1.0 -0.0926965861
C  C164  1  0.48860000  0.03980000  0.28100000  1.0 -0.0404422163
C  C165  1  0.45560000  0.05280000  0.32270000  1.0 0.0390409756
C  C166  1  0.35880000  0.04420000  0.33210000  1.0 -0.1363746686
C  C167  1  0.32720000  0.05860000  0.37330000  1.0 -0.1883726506
C  C168  1  0.38910000  0.05290000  0.41020000  1.0 -0.1246155067
C  C169  1  0.48190000  0.04950000  0.40360000  1.0 -0.1479381337
C  C170  1  0.52070000  0.05690000  0.35960000  1.0 0.0503243637
C  C171  1  0.61090000  0.04410000  0.35140000  1.0 -0.0404422163
C  C172  1  0.64730000  0.04590000  0.30840000  1.0 0.0390409756
C  C173  1  0.73320000  0.02860000  0.30030000  1.0 -0.1768628819
C  C174  1  0.77130000  0.03270000  0.25830000  1.0 -0.1479381337
C  C175  1  0.71050000  0.03210000  0.22170000  1.0 -0.1339450045
C  C176  1  0.61140000  0.02740000  0.22780000  1.0 -0.1590026084
C  C177  1  0.58430000  0.04330000  0.27120000  1.0 0.0326715582
C  C178  1  0.77150000  0.02650000  0.46870000  1.0 -0.0716939369
C  C179  1  0.69330000  0.93310000  0.44790000  1.0 -0.0926965861
C  C180  1  0.64320000  0.94020000  0.40980000  1.0 -0.1674743159
C  C181  1  0.67580000  0.03880000  0.38990000  1.0 0.0918052374
C  C182  1  0.75370000  0.13290000  0.41170000  1.0 -0.1590026084
C  C183  1  0.80010000  0.12550000  0.44970000  1.0 -0.0781208494
C  C184  1  0.82350000  0.01910000  0.50850000  1.0 0.6319796578
C  C185  1  0.76220000  0.77000000  0.19150000  1.0 -0.1113642095
C  C186  1  0.69640000  0.80100000  0.21310000  1.0 0.0189860884
C  C187  1  0.63980000  0.74320000  0.25060000  1.0 -0.1013124002
C  C188  1  0.62300000  0.64760000  0.26430000  1.0 0.0390409756
C  C189  1  0.69340000  0.61700000  0.24300000  1.0 -0.0154783534
C  C190  1  0.75720000  0.67460000  0.20620000  1.0 -0.0097994672
C  C191  1  0.55580000  0.59160000  0.30520000  1.0 -0.0097994672
C  C192  1  0.46600000  0.49360000  0.29580000  1.0 0.0326715582
C  C193  1  0.42340000  0.45660000  0.25510000  1.0 -0.0716939369
C  C194  1  0.33310000  0.36150000  0.24550000  1.0 0.0189860884
C  C195  1  0.28110000  0.29110000  0.28310000  1.0 -0.0716939369
C  C196  1  0.31760000  0.32160000  0.32540000  1.0 -0.2002198169
C  C197  1  0.40690000  0.42610000  0.33300000  1.0 0.0790273428
C  C198  1  0.45210000  0.45490000  0.37610000  1.0 -0.2105666711
C  C199  1  0.54220000  0.55660000  0.38330000  1.0 0.069955241
C  C200  1  0.58090000  0.59090000  0.42600000  1.0 -0.2002198169
C  C201  1  0.67210000  0.68810000  0.43350000  1.0 -0.052482882
C  C202  1  0.72610000  0.75630000  0.39820000  1.0 -0.0097994672
C  C203  1  0.69200000  0.72800000  0.35430000  1.0 -0.0781208494
C  C204  1  0.60110000  0.62410000  0.34690000  1.0 0.0390409756
C  C205  1  0.23700000  0.33000000  0.46470000  1.0 -0.0404422163
C  C206  1  0.29680000  0.38900000  0.42830000  1.0 -0.052482882
C  C207  1  0.42150000  0.32590000  0.44070000  1.0 -0.0404422163
C  C208  1  0.36100000  0.26680000  0.47590000  1.0 -0.0404422163
C  C209  1  0.82970000  0.82970000  0.15510000  1.0 0.4364629971
C  C210  1  0.26910000  0.26910000  0.48940000  1.0 -0.0404422163
C  C211  1  0.39010000  0.39010000  0.41640000  1.0 0.0503243637
C  C212  1  0.20560000  0.20560000  0.52710000  1.0 0.484264283
C  C213  1  0.17030000  0.17030000  0.65510000  1.0 0.4364629971
C  C214  1  0.73090000  0.73090000  0.98940000  1.0 -0.0404422163
C  C215  1  0.60990000  0.60990000  0.91640000  1.0 0.0550265411
C  C216  1  0.79440000  0.79440000  0.02710000  1.0 0.484264283
O  O1  1  0.92510000  0.13470000  0.12630000  1.0 -0.6423166408
O  O2  1  0.10340000  0.21780000  0.11980000  1.0 -0.6423166408
O  O3  1  0.92690000  0.80330000  0.52190000  1.0 -0.6652582897
O  O4  1  0.10500000  0.89600000  0.52650000  1.0 -0.6457175626
O  O5  1  0.80860000  0.89800000  0.13842000  1.0 -0.589629413
O  O6  1  0.22210000  0.13310000  0.54260000  1.0 -0.6261552884
O  O7  1  0.07490000  0.86530000  0.62630000  1.0 -0.6423166408
O  O8  1  0.89660000  0.78220000  0.61980000  1.0 -0.6423166408
O  O9  1  0.07310000  0.19670000  0.02190000  1.0 -0.6652582897
O  O10  1  0.89500000  0.10400000  0.02650000  1.0 -0.6457175626
O  O11  1  0.19140000  0.10200000  0.63842000  1.0 -0.589629413
O  O12  1  0.77790000  0.86690000  0.04260000  1.0 -0.6261552884
O  O13  1  0.86530000  0.07490000  0.62630000  1.0 -0.6423166408
O  O14  1  0.78220000  0.89660000  0.61980000  1.0 -0.6423166408
O  O15  1  0.19670000  0.07310000  0.02190000  1.0 -0.6652582897
O  O16  1  0.10400000  0.89500000  0.02650000  1.0 -0.6457175626
O  O17  1  0.10200000  0.19140000  0.63842000  1.0 -0.589629413
O  O18  1  0.86690000  0.77790000  0.04260000  1.0 -0.6261552884
O  O19  1  0.13470000  0.92510000  0.12630000  1.0 -0.6423166408
O  O20  1  0.21780000  0.10340000  0.11980000  1.0 -0.6423166408
O  O21  1  0.80330000  0.92690000  0.52190000  1.0 -0.6652582897
O  O22  1  0.89600000  0.10500000  0.52650000  1.0 -0.6457175626
O  O23  1  0.89800000  0.80860000  0.13842000  1.0 -0.589629413
O  O24  1  0.13310000  0.22210000  0.54260000  1.0 -0.6261552884
O  O25  1  0.99700000  0.99700000  0.08360000  1.0 -1.2245853557
O  O26  1  0.00300000  0.00300000  0.58360000  1.0 -1.2245853557
