# DDEC6 charges by PACMAN v1.1 (https://github.com/mtap-research/PACMAN-charge/)
data_GIGGAH_ASR_pacman
_symmetry_space_group_name_H-M   'P 1'
_cell_length_a   19.03750000
_cell_length_b   19.03750000
_cell_length_c   33.13300000
_cell_angle_alpha   90.00000000
_cell_angle_beta   90.00000000
_cell_angle_gamma   90.00000000
_symmetry_Int_Tables_number   1
_chemical_formula_structural   Zr3H40(C23O6)2
_chemical_formula_sum   'Zr12 H160 C184 O48'
_cell_volume   12008.27411828
_cell_formula_units_Z   4
loop_
 _symmetry_equiv_pos_site_id
 _symmetry_equiv_pos_as_xyz
  1  'x, y, z'
loop_
 _atom_site_type_symbol
 _atom_site_label
 _atom_site_symmetry_multiplicity
 _atom_site_fract_x
 _atom_site_fract_y
 _atom_site_fract_z
 _atom_site_occupancy
 _atom_site_charge
Zr  Zr1  1  0.12399000  0.04429000  0.00000000  1.0 2.4983325053
Zr  Zr2  1  0.87601000  0.95571000  0.00000000  1.0 2.4983325053
Zr  Zr3  1  0.95571000  0.12399000  0.00000000  1.0 2.4983325053
Zr  Zr4  1  0.04429000  0.87601000  0.00000000  1.0 2.4983325053
Zr  Zr5  1  0.37601000  0.54429000  0.50000000  1.0 2.4983325053
Zr  Zr6  1  0.62399000  0.45571000  0.50000000  1.0 2.4983325053
Zr  Zr7  1  0.54429000  0.62399000  0.50000000  1.0 2.4983325053
Zr  Zr8  1  0.45571000  0.37601000  0.50000000  1.0 2.4983325053
Zr  Zr9  1  0.00000000  0.00000000  0.07366000  1.0 2.3826889146
Zr  Zr10  1  0.50000000  0.50000000  0.42634000  1.0 2.3826889146
Zr  Zr11  1  0.00000000  0.00000000  0.92634000  1.0 2.3826889146
Zr  Zr12  1  0.50000000  0.50000000  0.57366000  1.0 2.3826889146
H  H1  1  0.96330000  0.14590000  0.17650000  1.0 0.1145068828
H  H2  1  0.95560000  0.22650000  0.23010000  1.0 0.1300688201
H  H3  1  0.03270000  0.45120000  0.17630000  1.0 0.1188913821
H  H4  1  0.02580000  0.36920000  0.17590000  1.0 0.1188913821
H  H5  1  0.07830000  0.40550000  0.20570000  1.0 0.1353801239
H  H6  1  0.90740000  0.28760000  0.08670000  1.0 0.1188913821
H  H7  1  0.90310000  0.36080000  0.14370000  1.0 0.1188913821
H  H8  1  0.77860000  0.32120000  0.27120000  1.0 0.009507741
H  H9  1  0.78800000  0.31180000  0.22450000  1.0 0.0228224071
H  H10  1  0.83310000  0.26670000  0.25440000  1.0 0.0228224071
H  H11  1  0.03670000  0.85410000  0.17650000  1.0 0.1188913821
H  H12  1  0.04440000  0.77350000  0.23010000  1.0 0.1300688201
H  H13  1  0.96730000  0.54880000  0.17630000  1.0 0.1188913821
H  H14  1  0.97420000  0.63080000  0.17590000  1.0 0.1188913821
H  H15  1  0.92170000  0.59450000  0.20570000  1.0 0.1353801239
H  H16  1  0.09260000  0.71240000  0.08670000  1.0 0.1188913821
H  H17  1  0.09690000  0.63920000  0.14370000  1.0 0.1188913821
H  H18  1  0.22140000  0.67880000  0.27120000  1.0 0.009507741
H  H19  1  0.21200000  0.68820000  0.22450000  1.0 0.0228224071
H  H20  1  0.16690000  0.73330000  0.25440000  1.0 0.0228224071
H  H21  1  0.85410000  0.96330000  0.17650000  1.0 0.1145068828
H  H22  1  0.77350000  0.95560000  0.23010000  1.0 0.1300688201
H  H23  1  0.54880000  0.03270000  0.17630000  1.0 0.1188913821
H  H24  1  0.63080000  0.02580000  0.17590000  1.0 0.1188913821
H  H25  1  0.59450000  0.07830000  0.20570000  1.0 0.1353801239
H  H26  1  0.71240000  0.90740000  0.08670000  1.0 0.1188913821
H  H27  1  0.63920000  0.90310000  0.14370000  1.0 0.1188913821
H  H28  1  0.67880000  0.77860000  0.27120000  1.0 0.009507741
H  H29  1  0.68820000  0.78800000  0.22450000  1.0 0.0228224071
H  H30  1  0.73330000  0.83310000  0.25440000  1.0 0.0228224071
H  H31  1  0.14590000  0.03670000  0.17650000  1.0 0.1188913821
H  H32  1  0.22650000  0.04440000  0.23010000  1.0 0.1300688201
H  H33  1  0.45120000  0.96730000  0.17630000  1.0 0.1188913821
H  H34  1  0.36920000  0.97420000  0.17590000  1.0 0.1188913821
H  H35  1  0.40550000  0.92170000  0.20570000  1.0 0.1353801239
H  H36  1  0.28760000  0.09260000  0.08670000  1.0 0.1188913821
H  H37  1  0.36080000  0.09690000  0.14370000  1.0 0.1188913821
H  H38  1  0.32120000  0.22140000  0.27120000  1.0 0.009507741
H  H39  1  0.31180000  0.21200000  0.22450000  1.0 0.0228224071
H  H40  1  0.26670000  0.16690000  0.25440000  1.0 0.0228224071
H  H41  1  0.53670000  0.64590000  0.32350000  1.0 0.1145068828
H  H42  1  0.54440000  0.72650000  0.26990000  1.0 0.1300688201
H  H43  1  0.46730000  0.95120000  0.32370000  1.0 0.1188913821
H  H44  1  0.47420000  0.86920000  0.32410000  1.0 0.1188913821
H  H45  1  0.42170000  0.90550000  0.29430000  1.0 0.1353801239
H  H46  1  0.59260000  0.78760000  0.41330000  1.0 0.1188913821
H  H47  1  0.59690000  0.86080000  0.35630000  1.0 0.1188913821
H  H48  1  0.72140000  0.82120000  0.22880000  1.0 0.009507741
H  H49  1  0.71200000  0.81180000  0.27550000  1.0 0.0228224071
H  H50  1  0.66690000  0.76670000  0.24560000  1.0 0.0228224071
H  H51  1  0.46330000  0.35410000  0.32350000  1.0 0.1145068828
H  H52  1  0.45560000  0.27350000  0.26990000  1.0 0.1300688201
H  H53  1  0.53270000  0.04880000  0.32370000  1.0 0.1188913821
H  H54  1  0.52580000  0.13080000  0.32410000  1.0 0.1188913821
H  H55  1  0.57830000  0.09450000  0.29430000  1.0 0.1353801239
H  H56  1  0.40740000  0.21240000  0.41330000  1.0 0.1188913821
H  H57  1  0.40310000  0.13920000  0.35630000  1.0 0.1188913821
H  H58  1  0.27860000  0.17880000  0.22880000  1.0 0.009507741
H  H59  1  0.28800000  0.18820000  0.27550000  1.0 0.0228224071
H  H60  1  0.33310000  0.23330000  0.24560000  1.0 0.0228224071
H  H61  1  0.64590000  0.46330000  0.32350000  1.0 0.1145068828
H  H62  1  0.72650000  0.45560000  0.26990000  1.0 0.1300688201
H  H63  1  0.95120000  0.53270000  0.32370000  1.0 0.1188913821
H  H64  1  0.86920000  0.52580000  0.32410000  1.0 0.1188913821
H  H65  1  0.90550000  0.57830000  0.29430000  1.0 0.1353801239
H  H66  1  0.78760000  0.40740000  0.41330000  1.0 0.1188913821
H  H67  1  0.86080000  0.40310000  0.35630000  1.0 0.1188913821
H  H68  1  0.82120000  0.27860000  0.22880000  1.0 0.009507741
H  H69  1  0.81180000  0.28800000  0.27550000  1.0 0.0228224071
H  H70  1  0.76670000  0.33310000  0.24560000  1.0 0.0228224071
H  H71  1  0.35410000  0.53670000  0.32350000  1.0 0.1188913821
H  H72  1  0.27350000  0.54440000  0.26990000  1.0 0.1300688201
H  H73  1  0.04880000  0.46730000  0.32370000  1.0 0.1188913821
H  H74  1  0.13080000  0.47420000  0.32410000  1.0 0.1188913821
H  H75  1  0.09450000  0.42170000  0.29430000  1.0 0.1353801239
H  H76  1  0.21240000  0.59260000  0.41330000  1.0 0.1188913821
H  H77  1  0.13920000  0.59690000  0.35630000  1.0 0.1188913821
H  H78  1  0.17880000  0.72140000  0.22880000  1.0 0.009507741
H  H79  1  0.18820000  0.71200000  0.27550000  1.0 0.0228224071
H  H80  1  0.23330000  0.66690000  0.24560000  1.0 0.0228224071
H  H81  1  0.03670000  0.85410000  0.82350000  1.0 0.1145068828
H  H82  1  0.04440000  0.77350000  0.76990000  1.0 0.1300688201
H  H83  1  0.96730000  0.54880000  0.82370000  1.0 0.1188913821
H  H84  1  0.97420000  0.63080000  0.82410000  1.0 0.1188913821
H  H85  1  0.92170000  0.59450000  0.79430000  1.0 0.1353801239
H  H86  1  0.09260000  0.71240000  0.91330000  1.0 0.1188913821
H  H87  1  0.09690000  0.63920000  0.85630000  1.0 0.1188913821
H  H88  1  0.22140000  0.67880000  0.72880000  1.0 0.009507741
H  H89  1  0.21200000  0.68820000  0.77550000  1.0 0.0228224071
H  H90  1  0.16690000  0.73330000  0.74560000  1.0 0.0228224071
H  H91  1  0.96330000  0.14590000  0.82350000  1.0 0.1145068828
H  H92  1  0.95560000  0.22650000  0.76990000  1.0 0.1300688201
H  H93  1  0.03270000  0.45120000  0.82370000  1.0 0.1188913821
H  H94  1  0.02580000  0.36920000  0.82410000  1.0 0.1188913821
H  H95  1  0.07830000  0.40550000  0.79430000  1.0 0.1353801239
H  H96  1  0.90740000  0.28760000  0.91330000  1.0 0.1188913821
H  H97  1  0.90310000  0.36080000  0.85630000  1.0 0.1188913821
H  H98  1  0.77860000  0.32120000  0.72880000  1.0 0.009507741
H  H99  1  0.78800000  0.31180000  0.77550000  1.0 0.0228224071
H  H100  1  0.83310000  0.26670000  0.74560000  1.0 0.0228224071
H  H101  1  0.14590000  0.03670000  0.82350000  1.0 0.1145068828
H  H102  1  0.22650000  0.04440000  0.76990000  1.0 0.1300688201
H  H103  1  0.45120000  0.96730000  0.82370000  1.0 0.1188913821
H  H104  1  0.36920000  0.97420000  0.82410000  1.0 0.1188913821
H  H105  1  0.40550000  0.92170000  0.79430000  1.0 0.1353801239
H  H106  1  0.28760000  0.09260000  0.91330000  1.0 0.1188913821
H  H107  1  0.36080000  0.09690000  0.85630000  1.0 0.1188913821
H  H108  1  0.32120000  0.22140000  0.72880000  1.0 0.009507741
H  H109  1  0.31180000  0.21200000  0.77550000  1.0 0.0228224071
H  H110  1  0.26670000  0.16690000  0.74560000  1.0 0.0228224071
H  H111  1  0.85410000  0.96330000  0.82350000  1.0 0.1145068828
H  H112  1  0.77350000  0.95560000  0.76990000  1.0 0.1300688201
H  H113  1  0.54880000  0.03270000  0.82370000  1.0 0.1188913821
H  H114  1  0.63080000  0.02580000  0.82410000  1.0 0.1188913821
H  H115  1  0.59450000  0.07830000  0.79430000  1.0 0.1353801239
H  H116  1  0.71240000  0.90740000  0.91330000  1.0 0.1188913821
H  H117  1  0.63920000  0.90310000  0.85630000  1.0 0.1188913821
H  H118  1  0.67880000  0.77860000  0.72880000  1.0 0.009507741
H  H119  1  0.68820000  0.78800000  0.77550000  1.0 0.0228224071
H  H120  1  0.73330000  0.83310000  0.74560000  1.0 0.0228224071
H  H121  1  0.46330000  0.35410000  0.67650000  1.0 0.1145068828
H  H122  1  0.45560000  0.27350000  0.73010000  1.0 0.1300688201
H  H123  1  0.53270000  0.04880000  0.67630000  1.0 0.1188913821
H  H124  1  0.52580000  0.13080000  0.67590000  1.0 0.1188913821
H  H125  1  0.57830000  0.09450000  0.70570000  1.0 0.1353801239
H  H126  1  0.40740000  0.21240000  0.58670000  1.0 0.1188913821
H  H127  1  0.40310000  0.13920000  0.64370000  1.0 0.1188913821
H  H128  1  0.27860000  0.17880000  0.77120000  1.0 0.009507741
H  H129  1  0.28800000  0.18820000  0.72450000  1.0 0.0228224071
H  H130  1  0.33310000  0.23330000  0.75440000  1.0 0.0228224071
H  H131  1  0.53670000  0.64590000  0.67650000  1.0 0.1145068828
H  H132  1  0.54440000  0.72650000  0.73010000  1.0 0.1300688201
H  H133  1  0.46730000  0.95120000  0.67630000  1.0 0.1188913821
H  H134  1  0.47420000  0.86920000  0.67590000  1.0 0.1188913821
H  H135  1  0.42170000  0.90550000  0.70570000  1.0 0.1353801239
H  H136  1  0.59260000  0.78760000  0.58670000  1.0 0.1188913821
H  H137  1  0.59690000  0.86080000  0.64370000  1.0 0.1188913821
H  H138  1  0.72140000  0.82120000  0.77120000  1.0 0.009507741
H  H139  1  0.71200000  0.81180000  0.72450000  1.0 0.0228224071
H  H140  1  0.66690000  0.76670000  0.75440000  1.0 0.0228224071
H  H141  1  0.35410000  0.53670000  0.67650000  1.0 0.1145068828
H  H142  1  0.27350000  0.54440000  0.73010000  1.0 0.1300688201
H  H143  1  0.04880000  0.46730000  0.67630000  1.0 0.1188913821
H  H144  1  0.13080000  0.47420000  0.67590000  1.0 0.1188913821
H  H145  1  0.09450000  0.42170000  0.70570000  1.0 0.1353801239
H  H146  1  0.21240000  0.59260000  0.58670000  1.0 0.1188913821
H  H147  1  0.13920000  0.59690000  0.64370000  1.0 0.1188913821
H  H148  1  0.17880000  0.72140000  0.77120000  1.0 0.009507741
H  H149  1  0.18820000  0.71200000  0.72450000  1.0 0.0228224071
H  H150  1  0.23330000  0.66690000  0.75440000  1.0 0.0228224071
H  H151  1  0.64590000  0.46330000  0.67650000  1.0 0.1145068828
H  H152  1  0.72650000  0.45560000  0.73010000  1.0 0.1300688201
H  H153  1  0.95120000  0.53270000  0.67630000  1.0 0.1188913821
H  H154  1  0.86920000  0.52580000  0.67590000  1.0 0.1188913821
H  H155  1  0.90550000  0.57830000  0.70570000  1.0 0.1353801239
H  H156  1  0.78760000  0.40740000  0.58670000  1.0 0.1188913821
H  H157  1  0.86080000  0.40310000  0.64370000  1.0 0.1188913821
H  H158  1  0.82120000  0.27860000  0.77120000  1.0 0.009507741
H  H159  1  0.81180000  0.28800000  0.72450000  1.0 0.0228224071
H  H160  1  0.76670000  0.33310000  0.75440000  1.0 0.0228224071
C  C1  1  0.97610000  0.41390000  0.22420000  1.0 0.0547981236
C  C2  1  0.95040000  0.19210000  0.17120000  1.0 -0.0783971696
C  C3  1  0.94230000  0.15170000  0.10130000  1.0 0.6375402856
C  C4  1  0.94610000  0.23860000  0.20350000  1.0 -0.1284201433
C  C5  1  0.92190000  0.36480000  0.22160000  1.0 -0.0343943162
C  C6  1  0.03350000  0.40960000  0.19260000  1.0 -0.424256346
C  C7  1  0.93610000  0.21140000  0.13090000  1.0 -0.0455378195
C  C8  1  0.92570000  0.30650000  0.19080000  1.0 0.0678183606
C  C9  1  0.91650000  0.27520000  0.11340000  1.0 -0.102491558
C  C10  1  0.91500000  0.31440000  0.14930000  1.0 -0.1435680304
C  C11  1  0.02390000  0.58610000  0.22420000  1.0 0.0547981236
C  C12  1  0.04960000  0.80790000  0.17120000  1.0 -0.0783971696
C  C13  1  0.05770000  0.84830000  0.10130000  1.0 0.6375402856
C  C14  1  0.05390000  0.76140000  0.20350000  1.0 -0.1284201433
C  C15  1  0.07810000  0.63520000  0.22160000  1.0 -0.0343943162
C  C16  1  0.96650000  0.59040000  0.19260000  1.0 -0.424256346
C  C17  1  0.06390000  0.78860000  0.13090000  1.0 -0.0455378195
C  C18  1  0.07430000  0.69350000  0.19080000  1.0 0.0678183606
C  C19  1  0.08350000  0.72480000  0.11340000  1.0 -0.102491558
C  C20  1  0.08500000  0.68560000  0.14930000  1.0 -0.1435680304
C  C21  1  0.58610000  0.97610000  0.22420000  1.0 0.0547981236
C  C22  1  0.80790000  0.95040000  0.17120000  1.0 -0.0783971696
C  C23  1  0.84830000  0.94230000  0.10130000  1.0 0.6375402856
C  C24  1  0.76140000  0.94610000  0.20350000  1.0 -0.1284201433
C  C25  1  0.63520000  0.92190000  0.22160000  1.0 -0.0343943162
C  C26  1  0.59040000  0.03350000  0.19260000  1.0 -0.424256346
C  C27  1  0.78860000  0.93610000  0.13090000  1.0 -0.0455378195
C  C28  1  0.69350000  0.92570000  0.19080000  1.0 0.0678183606
C  C29  1  0.72480000  0.91650000  0.11340000  1.0 -0.102491558
C  C30  1  0.68560000  0.91500000  0.14930000  1.0 -0.1435680304
C  C31  1  0.41390000  0.02390000  0.22420000  1.0 0.0547981236
C  C32  1  0.19210000  0.04960000  0.17120000  1.0 -0.0783971696
C  C33  1  0.15170000  0.05770000  0.10130000  1.0 0.6375402856
C  C34  1  0.23860000  0.05390000  0.20350000  1.0 -0.1284201433
C  C35  1  0.36480000  0.07810000  0.22160000  1.0 -0.0343943162
C  C36  1  0.40960000  0.96650000  0.19260000  1.0 -0.424256346
C  C37  1  0.21140000  0.06390000  0.13090000  1.0 -0.0455378195
C  C38  1  0.30650000  0.07430000  0.19080000  1.0 0.0678183606
C  C39  1  0.27520000  0.08350000  0.11340000  1.0 -0.102491558
C  C40  1  0.31440000  0.08500000  0.14930000  1.0 -0.1435680304
C  C41  1  0.52390000  0.91390000  0.27580000  1.0 0.0547981236
C  C42  1  0.54960000  0.69210000  0.32880000  1.0 -0.0783971696
C  C43  1  0.55770000  0.65170000  0.39870000  1.0 0.6375402856
C  C44  1  0.55390000  0.73860000  0.29650000  1.0 -0.1284201433
C  C45  1  0.57810000  0.86480000  0.27840000  1.0 -0.0343943162
C  C46  1  0.46650000  0.90960000  0.30740000  1.0 -0.424256346
C  C47  1  0.56390000  0.71140000  0.36910000  1.0 -0.0455378195
C  C48  1  0.57430000  0.80650000  0.30920000  1.0 0.0678183606
C  C49  1  0.58350000  0.77520000  0.38660000  1.0 -0.102491558
C  C50  1  0.58500000  0.81440000  0.35070000  1.0 -0.1435680304
C  C51  1  0.47610000  0.08610000  0.27580000  1.0 0.0547981236
C  C52  1  0.45040000  0.30790000  0.32880000  1.0 -0.0783971696
C  C53  1  0.44230000  0.34830000  0.39870000  1.0 0.6375402856
C  C54  1  0.44610000  0.26140000  0.29650000  1.0 -0.1284201433
C  C55  1  0.42190000  0.13520000  0.27840000  1.0 -0.0343943162
C  C56  1  0.53350000  0.09040000  0.30740000  1.0 -0.424256346
C  C57  1  0.43610000  0.28860000  0.36910000  1.0 -0.0455378195
C  C58  1  0.42570000  0.19350000  0.30920000  1.0 0.0678183606
C  C59  1  0.41650000  0.22480000  0.38660000  1.0 -0.102491558
C  C60  1  0.41500000  0.18560000  0.35070000  1.0 -0.1435680304
C  C61  1  0.91390000  0.47610000  0.27580000  1.0 0.0547981236
C  C62  1  0.69210000  0.45040000  0.32880000  1.0 -0.0783971696
C  C63  1  0.65170000  0.44230000  0.39870000  1.0 0.6375402856
C  C64  1  0.73860000  0.44610000  0.29650000  1.0 -0.1284201433
C  C65  1  0.86480000  0.42190000  0.27840000  1.0 -0.0343943162
C  C66  1  0.90960000  0.53350000  0.30740000  1.0 -0.424256346
C  C67  1  0.71140000  0.43610000  0.36910000  1.0 -0.0455378195
C  C68  1  0.80650000  0.42570000  0.30920000  1.0 0.0678183606
C  C69  1  0.77520000  0.41650000  0.38660000  1.0 -0.102491558
C  C70  1  0.81440000  0.41500000  0.35070000  1.0 -0.1435680304
C  C71  1  0.08610000  0.52390000  0.27580000  1.0 0.0547981236
C  C72  1  0.30790000  0.54960000  0.32880000  1.0 -0.0783971696
C  C73  1  0.34830000  0.55770000  0.39870000  1.0 0.6375402856
C  C74  1  0.26140000  0.55390000  0.29650000  1.0 -0.1284201433
C  C75  1  0.13520000  0.57810000  0.27840000  1.0 -0.0343943162
C  C76  1  0.09040000  0.46650000  0.30740000  1.0 -0.424256346
C  C77  1  0.28860000  0.56390000  0.36910000  1.0 -0.0455378195
C  C78  1  0.19350000  0.57430000  0.30920000  1.0 0.0678183606
C  C79  1  0.22480000  0.58350000  0.38660000  1.0 -0.102491558
C  C80  1  0.18560000  0.58500000  0.35070000  1.0 -0.1435680304
C  C81  1  0.02390000  0.58610000  0.77580000  1.0 0.0547981236
C  C82  1  0.04960000  0.80790000  0.82880000  1.0 -0.0783971696
C  C83  1  0.05770000  0.84830000  0.89870000  1.0 0.6375402856
C  C84  1  0.05390000  0.76140000  0.79650000  1.0 -0.1284201433
C  C85  1  0.07810000  0.63520000  0.77840000  1.0 -0.0343943162
C  C86  1  0.96650000  0.59040000  0.80740000  1.0 -0.424256346
C  C87  1  0.06390000  0.78860000  0.86910000  1.0 -0.0455378195
C  C88  1  0.07430000  0.69350000  0.80920000  1.0 0.0678183606
C  C89  1  0.08350000  0.72480000  0.88660000  1.0 -0.102491558
C  C90  1  0.08500000  0.68560000  0.85070000  1.0 -0.1435680304
C  C91  1  0.97610000  0.41390000  0.77580000  1.0 0.0547981236
C  C92  1  0.95040000  0.19210000  0.82880000  1.0 -0.0783971696
C  C93  1  0.94230000  0.15170000  0.89870000  1.0 0.6375402856
C  C94  1  0.94610000  0.23860000  0.79650000  1.0 -0.1284201433
C  C95  1  0.92190000  0.36480000  0.77840000  1.0 -0.0343943162
C  C96  1  0.03350000  0.40960000  0.80740000  1.0 -0.424256346
C  C97  1  0.93610000  0.21140000  0.86910000  1.0 -0.0455378195
C  C98  1  0.92570000  0.30650000  0.80920000  1.0 0.0678183606
C  C99  1  0.91650000  0.27520000  0.88660000  1.0 -0.102491558
C  C100  1  0.91500000  0.31440000  0.85070000  1.0 -0.1435680304
C  C101  1  0.41390000  0.02390000  0.77580000  1.0 0.0547981236
C  C102  1  0.19210000  0.04960000  0.82880000  1.0 -0.0783971696
C  C103  1  0.15170000  0.05770000  0.89870000  1.0 0.6375402856
C  C104  1  0.23860000  0.05390000  0.79650000  1.0 -0.1284201433
C  C105  1  0.36480000  0.07810000  0.77840000  1.0 -0.0343943162
C  C106  1  0.40960000  0.96650000  0.80740000  1.0 -0.424256346
C  C107  1  0.21140000  0.06390000  0.86910000  1.0 -0.0455378195
C  C108  1  0.30650000  0.07430000  0.80920000  1.0 0.0678183606
C  C109  1  0.27520000  0.08350000  0.88660000  1.0 -0.102491558
C  C110  1  0.31440000  0.08500000  0.85070000  1.0 -0.1435680304
C  C111  1  0.58610000  0.97610000  0.77580000  1.0 0.0547981236
C  C112  1  0.80790000  0.95040000  0.82880000  1.0 -0.0783971696
C  C113  1  0.84830000  0.94230000  0.89870000  1.0 0.6375402856
C  C114  1  0.76140000  0.94610000  0.79650000  1.0 -0.1284201433
C  C115  1  0.63520000  0.92190000  0.77840000  1.0 -0.0343943162
C  C116  1  0.59040000  0.03350000  0.80740000  1.0 -0.424256346
C  C117  1  0.78860000  0.93610000  0.86910000  1.0 -0.0455378195
C  C118  1  0.69350000  0.92570000  0.80920000  1.0 0.0678183606
C  C119  1  0.72480000  0.91650000  0.88660000  1.0 -0.102491558
C  C120  1  0.68560000  0.91500000  0.85070000  1.0 -0.1435680304
C  C121  1  0.47610000  0.08610000  0.72420000  1.0 0.0547981236
C  C122  1  0.45040000  0.30790000  0.67120000  1.0 -0.0783971696
C  C123  1  0.44230000  0.34830000  0.60130000  1.0 0.6375402856
C  C124  1  0.44610000  0.26140000  0.70350000  1.0 -0.1284201433
C  C125  1  0.42190000  0.13520000  0.72160000  1.0 -0.0343943162
C  C126  1  0.53350000  0.09040000  0.69260000  1.0 -0.424256346
C  C127  1  0.43610000  0.28860000  0.63090000  1.0 -0.0455378195
C  C128  1  0.42570000  0.19350000  0.69080000  1.0 0.0678183606
C  C129  1  0.41650000  0.22480000  0.61340000  1.0 -0.102491558
C  C130  1  0.41500000  0.18560000  0.64930000  1.0 -0.1435680304
C  C131  1  0.52390000  0.91390000  0.72420000  1.0 0.0547981236
C  C132  1  0.54960000  0.69210000  0.67120000  1.0 -0.0783971696
C  C133  1  0.55770000  0.65170000  0.60130000  1.0 0.6375402856
C  C134  1  0.55390000  0.73860000  0.70350000  1.0 -0.1284201433
C  C135  1  0.57810000  0.86480000  0.72160000  1.0 -0.0343943162
C  C136  1  0.46650000  0.90960000  0.69260000  1.0 -0.424256346
C  C137  1  0.56390000  0.71140000  0.63090000  1.0 -0.0455378195
C  C138  1  0.57430000  0.80650000  0.69080000  1.0 0.0678183606
C  C139  1  0.58350000  0.77520000  0.61340000  1.0 -0.102491558
C  C140  1  0.58500000  0.81440000  0.64930000  1.0 -0.1435680304
C  C141  1  0.08610000  0.52390000  0.72420000  1.0 0.0547981236
C  C142  1  0.30790000  0.54960000  0.67120000  1.0 -0.0783971696
C  C143  1  0.34830000  0.55770000  0.60130000  1.0 0.6375402856
C  C144  1  0.26140000  0.55390000  0.70350000  1.0 -0.1284201433
C  C145  1  0.13520000  0.57810000  0.72160000  1.0 -0.0343943162
C  C146  1  0.09040000  0.46650000  0.69260000  1.0 -0.424256346
C  C147  1  0.28860000  0.56390000  0.63090000  1.0 -0.0455378195
C  C148  1  0.19350000  0.57430000  0.69080000  1.0 0.0678183606
C  C149  1  0.22480000  0.58350000  0.61340000  1.0 -0.102491558
C  C150  1  0.18560000  0.58500000  0.64930000  1.0 -0.1435680304
C  C151  1  0.91390000  0.47610000  0.72420000  1.0 0.0547981236
C  C152  1  0.69210000  0.45040000  0.67120000  1.0 -0.0783971696
C  C153  1  0.65170000  0.44230000  0.60130000  1.0 0.6375402856
C  C154  1  0.73860000  0.44610000  0.70350000  1.0 -0.1284201433
C  C155  1  0.86480000  0.42190000  0.72160000  1.0 -0.0343943162
C  C156  1  0.90960000  0.53350000  0.69260000  1.0 -0.424256346
C  C157  1  0.71140000  0.43610000  0.63090000  1.0 -0.0455378195
C  C158  1  0.80650000  0.42570000  0.69080000  1.0 0.0678183606
C  C159  1  0.77520000  0.41650000  0.61340000  1.0 -0.102491558
C  C160  1  0.81440000  0.41500000  0.64930000  1.0 -0.1435680304
C  C161  1  0.97204000  0.47204000  0.25000000  1.0 -0.0139982033
C  C162  1  0.86770000  0.36770000  0.25000000  1.0 -0.0176441184
C  C163  1  0.81180000  0.31180000  0.25000000  1.0 -0.1587080162
C  C164  1  0.02796000  0.52796000  0.25000000  1.0 -0.0139982033
C  C165  1  0.13230000  0.63230000  0.25000000  1.0 -0.0176441184
C  C166  1  0.18820000  0.68820000  0.25000000  1.0 -0.1587080162
C  C167  1  0.52796000  0.97204000  0.25000000  1.0 -0.0139982033
C  C168  1  0.63230000  0.86770000  0.25000000  1.0 -0.0176441184
C  C169  1  0.68820000  0.81180000  0.25000000  1.0 -0.1587080162
C  C170  1  0.47204000  0.02796000  0.25000000  1.0 -0.0139982033
C  C171  1  0.36770000  0.13230000  0.25000000  1.0 -0.0176441184
C  C172  1  0.31180000  0.18820000  0.25000000  1.0 -0.1587080162
C  C173  1  0.02796000  0.52796000  0.75000000  1.0 -0.0139982033
C  C174  1  0.13230000  0.63230000  0.75000000  1.0 -0.0176441184
C  C175  1  0.18820000  0.68820000  0.75000000  1.0 -0.1587080162
C  C176  1  0.97204000  0.47204000  0.75000000  1.0 -0.0139982033
C  C177  1  0.86770000  0.36770000  0.75000000  1.0 -0.0176441184
C  C178  1  0.81180000  0.31180000  0.75000000  1.0 -0.1587080162
C  C179  1  0.47204000  0.02796000  0.75000000  1.0 -0.0139982033
C  C180  1  0.36770000  0.13230000  0.75000000  1.0 -0.0176441184
C  C181  1  0.31180000  0.18820000  0.75000000  1.0 -0.1587080162
C  C182  1  0.52796000  0.97204000  0.75000000  1.0 -0.0139982033
C  C183  1  0.63230000  0.86770000  0.75000000  1.0 -0.0176441184
C  C184  1  0.68820000  0.81180000  0.75000000  1.0 -0.1587080162
O  O1  1  0.97200000  0.09300000  0.10910000  1.0 -0.5753209245
O  O2  1  0.93930000  0.17550000  0.06090000  1.0 -0.7293846597
O  O3  1  0.03840000  0.08290000  0.03600000  1.0 -1.1595451188
O  O4  1  0.02800000  0.90700000  0.10910000  1.0 -0.5753209245
O  O5  1  0.06070000  0.82450000  0.06090000  1.0 -0.7293846597
O  O6  1  0.96160000  0.91710000  0.03600000  1.0 -1.1595451188
O  O7  1  0.90700000  0.97200000  0.10910000  1.0 -0.5753209245
O  O8  1  0.82450000  0.93930000  0.06090000  1.0 -0.7293846597
O  O9  1  0.91710000  0.03840000  0.03600000  1.0 -1.1595451188
O  O10  1  0.09300000  0.02800000  0.10910000  1.0 -0.5753209245
O  O11  1  0.17550000  0.06070000  0.06090000  1.0 -0.7293846597
O  O12  1  0.08290000  0.96160000  0.03600000  1.0 -1.1595451188
O  O13  1  0.52800000  0.59300000  0.39090000  1.0 -0.5753209245
O  O14  1  0.56070000  0.67550000  0.43910000  1.0 -0.7293846597
O  O15  1  0.46160000  0.58290000  0.46400000  1.0 -1.1595451188
O  O16  1  0.47200000  0.40700000  0.39090000  1.0 -0.5753209245
O  O17  1  0.43930000  0.32450000  0.43910000  1.0 -0.7293846597
O  O18  1  0.53840000  0.41710000  0.46400000  1.0 -1.1595451188
O  O19  1  0.59300000  0.47200000  0.39090000  1.0 -0.5753209245
O  O20  1  0.67550000  0.43930000  0.43910000  1.0 -0.7293846597
O  O21  1  0.58290000  0.53840000  0.46400000  1.0 -1.1595451188
O  O22  1  0.40700000  0.52800000  0.39090000  1.0 -0.5753209245
O  O23  1  0.32450000  0.56070000  0.43910000  1.0 -0.7293846597
O  O24  1  0.41710000  0.46160000  0.46400000  1.0 -1.1595451188
O  O25  1  0.02800000  0.90700000  0.89090000  1.0 -0.5753209245
O  O26  1  0.06070000  0.82450000  0.93910000  1.0 -0.7293846597
O  O27  1  0.96160000  0.91710000  0.96400000  1.0 -1.1595451188
O  O28  1  0.97200000  0.09300000  0.89090000  1.0 -0.5753209245
O  O29  1  0.93930000  0.17550000  0.93910000  1.0 -0.7293846597
O  O30  1  0.03840000  0.08290000  0.96400000  1.0 -1.1595451188
O  O31  1  0.09300000  0.02800000  0.89090000  1.0 -0.5753209245
O  O32  1  0.17550000  0.06070000  0.93910000  1.0 -0.7293846597
O  O33  1  0.08290000  0.96160000  0.96400000  1.0 -1.1595451188
O  O34  1  0.90700000  0.97200000  0.89090000  1.0 -0.5753209245
O  O35  1  0.82450000  0.93930000  0.93910000  1.0 -0.7293846597
O  O36  1  0.91710000  0.03840000  0.96400000  1.0 -1.1595451188
O  O37  1  0.47200000  0.40700000  0.60910000  1.0 -0.5753209245
O  O38  1  0.43930000  0.32450000  0.56090000  1.0 -0.7293846597
O  O39  1  0.53840000  0.41710000  0.53600000  1.0 -1.1595451188
O  O40  1  0.52800000  0.59300000  0.60910000  1.0 -0.5753209245
O  O41  1  0.56070000  0.67550000  0.56090000  1.0 -0.7293846597
O  O42  1  0.46160000  0.58290000  0.53600000  1.0 -1.1595451188
O  O43  1  0.40700000  0.52800000  0.60910000  1.0 -0.5753209245
O  O44  1  0.32450000  0.56070000  0.56090000  1.0 -0.7293846597
O  O45  1  0.41710000  0.46160000  0.53600000  1.0 -1.1595451188
O  O46  1  0.59300000  0.47200000  0.60910000  1.0 -0.5753209245
O  O47  1  0.67550000  0.43930000  0.56090000  1.0 -0.7293846597
O  O48  1  0.58290000  0.53840000  0.53600000  1.0 -1.1595451188
