# DDEC6 charges by PACMAN v1.1 (https://github.com/mtap-research/PACMAN-charge/)
data_GIGGEL_ASR_pacman
_symmetry_space_group_name_H-M   'P 1'
_cell_length_a   18.88060000
_cell_length_b   18.88060000
_cell_length_c   33.24130000
_cell_angle_alpha   90.00000000
_cell_angle_beta   90.00000000
_cell_angle_gamma   90.00000000
_symmetry_Int_Tables_number   1
_chemical_formula_structural   Zr3H40(C23O6)2
_chemical_formula_sum   'Zr12 H160 C184 O48'
_cell_volume   11849.76077358
_cell_formula_units_Z   4
loop_
 _symmetry_equiv_pos_site_id
 _symmetry_equiv_pos_as_xyz
  1  'x, y, z'
loop_
 _atom_site_type_symbol
 _atom_site_label
 _atom_site_symmetry_multiplicity
 _atom_site_fract_x
 _atom_site_fract_y
 _atom_site_fract_z
 _atom_site_occupancy
 _atom_site_charge
Zr  Zr1  1  0.50000000  0.50000000  0.42667000  1.0 2.3598944193
Zr  Zr2  1  0.00000000  0.00000000  0.07333000  1.0 2.3598944193
Zr  Zr3  1  0.50000000  0.50000000  0.57333000  1.0 2.3598944193
Zr  Zr4  1  0.00000000  0.00000000  0.92667000  1.0 2.3598944193
Zr  Zr5  1  0.62320000  0.54826000  0.50000000  1.0 2.455476368
Zr  Zr6  1  0.37680000  0.45174000  0.50000000  1.0 2.455476368
Zr  Zr7  1  0.45174000  0.62320000  0.50000000  1.0 2.455476368
Zr  Zr8  1  0.54826000  0.37680000  0.50000000  1.0 2.455476368
Zr  Zr9  1  0.87680000  0.04826000  0.00000000  1.0 2.455476368
Zr  Zr10  1  0.12320000  0.95174000  0.00000000  1.0 2.455476368
Zr  Zr11  1  0.04826000  0.12320000  0.00000000  1.0 2.455476368
Zr  Zr12  1  0.95174000  0.87680000  0.00000000  1.0 2.455476368
H  H1  1  0.09430000  0.57720000  0.29490000  1.0 0.1300999701
H  H2  1  0.14430000  0.52880000  0.32060000  1.0 0.122779064
H  H3  1  0.06230000  0.52710000  0.32790000  1.0 0.109107745
H  H4  1  0.35470000  0.46520000  0.32410000  1.0 0.122779064
H  H5  1  0.26870000  0.45540000  0.27460000  1.0 0.1300999701
H  H6  1  0.12610000  0.39760000  0.35810000  1.0 0.122779064
H  H7  1  0.21210000  0.40740000  0.40770000  1.0 0.109107745
H  H8  1  0.22400000  0.31910000  0.27100000  1.0 0.010578967
H  H9  1  0.16900000  0.26410000  0.25450000  1.0 0.0272489245
H  H10  1  0.21430000  0.30950000  0.22450000  1.0 0.010578967
H  H11  1  0.90570000  0.42280000  0.29490000  1.0 0.1300999701
H  H12  1  0.85570000  0.47120000  0.32060000  1.0 0.122779064
H  H13  1  0.93770000  0.47290000  0.32790000  1.0 0.109107745
H  H14  1  0.64530000  0.53480000  0.32410000  1.0 0.122779064
H  H15  1  0.73130000  0.54460000  0.27460000  1.0 0.1300999701
H  H16  1  0.87390000  0.60240000  0.35810000  1.0 0.122779064
H  H17  1  0.78790000  0.59260000  0.40770000  1.0 0.109107745
H  H18  1  0.77600000  0.68090000  0.27100000  1.0 0.010578967
H  H19  1  0.83100000  0.73590000  0.25450000  1.0 0.0272489245
H  H20  1  0.78570000  0.69050000  0.22450000  1.0 0.010578967
H  H21  1  0.42280000  0.09430000  0.29490000  1.0 0.1300999701
H  H22  1  0.47120000  0.14430000  0.32060000  1.0 0.122779064
H  H23  1  0.47290000  0.06230000  0.32790000  1.0 0.109107745
H  H24  1  0.53480000  0.35470000  0.32410000  1.0 0.122779064
H  H25  1  0.54460000  0.26870000  0.27460000  1.0 0.1300999701
H  H26  1  0.60240000  0.12610000  0.35810000  1.0 0.122779064
H  H27  1  0.59260000  0.21210000  0.40770000  1.0 0.109107745
H  H28  1  0.68090000  0.22400000  0.27100000  1.0 0.010578967
H  H29  1  0.73590000  0.16900000  0.25450000  1.0 0.0272489245
H  H30  1  0.69050000  0.21430000  0.22450000  1.0 0.010578967
H  H31  1  0.57720000  0.90570000  0.29490000  1.0 0.1300999701
H  H32  1  0.52880000  0.85570000  0.32060000  1.0 0.122779064
H  H33  1  0.52710000  0.93770000  0.32790000  1.0 0.109107745
H  H34  1  0.46520000  0.64530000  0.32410000  1.0 0.122779064
H  H35  1  0.45540000  0.73130000  0.27460000  1.0 0.1300999701
H  H36  1  0.39760000  0.87390000  0.35810000  1.0 0.122779064
H  H37  1  0.40740000  0.78790000  0.40770000  1.0 0.109107745
H  H38  1  0.31910000  0.77600000  0.27100000  1.0 0.010578967
H  H39  1  0.26410000  0.83100000  0.25450000  1.0 0.0272489245
H  H40  1  0.30950000  0.78570000  0.22450000  1.0 0.010578967
H  H41  1  0.40570000  0.07720000  0.20510000  1.0 0.1300999701
H  H42  1  0.35570000  0.02880000  0.17940000  1.0 0.122779064
H  H43  1  0.43770000  0.02710000  0.17210000  1.0 0.109107745
H  H44  1  0.14530000  0.96520000  0.17590000  1.0 0.122779064
H  H45  1  0.23130000  0.95540000  0.22540000  1.0 0.1300999701
H  H46  1  0.37390000  0.89760000  0.14190000  1.0 0.122779064
H  H47  1  0.28790000  0.90740000  0.09230000  1.0 0.109107745
H  H48  1  0.27600000  0.81910000  0.22900000  1.0 0.010578967
H  H49  1  0.33100000  0.76410000  0.24550000  1.0 0.0272489245
H  H50  1  0.28570000  0.80950000  0.27550000  1.0 0.010578967
H  H51  1  0.59430000  0.92280000  0.20510000  1.0 0.1300999701
H  H52  1  0.64430000  0.97120000  0.17940000  1.0 0.122779064
H  H53  1  0.56230000  0.97290000  0.17210000  1.0 0.109107745
H  H54  1  0.85470000  0.03480000  0.17590000  1.0 0.122779064
H  H55  1  0.76870000  0.04460000  0.22540000  1.0 0.1300999701
H  H56  1  0.62610000  0.10240000  0.14190000  1.0 0.122779064
H  H57  1  0.71210000  0.09260000  0.09230000  1.0 0.109107745
H  H58  1  0.72400000  0.18090000  0.22900000  1.0 0.010578967
H  H59  1  0.66900000  0.23590000  0.24550000  1.0 0.0272489245
H  H60  1  0.71430000  0.19050000  0.27550000  1.0 0.010578967
H  H61  1  0.07720000  0.59430000  0.20510000  1.0 0.1300999701
H  H62  1  0.02880000  0.64430000  0.17940000  1.0 0.122779064
H  H63  1  0.02710000  0.56230000  0.17210000  1.0 0.109107745
H  H64  1  0.96520000  0.85470000  0.17590000  1.0 0.122779064
H  H65  1  0.95540000  0.76870000  0.22540000  1.0 0.1300999701
H  H66  1  0.89760000  0.62610000  0.14190000  1.0 0.122779064
H  H67  1  0.90740000  0.71210000  0.09230000  1.0 0.109107745
H  H68  1  0.81910000  0.72400000  0.22900000  1.0 0.010578967
H  H69  1  0.76410000  0.66900000  0.24550000  1.0 0.0272489245
H  H70  1  0.80950000  0.71430000  0.27550000  1.0 0.010578967
H  H71  1  0.92280000  0.40570000  0.20510000  1.0 0.1300999701
H  H72  1  0.97120000  0.35570000  0.17940000  1.0 0.122779064
H  H73  1  0.97290000  0.43770000  0.17210000  1.0 0.109107745
H  H74  1  0.03480000  0.14530000  0.17590000  1.0 0.122779064
H  H75  1  0.04460000  0.23130000  0.22540000  1.0 0.1300999701
H  H76  1  0.10240000  0.37390000  0.14190000  1.0 0.122779064
H  H77  1  0.09260000  0.28790000  0.09230000  1.0 0.109107745
H  H78  1  0.18090000  0.27600000  0.22900000  1.0 0.010578967
H  H79  1  0.23590000  0.33100000  0.24550000  1.0 0.0272489245
H  H80  1  0.19050000  0.28570000  0.27550000  1.0 0.010578967
H  H81  1  0.90570000  0.42280000  0.70510000  1.0 0.1300999701
H  H82  1  0.85570000  0.47120000  0.67940000  1.0 0.122779064
H  H83  1  0.93770000  0.47290000  0.67210000  1.0 0.109107745
H  H84  1  0.64530000  0.53480000  0.67590000  1.0 0.122779064
H  H85  1  0.73130000  0.54460000  0.72540000  1.0 0.1300999701
H  H86  1  0.87390000  0.60240000  0.64190000  1.0 0.122779064
H  H87  1  0.78790000  0.59260000  0.59230000  1.0 0.109107745
H  H88  1  0.77600000  0.68090000  0.72900000  1.0 0.010578967
H  H89  1  0.83100000  0.73590000  0.74550000  1.0 0.0272489245
H  H90  1  0.78570000  0.69050000  0.77550000  1.0 0.010578967
H  H91  1  0.09430000  0.57720000  0.70510000  1.0 0.1300999701
H  H92  1  0.14430000  0.52880000  0.67940000  1.0 0.122779064
H  H93  1  0.06230000  0.52710000  0.67210000  1.0 0.109107745
H  H94  1  0.35470000  0.46520000  0.67590000  1.0 0.122779064
H  H95  1  0.26870000  0.45540000  0.72540000  1.0 0.1300999701
H  H96  1  0.12610000  0.39760000  0.64190000  1.0 0.122779064
H  H97  1  0.21210000  0.40740000  0.59230000  1.0 0.109107745
H  H98  1  0.22400000  0.31910000  0.72900000  1.0 0.010578967
H  H99  1  0.16900000  0.26410000  0.74550000  1.0 0.0272489245
H  H100  1  0.21430000  0.30950000  0.77550000  1.0 0.010578967
H  H101  1  0.57720000  0.90570000  0.70510000  1.0 0.1300999701
H  H102  1  0.52880000  0.85570000  0.67940000  1.0 0.122779064
H  H103  1  0.52710000  0.93770000  0.67210000  1.0 0.109107745
H  H104  1  0.46520000  0.64530000  0.67590000  1.0 0.122779064
H  H105  1  0.45540000  0.73130000  0.72540000  1.0 0.1300999701
H  H106  1  0.39760000  0.87390000  0.64190000  1.0 0.122779064
H  H107  1  0.40740000  0.78790000  0.59230000  1.0 0.109107745
H  H108  1  0.31910000  0.77600000  0.72900000  1.0 0.010578967
H  H109  1  0.26410000  0.83100000  0.74550000  1.0 0.0272489245
H  H110  1  0.30950000  0.78570000  0.77550000  1.0 0.010578967
H  H111  1  0.42280000  0.09430000  0.70510000  1.0 0.1300999701
H  H112  1  0.47120000  0.14430000  0.67940000  1.0 0.122779064
H  H113  1  0.47290000  0.06230000  0.67210000  1.0 0.109107745
H  H114  1  0.53480000  0.35470000  0.67590000  1.0 0.122779064
H  H115  1  0.54460000  0.26870000  0.72540000  1.0 0.1300999701
H  H116  1  0.60240000  0.12610000  0.64190000  1.0 0.122779064
H  H117  1  0.59260000  0.21210000  0.59230000  1.0 0.109107745
H  H118  1  0.68090000  0.22400000  0.72900000  1.0 0.010578967
H  H119  1  0.73590000  0.16900000  0.74550000  1.0 0.0272489245
H  H120  1  0.69050000  0.21430000  0.77550000  1.0 0.010578967
H  H121  1  0.59430000  0.92280000  0.79490000  1.0 0.1300999701
H  H122  1  0.64430000  0.97120000  0.82060000  1.0 0.122779064
H  H123  1  0.56230000  0.97290000  0.82790000  1.0 0.109107745
H  H124  1  0.85470000  0.03480000  0.82410000  1.0 0.122779064
H  H125  1  0.76870000  0.04460000  0.77460000  1.0 0.1300999701
H  H126  1  0.62610000  0.10240000  0.85810000  1.0 0.122779064
H  H127  1  0.71210000  0.09260000  0.90770000  1.0 0.109107745
H  H128  1  0.72400000  0.18090000  0.77100000  1.0 0.010578967
H  H129  1  0.66900000  0.23590000  0.75450000  1.0 0.0272489245
H  H130  1  0.71430000  0.19050000  0.72450000  1.0 0.010578967
H  H131  1  0.40570000  0.07720000  0.79490000  1.0 0.1300999701
H  H132  1  0.35570000  0.02880000  0.82060000  1.0 0.122779064
H  H133  1  0.43770000  0.02710000  0.82790000  1.0 0.109107745
H  H134  1  0.14530000  0.96520000  0.82410000  1.0 0.122779064
H  H135  1  0.23130000  0.95540000  0.77460000  1.0 0.1300999701
H  H136  1  0.37390000  0.89760000  0.85810000  1.0 0.122779064
H  H137  1  0.28790000  0.90740000  0.90770000  1.0 0.109107745
H  H138  1  0.27600000  0.81910000  0.77100000  1.0 0.010578967
H  H139  1  0.33100000  0.76410000  0.75450000  1.0 0.0272489245
H  H140  1  0.28570000  0.80950000  0.72450000  1.0 0.010578967
H  H141  1  0.92280000  0.40570000  0.79490000  1.0 0.1300999701
H  H142  1  0.97120000  0.35570000  0.82060000  1.0 0.122779064
H  H143  1  0.97290000  0.43770000  0.82790000  1.0 0.109107745
H  H144  1  0.03480000  0.14530000  0.82410000  1.0 0.122779064
H  H145  1  0.04460000  0.23130000  0.77460000  1.0 0.1300999701
H  H146  1  0.10240000  0.37390000  0.85810000  1.0 0.122779064
H  H147  1  0.09260000  0.28790000  0.90770000  1.0 0.109107745
H  H148  1  0.18090000  0.27600000  0.77100000  1.0 0.010578967
H  H149  1  0.23590000  0.33100000  0.75450000  1.0 0.0272489245
H  H150  1  0.19050000  0.28570000  0.72450000  1.0 0.010578967
H  H151  1  0.07720000  0.59430000  0.79490000  1.0 0.1300999701
H  H152  1  0.02880000  0.64430000  0.82060000  1.0 0.122779064
H  H153  1  0.02710000  0.56230000  0.82790000  1.0 0.109107745
H  H154  1  0.96520000  0.85470000  0.82410000  1.0 0.122779064
H  H155  1  0.95540000  0.76870000  0.77460000  1.0 0.1300999701
H  H156  1  0.89760000  0.62610000  0.85810000  1.0 0.122779064
H  H157  1  0.90740000  0.71210000  0.90770000  1.0 0.109107745
H  H158  1  0.81910000  0.72400000  0.77100000  1.0 0.010578967
H  H159  1  0.76410000  0.66900000  0.75450000  1.0 0.0272489245
H  H160  1  0.80950000  0.71430000  0.72450000  1.0 0.010578967
C  C1  1  0.34650000  0.44290000  0.40300000  1.0 0.631240735
C  C2  1  0.09140000  0.47330000  0.27690000  1.0 0.0272489245
C  C3  1  0.13660000  0.42130000  0.27830000  1.0 -0.0568728176
C  C4  1  0.09870000  0.53200000  0.30790000  1.0 -0.4091737325
C  C5  1  0.30890000  0.45163000  0.33095000  1.0 -0.0943872508
C  C6  1  0.25740000  0.44575000  0.30126000  1.0 -0.1199072602
C  C7  1  0.18890000  0.42552000  0.31143000  1.0 0.0563989498
C  C8  1  0.17190000  0.41116000  0.35129000  1.0 -0.1199072602
C  C9  1  0.22340000  0.41704000  0.38099000  1.0 -0.0943872508
C  C10  1  0.29190000  0.43727000  0.37081000  1.0 -0.0379494648
C  C11  1  0.65350000  0.55710000  0.40300000  1.0 0.631240735
C  C12  1  0.90860000  0.52670000  0.27690000  1.0 0.0272489245
C  C13  1  0.86340000  0.57870000  0.27830000  1.0 -0.0568728176
C  C14  1  0.90130000  0.46800000  0.30790000  1.0 -0.4091737325
C  C15  1  0.69110000  0.54837000  0.33095000  1.0 -0.0943872508
C  C16  1  0.74260000  0.55425000  0.30126000  1.0 -0.1199072602
C  C17  1  0.81110000  0.57448000  0.31143000  1.0 0.0563989498
C  C18  1  0.82810000  0.58884000  0.35129000  1.0 -0.1199072602
C  C19  1  0.77660000  0.58296000  0.38099000  1.0 -0.0943872508
C  C20  1  0.70810000  0.56273000  0.37081000  1.0 -0.0379494648
C  C21  1  0.55710000  0.34650000  0.40300000  1.0 0.631240735
C  C22  1  0.52670000  0.09140000  0.27690000  1.0 0.0272489245
C  C23  1  0.57870000  0.13660000  0.27830000  1.0 -0.0568728176
C  C24  1  0.46800000  0.09870000  0.30790000  1.0 -0.4091737325
C  C25  1  0.54837000  0.30890000  0.33095000  1.0 -0.0943872508
C  C26  1  0.55425000  0.25740000  0.30126000  1.0 -0.1199072602
C  C27  1  0.57448000  0.18890000  0.31143000  1.0 0.0563989498
C  C28  1  0.58884000  0.17190000  0.35129000  1.0 -0.1199072602
C  C29  1  0.58296000  0.22340000  0.38099000  1.0 -0.0943872508
C  C30  1  0.56273000  0.29190000  0.37081000  1.0 -0.0379494648
C  C31  1  0.44290000  0.65350000  0.40300000  1.0 0.631240735
C  C32  1  0.47330000  0.90860000  0.27690000  1.0 0.0272489245
C  C33  1  0.42130000  0.86340000  0.27830000  1.0 -0.0568728176
C  C34  1  0.53200000  0.90130000  0.30790000  1.0 -0.4091737325
C  C35  1  0.45163000  0.69110000  0.33095000  1.0 -0.0943872508
C  C36  1  0.44575000  0.74260000  0.30126000  1.0 -0.1199072602
C  C37  1  0.42552000  0.81110000  0.31143000  1.0 0.0563989498
C  C38  1  0.41116000  0.82810000  0.35129000  1.0 -0.1199072602
C  C39  1  0.41704000  0.77660000  0.38099000  1.0 -0.0943872508
C  C40  1  0.43727000  0.70810000  0.37081000  1.0 -0.0379494648
C  C41  1  0.15350000  0.94290000  0.09700000  1.0 0.631240735
C  C42  1  0.40860000  0.97330000  0.22310000  1.0 0.0272489245
C  C43  1  0.36340000  0.92130000  0.22170000  1.0 -0.0568728176
C  C44  1  0.40130000  0.03200000  0.19210000  1.0 -0.4091737325
C  C45  1  0.19110000  0.95163000  0.16905000  1.0 -0.0943872508
C  C46  1  0.24260000  0.94575000  0.19874000  1.0 -0.1199072602
C  C47  1  0.31110000  0.92552000  0.18857000  1.0 0.0563989498
C  C48  1  0.32810000  0.91116000  0.14871000  1.0 -0.1199072602
C  C49  1  0.27660000  0.91704000  0.11901000  1.0 -0.0943872508
C  C50  1  0.20810000  0.93727000  0.12919000  1.0 -0.0379494648
C  C51  1  0.84650000  0.05710000  0.09700000  1.0 0.631240735
C  C52  1  0.59140000  0.02670000  0.22310000  1.0 0.0272489245
C  C53  1  0.63660000  0.07870000  0.22170000  1.0 -0.0568728176
C  C54  1  0.59870000  0.96800000  0.19210000  1.0 -0.4091737325
C  C55  1  0.80890000  0.04837000  0.16905000  1.0 -0.0943872508
C  C56  1  0.75740000  0.05425000  0.19874000  1.0 -0.1199072602
C  C57  1  0.68890000  0.07448000  0.18857000  1.0 0.0563989498
C  C58  1  0.67190000  0.08884000  0.14871000  1.0 -0.1199072602
C  C59  1  0.72340000  0.08296000  0.11901000  1.0 -0.0943872508
C  C60  1  0.79190000  0.06273000  0.12919000  1.0 -0.0379494648
C  C61  1  0.94290000  0.84650000  0.09700000  1.0 0.631240735
C  C62  1  0.97330000  0.59140000  0.22310000  1.0 0.0272489245
C  C63  1  0.92130000  0.63660000  0.22170000  1.0 -0.0568728176
C  C64  1  0.03200000  0.59870000  0.19210000  1.0 -0.4091737325
C  C65  1  0.95163000  0.80890000  0.16905000  1.0 -0.0943872508
C  C66  1  0.94575000  0.75740000  0.19874000  1.0 -0.1199072602
C  C67  1  0.92552000  0.68890000  0.18857000  1.0 0.0563989498
C  C68  1  0.91116000  0.67190000  0.14871000  1.0 -0.1199072602
C  C69  1  0.91704000  0.72340000  0.11901000  1.0 -0.0943872508
C  C70  1  0.93727000  0.79190000  0.12919000  1.0 -0.0379494648
C  C71  1  0.05710000  0.15350000  0.09700000  1.0 0.631240735
C  C72  1  0.02670000  0.40860000  0.22310000  1.0 0.0272489245
C  C73  1  0.07870000  0.36340000  0.22170000  1.0 -0.0568728176
C  C74  1  0.96800000  0.40130000  0.19210000  1.0 -0.4091737325
C  C75  1  0.04837000  0.19110000  0.16905000  1.0 -0.0943872508
C  C76  1  0.05425000  0.24260000  0.19874000  1.0 -0.1199072602
C  C77  1  0.07448000  0.31110000  0.18857000  1.0 0.0563989498
C  C78  1  0.08884000  0.32810000  0.14871000  1.0 -0.1199072602
C  C79  1  0.08296000  0.27660000  0.11901000  1.0 -0.0943872508
C  C80  1  0.06273000  0.20810000  0.12919000  1.0 -0.0379494648
C  C81  1  0.65350000  0.55710000  0.59700000  1.0 0.631240735
C  C82  1  0.90860000  0.52670000  0.72310000  1.0 0.0272489245
C  C83  1  0.86340000  0.57870000  0.72170000  1.0 -0.0568728176
C  C84  1  0.90130000  0.46800000  0.69210000  1.0 -0.4091737325
C  C85  1  0.69110000  0.54837000  0.66905000  1.0 -0.0943872508
C  C86  1  0.74260000  0.55425000  0.69874000  1.0 -0.1199072602
C  C87  1  0.81110000  0.57448000  0.68857000  1.0 0.0563989498
C  C88  1  0.82810000  0.58884000  0.64871000  1.0 -0.1199072602
C  C89  1  0.77660000  0.58296000  0.61901000  1.0 -0.0943872508
C  C90  1  0.70810000  0.56273000  0.62919000  1.0 -0.0379494648
C  C91  1  0.34650000  0.44290000  0.59700000  1.0 0.631240735
C  C92  1  0.09140000  0.47330000  0.72310000  1.0 0.0272489245
C  C93  1  0.13660000  0.42130000  0.72170000  1.0 -0.0568728176
C  C94  1  0.09870000  0.53200000  0.69210000  1.0 -0.4091737325
C  C95  1  0.30890000  0.45163000  0.66905000  1.0 -0.0943872508
C  C96  1  0.25740000  0.44575000  0.69874000  1.0 -0.1199072602
C  C97  1  0.18890000  0.42552000  0.68857000  1.0 0.0563989498
C  C98  1  0.17190000  0.41116000  0.64871000  1.0 -0.1199072602
C  C99  1  0.22340000  0.41704000  0.61901000  1.0 -0.0943872508
C  C100  1  0.29190000  0.43727000  0.62919000  1.0 -0.0379494648
C  C101  1  0.44290000  0.65350000  0.59700000  1.0 0.631240735
C  C102  1  0.47330000  0.90860000  0.72310000  1.0 0.0272489245
C  C103  1  0.42130000  0.86340000  0.72170000  1.0 -0.0568728176
C  C104  1  0.53200000  0.90130000  0.69210000  1.0 -0.4091737325
C  C105  1  0.45163000  0.69110000  0.66905000  1.0 -0.0943872508
C  C106  1  0.44575000  0.74260000  0.69874000  1.0 -0.1199072602
C  C107  1  0.42552000  0.81110000  0.68857000  1.0 0.0563989498
C  C108  1  0.41116000  0.82810000  0.64871000  1.0 -0.1199072602
C  C109  1  0.41704000  0.77660000  0.61901000  1.0 -0.0943872508
C  C110  1  0.43727000  0.70810000  0.62919000  1.0 -0.0379494648
C  C111  1  0.55710000  0.34650000  0.59700000  1.0 0.631240735
C  C112  1  0.52670000  0.09140000  0.72310000  1.0 0.0272489245
C  C113  1  0.57870000  0.13660000  0.72170000  1.0 -0.0568728176
C  C114  1  0.46800000  0.09870000  0.69210000  1.0 -0.4091737325
C  C115  1  0.54837000  0.30890000  0.66905000  1.0 -0.0943872508
C  C116  1  0.55425000  0.25740000  0.69874000  1.0 -0.1199072602
C  C117  1  0.57448000  0.18890000  0.68857000  1.0 0.0563989498
C  C118  1  0.58884000  0.17190000  0.64871000  1.0 -0.1199072602
C  C119  1  0.58296000  0.22340000  0.61901000  1.0 -0.0943872508
C  C120  1  0.56273000  0.29190000  0.62919000  1.0 -0.0379494648
C  C121  1  0.84650000  0.05710000  0.90300000  1.0 0.631240735
C  C122  1  0.59140000  0.02670000  0.77690000  1.0 0.0272489245
C  C123  1  0.63660000  0.07870000  0.77830000  1.0 -0.0568728176
C  C124  1  0.59870000  0.96800000  0.80790000  1.0 -0.4091737325
C  C125  1  0.80890000  0.04837000  0.83095000  1.0 -0.0943872508
C  C126  1  0.75740000  0.05425000  0.80126000  1.0 -0.1199072602
C  C127  1  0.68890000  0.07448000  0.81143000  1.0 0.0563989498
C  C128  1  0.67190000  0.08884000  0.85129000  1.0 -0.1199072602
C  C129  1  0.72340000  0.08296000  0.88099000  1.0 -0.0943872508
C  C130  1  0.79190000  0.06273000  0.87081000  1.0 -0.0379494648
C  C131  1  0.15350000  0.94290000  0.90300000  1.0 0.631240735
C  C132  1  0.40860000  0.97330000  0.77690000  1.0 0.0272489245
C  C133  1  0.36340000  0.92130000  0.77830000  1.0 -0.0568728176
C  C134  1  0.40130000  0.03200000  0.80790000  1.0 -0.4091737325
C  C135  1  0.19110000  0.95163000  0.83095000  1.0 -0.0943872508
C  C136  1  0.24260000  0.94575000  0.80126000  1.0 -0.1199072602
C  C137  1  0.31110000  0.92552000  0.81143000  1.0 0.0563989498
C  C138  1  0.32810000  0.91116000  0.85129000  1.0 -0.1199072602
C  C139  1  0.27660000  0.91704000  0.88099000  1.0 -0.0943872508
C  C140  1  0.20810000  0.93727000  0.87081000  1.0 -0.0379494648
C  C141  1  0.05710000  0.15350000  0.90300000  1.0 0.631240735
C  C142  1  0.02670000  0.40860000  0.77690000  1.0 0.0272489245
C  C143  1  0.07870000  0.36340000  0.77830000  1.0 -0.0568728176
C  C144  1  0.96800000  0.40130000  0.80790000  1.0 -0.4091737325
C  C145  1  0.04837000  0.19110000  0.83095000  1.0 -0.0943872508
C  C146  1  0.05425000  0.24260000  0.80126000  1.0 -0.1199072602
C  C147  1  0.07448000  0.31110000  0.81143000  1.0 0.0563989498
C  C148  1  0.08884000  0.32810000  0.85129000  1.0 -0.1199072602
C  C149  1  0.08296000  0.27660000  0.88099000  1.0 -0.0943872508
C  C150  1  0.06273000  0.20810000  0.87081000  1.0 -0.0379494648
C  C151  1  0.94290000  0.84650000  0.90300000  1.0 0.631240735
C  C152  1  0.97330000  0.59140000  0.77690000  1.0 0.0272489245
C  C153  1  0.92130000  0.63660000  0.77830000  1.0 -0.0568728176
C  C154  1  0.03200000  0.59870000  0.80790000  1.0 -0.4091737325
C  C155  1  0.95163000  0.80890000  0.83095000  1.0 -0.0943872508
C  C156  1  0.94575000  0.75740000  0.80126000  1.0 -0.1199072602
C  C157  1  0.92552000  0.68890000  0.81143000  1.0 0.0563989498
C  C158  1  0.91116000  0.67190000  0.85129000  1.0 -0.1199072602
C  C159  1  0.91704000  0.72340000  0.88099000  1.0 -0.0943872508
C  C160  1  0.93727000  0.79190000  0.87081000  1.0 -0.0379494648
C  C161  1  0.02824000  0.47176000  0.25000000  1.0 0.010578967
C  C162  1  0.13370000  0.36630000  0.25000000  1.0 -0.0344219411
C  C163  1  0.19040000  0.30960000  0.25000000  1.0 -0.1680005061
C  C164  1  0.97176000  0.52824000  0.25000000  1.0 0.010578967
C  C165  1  0.86630000  0.63370000  0.25000000  1.0 -0.0344219411
C  C166  1  0.80960000  0.69040000  0.25000000  1.0 -0.1680005061
C  C167  1  0.52824000  0.02824000  0.25000000  1.0 0.010578967
C  C168  1  0.63370000  0.13370000  0.25000000  1.0 -0.0344219411
C  C169  1  0.69040000  0.19040000  0.25000000  1.0 -0.1680005061
C  C170  1  0.47176000  0.97176000  0.25000000  1.0 0.010578967
C  C171  1  0.36630000  0.86630000  0.25000000  1.0 -0.0344219411
C  C172  1  0.30960000  0.80960000  0.25000000  1.0 -0.1680005061
C  C173  1  0.97176000  0.52824000  0.75000000  1.0 0.010578967
C  C174  1  0.86630000  0.63370000  0.75000000  1.0 -0.0344219411
C  C175  1  0.80960000  0.69040000  0.75000000  1.0 -0.1680005061
C  C176  1  0.02824000  0.47176000  0.75000000  1.0 0.010578967
C  C177  1  0.13370000  0.36630000  0.75000000  1.0 -0.0379494648
C  C178  1  0.19040000  0.30960000  0.75000000  1.0 -0.1680005061
C  C179  1  0.47176000  0.97176000  0.75000000  1.0 0.010578967
C  C180  1  0.36630000  0.86630000  0.75000000  1.0 -0.0379494648
C  C181  1  0.30960000  0.80960000  0.75000000  1.0 -0.1680005061
C  C182  1  0.52824000  0.02824000  0.75000000  1.0 0.010578967
C  C183  1  0.63370000  0.13370000  0.75000000  1.0 -0.0344219411
C  C184  1  0.69040000  0.19040000  0.75000000  1.0 -0.1680005061
O  O1  1  0.40830000  0.46610000  0.39284000  1.0 -0.5904874409
O  O2  1  0.53740000  0.58580000  0.46407000  1.0 -1.1738434289
O  O3  1  0.32640000  0.43420000  0.43972000  1.0 -0.6336681897
O  O4  1  0.59170000  0.53390000  0.39284000  1.0 -0.5904874409
O  O5  1  0.46260000  0.41420000  0.46407000  1.0 -1.1738434289
O  O6  1  0.67360000  0.56580000  0.43972000  1.0 -0.6336681897
O  O7  1  0.53390000  0.40830000  0.39284000  1.0 -0.5904874409
O  O8  1  0.41420000  0.53740000  0.46407000  1.0 -1.1738434289
O  O9  1  0.56580000  0.32640000  0.43972000  1.0 -0.6336681897
O  O10  1  0.46610000  0.59170000  0.39284000  1.0 -0.5904874409
O  O11  1  0.58580000  0.46260000  0.46407000  1.0 -1.1738434289
O  O12  1  0.43420000  0.67360000  0.43972000  1.0 -0.6336681897
O  O13  1  0.09170000  0.96610000  0.10716000  1.0 -0.5904874409
O  O14  1  0.96260000  0.08580000  0.03593000  1.0 -1.1738434289
O  O15  1  0.17360000  0.93420000  0.06028000  1.0 -0.6336681897
O  O16  1  0.90830000  0.03390000  0.10716000  1.0 -0.5904874409
O  O17  1  0.03740000  0.91420000  0.03593000  1.0 -1.1770958358
O  O18  1  0.82640000  0.06580000  0.06028000  1.0 -0.6336681897
O  O19  1  0.96610000  0.90830000  0.10716000  1.0 -0.5904874409
O  O20  1  0.08580000  0.03740000  0.03593000  1.0 -1.1738434289
O  O21  1  0.93420000  0.82640000  0.06028000  1.0 -0.6336681897
O  O22  1  0.03390000  0.09170000  0.10716000  1.0 -0.5904874409
O  O23  1  0.91420000  0.96260000  0.03593000  1.0 -1.1770958358
O  O24  1  0.06580000  0.17360000  0.06028000  1.0 -0.6336681897
O  O25  1  0.59170000  0.53390000  0.60716000  1.0 -0.5904874409
O  O26  1  0.46260000  0.41420000  0.53593000  1.0 -1.1738434289
O  O27  1  0.67360000  0.56580000  0.56028000  1.0 -0.6336681897
O  O28  1  0.40830000  0.46610000  0.60716000  1.0 -0.5904874409
O  O29  1  0.53740000  0.58580000  0.53593000  1.0 -1.1738434289
O  O30  1  0.32640000  0.43420000  0.56028000  1.0 -0.6336681897
O  O31  1  0.46610000  0.59170000  0.60716000  1.0 -0.5904874409
O  O32  1  0.58580000  0.46260000  0.53593000  1.0 -1.1738434289
O  O33  1  0.43420000  0.67360000  0.56028000  1.0 -0.6336681897
O  O34  1  0.53390000  0.40830000  0.60716000  1.0 -0.5904874409
O  O35  1  0.41420000  0.53740000  0.53593000  1.0 -1.1738434289
O  O36  1  0.56580000  0.32640000  0.56028000  1.0 -0.6336681897
O  O37  1  0.90830000  0.03390000  0.89284000  1.0 -0.5904874409
O  O38  1  0.03740000  0.91420000  0.96407000  1.0 -1.1738434289
O  O39  1  0.82640000  0.06580000  0.93972000  1.0 -0.6336681897
O  O40  1  0.09170000  0.96610000  0.89284000  1.0 -0.5904874409
O  O41  1  0.96260000  0.08580000  0.96407000  1.0 -1.1738434289
O  O42  1  0.17360000  0.93420000  0.93972000  1.0 -0.6336681897
O  O43  1  0.03390000  0.09170000  0.89284000  1.0 -0.5904874409
O  O44  1  0.91420000  0.96260000  0.96407000  1.0 -1.1770958358
O  O45  1  0.06580000  0.17360000  0.93972000  1.0 -0.6336681897
O  O46  1  0.96610000  0.90830000  0.89284000  1.0 -0.5904874409
O  O47  1  0.08580000  0.03740000  0.96407000  1.0 -1.1770958358
O  O48  1  0.93420000  0.82640000  0.93972000  1.0 -0.6336681897
