# DDEC6 charges by PACMAN v1.1 (https://github.com/mtap-research/PACMAN-charge/)
data_GIGHEN_ASR_pacman
_symmetry_space_group_name_H-M   'P 1'
_cell_length_a   11.75400000
_cell_length_b   22.34100000
_cell_length_c   32.48600000
_cell_angle_alpha   90.00000000
_cell_angle_beta   90.00000000
_cell_angle_gamma   90.00000000
_symmetry_Int_Tables_number   1
_chemical_formula_structural   Sc3H48C84O13
_chemical_formula_sum   'Sc12 H192 C336 O52'
_cell_volume   8530.69735940
_cell_formula_units_Z   4
loop_
 _symmetry_equiv_pos_site_id
 _symmetry_equiv_pos_as_xyz
  1  'x, y, z'
loop_
 _atom_site_type_symbol
 _atom_site_label
 _atom_site_symmetry_multiplicity
 _atom_site_fract_x
 _atom_site_fract_y
 _atom_site_fract_z
 _atom_site_occupancy
 _atom_site_charge
Sc  Sc1  1  0.44570000  0.04020000  0.49900000  1.0 1.7536394523
Sc  Sc2  1  0.17860000  0.11310000  0.49900000  1.0 1.7839389072
Sc  Sc3  1  0.19510000  0.95880000  0.50120000  1.0 1.7715667115
Sc  Sc4  1  0.55430000  0.54020000  0.00100000  1.0 1.7536394523
Sc  Sc5  1  0.82140000  0.61310000  0.00100000  1.0 1.7839389072
Sc  Sc6  1  0.80490000  0.45880000  0.99880000  1.0 1.7715667115
Sc  Sc7  1  0.05430000  0.95980000  0.99900000  1.0 1.7536394523
Sc  Sc8  1  0.32140000  0.88690000  0.99900000  1.0 1.7839389072
Sc  Sc9  1  0.30490000  0.04120000  0.00120000  1.0 1.7715667115
Sc  Sc10  1  0.94570000  0.45980000  0.50100000  1.0 1.7536394523
Sc  Sc11  1  0.67860000  0.38690000  0.50100000  1.0 1.7839389072
Sc  Sc12  1  0.69510000  0.54120000  0.49880000  1.0 1.7715667115
H  H1  1  0.57006000  0.14866000  0.39401000  1.0 0.1200850952
H  H2  1  0.62297000  0.21244000  0.34094000  1.0 0.1200850952
H  H3  1  0.33852000  0.30887000  0.35882000  1.0 0.1200850952
H  H4  1  0.29515000  0.25059000  0.41592000  1.0 0.1200850952
H  H5  1  0.62117000  0.34793000  0.36517000  1.0 0.1108854939
H  H6  1  0.74772000  0.42751000  0.36627000  1.0 0.1200850952
H  H7  1  0.78769000  0.47962000  0.30610000  1.0 0.1108854939
H  H8  1  0.71545000  0.44503000  0.24382000  1.0 0.1108854939
H  H9  1  0.37503000  0.36391000  0.18365000  1.0 0.1108854939
H  H10  1  0.20940000  0.30813000  0.19100000  1.0 0.1108854939
H  H11  1  0.19440000  0.23959000  0.24452000  1.0 0.0897416728
H  H12  1  0.33011000  0.23867000  0.29635000  1.0 0.1108854939
H  H13  1  0.71466000  0.35102000  0.18095000  1.0 0.1108854939
H  H14  1  0.72956000  0.37311000  0.11101000  1.0 0.1298461435
H  H15  1  0.45403000  0.47878000  0.11915000  1.0 0.1298461435
H  H16  1  0.45024000  0.46398000  0.18994000  1.0 0.1108854939
H  H17  1  0.92067000  0.93637000  0.41284000  1.0 0.1200850952
H  H18  1  0.83655000  0.92696000  0.34843000  1.0 0.1200850952
H  H19  1  0.86955000  0.10420000  0.33086000  1.0 0.1108854939
H  H20  1  0.95297000  0.11330000  0.39540000  1.0 0.1108854939
H  H21  1  0.96283000  0.93792000  0.29821000  1.0 0.1108854939
H  H22  1  0.06464000  0.88657000  0.24818000  1.0 0.1016803747
H  H23  1  0.99203000  0.87888000  0.18184000  1.0 0.1016803747
H  H24  1  0.83856000  0.93848000  0.16276000  1.0 0.0897416728
H  H25  1  0.54713000  0.07838000  0.19641000  1.0 0.0783078406
H  H26  1  0.45329000  0.13731000  0.24470000  1.0 0.1200850952
H  H27  1  0.49995000  0.12751000  0.31401000  1.0 0.1108854939
H  H28  1  0.66785000  0.07984000  0.33238000  1.0 0.1108854939
H  H29  1  0.74669000  0.92947000  0.14365000  1.0 0.0897416728
H  H30  1  0.64625000  0.91865000  0.08214000  1.0 0.1386431569
H  H31  1  0.40981000  0.03378000  0.12356000  1.0 0.1298461435
H  H32  1  0.49128000  0.02928000  0.18875000  1.0 0.1016803747
H  H33  1  0.24806000  0.87329000  0.60361000  1.0 0.1200850952
H  H34  1  0.25339000  0.84209000  0.67194000  1.0 0.1298461435
H  H35  1  0.55071000  0.92851000  0.68653000  1.0 0.1298461435
H  H36  1  0.52143000  0.97715000  0.62419000  1.0 0.1200850952
H  H37  1  0.29911000  0.93528000  0.74144000  1.0 0.1108854939
H  H38  1  0.21119000  0.96231000  0.80259000  1.0 0.1108854939
H  H39  1  0.25686000  0.91285000  0.86329000  1.0 0.1200850952
H  H40  1  0.39106000  0.83629000  0.86213000  1.0 0.1108854939
H  H41  1  0.61746000  0.69588000  0.78482000  1.0 0.1016803747
H  H42  1  0.72982000  0.68523000  0.72606000  1.0 0.1016803747
H  H43  1  0.66190000  0.72253000  0.66381000  1.0 0.1200850952
H  H44  1  0.50377000  0.78486000  0.66328000  1.0 0.1108854939
H  H45  1  0.37164000  0.69740000  0.84240000  1.0 0.1200850952
H  H46  1  0.43171000  0.64036000  0.89847000  1.0 0.1298461435
H  H47  1  0.72691000  0.73084000  0.90053000  1.0 0.1298461435
H  H48  1  0.67256000  0.78198000  0.84135000  1.0 0.1200850952
H  H49  1  0.42994000  0.64866000  0.10599000  1.0 0.1200850952
H  H50  1  0.37703000  0.71244000  0.15906000  1.0 0.1200850952
H  H51  1  0.66148000  0.80887000  0.14118000  1.0 0.1200850952
H  H52  1  0.70485000  0.75059000  0.08408000  1.0 0.1200850952
H  H53  1  0.37883000  0.84793000  0.13483000  1.0 0.1108854939
H  H54  1  0.25228000  0.92751000  0.13373000  1.0 0.1200850952
H  H55  1  0.21231000  0.97962000  0.19390000  1.0 0.1108854939
H  H56  1  0.28455000  0.94503000  0.25618000  1.0 0.1108854939
H  H57  1  0.62497000  0.86391000  0.31635000  1.0 0.1108854939
H  H58  1  0.79060000  0.80813000  0.30900000  1.0 0.1108854939
H  H59  1  0.80560000  0.73959000  0.25548000  1.0 0.0897416728
H  H60  1  0.66989000  0.73867000  0.20365000  1.0 0.1108854939
H  H61  1  0.28534000  0.85102000  0.31905000  1.0 0.1108854939
H  H62  1  0.27044000  0.87311000  0.38899000  1.0 0.1298461435
H  H63  1  0.54597000  0.97878000  0.38085000  1.0 0.1298461435
H  H64  1  0.54976000  0.96398000  0.31006000  1.0 0.1108854939
H  H65  1  0.07933000  0.43637000  0.08716000  1.0 0.1200850952
H  H66  1  0.16345000  0.42696000  0.15157000  1.0 0.1200850952
H  H67  1  0.13045000  0.60420000  0.16914000  1.0 0.1108854939
H  H68  1  0.04703000  0.61330000  0.10460000  1.0 0.1108854939
H  H69  1  0.03717000  0.43792000  0.20179000  1.0 0.1108854939
H  H70  1  0.93536000  0.38657000  0.25182000  1.0 0.1016803747
H  H71  1  0.00797000  0.37888000  0.31816000  1.0 0.1016803747
H  H72  1  0.16144000  0.43848000  0.33724000  1.0 0.0897416728
H  H73  1  0.45287000  0.57838000  0.30359000  1.0 0.0783078406
H  H74  1  0.54671000  0.63731000  0.25530000  1.0 0.1200850952
H  H75  1  0.50005000  0.62751000  0.18599000  1.0 0.1108854939
H  H76  1  0.33215000  0.57984000  0.16762000  1.0 0.1108854939
H  H77  1  0.25331000  0.42947000  0.35635000  1.0 0.0897416728
H  H78  1  0.35375000  0.41865000  0.41786000  1.0 0.1386431569
H  H79  1  0.59019000  0.53378000  0.37644000  1.0 0.1298461435
H  H80  1  0.50872000  0.52928000  0.31125000  1.0 0.1016803747
H  H81  1  0.75194000  0.37329000  0.89639000  1.0 0.1200850952
H  H82  1  0.74661000  0.34209000  0.82806000  1.0 0.1298461435
H  H83  1  0.44929000  0.42851000  0.81347000  1.0 0.1298461435
H  H84  1  0.47857000  0.47715000  0.87581000  1.0 0.1200850952
H  H85  1  0.70089000  0.43528000  0.75856000  1.0 0.1108854939
H  H86  1  0.78881000  0.46231000  0.69741000  1.0 0.1108854939
H  H87  1  0.74314000  0.41285000  0.63671000  1.0 0.1200850952
H  H88  1  0.60894000  0.33629000  0.63787000  1.0 0.1108854939
H  H89  1  0.38254000  0.19588000  0.71518000  1.0 0.1016803747
H  H90  1  0.27018000  0.18523000  0.77394000  1.0 0.1016803747
H  H91  1  0.33810000  0.22253000  0.83619000  1.0 0.1200850952
H  H92  1  0.49623000  0.28486000  0.83672000  1.0 0.1108854939
H  H93  1  0.62836000  0.19740000  0.65760000  1.0 0.1200850952
H  H94  1  0.56829000  0.14036000  0.60153000  1.0 0.1298461435
H  H95  1  0.27309000  0.23084000  0.59947000  1.0 0.1298461435
H  H96  1  0.32744000  0.28198000  0.65865000  1.0 0.1200850952
H  H97  1  0.92994000  0.85134000  0.89401000  1.0 0.1200850952
H  H98  1  0.87703000  0.78756000  0.84094000  1.0 0.1200850952
H  H99  1  0.16148000  0.69113000  0.85882000  1.0 0.1200850952
H  H100  1  0.20485000  0.74941000  0.91592000  1.0 0.1200850952
H  H101  1  0.87883000  0.65207000  0.86517000  1.0 0.1108854939
H  H102  1  0.75228000  0.57249000  0.86627000  1.0 0.1200850952
H  H103  1  0.71231000  0.52038000  0.80610000  1.0 0.1108854939
H  H104  1  0.78455000  0.55497000  0.74382000  1.0 0.1108854939
H  H105  1  0.12497000  0.63609000  0.68365000  1.0 0.1108854939
H  H106  1  0.29060000  0.69187000  0.69100000  1.0 0.1108854939
H  H107  1  0.30560000  0.76041000  0.74452000  1.0 0.0897416728
H  H108  1  0.16989000  0.76133000  0.79635000  1.0 0.1108854939
H  H109  1  0.78534000  0.64898000  0.68095000  1.0 0.1108854939
H  H110  1  0.77044000  0.62689000  0.61101000  1.0 0.1298461435
H  H111  1  0.04597000  0.52122000  0.61915000  1.0 0.1298461435
H  H112  1  0.04976000  0.53602000  0.68994000  1.0 0.1108854939
H  H113  1  0.57933000  0.06363000  0.91284000  1.0 0.1200850952
H  H114  1  0.66345000  0.07304000  0.84843000  1.0 0.1200850952
H  H115  1  0.63045000  0.89580000  0.83086000  1.0 0.1108854939
H  H116  1  0.54703000  0.88670000  0.89540000  1.0 0.1108854939
H  H117  1  0.53717000  0.06208000  0.79821000  1.0 0.1108854939
H  H118  1  0.43536000  0.11343000  0.74818000  1.0 0.1016803747
H  H119  1  0.50797000  0.12112000  0.68184000  1.0 0.1016803747
H  H120  1  0.66144000  0.06152000  0.66276000  1.0 0.0897416728
H  H121  1  0.95287000  0.92162000  0.69641000  1.0 0.0783078406
H  H122  1  0.04671000  0.86269000  0.74470000  1.0 0.1200850952
H  H123  1  0.00005000  0.87249000  0.81401000  1.0 0.1108854939
H  H124  1  0.83215000  0.92016000  0.83238000  1.0 0.1108854939
H  H125  1  0.75331000  0.07053000  0.64365000  1.0 0.0897416728
H  H126  1  0.85375000  0.08135000  0.58214000  1.0 0.1386431569
H  H127  1  0.09019000  0.96622000  0.62356000  1.0 0.1298461435
H  H128  1  0.00872000  0.97072000  0.68875000  1.0 0.1016803747
H  H129  1  0.25194000  0.12671000  0.10361000  1.0 0.1200850952
H  H130  1  0.24661000  0.15791000  0.17194000  1.0 0.1298461435
H  H131  1  0.94929000  0.07149000  0.18653000  1.0 0.1298461435
H  H132  1  0.97857000  0.02285000  0.12419000  1.0 0.1200850952
H  H133  1  0.20089000  0.06472000  0.24144000  1.0 0.1108854939
H  H134  1  0.28881000  0.03769000  0.30259000  1.0 0.1108854939
H  H135  1  0.24314000  0.08715000  0.36329000  1.0 0.1200850952
H  H136  1  0.10894000  0.16371000  0.36213000  1.0 0.1108854939
H  H137  1  0.88254000  0.30412000  0.28482000  1.0 0.1016803747
H  H138  1  0.77018000  0.31477000  0.22606000  1.0 0.1016803747
H  H139  1  0.83810000  0.27747000  0.16381000  1.0 0.1200850952
H  H140  1  0.99623000  0.21514000  0.16328000  1.0 0.1108854939
H  H141  1  0.12836000  0.30260000  0.34240000  1.0 0.1200850952
H  H142  1  0.06829000  0.35964000  0.39847000  1.0 0.1298461435
H  H143  1  0.77309000  0.26916000  0.40053000  1.0 0.1298461435
H  H144  1  0.82744000  0.21802000  0.34135000  1.0 0.1200850952
H  H145  1  0.07006000  0.35134000  0.60599000  1.0 0.1200850952
H  H146  1  0.12297000  0.28756000  0.65906000  1.0 0.1200850952
H  H147  1  0.83852000  0.19113000  0.64118000  1.0 0.1200850952
H  H148  1  0.79515000  0.24941000  0.58408000  1.0 0.1200850952
H  H149  1  0.12117000  0.15207000  0.63483000  1.0 0.1108854939
H  H150  1  0.24772000  0.07249000  0.63373000  1.0 0.1200850952
H  H151  1  0.28769000  0.02038000  0.69390000  1.0 0.1108854939
H  H152  1  0.21545000  0.05497000  0.75618000  1.0 0.1108854939
H  H153  1  0.87503000  0.13609000  0.81635000  1.0 0.1108854939
H  H154  1  0.70940000  0.19187000  0.80900000  1.0 0.1108854939
H  H155  1  0.69440000  0.26041000  0.75548000  1.0 0.0897416728
H  H156  1  0.83011000  0.26133000  0.70365000  1.0 0.1108854939
H  H157  1  0.21466000  0.14898000  0.81905000  1.0 0.1108854939
H  H158  1  0.22956000  0.12689000  0.88899000  1.0 0.1298461435
H  H159  1  0.95403000  0.02122000  0.88085000  1.0 0.1298461435
H  H160  1  0.95024000  0.03602000  0.81006000  1.0 0.1108854939
H  H161  1  0.42067000  0.56363000  0.58716000  1.0 0.1200850952
H  H162  1  0.33655000  0.57304000  0.65157000  1.0 0.1200850952
H  H163  1  0.36955000  0.39580000  0.66914000  1.0 0.1108854939
H  H164  1  0.45297000  0.38670000  0.60460000  1.0 0.1108854939
H  H165  1  0.46283000  0.56208000  0.70179000  1.0 0.1108854939
H  H166  1  0.56464000  0.61343000  0.75182000  1.0 0.1016803747
H  H167  1  0.49203000  0.62112000  0.81816000  1.0 0.1016803747
H  H168  1  0.33856000  0.56152000  0.83724000  1.0 0.0897416728
H  H169  1  0.04713000  0.42162000  0.80359000  1.0 0.0783078406
H  H170  1  0.95329000  0.36269000  0.75530000  1.0 0.1200850952
H  H171  1  0.99995000  0.37249000  0.68599000  1.0 0.1108854939
H  H172  1  0.16785000  0.42016000  0.66762000  1.0 0.1108854939
H  H173  1  0.24669000  0.57053000  0.85635000  1.0 0.0897416728
H  H174  1  0.14625000  0.58135000  0.91786000  1.0 0.1386431569
H  H175  1  0.90981000  0.46622000  0.87644000  1.0 0.1298461435
H  H176  1  0.99128000  0.47072000  0.81125000  1.0 0.1016803747
H  H177  1  0.74806000  0.62671000  0.39639000  1.0 0.1200850952
H  H178  1  0.75339000  0.65791000  0.32806000  1.0 0.1298461435
H  H179  1  0.05071000  0.57149000  0.31347000  1.0 0.1298461435
H  H180  1  0.02143000  0.52285000  0.37581000  1.0 0.1200850952
H  H181  1  0.79911000  0.56472000  0.25856000  1.0 0.1108854939
H  H182  1  0.71119000  0.53769000  0.19741000  1.0 0.1108854939
H  H183  1  0.75686000  0.58715000  0.13671000  1.0 0.1200850952
H  H184  1  0.89106000  0.66371000  0.13787000  1.0 0.1108854939
H  H185  1  0.11746000  0.80412000  0.21518000  1.0 0.1016803747
H  H186  1  0.22982000  0.81477000  0.27394000  1.0 0.1016803747
H  H187  1  0.16190000  0.77747000  0.33619000  1.0 0.1200850952
H  H188  1  0.00377000  0.71514000  0.33672000  1.0 0.1108854939
H  H189  1  0.87164000  0.80260000  0.15760000  1.0 0.1200850952
H  H190  1  0.93171000  0.85964000  0.10153000  1.0 0.1298461435
H  H191  1  0.22691000  0.76916000  0.09947000  1.0 0.1298461435
H  H192  1  0.17256000  0.71802000  0.15865000  1.0 0.1200850952
C  C1  1  0.39130000  0.15380000  0.44080000  1.0 0.5622207747
C  C2  1  0.42410000  0.19150000  0.40880000  1.0 -0.0803049613
C  C3  1  0.52410000  0.18100000  0.38710000  1.0 -0.0803049613
C  C4  1  0.55530000  0.21890000  0.35510000  1.0 -0.1710696301
C  C5  1  0.48510000  0.26640000  0.34430000  1.0 0.0897416728
C  C6  1  0.38600000  0.27740000  0.36640000  1.0 -0.1710696301
C  C7  1  0.35800000  0.24140000  0.39970000  1.0 -0.0803049613
C  C8  1  0.50940000  0.30460000  0.30350000  1.0 -0.030817177
C  C9  1  0.58790000  0.35080000  0.30420000  1.0 0.0311284254
C  C10  1  0.63820000  0.36820000  0.34090000  1.0 -0.1339507772
C  C11  1  0.71400000  0.41600000  0.34160000  1.0 -0.1007711772
C  C12  1  0.73900000  0.44660000  0.30550000  1.0 -0.10998351
C  C13  1  0.69220000  0.42760000  0.26840000  1.0 -0.1599597041
C  C14  1  0.61070000  0.38280000  0.26810000  1.0 0.0311284254
C  C15  1  0.54250000  0.37450000  0.23390000  1.0 -0.030817177
C  C16  1  0.45200000  0.33420000  0.23540000  1.0 0.0390449022
C  C17  1  0.36640000  0.33840000  0.20600000  1.0 -0.1504397571
C  C18  1  0.26790000  0.30440000  0.21010000  1.0 -0.1007711772
C  C19  1  0.25720000  0.26480000  0.24290000  1.0 -0.1007711772
C  C20  1  0.34030000  0.26280000  0.27330000  1.0 -0.1599597041
C  C21  1  0.43890000  0.29690000  0.26930000  1.0 0.0390449022
C  C22  1  0.57600000  0.40200000  0.19170000  1.0 0.0783078406
C  C23  1  0.66210000  0.37640000  0.16850000  1.0 -0.1599597041
C  C24  1  0.66990000  0.38880000  0.12640000  1.0 -0.1007711772
C  C25  1  0.58840000  0.42450000  0.10780000  1.0 -0.01872097
C  C26  1  0.50610000  0.45310000  0.13150000  1.0 -0.1007711772
C  C27  1  0.50210000  0.44320000  0.17370000  1.0 -0.1599597041
C  C28  1  0.59990000  0.44210000  0.05660000  1.0 0.6086914715
C  C29  1  0.03390000  0.02830000  0.44070000  1.0 0.5712704287
C  C30  1  0.95700000  0.02460000  0.40820000  1.0 -0.0803049613
C  C31  1  0.91400000  0.96960000  0.39580000  1.0 -0.0803049613
C  C32  1  0.86000000  0.96430000  0.35780000  1.0 -0.1778733953
C  C33  1  0.84130000  0.01500000  0.33400000  1.0 0.0897416728
C  C34  1  0.88000000  0.07060000  0.34730000  1.0 -0.1710696301
C  C35  1  0.93300000  0.07580000  0.38530000  1.0 -0.0803049613
C  C36  1  0.79130000  0.00920000  0.28820000  1.0 -0.030817177
C  C37  1  0.84410000  0.97220000  0.25990000  1.0 0.0390449022
C  C38  1  0.93880000  0.93870000  0.27090000  1.0 -0.1504397571
C  C39  1  0.99760000  0.90620000  0.24120000  1.0 -0.0906411079
C  C40  1  0.95630000  0.90320000  0.20120000  1.0 -0.10998351
C  C41  1  0.86130000  0.93670000  0.19020000  1.0 -0.1710696301
C  C42  1  0.80050000  0.96760000  0.22000000  1.0 0.0311284254
C  C43  1  0.70620000  0.00110000  0.20900000  1.0 -0.030817177
C  C44  1  0.66640000  0.04580000  0.23530000  1.0 0.0311284254
C  C45  1  0.57160000  0.07890000  0.22360000  1.0 -0.1871246359
C  C46  1  0.51300000  0.11270000  0.25270000  1.0 -0.10998351
C  C47  1  0.54490000  0.10950000  0.29390000  1.0 -0.1007711772
C  C48  1  0.64360000  0.07950000  0.30510000  1.0 -0.1504397571
C  C49  1  0.70640000  0.04870000  0.27550000  1.0 0.0390449022
C  C50  1  0.63130000  0.98250000  0.17170000  1.0 0.0745141582
C  C51  1  0.67740000  0.94890000  0.14000000  1.0 -0.1504397571
C  C52  1  0.61940000  0.94420000  0.10260000  1.0 -0.10998351
C  C53  1  0.52180000  0.97770000  0.09610000  1.0 -0.01872097
C  C54  1  0.47510000  0.01120000  0.12800000  1.0 -0.10998351
C  C55  1  0.52660000  0.01080000  0.16650000  1.0 -0.1710696301
C  C56  1  0.44640000  0.96970000  0.05120000  1.0 0.6086914715
C  C57  1  0.37740000  0.95130000  0.56720000  1.0 0.5622207747
C  C58  1  0.38260000  0.92950000  0.60740000  1.0 -0.0803049613
C  C59  1  0.30460000  0.88720000  0.62120000  1.0 -0.0803049613
C  C60  1  0.31130000  0.86590000  0.66130000  1.0 -0.1778733953
C  C61  1  0.40490000  0.88040000  0.68550000  1.0 0.0897416728
C  C62  1  0.48650000  0.92010000  0.67090000  1.0 -0.1599597041
C  C63  1  0.47180000  0.94720000  0.63270000  1.0 -0.0803049613
C  C64  1  0.43010000  0.84460000  0.72730000  1.0 -0.0360470301
C  C65  1  0.38580000  0.86460000  0.76420000  1.0 0.0311284254
C  C66  1  0.31400000  0.91380000  0.76540000  1.0 -0.1504397571
C  C67  1  0.26300000  0.93090000  0.80220000  1.0 -0.10998351
C  C68  1  0.29000000  0.90110000  0.83860000  1.0 -0.0906411079
C  C69  1  0.36650000  0.85360000  0.83770000  1.0 -0.1504397571
C  C70  1  0.40610000  0.83200000  0.80030000  1.0 0.0311284254
C  C71  1  0.47870000  0.78330000  0.79920000  1.0 -0.0360470301
C  C72  1  0.51490000  0.76030000  0.76150000  1.0 0.0390449022
C  C73  1  0.60130000  0.71770000  0.76120000  1.0 -0.1504397571
C  C74  1  0.66340000  0.70790000  0.72530000  1.0 -0.1007711772
C  C75  1  0.62500000  0.73220000  0.68830000  1.0 -0.1007711772
C  C76  1  0.53290000  0.77090000  0.68810000  1.0 -0.1504397571
C  C77  1  0.48380000  0.78890000  0.72520000  1.0 0.0311284254
C  C78  1  0.51150000  0.74960000  0.83930000  1.0 0.0783078406
C  C79  1  0.44180000  0.70490000  0.85460000  1.0 -0.1599597041
C  C80  1  0.47740000  0.67100000  0.88840000  1.0 -0.1007711772
C  C81  1  0.58120000  0.68330000  0.90680000  1.0 -0.01872097
C  C82  1  0.65530000  0.72460000  0.88920000  1.0 -0.0906411079
C  C83  1  0.62170000  0.75640000  0.85440000  1.0 -0.1599597041
C  C84  1  0.62790000  0.64040000  0.94720000  1.0 0.6086914715
C  C85  1  0.60870000  0.65380000  0.05920000  1.0 0.5622207747
C  C86  1  0.57590000  0.69150000  0.09120000  1.0 -0.0803049613
C  C87  1  0.47590000  0.68100000  0.11290000  1.0 -0.0803049613
C  C88  1  0.44470000  0.71890000  0.14490000  1.0 -0.1710696301
C  C89  1  0.51490000  0.76640000  0.15570000  1.0 0.0897416728
C  C90  1  0.61400000  0.77740000  0.13360000  1.0 -0.1710696301
C  C91  1  0.64200000  0.74140000  0.10030000  1.0 -0.0803049613
C  C92  1  0.49060000  0.80460000  0.19650000  1.0 -0.030817177
C  C93  1  0.41210000  0.85080000  0.19580000  1.0 0.0311284254
C  C94  1  0.36180000  0.86820000  0.15910000  1.0 -0.1339507772
C  C95  1  0.28600000  0.91600000  0.15840000  1.0 -0.1007711772
C  C96  1  0.26100000  0.94660000  0.19450000  1.0 -0.10998351
C  C97  1  0.30780000  0.92760000  0.23160000  1.0 -0.1599597041
C  C98  1  0.38930000  0.88280000  0.23190000  1.0 0.0311284254
C  C99  1  0.45750000  0.87450000  0.26610000  1.0 -0.030817177
C  C100  1  0.54800000  0.83420000  0.26460000  1.0 0.0390449022
C  C101  1  0.63360000  0.83840000  0.29400000  1.0 -0.1504397571
C  C102  1  0.73210000  0.80440000  0.28990000  1.0 -0.1007711772
C  C103  1  0.74280000  0.76480000  0.25710000  1.0 -0.1007711772
C  C104  1  0.65970000  0.76280000  0.22670000  1.0 -0.1599597041
C  C105  1  0.56110000  0.79690000  0.23070000  1.0 0.0390449022
C  C106  1  0.42400000  0.90200000  0.30830000  1.0 0.0783078406
C  C107  1  0.33790000  0.87640000  0.33150000  1.0 -0.1599597041
C  C108  1  0.33010000  0.88880000  0.37360000  1.0 -0.1007711772
C  C109  1  0.41160000  0.92450000  0.39220000  1.0 -0.01872097
C  C110  1  0.49390000  0.95310000  0.36850000  1.0 -0.1007711772
C  C111  1  0.49790000  0.94320000  0.32630000  1.0 -0.1599597041
C  C112  1  0.40010000  0.94210000  0.44340000  1.0 0.6086914715
C  C113  1  0.96610000  0.52830000  0.05930000  1.0 0.5712704287
C  C114  1  0.04300000  0.52460000  0.09180000  1.0 -0.0803049613
C  C115  1  0.08600000  0.46960000  0.10420000  1.0 -0.0803049613
C  C116  1  0.14000000  0.46430000  0.14220000  1.0 -0.1778733953
C  C117  1  0.15870000  0.51500000  0.16600000  1.0 0.0897416728
C  C118  1  0.12000000  0.57060000  0.15270000  1.0 -0.1710696301
C  C119  1  0.06700000  0.57580000  0.11470000  1.0 -0.0803049613
C  C120  1  0.20870000  0.50920000  0.21180000  1.0 -0.030817177
C  C121  1  0.15590000  0.47220000  0.24010000  1.0 0.0390449022
C  C122  1  0.06120000  0.43870000  0.22910000  1.0 -0.1504397571
C  C123  1  0.00240000  0.40620000  0.25880000  1.0 -0.0906411079
C  C124  1  0.04370000  0.40320000  0.29880000  1.0 -0.10998351
C  C125  1  0.13870000  0.43670000  0.30980000  1.0 -0.1710696301
C  C126  1  0.19950000  0.46760000  0.28000000  1.0 0.0311284254
C  C127  1  0.29380000  0.50110000  0.29100000  1.0 -0.030817177
C  C128  1  0.33360000  0.54580000  0.26470000  1.0 0.0311284254
C  C129  1  0.42840000  0.57890000  0.27640000  1.0 -0.1871246359
C  C130  1  0.48700000  0.61270000  0.24730000  1.0 -0.10998351
C  C131  1  0.45510000  0.60950000  0.20610000  1.0 -0.1007711772
C  C132  1  0.35640000  0.57950000  0.19490000  1.0 -0.1504397571
C  C133  1  0.29360000  0.54870000  0.22450000  1.0 0.0390449022
C  C134  1  0.36870000  0.48250000  0.32830000  1.0 0.0783078406
C  C135  1  0.32260000  0.44890000  0.36000000  1.0 -0.1504397571
C  C136  1  0.38060000  0.44420000  0.39740000  1.0 -0.10998351
C  C137  1  0.47820000  0.47770000  0.40390000  1.0 -0.0140892437
C  C138  1  0.52490000  0.51120000  0.37200000  1.0 -0.10998351
C  C139  1  0.47340000  0.51080000  0.33350000  1.0 -0.1710696301
C  C140  1  0.55360000  0.46970000  0.44880000  1.0 0.6086914715
C  C141  1  0.62260000  0.45130000  0.93280000  1.0 0.5622207747
C  C142  1  0.61740000  0.42950000  0.89260000  1.0 -0.0803049613
C  C143  1  0.69540000  0.38720000  0.87880000  1.0 -0.0803049613
C  C144  1  0.68870000  0.36590000  0.83870000  1.0 -0.1778733953
C  C145  1  0.59510000  0.38040000  0.81450000  1.0 0.0897416728
C  C146  1  0.51350000  0.42010000  0.82910000  1.0 -0.1599597041
C  C147  1  0.52820000  0.44720000  0.86730000  1.0 -0.0803049613
C  C148  1  0.56990000  0.34460000  0.77270000  1.0 -0.0360470301
C  C149  1  0.61420000  0.36460000  0.73580000  1.0 0.0311284254
C  C150  1  0.68600000  0.41380000  0.73460000  1.0 -0.1504397571
C  C151  1  0.73700000  0.43090000  0.69780000  1.0 -0.10998351
C  C152  1  0.71000000  0.40110000  0.66140000  1.0 -0.0906411079
C  C153  1  0.63350000  0.35360000  0.66230000  1.0 -0.1504397571
C  C154  1  0.59390000  0.33200000  0.69970000  1.0 0.0311284254
C  C155  1  0.52130000  0.28330000  0.70080000  1.0 -0.0360470301
C  C156  1  0.48510000  0.26030000  0.73850000  1.0 0.0390449022
C  C157  1  0.39870000  0.21770000  0.73880000  1.0 -0.1504397571
C  C158  1  0.33660000  0.20790000  0.77470000  1.0 -0.1007711772
C  C159  1  0.37500000  0.23220000  0.81170000  1.0 -0.1007711772
C  C160  1  0.46710000  0.27090000  0.81190000  1.0 -0.1504397571
C  C161  1  0.51620000  0.28890000  0.77480000  1.0 0.0311284254
C  C162  1  0.48850000  0.24960000  0.66070000  1.0 0.0783078406
C  C163  1  0.55820000  0.20490000  0.64540000  1.0 -0.1599597041
C  C164  1  0.52260000  0.17100000  0.61160000  1.0 -0.1007711772
C  C165  1  0.41880000  0.18330000  0.59320000  1.0 -0.01872097
C  C166  1  0.34470000  0.22460000  0.61080000  1.0 -0.0906411079
C  C167  1  0.37830000  0.25640000  0.64560000  1.0 -0.1599597041
C  C168  1  0.37210000  0.14040000  0.55280000  1.0 0.6086914715
C  C169  1  0.10870000  0.84620000  0.94080000  1.0 0.5622207747
C  C170  1  0.07590000  0.80850000  0.90880000  1.0 -0.0803049613
C  C171  1  0.97590000  0.81900000  0.88710000  1.0 -0.0803049613
C  C172  1  0.94470000  0.78110000  0.85510000  1.0 -0.1710696301
C  C173  1  0.01490000  0.73360000  0.84430000  1.0 0.0897416728
C  C174  1  0.11400000  0.72260000  0.86640000  1.0 -0.1710696301
C  C175  1  0.14200000  0.75860000  0.89970000  1.0 -0.0803049613
C  C176  1  0.99060000  0.69540000  0.80350000  1.0 -0.030817177
C  C177  1  0.91210000  0.64920000  0.80420000  1.0 0.0311284254
C  C178  1  0.86180000  0.63180000  0.84090000  1.0 -0.1339507772
C  C179  1  0.78600000  0.58400000  0.84160000  1.0 -0.1007711772
C  C180  1  0.76100000  0.55340000  0.80550000  1.0 -0.10998351
C  C181  1  0.80780000  0.57240000  0.76840000  1.0 -0.1599597041
C  C182  1  0.88930000  0.61720000  0.76810000  1.0 0.0311284254
C  C183  1  0.95750000  0.62550000  0.73390000  1.0 -0.030817177
C  C184  1  0.04800000  0.66580000  0.73540000  1.0 0.0390449022
C  C185  1  0.13360000  0.66160000  0.70600000  1.0 -0.1504397571
C  C186  1  0.23210000  0.69560000  0.71010000  1.0 -0.1007711772
C  C187  1  0.24280000  0.73520000  0.74290000  1.0 -0.1007711772
C  C188  1  0.15970000  0.73720000  0.77330000  1.0 -0.1599597041
C  C189  1  0.06110000  0.70310000  0.76930000  1.0 0.0390449022
C  C190  1  0.92400000  0.59800000  0.69170000  1.0 0.0783078406
C  C191  1  0.83790000  0.62360000  0.66850000  1.0 -0.1599597041
C  C192  1  0.83010000  0.61120000  0.62640000  1.0 -0.1007711772
C  C193  1  0.91160000  0.57550000  0.60780000  1.0 -0.01872097
C  C194  1  0.99390000  0.54690000  0.63150000  1.0 -0.1007711772
C  C195  1  0.99790000  0.55680000  0.67370000  1.0 -0.1599597041
C  C196  1  0.90010000  0.55790000  0.55660000  1.0 0.6086914715
C  C197  1  0.46610000  0.97170000  0.94070000  1.0 0.5712704287
C  C198  1  0.54300000  0.97540000  0.90820000  1.0 -0.0803049613
C  C199  1  0.58600000  0.03040000  0.89580000  1.0 -0.0803049613
C  C200  1  0.64000000  0.03570000  0.85780000  1.0 -0.1778733953
C  C201  1  0.65870000  0.98500000  0.83400000  1.0 0.0897416728
C  C202  1  0.62000000  0.92940000  0.84730000  1.0 -0.1710696301
C  C203  1  0.56700000  0.92420000  0.88530000  1.0 -0.0803049613
C  C204  1  0.70870000  0.99080000  0.78820000  1.0 -0.030817177
C  C205  1  0.65590000  0.02780000  0.75990000  1.0 0.0390449022
C  C206  1  0.56120000  0.06130000  0.77090000  1.0 -0.1504397571
C  C207  1  0.50240000  0.09380000  0.74120000  1.0 -0.0906411079
C  C208  1  0.54370000  0.09680000  0.70120000  1.0 -0.10998351
C  C209  1  0.63870000  0.06330000  0.69020000  1.0 -0.1710696301
C  C210  1  0.69950000  0.03240000  0.72000000  1.0 0.0311284254
C  C211  1  0.79380000  0.99890000  0.70900000  1.0 -0.030817177
C  C212  1  0.83360000  0.95420000  0.73530000  1.0 0.0311284254
C  C213  1  0.92840000  0.92110000  0.72360000  1.0 -0.1871246359
C  C214  1  0.98700000  0.88730000  0.75270000  1.0 -0.10998351
C  C215  1  0.95510000  0.89050000  0.79390000  1.0 -0.1007711772
C  C216  1  0.85640000  0.92050000  0.80510000  1.0 -0.1504397571
C  C217  1  0.79360000  0.95130000  0.77550000  1.0 0.0390449022
C  C218  1  0.86870000  0.01750000  0.67170000  1.0 0.0783078406
C  C219  1  0.82260000  0.05110000  0.64000000  1.0 -0.1504397571
C  C220  1  0.88060000  0.05580000  0.60260000  1.0 -0.10998351
C  C221  1  0.97820000  0.02230000  0.59610000  1.0 -0.0140892437
C  C222  1  0.02490000  0.98880000  0.62800000  1.0 -0.10998351
C  C223  1  0.97340000  0.98920000  0.66650000  1.0 -0.1710696301
C  C224  1  0.05360000  0.03030000  0.55120000  1.0 0.6086914715
C  C225  1  0.12260000  0.04870000  0.06720000  1.0 0.5622207747
C  C226  1  0.11740000  0.07050000  0.10740000  1.0 -0.0803049613
C  C227  1  0.19540000  0.11280000  0.12120000  1.0 -0.0803049613
C  C228  1  0.18870000  0.13410000  0.16130000  1.0 -0.1778733953
C  C229  1  0.09510000  0.11960000  0.18550000  1.0 0.0897416728
C  C230  1  0.01350000  0.07990000  0.17090000  1.0 -0.1599597041
C  C231  1  0.02820000  0.05280000  0.13270000  1.0 -0.0803049613
C  C232  1  0.06990000  0.15540000  0.22730000  1.0 -0.0360470301
C  C233  1  0.11420000  0.13540000  0.26420000  1.0 0.0311284254
C  C234  1  0.18600000  0.08620000  0.26540000  1.0 -0.1504397571
C  C235  1  0.23700000  0.06910000  0.30220000  1.0 -0.10998351
C  C236  1  0.21000000  0.09890000  0.33860000  1.0 -0.0906411079
C  C237  1  0.13350000  0.14640000  0.33770000  1.0 -0.1504397571
C  C238  1  0.09390000  0.16800000  0.30030000  1.0 0.0311284254
C  C239  1  0.02130000  0.21670000  0.29920000  1.0 -0.0360470301
C  C240  1  0.98510000  0.23970000  0.26150000  1.0 0.0390449022
C  C241  1  0.89870000  0.28230000  0.26120000  1.0 -0.1504397571
C  C242  1  0.83660000  0.29210000  0.22530000  1.0 -0.1007711772
C  C243  1  0.87500000  0.26780000  0.18830000  1.0 -0.1007711772
C  C244  1  0.96710000  0.22910000  0.18810000  1.0 -0.144941978
C  C245  1  0.01620000  0.21110000  0.22520000  1.0 0.0311284254
C  C246  1  0.98850000  0.25040000  0.33930000  1.0 0.0783078406
C  C247  1  0.05820000  0.29510000  0.35460000  1.0 -0.1599597041
C  C248  1  0.02260000  0.32900000  0.38840000  1.0 -0.10998351
C  C249  1  0.91880000  0.31670000  0.40680000  1.0 -0.01872097
C  C250  1  0.84470000  0.27540000  0.38920000  1.0 -0.0906411079
C  C251  1  0.87830000  0.24360000  0.35440000  1.0 -0.1599597041
C  C252  1  0.87210000  0.35960000  0.44720000  1.0 0.6086914715
C  C253  1  0.89130000  0.34620000  0.55920000  1.0 0.5622207747
C  C254  1  0.92410000  0.30850000  0.59120000  1.0 -0.0803049613
C  C255  1  0.02410000  0.31900000  0.61290000  1.0 -0.0803049613
C  C256  1  0.05530000  0.28110000  0.64490000  1.0 -0.1710696301
C  C257  1  0.98510000  0.23360000  0.65570000  1.0 0.0897416728
C  C258  1  0.88600000  0.22260000  0.63360000  1.0 -0.1710696301
C  C259  1  0.85800000  0.25860000  0.60030000  1.0 -0.0803049613
C  C260  1  0.00940000  0.19540000  0.69650000  1.0 -0.030817177
C  C261  1  0.08790000  0.14920000  0.69580000  1.0 0.0311284254
C  C262  1  0.13820000  0.13180000  0.65910000  1.0 -0.1339507772
C  C263  1  0.21400000  0.08400000  0.65840000  1.0 -0.1007711772
C  C264  1  0.23900000  0.05340000  0.69450000  1.0 -0.10998351
C  C265  1  0.19220000  0.07240000  0.73160000  1.0 -0.1599597041
C  C266  1  0.11070000  0.11720000  0.73190000  1.0 0.0311284254
C  C267  1  0.04250000  0.12550000  0.76610000  1.0 -0.030817177
C  C268  1  0.95200000  0.16580000  0.76460000  1.0 0.0390449022
C  C269  1  0.86640000  0.16160000  0.79400000  1.0 -0.1504397571
C  C270  1  0.76790000  0.19560000  0.78990000  1.0 -0.1007711772
C  C271  1  0.75720000  0.23520000  0.75710000  1.0 -0.1007711772
C  C272  1  0.84030000  0.23720000  0.72670000  1.0 -0.1599597041
C  C273  1  0.93890000  0.20310000  0.73070000  1.0 0.0390449022
C  C274  1  0.07600000  0.09800000  0.80830000  1.0 0.0783078406
C  C275  1  0.16210000  0.12360000  0.83150000  1.0 -0.1599597041
C  C276  1  0.16990000  0.11120000  0.87360000  1.0 -0.1007711772
C  C277  1  0.08840000  0.07550000  0.89220000  1.0 -0.01872097
C  C278  1  0.00610000  0.04690000  0.86850000  1.0 -0.1007711772
C  C279  1  0.00210000  0.05680000  0.82630000  1.0 -0.1599597041
C  C280  1  0.09990000  0.05790000  0.94340000  1.0 0.6086914715
C  C281  1  0.53390000  0.47170000  0.55930000  1.0 0.5712704287
C  C282  1  0.45700000  0.47540000  0.59180000  1.0 -0.0803049613
C  C283  1  0.41400000  0.53040000  0.60420000  1.0 -0.0803049613
C  C284  1  0.36000000  0.53570000  0.64220000  1.0 -0.1778733953
C  C285  1  0.34130000  0.48500000  0.66600000  1.0 0.0897416728
C  C286  1  0.38000000  0.42940000  0.65270000  1.0 -0.1710696301
C  C287  1  0.43300000  0.42420000  0.61470000  1.0 -0.0803049613
C  C288  1  0.29130000  0.49080000  0.71180000  1.0 -0.030817177
C  C289  1  0.34410000  0.52780000  0.74010000  1.0 0.0390449022
C  C290  1  0.43880000  0.56130000  0.72910000  1.0 -0.1504397571
C  C291  1  0.49760000  0.59380000  0.75880000  1.0 -0.0906411079
C  C292  1  0.45630000  0.59680000  0.79880000  1.0 -0.10998351
C  C293  1  0.36130000  0.56330000  0.80980000  1.0 -0.1710696301
C  C294  1  0.30050000  0.53240000  0.78000000  1.0 0.0311284254
C  C295  1  0.20620000  0.49890000  0.79100000  1.0 -0.030817177
C  C296  1  0.16640000  0.45420000  0.76470000  1.0 0.0311284254
C  C297  1  0.07160000  0.42110000  0.77640000  1.0 -0.1871246359
C  C298  1  0.01300000  0.38730000  0.74730000  1.0 -0.10998351
C  C299  1  0.04490000  0.39050000  0.70610000  1.0 -0.1007711772
C  C300  1  0.14360000  0.42050000  0.69490000  1.0 -0.1504397571
C  C301  1  0.20640000  0.45130000  0.72450000  1.0 0.0390449022
C  C302  1  0.13130000  0.51750000  0.82830000  1.0 0.0745141582
C  C303  1  0.17740000  0.55110000  0.86000000  1.0 -0.1504397571
C  C304  1  0.11940000  0.55580000  0.89740000  1.0 -0.10998351
C  C305  1  0.02180000  0.52230000  0.90390000  1.0 -0.0140892437
C  C306  1  0.97510000  0.48880000  0.87200000  1.0 -0.10998351
C  C307  1  0.02660000  0.48920000  0.83350000  1.0 -0.1710696301
C  C308  1  0.94640000  0.53030000  0.94880000  1.0 0.6086914715
C  C309  1  0.87740000  0.54870000  0.43280000  1.0 0.5622207747
C  C310  1  0.88260000  0.57050000  0.39260000  1.0 -0.0803049613
C  C311  1  0.80460000  0.61280000  0.37880000  1.0 -0.0803049613
C  C312  1  0.81130000  0.63410000  0.33870000  1.0 -0.1778733953
C  C313  1  0.90490000  0.61960000  0.31450000  1.0 0.0897416728
C  C314  1  0.98650000  0.57990000  0.32910000  1.0 -0.1599597041
C  C315  1  0.97180000  0.55280000  0.36730000  1.0 -0.0803049613
C  C316  1  0.93010000  0.65540000  0.27270000  1.0 -0.0360470301
C  C317  1  0.88580000  0.63540000  0.23580000  1.0 0.0311284254
C  C318  1  0.81400000  0.58620000  0.23460000  1.0 -0.1504397571
C  C319  1  0.76300000  0.56910000  0.19780000  1.0 -0.10998351
C  C320  1  0.79000000  0.59890000  0.16140000  1.0 -0.0906411079
C  C321  1  0.86650000  0.64640000  0.16230000  1.0 -0.1504397571
C  C322  1  0.90610000  0.66800000  0.19970000  1.0 0.0311284254
C  C323  1  0.97870000  0.71670000  0.20080000  1.0 -0.0360470301
C  C324  1  0.01490000  0.73970000  0.23850000  1.0 0.0390449022
C  C325  1  0.10130000  0.78230000  0.23880000  1.0 -0.1504397571
C  C326  1  0.16340000  0.79210000  0.27470000  1.0 -0.1007711772
C  C327  1  0.12500000  0.76780000  0.31170000  1.0 -0.1007711772
C  C328  1  0.03290000  0.72910000  0.31190000  1.0 -0.1504397571
C  C329  1  0.98380000  0.71110000  0.27480000  1.0 0.0311284254
C  C330  1  0.01150000  0.75040000  0.16070000  1.0 0.0783078406
C  C331  1  0.94180000  0.79510000  0.14540000  1.0 -0.1599597041
C  C332  1  0.97740000  0.82900000  0.11160000  1.0 -0.10998351
C  C333  1  0.08120000  0.81670000  0.09320000  1.0 -0.01872097
C  C334  1  0.15530000  0.77540000  0.11080000  1.0 -0.0906411079
C  C335  1  0.12170000  0.74360000  0.14560000  1.0 -0.1599597041
C  C336  1  0.12790000  0.85960000  0.05280000  1.0 0.6086914715
O  O1  1  0.27100000  0.03630000  0.50120000  1.0 -1.2340380921
O  O2  1  0.46260000  0.11000000  0.45380000  1.0 -0.6872291266
O  O3  1  0.28550000  0.15750000  0.45670000  1.0 -0.7065405174
O  O4  1  0.67700000  0.41550000  0.04350000  1.0 -0.4806687607
O  O5  1  0.52800000  0.47620000  0.04900000  1.0 -0.5310068439
O  O6  1  0.05600000  0.08210000  0.45840000  1.0 -0.7207260652
O  O7  1  0.09500000  0.97990000  0.45180000  1.0 -0.6872291266
O  O8  1  0.44100000  0.01670000  0.03590000  1.0 -0.5310068439
O  O9  1  0.41800000  0.91960000  0.04900000  1.0 -0.5310068439
O  O10  1  0.45200000  0.99380000  0.55470000  1.0 -0.678097628
O  O11  1  0.30700000  0.92550000  0.53950000  1.0 -0.699841909
O  O12  1  0.72410000  0.65100000  0.95190000  1.0 -0.5310068439
O  O13  1  0.55160000  0.61070000  0.95780000  1.0 -0.5310068439
O  O14  1  0.72900000  0.53630000  0.99880000  1.0 -1.2340380921
O  O15  1  0.53740000  0.61000000  0.04620000  1.0 -0.6872291266
O  O16  1  0.71450000  0.65750000  0.04330000  1.0 -0.7065405174
O  O17  1  0.32300000  0.91550000  0.45650000  1.0 -0.4806687607
O  O18  1  0.47200000  0.97620000  0.45100000  1.0 -0.5310068439
O  O19  1  0.94400000  0.58210000  0.04160000  1.0 -0.7207260652
O  O20  1  0.90500000  0.47990000  0.04820000  1.0 -0.6872291266
O  O21  1  0.55900000  0.51670000  0.46410000  1.0 -0.5310068439
O  O22  1  0.58200000  0.41960000  0.45100000  1.0 -0.5310068439
O  O23  1  0.54800000  0.49380000  0.94530000  1.0 -0.678097628
O  O24  1  0.69300000  0.42550000  0.96050000  1.0 -0.699841909
O  O25  1  0.27590000  0.15100000  0.54810000  1.0 -0.5310068439
O  O26  1  0.44840000  0.11070000  0.54220000  1.0 -0.5310068439
O  O27  1  0.22900000  0.96370000  0.00120000  1.0 -1.2340380921
O  O28  1  0.03740000  0.89000000  0.95380000  1.0 -0.6872291266
O  O29  1  0.21450000  0.84250000  0.95670000  1.0 -0.7065405174
O  O30  1  0.82300000  0.58450000  0.54350000  1.0 -0.4806687607
O  O31  1  0.97200000  0.52380000  0.54900000  1.0 -0.5310068439
O  O32  1  0.44400000  0.91790000  0.95840000  1.0 -0.7207260652
O  O33  1  0.40500000  0.02010000  0.95180000  1.0 -0.6872291266
O  O34  1  0.05900000  0.98330000  0.53590000  1.0 -0.5310068439
O  O35  1  0.08200000  0.08040000  0.54900000  1.0 -0.5310068439
O  O36  1  0.04800000  0.00620000  0.05470000  1.0 -0.678097628
O  O37  1  0.19300000  0.07450000  0.03950000  1.0 -0.699841909
O  O38  1  0.77590000  0.34900000  0.45190000  1.0 -0.5310068439
O  O39  1  0.94840000  0.38930000  0.45780000  1.0 -0.5310068439
O  O40  1  0.77100000  0.46370000  0.49880000  1.0 -1.2340380921
O  O41  1  0.96260000  0.39000000  0.54620000  1.0 -0.6872291266
O  O42  1  0.78550000  0.34250000  0.54330000  1.0 -0.7065405174
O  O43  1  0.17700000  0.08450000  0.95650000  1.0 -0.4806687607
O  O44  1  0.02800000  0.02380000  0.95100000  1.0 -0.5310068439
O  O45  1  0.55600000  0.41790000  0.54160000  1.0 -0.7207260652
O  O46  1  0.59500000  0.52010000  0.54820000  1.0 -0.6872291266
O  O47  1  0.94100000  0.48330000  0.96410000  1.0 -0.5247958674
O  O48  1  0.91800000  0.58040000  0.95100000  1.0 -0.5310068439
O  O49  1  0.95200000  0.50620000  0.44530000  1.0 -0.678097628
O  O50  1  0.80700000  0.57450000  0.46050000  1.0 -0.699841909
O  O51  1  0.22410000  0.84900000  0.04810000  1.0 -0.5310068439
O  O52  1  0.05160000  0.88930000  0.04220000  1.0 -0.5310068439
