# DDEC6 charges by PACMAN v1.1 (https://github.com/mtap-research/PACMAN-charge/)
data_GIKLOE_FSR_pacman
_symmetry_space_group_name_H-M   'P 1'
_cell_length_a   13.43150000
_cell_length_b   14.34720000
_cell_length_c   16.17410000
_cell_angle_alpha   106.45800000
_cell_angle_beta   111.64300000
_cell_angle_gamma   86.29800000
_symmetry_Int_Tables_number   1
_chemical_formula_structural   CoH30C36(N6O)2
_chemical_formula_sum   'Co2 H60 C72 N24 O4'
_cell_volume   2775.59613297
_cell_formula_units_Z   2
loop_
 _symmetry_equiv_pos_site_id
 _symmetry_equiv_pos_as_xyz
  1  'x, y, z'
loop_
 _atom_site_type_symbol
 _atom_site_label
 _atom_site_symmetry_multiplicity
 _atom_site_fract_x
 _atom_site_fract_y
 _atom_site_fract_z
 _atom_site_occupancy
 _atom_site_charge
Co  Co1  1  0.90958000  0.40065000  0.74842000  1.0 0.7495591659
Co  Co2  1  0.09042000  0.59935000  0.25158000  1.0 0.7495591659
H  H1  1  0.73030000  0.43700000  0.61590000  1.0 0.2707683165
H  H2  1  0.81100000  0.45000000  0.58920000  1.0 0.2707683165
H  H3  1  0.97600000  0.29450000  0.61400000  1.0 0.3421185035
H  H4  1  0.05330000  0.37180000  0.66600000  1.0 0.3492593635
H  H5  1  0.77552000  0.58798000  0.77902000  1.0 0.0912732519
H  H6  1  0.98097000  0.39411000  0.97557000  1.0 0.1108443561
H  H7  1  0.29916000  0.21443000  0.87306000  1.0 0.1283126455
H  H8  1  0.13145000  0.51402000  0.89690000  1.0 0.1108443561
H  H9  1  0.09277000  0.26509000  0.03229000  1.0 0.1108443561
H  H10  1  0.66192000  0.49863000  0.94155000  1.0 0.1108443561
H  H11  1  0.72744000  0.73858000  0.83227000  1.0 0.12021334
H  H12  1  0.62718000  0.87802000  0.84144000  1.0 0.1108443561
H  H13  1  0.74561000  0.26359000  0.56406000  1.0 0.0912732519
H  H14  1  0.78442000  0.37817000  0.89433000  1.0 0.1001250464
H  H15  1  0.86264000  0.19725000  0.80154000  1.0 0.1108443561
H  H16  1  0.40939000  0.08142000  0.86988000  1.0 0.1108443561
H  H17  1  0.90244000  0.62180000  0.71762000  1.0 0.1108443561
H  H18  1  0.31643000  0.60813000  0.95320000  1.0 0.12021334
H  H19  1  0.74176000  0.05945000  0.68763000  1.0 0.12021334
H  H20  1  0.10793000  0.07461000  0.94814000  1.0 0.1283126455
H  H21  1  0.21961000  0.94233000  0.94544000  1.0 0.1108443561
H  H22  1  0.57162000  0.20406000  0.46701000  1.0 0.12021334
H  H23  1  0.03036000  0.75726000  0.82356000  1.0 0.12021334
H  H24  1  0.11471000  0.82273000  0.99765000  1.0 0.12021334
H  H25  1  0.45695000  0.11612000  0.32085000  1.0 0.12021334
H  H26  1  0.45252000  0.69114000  0.09171000  1.0 0.12021334
H  H27  1  0.25492000  0.90942000  0.13125000  1.0 0.1001250464
H  H28  1  0.68889000  0.95309000  0.52277000  1.0 0.1283126455
H  H29  1  0.57729000  0.86573000  0.37200000  1.0 0.12021334
H  H30  1  0.52700000  0.60700000  0.90610000  1.0 0.1283126455
H  H31  1  0.26970000  0.56300000  0.38410000  1.0 0.2707683165
H  H32  1  0.18900000  0.55000000  0.41080000  1.0 0.2707683165
H  H33  1  0.02400000  0.70550000  0.38600000  1.0 0.3421185035
H  H34  1  0.94670000  0.62820000  0.33400000  1.0 0.3492593635
H  H35  1  0.22448000  0.41202000  0.22098000  1.0 0.0912732519
H  H36  1  0.01903000  0.60589000  0.02443000  1.0 0.1108443561
H  H37  1  0.70084000  0.78557000  0.12694000  1.0 0.1283126455
H  H38  1  0.86855000  0.48598000  0.10310000  1.0 0.1108443561
H  H39  1  0.90723000  0.73491000  0.96771000  1.0 0.1108443561
H  H40  1  0.33808000  0.50137000  0.05845000  1.0 0.1108443561
H  H41  1  0.27256000  0.26142000  0.16773000  1.0 0.12021334
H  H42  1  0.37282000  0.12198000  0.15856000  1.0 0.1108443561
H  H43  1  0.25439000  0.73641000  0.43594000  1.0 0.0912732519
H  H44  1  0.21558000  0.62183000  0.10567000  1.0 0.1001250464
H  H45  1  0.13736000  0.80275000  0.19846000  1.0 0.1108443561
H  H46  1  0.59061000  0.91858000  0.13012000  1.0 0.1108443561
H  H47  1  0.09756000  0.37820000  0.28238000  1.0 0.1108443561
H  H48  1  0.68357000  0.39187000  0.04680000  1.0 0.12021334
H  H49  1  0.25824000  0.94055000  0.31237000  1.0 0.12021334
H  H50  1  0.89207000  0.92539000  0.05186000  1.0 0.1283126455
H  H51  1  0.78039000  0.05767000  0.05456000  1.0 0.1108443561
H  H52  1  0.42838000  0.79594000  0.53299000  1.0 0.12021334
H  H53  1  0.96964000  0.24274000  0.17644000  1.0 0.12021334
H  H54  1  0.88529000  0.17727000  0.00235000  1.0 0.12021334
H  H55  1  0.54305000  0.88388000  0.67915000  1.0 0.12021334
H  H56  1  0.54748000  0.30886000  0.90829000  1.0 0.12021334
H  H57  1  0.74508000  0.09058000  0.86875000  1.0 0.1001250464
H  H58  1  0.31111000  0.04691000  0.47723000  1.0 0.1283126455
H  H59  1  0.42271000  0.13427000  0.62800000  1.0 0.12021334
H  H60  1  0.47300000  0.39300000  0.09390000  1.0 0.1283126455
C  C1  1  0.08636000  0.27919000  0.84081000  1.0 0.0086554399
C  C2  1  0.76277000  0.55015000  0.81404000  1.0 0.0784392636
C  C3  1  0.01979000  0.35021000  0.94391000  1.0 -0.0526334755
C  C4  1  0.63637000  0.66123000  0.86863000  1.0 0.1617012788
C  C5  1  0.28320000  0.15889000  0.88763000  1.0 -0.1729016434
C  C6  1  0.51920000  0.82641000  0.87988000  1.0 0.1375539023
C  C7  1  0.08968000  0.55779000  0.86483000  1.0 0.1001250464
C  C8  1  0.08156000  0.28028000  0.97612000  1.0 -0.1409566575
C  C9  1  0.69970000  0.50228000  0.90305000  1.0 -0.119754089
C  C10  1  0.66666667  0.74070000  0.84925000  1.0 -0.1956824548
C  C11  1  0.60720000  0.82332000  0.85487000  1.0 -0.1310855512
C  C12  1  0.75970000  0.23026000  0.61000000  1.0 0.0668285284
C  C13  1  0.20300000  0.70714000  0.96544000  1.0 0.150338063
C  C14  1  0.76710000  0.43677000  0.87680000  1.0 -0.0411096047
C  C15  1  0.19406000  0.15553000  0.91096000  1.0 0.150338063
C  C16  1  0.82280000  0.19335000  0.73833000  1.0 -0.0314493887
C  C17  1  0.34830000  0.08031000  0.88590000  1.0 -0.1310855512
C  C18  1  0.96560000  0.61714000  0.76800000  1.0 -0.0675604325
C  C19  1  0.30320000  0.66810000  0.99069000  1.0 -0.1956824548
C  C20  1  0.64270000  0.08640000  0.50624000  1.0 0.1375539023
C  C21  1  0.48910000  0.74664000  0.90010000  1.0 -0.1080953796
C  C22  1  0.75670000  0.11760000  0.67655000  1.0 -0.1033569388
C  C23  1  0.54840000  0.66366000  0.89410000  1.0 -0.1956824548
C  C24  1  0.16920000  0.07595000  0.93240000  1.0 -0.176870415
C  C25  1  0.32420000  0.99987000  0.90758000  1.0 0.150338063
C  C26  1  0.23550000  0.99776000  0.93060000  1.0 -0.1409566575
C  C27  1  0.57320000  0.13520000  0.44780000  1.0 -0.1850801539
C  C28  1  0.03540000  0.69150000  0.82530000  1.0 -0.1033569388
C  C29  1  0.18350000  0.79640000  0.01650000  1.0 -0.1956824548
C  C30  1  0.50600000  0.08300000  0.36120000  1.0 -0.1409566575
C  C31  1  0.38410000  0.71800000  0.07180000  1.0 -0.1486360735
C  C32  1  0.26620000  0.84720000  0.09600000  1.0 -0.1486360735
C  C33  1  0.50940000  0.98380000  0.33280000  1.0 0.1375539023
C  C34  1  0.64360000  0.98640000  0.48070000  1.0 -0.176870415
C  C35  1  0.36460000  0.80650000  0.12300000  1.0 0.1375539023
C  C36  1  0.57640000  0.93470000  0.39160000  1.0 -0.1486360735
C  C37  1  0.91364000  0.72081000  0.15919000  1.0 0.0086554399
C  C38  1  0.23723000  0.44985000  0.18596000  1.0 0.0784392636
C  C39  1  0.98021000  0.64979000  0.05609000  1.0 -0.0526334755
C  C40  1  0.36363000  0.33877000  0.13137000  1.0 0.1617012788
C  C41  1  0.71680000  0.84111000  0.11237000  1.0 -0.1729016434
C  C42  1  0.48080000  0.17359000  0.12012000  1.0 0.1375539023
C  C43  1  0.91032000  0.44221000  0.13517000  1.0 0.1001250464
C  C44  1  0.91844000  0.71972000  0.02388000  1.0 -0.1310855512
C  C45  1  0.30030000  0.49772000  0.09695000  1.0 -0.119754089
C  C46  1  0.33333333  0.25930000  0.15075000  1.0 -0.1956824548
C  C47  1  0.39280000  0.17668000  0.14513000  1.0 -0.1310855512
C  C48  1  0.24030000  0.76974000  0.39000000  1.0 0.0668285284
C  C49  1  0.79700000  0.29286000  0.03456000  1.0 0.150338063
C  C50  1  0.23290000  0.56323000  0.12320000  1.0 -0.0411096047
C  C51  1  0.80594000  0.84447000  0.08904000  1.0 0.150338063
C  C52  1  0.17720000  0.80665000  0.26167000  1.0 -0.0314493887
C  C53  1  0.65170000  0.91969000  0.11410000  1.0 -0.1310855512
C  C54  1  0.03440000  0.38286000  0.23200000  1.0 -0.0675604325
C  C55  1  0.69680000  0.33190000  0.00931000  1.0 -0.1956824548
C  C56  1  0.35730000  0.91360000  0.49376000  1.0 0.1375539023
C  C57  1  0.51090000  0.25336000  0.09990000  1.0 -0.1080953796
C  C58  1  0.24330000  0.88240000  0.32345000  1.0 -0.1033569388
C  C59  1  0.45160000  0.33634000  0.10590000  1.0 -0.1956824548
C  C60  1  0.83080000  0.92405000  0.06760000  1.0 -0.176870415
C  C61  1  0.67580000  0.00013000  0.09242000  1.0 0.150338063
C  C62  1  0.76450000  0.00224000  0.06940000  1.0 -0.1409566575
C  C63  1  0.42680000  0.86480000  0.55220000  1.0 -0.1850801539
C  C64  1  0.96460000  0.30850000  0.17470000  1.0 -0.1033569388
C  C65  1  0.81650000  0.20360000  0.98350000  1.0 -0.1956824548
C  C66  1  0.49400000  0.91700000  0.63880000  1.0 -0.1409566575
C  C67  1  0.61590000  0.28200000  0.92820000  1.0 -0.1486360735
C  C68  1  0.73380000  0.15280000  0.90400000  1.0 -0.1486360735
C  C69  1  0.49060000  0.01620000  0.66720000  1.0 0.1375539023
C  C70  1  0.35640000  0.01360000  0.51930000  1.0 -0.176870415
C  C71  1  0.63540000  0.19350000  0.87700000  1.0 0.1375539023
C  C72  1  0.42360000  0.06530000  0.60840000  1.0 -0.1486360735
N  N1  1  0.69698000  0.57548000  0.86241000  1.0 0.0086554399
N  N2  1  0.02118000  0.34873000  0.85897000  1.0 -0.3516155463
N  N3  1  0.12473000  0.23579000  0.91021000  1.0 -0.0171204172
N  N4  1  0.80694000  0.46688000  0.82135000  1.0 -0.3073785286
N  N5  1  0.82408000  0.26430000  0.69617000  1.0 -0.3001311403
N  N6  1  0.99942000  0.53313000  0.79326000  1.0 -0.3073785286
N  N7  1  0.71548000  0.14191000  0.59421000  1.0 0.0086554399
N  N8  1  0.11550000  0.65363000  0.88700000  1.0 -0.0007522786
N  N9  1  0.46195000  0.91488000  0.88238000  1.0 -0.1409566575
N  N10  1  0.38428000  0.91375000  0.90664000  1.0 -0.1310855512
N  N11  1  0.45020000  0.85110000  0.21040000  1.0 -0.1310855512
N  N12  1  0.43220000  0.93800000  0.24140000  1.0 -0.1575656887
N  N13  1  0.30302000  0.42452000  0.13759000  1.0 0.0086554399
N  N14  1  0.97882000  0.65127000  0.14103000  1.0 -0.3516155463
N  N15  1  0.87527000  0.76421000  0.08979000  1.0 -0.0171204172
N  N16  1  0.19306000  0.53312000  0.17865000  1.0 -0.3073785286
N  N17  1  0.17592000  0.73570000  0.30383000  1.0 -0.3001311403
N  N18  1  0.00058000  0.46687000  0.20674000  1.0 -0.3073785286
N  N19  1  0.28452000  0.85809000  0.40579000  1.0 0.0086554399
N  N20  1  0.88450000  0.34637000  0.11300000  1.0 -0.0007522786
N  N21  1  0.53805000  0.08512000  0.11762000  1.0 -0.1409566575
N  N22  1  0.61572000  0.08625000  0.09336000  1.0 -0.1310855512
N  N23  1  0.54980000  0.14890000  0.78960000  1.0 -0.1310855512
N  N24  1  0.56780000  0.06200000  0.75860000  1.0 -0.1575656887
O  O1  1  0.79688000  0.44921000  0.63698000  1.0 -0.6388946753
O  O2  1  0.00056000  0.34029000  0.66441000  1.0 -0.6605833452
O  O3  1  0.20312000  0.55079000  0.36302000  1.0 -0.6388946753
O  O4  1  0.99944000  0.65971000  0.33559000  1.0 -0.6605833452
