# DDEC6 charges by PACMAN v1.1 (https://github.com/mtap-research/PACMAN-charge/)
data_GIKMOD12_FSR_pacman
_symmetry_space_group_name_H-M   'P 1'
_cell_length_a   7.30600000
_cell_length_b   18.11100000
_cell_length_c   12.10260000
_cell_angle_alpha   90.00000000
_cell_angle_beta   122.76600000
_cell_angle_gamma   90.00000000
_symmetry_Int_Tables_number   1
_chemical_formula_structural   Cu2H3C8SO9
_chemical_formula_sum   'Cu8 H12 C32 S4 O36'
_cell_volume   1346.60085981
_cell_formula_units_Z   4
loop_
 _symmetry_equiv_pos_site_id
 _symmetry_equiv_pos_as_xyz
  1  'x, y, z'
loop_
 _atom_site_type_symbol
 _atom_site_label
 _atom_site_symmetry_multiplicity
 _atom_site_fract_x
 _atom_site_fract_y
 _atom_site_fract_z
 _atom_site_occupancy
 _atom_site_charge
Cu  Cu1  1  0.35131000  0.09472000  0.21589000  1.0 1.1640032654
Cu  Cu2  1  0.64869000  0.59472000  0.28411000  1.0 1.1640032654
Cu  Cu3  1  0.64869000  0.90528000  0.78411000  1.0 1.1640032654
Cu  Cu4  1  0.35131000  0.40528000  0.71589000  1.0 1.1640032654
Cu  Cu5  1  0.89030000  0.06841000  0.92978000  1.0 1.1434944992
Cu  Cu6  1  0.10970000  0.56841000  0.57022000  1.0 1.1434944992
Cu  Cu7  1  0.10970000  0.93159000  0.07022000  1.0 1.1434944992
Cu  Cu8  1  0.89030000  0.43159000  0.42978000  1.0 1.1434944992
H  H1  1  0.38530000  0.30810000  0.16470000  1.0 0.1393756767
H  H2  1  0.61470000  0.80810000  0.33530000  1.0 0.1393756767
H  H3  1  0.61470000  0.69190000  0.83530000  1.0 0.1393756767
H  H4  1  0.38530000  0.19190000  0.66470000  1.0 0.1393756767
H  H5  1  0.86150000  0.29300000  0.79730000  1.0 0.1461243753
H  H6  1  0.13850000  0.79300000  0.70270000  1.0 0.1461243753
H  H7  1  0.13850000  0.70700000  0.20270000  1.0 0.1461243753
H  H8  1  0.86150000  0.20700000  0.29730000  1.0 0.1461243753
H  H9  1  0.16430000  0.48930000  0.93680000  1.0 0.1461243753
H  H10  1  0.83570000  0.98930000  0.56320000  1.0 0.1461243753
H  H11  1  0.83570000  0.51070000  0.06320000  1.0 0.1461243753
H  H12  1  0.16430000  0.01070000  0.43680000  1.0 0.1461243753
C  C1  1  0.98970000  0.39600000  0.84830000  1.0 -0.0416676063
C  C2  1  0.01030000  0.89600000  0.65170000  1.0 -0.0416676063
C  C3  1  0.01030000  0.60400000  0.15170000  1.0 -0.0416676063
C  C4  1  0.98970000  0.10400000  0.34830000  1.0 -0.0416676063
C  C5  1  0.30310000  0.40490000  0.06910000  1.0 -0.0117793313
C  C6  1  0.69690000  0.90490000  0.43090000  1.0 -0.0117793313
C  C7  1  0.69690000  0.59510000  0.93090000  1.0 -0.0117793313
C  C8  1  0.30310000  0.09510000  0.56910000  1.0 -0.0117793313
C  C9  1  0.28510000  0.33040000  0.08500000  1.0 -0.069969044
C  C10  1  0.71490000  0.83040000  0.41500000  1.0 -0.069969044
C  C11  1  0.71490000  0.66960000  0.91500000  1.0 -0.069969044
C  C12  1  0.28510000  0.16960000  0.58500000  1.0 -0.069969044
C  C13  1  0.12080000  0.28800000  0.98470000  1.0 -0.0019470172
C  C14  1  0.87920000  0.78800000  0.51530000  1.0 -0.0019470172
C  C15  1  0.87920000  0.71200000  0.01530000  1.0 -0.0019470172
C  C16  1  0.12080000  0.21200000  0.48470000  1.0 -0.0019470172
C  C17  1  0.11000000  0.20760000  0.00920000  1.0 0.6106931095
C  C18  1  0.89000000  0.70760000  0.49080000  1.0 0.6106931095
C  C19  1  0.89000000  0.79240000  0.99080000  1.0 0.6106931095
C  C20  1  0.11000000  0.29240000  0.50920000  1.0 0.6106931095
C  C21  1  0.97200000  0.32080000  0.86530000  1.0 -0.0750368114
C  C22  1  0.02800000  0.82080000  0.63470000  1.0 -0.069969044
C  C23  1  0.02800000  0.67920000  0.13470000  1.0 -0.0750368114
C  C24  1  0.97200000  0.17920000  0.36530000  1.0 -0.0750368114
C  C25  1  0.15410000  0.43920000  0.94910000  1.0 -0.069969044
C  C26  1  0.84590000  0.93920000  0.55090000  1.0 -0.069969044
C  C27  1  0.84590000  0.56080000  0.05090000  1.0 -0.069969044
C  C28  1  0.15410000  0.06080000  0.44910000  1.0 -0.069969044
C  C29  1  0.48580000  0.44700000  0.18000000  1.0 0.6013494407
C  C30  1  0.51420000  0.94700000  0.32000000  1.0 0.6013494407
C  C31  1  0.51420000  0.55300000  0.82000000  1.0 0.6013494407
C  C32  1  0.48580000  0.05300000  0.68000000  1.0 0.6013494407
S  S1  1  0.81432000  0.43491000  0.69042000  1.0 1.1703902607
S  S2  1  0.18568000  0.93491000  0.80958000  1.0 1.1703902607
S  S3  1  0.18568000  0.56509000  0.30958000  1.0 1.1703902607
S  S4  1  0.81432000  0.06509000  0.19042000  1.0 1.1703902607
O  O1  1  0.97030000  0.16783000  0.91440000  1.0 -0.4922480534
O  O2  1  0.02970000  0.66783000  0.58560000  1.0 -0.4922480534
O  O3  1  0.02970000  0.83217000  0.08560000  1.0 -0.4922480534
O  O4  1  0.97030000  0.33217000  0.41440000  1.0 -0.4922480534
O  O5  1  0.18860000  0.03442000  0.05830000  1.0 -0.8989995892
O  O6  1  0.81140000  0.53442000  0.44170000  1.0 -0.8989995892
O  O7  1  0.81140000  0.96558000  0.94170000  1.0 -0.8989995892
O  O8  1  0.18860000  0.46558000  0.55830000  1.0 -0.8989995892
O  O9  1  0.50570000  0.51380000  0.16170000  1.0 -0.4922480534
O  O10  1  0.49430000  0.01380000  0.33830000  1.0 -0.4922480534
O  O11  1  0.49430000  0.48620000  0.83830000  1.0 -0.4922480534
O  O12  1  0.50570000  0.98620000  0.66170000  1.0 -0.4922480534
O  O13  1  0.24680000  0.18650000  0.12430000  1.0 -0.4760687376
O  O14  1  0.75320000  0.68650000  0.37570000  1.0 -0.4760687376
O  O15  1  0.75320000  0.81350000  0.87570000  1.0 -0.4760687376
O  O16  1  0.24680000  0.31350000  0.62430000  1.0 -0.4760687376
O  O17  1  0.84110000  0.51310000  0.70060000  1.0 -0.4922480534
O  O18  1  0.15890000  0.01310000  0.79940000  1.0 -0.4922480534
O  O19  1  0.15890000  0.48690000  0.29940000  1.0 -0.4922480534
O  O20  1  0.84110000  0.98690000  0.20060000  1.0 -0.4922480534
O  O21  1  0.60460000  0.41080000  0.28240000  1.0 -0.4760687376
O  O22  1  0.39540000  0.91080000  0.21760000  1.0 -0.4760687376
O  O23  1  0.39540000  0.58920000  0.71760000  1.0 -0.4760687376
O  O24  1  0.60460000  0.08920000  0.78240000  1.0 -0.4760687376
O  O25  1  0.88490000  0.40120000  0.61110000  1.0 -0.6168418254
O  O26  1  0.11510000  0.90120000  0.88890000  1.0 -0.6168418254
O  O27  1  0.11510000  0.59880000  0.38890000  1.0 -0.6168418254
O  O28  1  0.88490000  0.09880000  0.11110000  1.0 -0.6168418254
O  O29  1  0.59870000  0.40850000  0.64710000  1.0 -0.5348296488
O  O30  1  0.40130000  0.90850000  0.85290000  1.0 -0.5348296488
O  O31  1  0.40130000  0.59150000  0.35290000  1.0 -0.5348296488
O  O32  1  0.59870000  0.09150000  0.14710000  1.0 -0.5348296488
O  O33  1  0.49590000  0.15640000  0.37580000  1.0 -0.3729003916
O  O34  1  0.50410000  0.65640000  0.12420000  1.0 -0.3729003916
O  O35  1  0.50410000  0.84360000  0.62420000  1.0 -0.3729003916
O  O36  1  0.49590000  0.34360000  0.87580000  1.0 -0.3729003916
