# DDEC6 charges by PACMAN v1.1 (https://github.com/mtap-research/PACMAN-charge/)
data_GIKMOD10_FSR_pacman
_symmetry_space_group_name_H-M   'P 1'
_cell_length_a   7.35600000
_cell_length_b   18.20800000
_cell_length_c   12.09640000
_cell_angle_alpha   90.00000000
_cell_angle_beta   123.05400000
_cell_angle_gamma   90.00000000
_symmetry_Int_Tables_number   1
_chemical_formula_structural   Cu2H3C8SO9
_chemical_formula_sum   'Cu8 H12 C32 S4 O36'
_cell_volume   1357.95513545
_cell_formula_units_Z   4
loop_
 _symmetry_equiv_pos_site_id
 _symmetry_equiv_pos_as_xyz
  1  'x, y, z'
loop_
 _atom_site_type_symbol
 _atom_site_label
 _atom_site_symmetry_multiplicity
 _atom_site_fract_x
 _atom_site_fract_y
 _atom_site_fract_z
 _atom_site_occupancy
 _atom_site_charge
Cu  Cu1  1  0.35097000  0.09508000  0.21699000  1.0 1.1762658403
Cu  Cu2  1  0.64903000  0.59508000  0.28301000  1.0 1.1714157081
Cu  Cu3  1  0.64903000  0.90492000  0.78301000  1.0 1.1714157081
Cu  Cu4  1  0.35097000  0.40492000  0.71699000  1.0 1.1714157081
Cu  Cu5  1  0.88903000  0.06837000  0.93045000  1.0 1.1426006601
Cu  Cu6  1  0.11097000  0.56837000  0.56955000  1.0 1.1426006601
Cu  Cu7  1  0.11097000  0.93163000  0.06955000  1.0 1.1426006601
Cu  Cu8  1  0.88903000  0.43163000  0.43045000  1.0 1.1426006601
H  H1  1  0.38530000  0.30780000  0.16410000  1.0 0.1419255245
H  H2  1  0.61470000  0.80780000  0.33590000  1.0 0.1419255245
H  H3  1  0.61470000  0.69220000  0.83590000  1.0 0.1419255245
H  H4  1  0.38530000  0.19220000  0.66410000  1.0 0.1419255245
H  H5  1  0.85850000  0.29420000  0.79410000  1.0 0.1419255245
H  H6  1  0.14150000  0.79420000  0.70590000  1.0 0.1419255245
H  H7  1  0.14150000  0.70580000  0.20590000  1.0 0.1419255245
H  H8  1  0.85850000  0.20580000  0.29410000  1.0 0.1419255245
H  H9  1  0.15860000  0.48920000  0.93570000  1.0 0.1419255245
H  H10  1  0.84140000  0.98920000  0.56430000  1.0 0.1419255245
H  H11  1  0.84140000  0.51080000  0.06430000  1.0 0.1419255245
H  H12  1  0.15860000  0.01080000  0.43570000  1.0 0.1419255245
C  C1  1  0.98870000  0.39600000  0.84730000  1.0 -0.0483609523
C  C2  1  0.01130000  0.89600000  0.65270000  1.0 -0.0483609523
C  C3  1  0.01130000  0.60400000  0.15270000  1.0 -0.0483609523
C  C4  1  0.98870000  0.10400000  0.34730000  1.0 -0.0483609523
C  C5  1  0.30070000  0.40470000  0.06830000  1.0 -0.0059396347
C  C6  1  0.69930000  0.90470000  0.43170000  1.0 -0.0059396347
C  C7  1  0.69930000  0.59530000  0.93170000  1.0 -0.0059396347
C  C8  1  0.30070000  0.09530000  0.56830000  1.0 -0.0059396347
C  C9  1  0.28380000  0.33010000  0.08450000  1.0 -0.0710327382
C  C10  1  0.71620000  0.83010000  0.41550000  1.0 -0.0710327382
C  C11  1  0.71620000  0.66990000  0.91550000  1.0 -0.0710327382
C  C12  1  0.28380000  0.16990000  0.58450000  1.0 -0.0710327382
C  C13  1  0.11800000  0.28800000  0.98390000  1.0 0.0060905868
C  C14  1  0.88200000  0.78800000  0.51610000  1.0 0.0060905868
C  C15  1  0.88200000  0.71200000  0.01610000  1.0 0.0045367997
C  C16  1  0.11800000  0.21200000  0.48390000  1.0 0.0045367997
C  C17  1  0.10820000  0.20760000  0.00820000  1.0 0.6056839273
C  C18  1  0.89180000  0.70760000  0.49180000  1.0 0.6056839273
C  C19  1  0.89180000  0.79240000  0.99180000  1.0 0.6056839273
C  C20  1  0.10820000  0.29240000  0.50820000  1.0 0.6056839273
C  C21  1  0.96910000  0.32150000  0.86300000  1.0 -0.0710327382
C  C22  1  0.03090000  0.82150000  0.63700000  1.0 -0.0710327382
C  C23  1  0.03090000  0.67850000  0.13700000  1.0 -0.0710327382
C  C24  1  0.96910000  0.17850000  0.36300000  1.0 -0.0710327382
C  C25  1  0.15020000  0.43920000  0.94770000  1.0 -0.0710327382
C  C26  1  0.84980000  0.93920000  0.55230000  1.0 -0.0710327382
C  C27  1  0.84980000  0.56080000  0.05230000  1.0 -0.0710327382
C  C28  1  0.15020000  0.06080000  0.44770000  1.0 -0.0710327382
C  C29  1  0.48290000  0.44730000  0.17980000  1.0 0.6024678395
C  C30  1  0.51710000  0.94730000  0.32020000  1.0 0.6024678395
C  C31  1  0.51710000  0.55270000  0.82020000  1.0 0.6024678395
C  C32  1  0.48290000  0.05270000  0.67980000  1.0 0.6024678395
S  S1  1  0.81196000  0.43511000  0.68972000  1.0 1.1714157081
S  S2  1  0.18804000  0.93511000  0.81028000  1.0 1.1714157081
S  S3  1  0.18804000  0.56489000  0.31028000  1.0 1.1714157081
S  S4  1  0.81196000  0.06489000  0.18972000  1.0 1.1714157081
O  O1  1  0.96800000  0.16825000  0.91440000  1.0 -0.4912121698
O  O2  1  0.03200000  0.66825000  0.58560000  1.0 -0.4912121698
O  O3  1  0.03200000  0.83175000  0.08560000  1.0 -0.4912121698
O  O4  1  0.96800000  0.33175000  0.41440000  1.0 -0.4912121698
O  O5  1  0.18660000  0.03515000  0.05850000  1.0 -0.8979582294
O  O6  1  0.81340000  0.53515000  0.44150000  1.0 -0.8979582294
O  O7  1  0.81340000  0.96485000  0.94150000  1.0 -0.8979582294
O  O8  1  0.18660000  0.46485000  0.55850000  1.0 -0.8979582294
O  O9  1  0.50550000  0.51405000  0.16140000  1.0 -0.50390708
O  O10  1  0.49450000  0.01405000  0.33860000  1.0 -0.50390708
O  O11  1  0.49450000  0.48595000  0.83860000  1.0 -0.50390708
O  O12  1  0.50550000  0.98595000  0.66140000  1.0 -0.50390708
O  O13  1  0.24360000  0.18682000  0.12430000  1.0 -0.4827527321
O  O14  1  0.75640000  0.68682000  0.37570000  1.0 -0.4827527321
O  O15  1  0.75640000  0.81318000  0.87570000  1.0 -0.4827527321
O  O16  1  0.24360000  0.31318000  0.62430000  1.0 -0.4827527321
O  O17  1  0.83440000  0.51320000  0.69900000  1.0 -0.4827527321
O  O18  1  0.16560000  0.01320000  0.80100000  1.0 -0.4827527321
O  O19  1  0.16560000  0.48680000  0.30100000  1.0 -0.4827527321
O  O20  1  0.83440000  0.98680000  0.19900000  1.0 -0.4827527321
O  O21  1  0.60190000  0.41045000  0.28420000  1.0 -0.4912121698
O  O22  1  0.39810000  0.91045000  0.21580000  1.0 -0.4912121698
O  O23  1  0.39810000  0.58955000  0.71580000  1.0 -0.4912121698
O  O24  1  0.60190000  0.08955000  0.78420000  1.0 -0.4912121698
O  O25  1  0.88390000  0.40250000  0.61140000  1.0 -0.6091457262
O  O26  1  0.11610000  0.90250000  0.88860000  1.0 -0.6091457262
O  O27  1  0.11610000  0.59750000  0.38860000  1.0 -0.6091457262
O  O28  1  0.88390000  0.09750000  0.11140000  1.0 -0.6091457262
O  O29  1  0.59620000  0.40780000  0.64460000  1.0 -0.5355077341
O  O30  1  0.40380000  0.90780000  0.85540000  1.0 -0.5343483642
O  O31  1  0.40380000  0.59220000  0.35540000  1.0 -0.5343483642
O  O32  1  0.59620000  0.09220000  0.14460000  1.0 -0.5343483642
O  O33  1  0.49380000  0.15660000  0.37590000  1.0 -0.3611497238
O  O34  1  0.50620000  0.65660000  0.12410000  1.0 -0.3686678662
O  O35  1  0.50620000  0.84340000  0.62410000  1.0 -0.3611497238
O  O36  1  0.49380000  0.34340000  0.87590000  1.0 -0.3686678662
