# DDEC6 charges by PACMAN v1.1 (https://github.com/mtap-research/PACMAN-charge/)
data_GIKQIC_FSR_pacman
_symmetry_space_group_name_H-M   'P 1'
_cell_length_a   5.70300000
_cell_length_b   10.62300000
_cell_length_c   29.89000000
_cell_angle_alpha   90.00000000
_cell_angle_beta   90.00000000
_cell_angle_gamma   90.00000000
_symmetry_Int_Tables_number   1
_chemical_formula_structural   CdH11C12SN6O5
_chemical_formula_sum   'Cd4 H44 C48 S4 N24 O20'
_cell_volume   1810.82494341
_cell_formula_units_Z   4
loop_
 _symmetry_equiv_pos_site_id
 _symmetry_equiv_pos_as_xyz
  1  'x, y, z'
loop_
 _atom_site_type_symbol
 _atom_site_label
 _atom_site_symmetry_multiplicity
 _atom_site_fract_x
 _atom_site_fract_y
 _atom_site_fract_z
 _atom_site_occupancy
 _atom_site_charge
Cd  Cd1  1  0.17520000  0.99294000  0.23915000  1.0 0.9837442002
Cd  Cd2  1  0.32480000  0.00706000  0.73915000  1.0 0.9851168952
Cd  Cd3  1  0.82480000  0.49294000  0.26085000  1.0 0.9837442002
Cd  Cd4  1  0.67520000  0.50706000  0.76085000  1.0 0.9837442002
H  H1  1  0.54820000  0.86840000  0.17250000  1.0 0.1200730641
H  H2  1  0.95180000  0.13160000  0.67250000  1.0 0.1200730641
H  H3  1  0.45180000  0.36840000  0.32750000  1.0 0.1200730641
H  H4  1  0.04820000  0.63160000  0.82750000  1.0 0.1200730641
H  H5  1  0.63460000  0.84320000  0.09830000  1.0 0.127919726
H  H6  1  0.86540000  0.15680000  0.59830000  1.0 0.127919726
H  H7  1  0.36540000  0.34320000  0.40170000  1.0 0.127919726
H  H8  1  0.13460000  0.65680000  0.90170000  1.0 0.127919726
H  H9  1  0.01430000  0.99700000  0.06760000  1.0 0.1200730641
H  H10  1  0.48570000  0.00300000  0.56760000  1.0 0.1200730641
H  H11  1  0.98570000  0.49700000  0.43240000  1.0 0.1200730641
H  H12  1  0.51430000  0.50300000  0.93240000  1.0 0.1200730641
H  H13  1  0.94440000  0.01920000  0.14300000  1.0 0.1123457811
H  H14  1  0.55560000  0.98080000  0.64300000  1.0 0.1123457811
H  H15  1  0.05560000  0.51920000  0.35700000  1.0 0.1123457811
H  H16  1  0.44440000  0.48080000  0.85700000  1.0 0.1123457811
H  H17  1  0.06260000  0.00100000  0.90540000  1.0 0.1200730641
H  H18  1  0.43740000  0.99900000  0.40540000  1.0 0.1200730641
H  H19  1  0.93740000  0.50100000  0.59460000  1.0 0.1200730641
H  H20  1  0.56260000  0.49900000  0.09460000  1.0 0.1200730641
H  H21  1  0.04250000  0.02690000  0.82930000  1.0 0.1200730641
H  H22  1  0.45750000  0.97310000  0.32930000  1.0 0.1200730641
H  H23  1  0.95750000  0.52690000  0.67070000  1.0 0.1200730641
H  H24  1  0.54250000  0.47310000  0.17070000  1.0 0.1200730641
H  H25  1  0.69270000  0.83950000  0.88790000  1.0 0.127919726
H  H26  1  0.80730000  0.16050000  0.38790000  1.0 0.127919726
H  H27  1  0.30730000  0.33950000  0.61210000  1.0 0.127919726
H  H28  1  0.19270000  0.66050000  0.11210000  1.0 0.127919726
H  H29  1  0.65280000  0.86890000  0.81280000  1.0 0.1123457811
H  H30  1  0.84720000  0.13110000  0.31280000  1.0 0.1123457811
H  H31  1  0.34720000  0.36890000  0.68720000  1.0 0.1123457811
H  H32  1  0.15280000  0.63110000  0.18720000  1.0 0.1123457811
H  H33  1  0.04950000  0.03560000  0.01390000  1.0 0.2169051505
H  H34  1  0.45050000  0.96440000  0.51390000  1.0 0.2169051505
H  H35  1  0.95050000  0.53560000  0.48610000  1.0 0.2169051505
H  H36  1  0.54950000  0.46440000  0.98610000  1.0 0.2169051505
H  H37  1  0.96910000  0.95090000  0.97890000  1.0 0.2443914971
H  H38  1  0.53090000  0.04910000  0.47890000  1.0 0.2443914971
H  H39  1  0.03090000  0.45090000  0.52110000  1.0 0.2451147846
H  H40  1  0.46910000  0.54910000  0.02110000  1.0 0.2451147846
H  H41  1  0.09410000  0.06540000  0.96720000  1.0 0.2302325143
H  H42  1  0.40590000  0.93460000  0.46720000  1.0 0.2302325143
H  H43  1  0.90590000  0.56540000  0.53280000  1.0 0.2302325143
H  H44  1  0.59410000  0.43460000  0.03280000  1.0 0.2302325143
C  C1  1  0.44070000  0.89570000  0.15124000  1.0 0.0798595118
C  C2  1  0.05930000  0.10430000  0.65124000  1.0 0.0798595118
C  C3  1  0.55930000  0.39570000  0.34876000  1.0 0.0798595118
C  C4  1  0.94070000  0.60430000  0.84876000  1.0 0.0798595118
C  C5  1  0.49380000  0.88060000  0.10661000  1.0 -0.1799348519
C  C6  1  0.00620000  0.11940000  0.60661000  1.0 -0.1799348519
C  C7  1  0.50620000  0.38060000  0.39339000  1.0 -0.1799348519
C  C8  1  0.99380000  0.61940000  0.89339000  1.0 -0.1799348519
C  C9  1  0.33830000  0.92080000  0.07407000  1.0 0.0687578282
C  C10  1  0.16170000  0.07920000  0.57407000  1.0 0.0687578282
C  C11  1  0.66170000  0.42080000  0.42593000  1.0 0.0687578282
C  C12  1  0.83830000  0.57920000  0.92593000  1.0 0.0687578282
C  C13  1  0.12670000  0.97170000  0.08823000  1.0 -0.189084001
C  C14  1  0.37330000  0.02830000  0.58823000  1.0 -0.189084001
C  C15  1  0.87330000  0.47170000  0.41177000  1.0 -0.189084001
C  C16  1  0.62670000  0.52830000  0.91177000  1.0 -0.189084001
C  C17  1  0.08580000  0.98420000  0.13381000  1.0 0.0890935612
C  C18  1  0.41420000  0.01580000  0.63381000  1.0 0.0890935612
C  C19  1  0.91420000  0.48420000  0.36619000  1.0 0.0890935612
C  C20  1  0.58580000  0.51580000  0.86619000  1.0 0.0890935612
C  C21  1  0.40670000  0.90480000  0.02690000  1.0 0.1833098418
C  C22  1  0.09330000  0.09520000  0.52690000  1.0 0.1833098418
C  C23  1  0.59330000  0.40480000  0.47310000  1.0 0.1833098418
C  C24  1  0.90670000  0.59520000  0.97310000  1.0 0.1833098418
C  C25  1  0.42660000  0.90360000  0.95438000  1.0 0.1833098418
C  C26  1  0.07340000  0.09640000  0.45438000  1.0 0.1833098418
C  C27  1  0.57340000  0.40360000  0.54562000  1.0 0.1833098418
C  C28  1  0.92660000  0.59640000  0.04562000  1.0 0.1833098418
C  C29  1  0.38630000  0.92050000  0.90618000  1.0 0.0593652277
C  C30  1  0.11370000  0.07950000  0.40618000  1.0 0.0593652277
C  C31  1  0.61370000  0.42050000  0.59382000  1.0 0.0593652277
C  C32  1  0.88630000  0.57950000  0.09382000  1.0 0.0593652277
C  C33  1  0.18630000  0.97510000  0.88735000  1.0 -0.2086651065
C  C34  1  0.31370000  0.02490000  0.38735000  1.0 -0.2086651065
C  C35  1  0.81370000  0.47510000  0.61265000  1.0 -0.2086651065
C  C36  1  0.68630000  0.52490000  0.11265000  1.0 -0.2086651065
C  C37  1  0.17580000  0.98990000  0.84149000  1.0 0.0971186458
C  C38  1  0.32420000  0.01010000  0.34149000  1.0 0.0971186458
C  C39  1  0.82420000  0.48990000  0.65851000  1.0 0.0971186458
C  C40  1  0.67580000  0.51010000  0.15851000  1.0 0.0971186458
C  C41  1  0.55950000  0.87930000  0.87685000  1.0 -0.189084001
C  C42  1  0.94050000  0.12070000  0.37685000  1.0 -0.189084001
C  C43  1  0.44050000  0.37930000  0.62315000  1.0 -0.189084001
C  C44  1  0.05950000  0.62070000  0.12315000  1.0 -0.189084001
C  C45  1  0.53450000  0.89720000  0.83168000  1.0 0.0890935612
C  C46  1  0.96550000  0.10280000  0.33168000  1.0 0.0890935612
C  C47  1  0.46550000  0.39720000  0.66832000  1.0 0.0890935612
C  C48  1  0.03450000  0.60280000  0.16832000  1.0 0.0890935612
S  S1  1  0.67293000  0.18660000  0.21826000  1.0 1.4171941242
S  S2  1  0.82707000  0.81340000  0.71826000  1.0 1.4171941242
S  S3  1  0.32707000  0.68660000  0.28174000  1.0 1.4171941242
S  S4  1  0.17293000  0.31340000  0.78174000  1.0 1.4171941242
N  N1  1  0.23960000  0.94850000  0.16519000  1.0 -0.2319861949
N  N2  1  0.26040000  0.05150000  0.66519000  1.0 -0.2319861949
N  N3  1  0.76040000  0.44850000  0.33481000  1.0 -0.2319861949
N  N4  1  0.73960000  0.55150000  0.83481000  1.0 -0.2319861949
N  N5  1  0.34700000  0.95370000  0.81353000  1.0 -0.2319861949
N  N6  1  0.15300000  0.04630000  0.31353000  1.0 -0.2319861949
N  N7  1  0.65300000  0.45370000  0.68647000  1.0 -0.2319861949
N  N8  1  0.84700000  0.54630000  0.18647000  1.0 -0.2319861949
N  N9  1  0.08270000  0.00350000  0.98715000  1.0 -0.4548488596
N  N10  1  0.41730000  0.99650000  0.48715000  1.0 -0.4548488596
N  N11  1  0.91730000  0.50350000  0.51285000  1.0 -0.4548488596
N  N12  1  0.58270000  0.49650000  0.01285000  1.0 -0.4548488596
N  N13  1  0.60320000  0.84940000  0.01582000  1.0 -0.2536761501
N  N14  1  0.89680000  0.15060000  0.51582000  1.0 -0.2536761501
N  N15  1  0.39680000  0.34940000  0.48418000  1.0 -0.2536761501
N  N16  1  0.10320000  0.65060000  0.98418000  1.0 -0.2536761501
N  N17  1  0.61110000  0.84590000  0.96895000  1.0 -0.2536761501
N  N18  1  0.88890000  0.15410000  0.46895000  1.0 -0.2536761501
N  N19  1  0.38890000  0.34590000  0.53105000  1.0 -0.2536761501
N  N20  1  0.11110000  0.65410000  0.03105000  1.0 -0.2536761501
N  N21  1  0.29210000  0.93930000  0.98926000  1.0 0.0593652277
N  N22  1  0.20790000  0.06070000  0.48926000  1.0 0.0593652277
N  N23  1  0.70790000  0.43930000  0.51074000  1.0 0.0593652277
N  N24  1  0.79210000  0.56070000  0.01074000  1.0 0.0593652277
O  O1  1  0.93050000  0.16140000  0.22180000  1.0 -0.6361188331
O  O2  1  0.56950000  0.83860000  0.72180000  1.0 -0.6347506681
O  O3  1  0.06950000  0.66140000  0.27820000  1.0 -0.6347506681
O  O4  1  0.43050000  0.33860000  0.77820000  1.0 -0.6347506681
O  O5  1  0.54620000  0.08460000  0.24156000  1.0 -0.6651657113
O  O6  1  0.95380000  0.91540000  0.74156000  1.0 -0.6651657113
O  O7  1  0.45380000  0.58460000  0.25844000  1.0 -0.6651657113
O  O8  1  0.04620000  0.41540000  0.75844000  1.0 -0.6651657113
O  O9  1  0.62490000  0.30780000  0.24108000  1.0 -0.6225388088
O  O10  1  0.87510000  0.69220000  0.74108000  1.0 -0.6225388088
O  O11  1  0.37510000  0.80780000  0.25892000  1.0 -0.6225388088
O  O12  1  0.12490000  0.19220000  0.75892000  1.0 -0.6225388088
O  O13  1  0.60810000  0.19300000  0.17122000  1.0 -0.6495269277
O  O14  1  0.89190000  0.80700000  0.67122000  1.0 -0.6495269277
O  O15  1  0.39190000  0.69300000  0.32878000  1.0 -0.6495269277
O  O16  1  0.10810000  0.30700000  0.82878000  1.0 -0.6495269277
O  O17  1  0.85600000  0.86070000  0.23817000  1.0 -0.1980031543
O  O18  1  0.64400000  0.13930000  0.73817000  1.0 -0.1980031543
O  O19  1  0.14400000  0.36070000  0.26183000  1.0 -0.1980031543
O  O20  1  0.35600000  0.63930000  0.76183000  1.0 -0.1980031543
