# DDEC6 charges by PACMAN v1.1 (https://github.com/mtap-research/PACMAN-charge/)
data_GILYOT_ASR_pacman
_symmetry_space_group_name_H-M   'P 1'
_cell_length_a   12.04520000
_cell_length_b   14.21810000
_cell_length_c   18.06670000
_cell_angle_alpha   104.14400000
_cell_angle_beta   98.79700000
_cell_angle_gamma   94.93000000
_symmetry_Int_Tables_number   1
_chemical_formula_structural   Zn7H48C64(N9O4)4
_chemical_formula_sum   'Zn7 H48 C64 N36 O16'
_cell_volume   2940.35743689
_cell_formula_units_Z   1
loop_
 _symmetry_equiv_pos_site_id
 _symmetry_equiv_pos_as_xyz
  1  'x, y, z'
loop_
 _atom_site_type_symbol
 _atom_site_label
 _atom_site_symmetry_multiplicity
 _atom_site_fract_x
 _atom_site_fract_y
 _atom_site_fract_z
 _atom_site_occupancy
 _atom_site_charge
Zn  Zn1  1  0.81351000  0.33575000  0.65460000  1.0 0.7524137433
Zn  Zn2  1  0.18649000  0.66425000  0.34540000  1.0 0.7524137433
Zn  Zn3  1  0.20281000  0.61175000  0.66058000  1.0 0.7179198202
Zn  Zn4  1  0.79719000  0.38825000  0.33942000  1.0 0.7179198202
Zn  Zn5  1  0.10766000  0.82937000  0.75302000  1.0 0.7179198202
Zn  Zn6  1  0.89234000  0.17063000  0.24698000  1.0 0.7179198202
Zn  Zn7  1  0.50000000  0.00000000  0.00000000  1.0 0.3911390121
H  H1  1  0.01270000  0.93010000  0.41780000  1.0 0.2412834737
H  H2  1  0.98730000  0.06990000  0.58220000  1.0 0.2412834737
H  H3  1  0.06770000  0.84450000  0.38250000  1.0 0.3069266464
H  H4  1  0.93230000  0.15550000  0.61750000  1.0 0.3069266464
H  H5  1  0.22190000  0.59090000  0.48820000  1.0 0.1173332568
H  H6  1  0.77810000  0.40910000  0.51180000  1.0 0.1173332568
H  H7  1  0.66150000  0.57090000  0.80110000  1.0 0.2972879992
H  H8  1  0.33850000  0.42910000  0.19890000  1.0 0.2972879992
H  H9  1  0.69770000  0.48370000  0.75060000  1.0 0.3265094842
H  H10  1  0.30230000  0.51630000  0.24940000  1.0 0.3265094842
H  H11  1  0.98110000  0.11700000  0.76630000  1.0 0.1173332568
H  H12  1  0.01890000  0.88300000  0.23370000  1.0 0.1173332568
H  H13  1  0.78240000  0.23590000  0.02980000  1.0 0.2818770494
H  H14  1  0.21760000  0.76410000  0.97020000  1.0 0.2818770494
H  H15  1  0.84510000  0.15950000  0.05420000  1.0 0.2818770494
H  H16  1  0.15490000  0.84050000  0.94580000  1.0 0.2818770494
H  H17  1  0.96210000  0.06760000  0.97370000  1.0 0.1311841506
H  H18  1  0.03790000  0.93240000  0.02630000  1.0 0.1311841506
H  H19  1  0.28180000  0.96340000  0.88160000  1.0 0.1098238585
H  H20  1  0.71820000  0.03660000  0.11840000  1.0 0.1098238585
H  H21  1  0.91890000  0.81530000  0.83830000  1.0 0.1002864625
H  H22  1  0.08110000  0.18470000  0.16170000  1.0 0.1002864625
H  H23  1  0.45270000  0.41230000  0.61860000  1.0 0.1311841506
H  H24  1  0.54730000  0.58770000  0.38140000  1.0 0.1311841506
H  H25  1  0.00950000  0.93740000  0.65580000  1.0 0.1098238585
H  H26  1  0.99050000  0.06260000  0.34420000  1.0 0.1098238585
H  H27  1  0.03130000  0.43830000  0.63400000  1.0 0.1098238585
H  H28  1  0.96870000  0.56170000  0.36600000  1.0 0.1098238585
H  H29  1  0.69250000  0.75860000  0.88870000  1.0 0.2972879992
H  H30  1  0.30750000  0.24140000  0.11130000  1.0 0.2972879992
H  H31  1  0.65030000  0.85110000  0.92560000  1.0 0.2972879992
H  H32  1  0.34970000  0.14890000  0.07440000  1.0 0.2972879992
H  H33  1  0.81020000  0.28340000  0.91130000  1.0 0.1311841506
H  H34  1  0.18980000  0.71660000  0.08870000  1.0 0.1311841506
H  H35  1  0.42210000  0.57350000  0.72270000  1.0 0.1098238585
H  H36  1  0.57790000  0.42650000  0.27730000  1.0 0.1098238585
H  H37  1  0.45640000  0.12290000  0.56360000  1.0 0.1098238585
H  H38  1  0.54360000  0.87710000  0.43640000  1.0 0.1098238585
H  H39  1  0.16700000  0.23090000  0.52230000  1.0 0.1098238585
H  H40  1  0.83300000  0.76910000  0.47770000  1.0 0.1098238585
H  H41  1  0.27220000  0.01740000  0.53890000  1.0 0.140158632
H  H42  1  0.72780000  0.98260000  0.46110000  1.0 0.140158632
H  H43  1  0.16380000  0.06060000  0.53700000  1.0 0.140158632
H  H44  1  0.83620000  0.93940000  0.46300000  1.0 0.140158632
H  H45  1  0.17600000  0.05610000  0.47610000  1.0 0.1311841506
H  H46  1  0.82400000  0.94390000  0.52390000  1.0 0.1311841506
H  H47  1  0.28790000  0.02110000  0.46900000  1.0 0.1520997073
H  H48  1  0.71210000  0.97890000  0.53100000  1.0 0.1520997073
C  C1  1  0.12250000  0.76260000  0.57711000  1.0 0.2625440146
C  C2  1  0.87750000  0.23740000  0.42289000  1.0 0.2625440146
C  C3  1  0.11160000  0.77590000  0.50351000  1.0 -0.0205467642
C  C4  1  0.88840000  0.22410000  0.49649000  1.0 -0.0205467642
C  C5  1  0.34380000  0.76920000  0.79909000  1.0 0.3069266464
C  C6  1  0.65620000  0.23080000  0.20091000  1.0 0.3069266464
C  C7  1  0.18890000  0.64740000  0.50436000  1.0 0.1889639135
C  C8  1  0.81110000  0.35260000  0.49564000  1.0 0.1889639135
C  C9  1  0.98460000  0.62880000  0.73587000  1.0 0.2873288925
C  C10  1  0.01540000  0.37120000  0.26413000  1.0 0.2873288925
C  C11  1  0.89280000  0.20990000  0.83077000  1.0 0.0044013142
C  C12  1  0.10720000  0.79010000  0.16923000  1.0 0.0044013142
C  C13  1  0.98150000  0.08020000  0.86798000  1.0 -0.0205467642
C  C14  1  0.01850000  0.91980000  0.13202000  1.0 -0.0205467642
C  C15  1  0.95610000  0.13300000  0.81349000  1.0 -0.142298295
C  C16  1  0.04390000  0.86700000  0.18651000  1.0 -0.142298295
C  C17  1  0.89240000  0.56370000  0.73560000  1.0 -0.0442327455
C  C18  1  0.10760000  0.43630000  0.26440000  1.0 -0.0442327455
C  C19  1  0.44140000  0.81060000  0.85270000  1.0 -0.0609311004
C  C20  1  0.55860000  0.18940000  0.14730000  1.0 -0.0609311004
C  C21  1  0.06120000  0.85630000  0.48896000  1.0 0.3265094842
C  C22  1  0.93880000  0.14370000  0.51104000  1.0 0.3265094842
C  C23  1  0.04410000  0.99170000  0.85210000  1.0 0.5435324843
C  C24  1  0.95590000  0.00830000  0.14790000  1.0 0.5435324843
C  C25  1  0.94360000  0.10310000  0.93760000  1.0 -0.2076181833
C  C26  1  0.05640000  0.89690000  0.06240000  1.0 -0.2076181833
C  C27  1  0.86100000  0.26810000  0.77370000  1.0 0.5467930074
C  C28  1  0.13900000  0.73190000  0.22630000  1.0 0.5467930074
C  C29  1  0.22970000  0.41910000  0.57490000  1.0 0.5557519134
C  C30  1  0.77030000  0.58090000  0.42510000  1.0 0.5557519134
C  C31  1  0.31710000  0.90860000  0.86430000  1.0 0.1729911055
C  C32  1  0.68290000  0.09140000  0.13570000  1.0 0.1729911055
C  C33  1  0.91290000  0.75000000  0.81090000  1.0 0.2234901722
C  C34  1  0.08710000  0.25000000  0.18910000  1.0 0.2234901722
C  C35  1  0.80670000  0.59800000  0.77460000  1.0 0.3911390121
C  C36  1  0.19330000  0.40200000  0.22540000  1.0 0.3911390121
C  C37  1  0.41460000  0.34920000  0.59920000  1.0 -0.1481609557
C  C38  1  0.58540000  0.65080000  0.40080000  1.0 -0.1481609557
C  C39  1  0.03800000  0.89540000  0.61720000  1.0 0.1991767745
C  C40  1  0.96200000  0.10460000  0.38280000  1.0 0.1991767745
C  C41  1  0.00190000  0.48780000  0.66620000  1.0 0.1991767745
C  C42  1  0.99810000  0.51220000  0.33380000  1.0 0.1991767745
C  C43  1  0.85340000  0.23220000  0.90060000  1.0 -0.2076181833
C  C44  1  0.14660000  0.76780000  0.09940000  1.0 -0.2076181833
C  C45  1  0.42640000  0.63600000  0.75510000  1.0 0.2412834737
C  C46  1  0.57360000  0.36400000  0.24490000  1.0 0.2412834737
C  C47  1  0.47410000  0.26930000  0.59630000  1.0 -0.0205467642
C  C48  1  0.52590000  0.73070000  0.40370000  1.0 -0.0250850514
C  C49  1  0.29860000  0.33530000  0.57320000  1.0 -0.0132099477
C  C50  1  0.70140000  0.66470000  0.42680000  1.0 -0.0132099477
C  C51  1  0.60010000  0.28290000  0.61860000  1.0 0.5557519134
C  C52  1  0.39990000  0.71710000  0.38140000  1.0 0.5557519134
C  C53  1  0.53710000  0.76080000  0.85200000  1.0 0.3911390121
C  C54  1  0.46290000  0.23920000  0.14800000  1.0 0.3911390121
C  C55  1  0.87780000  0.17900000  0.95440000  1.0 0.271651202
C  C56  1  0.12220000  0.82100000  0.04560000  1.0 0.271651202
C  C57  1  0.41630000  0.17640000  0.57250000  1.0 -0.1641291494
C  C58  1  0.58370000  0.82360000  0.42750000  1.0 -0.1641291494
C  C59  1  0.24170000  0.24150000  0.54810000  1.0 -0.1714041396
C  C60  1  0.75830000  0.75850000  0.45190000  1.0 -0.1714041396
C  C61  1  0.29660000  0.16090000  0.56130000  1.0 0.1098238585
C  C62  1  0.70340000  0.83910000  0.43870000  1.0 0.1098238585
C  C63  1  0.30420000  0.16360000  0.52260000  1.0 0.1098238585
C  C64  1  0.69580000  0.83640000  0.47740000  1.0 0.1098238585
N  N1  1  0.05540000  0.57998000  0.69239000  1.0 -0.3914658988
N  N2  1  0.94460000  0.42002000  0.30761000  1.0 -0.3914658988
N  N3  1  0.17300000  0.68111000  0.57840000  1.0 -0.3738212053
N  N4  1  0.82700000  0.31889000  0.42160000  1.0 -0.3738212053
N  N5  1  0.33270000  0.67977000  0.74768000  1.0 -0.3914658988
N  N6  1  0.66730000  0.32023000  0.25232000  1.0 -0.3914658988
N  N7  1  0.15450000  0.70037000  0.45689000  1.0 -0.3053409223
N  N8  1  0.84550000  0.29963000  0.54311000  1.0 -0.3049249415
N  N9  1  0.90390000  0.47230000  0.68969000  1.0 -0.3180520747
N  N10  1  0.09610000  0.52770000  0.31031000  1.0 -0.3180520747
N  N11  1  0.08800000  0.82310000  0.63803000  1.0 -0.3613571589
N  N12  1  0.91200000  0.17690000  0.36197000  1.0 -0.3613571589
N  N13  1  0.26490000  0.83192000  0.80575000  1.0 -0.3966086571
N  N14  1  0.73510000  0.16808000  0.19425000  1.0 -0.3966086571
N  N15  1  0.99720000  0.72592000  0.77252000  1.0 -0.3914658988
N  N16  1  0.00280000  0.27408000  0.22748000  1.0 -0.3914658988
N  N17  1  0.42170000  0.90120000  0.89549000  1.0 -0.3180520747
N  N18  1  0.57830000  0.09880000  0.10451000  1.0 -0.3180520747
N  N19  1  0.04530000  0.87970000  0.42194000  1.0 -0.5387714331
N  N20  1  0.95470000  0.12030000  0.57806000  1.0 -0.5387714331
N  N21  1  0.02380000  0.91500000  0.54906000  1.0 -0.434283993
N  N22  1  0.97620000  0.08500000  0.45094000  1.0 -0.434283993
N  N23  1  0.82240000  0.69360000  0.81510000  1.0 -0.4355160062
N  N24  1  0.17760000  0.30640000  0.18490000  1.0 -0.4355160062
N  N25  1  0.52360000  0.66990000  0.80240000  1.0 -0.4497668211
N  N26  1  0.47640000  0.33010000  0.19760000  1.0 -0.4497668211
N  N27  1  0.71060000  0.54450000  0.77560000  1.0 -0.519915607
N  N28  1  0.28940000  0.45550000  0.22440000  1.0 -0.519915607
N  N29  1  0.82870000  0.19330000  0.02150000  1.0 -0.6143161718
N  N30  1  0.17130000  0.80670000  0.97850000  1.0 -0.6155773465
N  N31  1  0.63820000  0.79400000  0.89350000  1.0 -0.5027464096
N  N32  1  0.36180000  0.20600000  0.10650000  1.0 -0.5027464096
N  N33  1  0.23660000  0.06780000  0.54350000  1.0 -0.1714041396
N  N34  1  0.76340000  0.93220000  0.45650000  1.0 -0.1641291494
N  N35  1  0.24870000  0.06760000  0.48420000  1.0 -0.1481609557
N  N36  1  0.75130000  0.93240000  0.51580000  1.0 -0.1481609557
O  O1  1  0.89900000  0.24941000  0.71018000  1.0 -0.5490090016
O  O2  1  0.10100000  0.75059000  0.28982000  1.0 -0.5490090016
O  O3  1  0.65240000  0.36844000  0.64022000  1.0 -0.5387714331
O  O4  1  0.34760000  0.63156000  0.35978000  1.0 -0.5387714331
O  O5  1  0.05580000  0.95797000  0.78187000  1.0 -0.5387714331
O  O6  1  0.94420000  0.04203000  0.21813000  1.0 -0.5387714331
O  O7  1  0.07760000  0.95434000  0.90361000  1.0 -0.5387714331
O  O8  1  0.92240000  0.04566000  0.09639000  1.0 -0.5387714331
O  O9  1  0.27370000  0.49660000  0.62535000  1.0 -0.5387714331
O  O10  1  0.72630000  0.50340000  0.37465000  1.0 -0.5387714331
O  O11  1  0.79760000  0.33170000  0.78752000  1.0 -0.5307817324
O  O12  1  0.20240000  0.66830000  0.21248000  1.0 -0.5307817324
O  O13  1  0.65180000  0.21027000  0.61470000  1.0 -0.5307817324
O  O14  1  0.34820000  0.78973000  0.38530000  1.0 -0.519915607
O  O15  1  0.13780000  0.40960000  0.53280000  1.0 -0.5103754167
O  O16  1  0.86220000  0.59040000  0.46720000  1.0 -0.5103754167
