# DDEC6 charges by PACMAN v1.1 (https://github.com/mtap-research/PACMAN-charge/)
data_GINLEX_ASR_pacman
_symmetry_space_group_name_H-M   'P 1'
_cell_length_a   17.06640000
_cell_length_b   17.44600000
_cell_length_c   30.64410000
_cell_angle_alpha   81.19300000
_cell_angle_beta   76.20100000
_cell_angle_gamma   76.22500000
_symmetry_Int_Tables_number   1
_chemical_formula_structural   Cd7H58C106(NO7)4
_chemical_formula_sum   'Cd14 H116 C212 N8 O56'
_cell_volume   8560.82274852
_cell_formula_units_Z   2
loop_
 _symmetry_equiv_pos_site_id
 _symmetry_equiv_pos_as_xyz
  1  'x, y, z'
loop_
 _atom_site_type_symbol
 _atom_site_label
 _atom_site_symmetry_multiplicity
 _atom_site_fract_x
 _atom_site_fract_y
 _atom_site_fract_z
 _atom_site_occupancy
 _atom_site_charge
Cd  Cd1  1  0.47898000  0.32709000  0.58741000  1.0 0.987957827
Cd  Cd2  1  0.09148000  0.32071000  0.93934000  1.0 1.0071539797
Cd  Cd3  1  0.09096000  0.30371000  0.82660000  1.0 1.0071539797
Cd  Cd4  1  0.51534000  0.26099000  0.71847000  1.0 0.6597090282
Cd  Cd5  1  0.29723000  0.27611000  0.76218000  1.0 1.0321399488
Cd  Cd6  1  0.49240000  0.29000000  0.69850000  1.0 0.6597090282
Cd  Cd7  1  0.52102000  0.67291000  0.41259000  1.0 0.987957827
Cd  Cd8  1  0.90852000  0.67929000  0.06066000  1.0 1.0071539797
Cd  Cd9  1  0.90904000  0.69629000  0.17340000  1.0 1.0071539797
Cd  Cd10  1  0.48466000  0.73901000  0.28153000  1.0 0.6597090282
Cd  Cd11  1  0.70277000  0.72389000  0.23782000  1.0 1.0321399488
Cd  Cd12  1  0.50760000  0.71000000  0.30150000  1.0 0.6509933986
Cd  Cd13  1  0.00000000  0.50000000  0.00000000  1.0 1.1273695149
Cd  Cd14  1  0.50000000  0.50000000  0.50000000  1.0 1.1231740631
H  H1  1  0.09700000  0.80740000  0.78200000  1.0 0.1201318614
H  H2  1  0.73260000  0.14880000  0.16260000  1.0 0.1201318614
H  H3  1  0.58320000  0.21200000  0.27860000  1.0 0.1201318614
H  H4  1  0.77600000  0.66450000  0.43040000  1.0 0.1201318614
H  H5  1  0.33120000  0.31360000  0.96540000  1.0 0.1290707244
H  H6  1  0.94260000  0.54260000  0.57990000  1.0 0.1201318614
H  H7  1  0.53060000  0.35700000  0.38960000  1.0 0.1201318614
H  H8  1  0.35550000  0.49140000  0.05470000  1.0 0.1122529046
H  H9  1  0.23070000  0.50010000  0.03550000  1.0 0.1290707244
H  H10  1  0.17690000  0.65480000  0.68760000  1.0 0.1201318614
H  H11  1  0.01090000  0.72370000  0.81400000  1.0 0.1122529046
H  H12  1  0.98580000  0.62650000  0.87200000  1.0 0.1290707244
H  H13  1  0.97050000  0.17280000  0.07550000  1.0 0.1290707244
H  H14  1  0.67740000  0.36160000  0.92670000  1.0 0.1201318614
H  H15  1  0.01130000  0.65490000  0.45800000  1.0 0.1201318614
H  H16  1  0.45560000  0.30780000  0.98380000  1.0 0.1201318614
H  H17  1  0.86690000  0.15280000  0.13650000  1.0 0.1201318614
H  H18  1  0.98900000  0.46070000  0.71210000  1.0 0.1290707244
H  H19  1  0.65740000  0.44310000  0.24630000  1.0 0.1201318614
H  H20  1  0.66500000  0.92860000  0.18430000  1.0 0.1201318614
H  H21  1  0.56650000  0.33300000  0.98220000  1.0 0.1201318614
H  H22  1  0.49390000  0.99660000  0.29150000  1.0 0.1290707244
H  H23  1  0.23370000  0.63370000  0.62030000  1.0 0.1122529046
H  H24  1  0.45380000  0.45510000  0.08850000  1.0 0.1201318614
H  H25  1  0.27020000  0.06750000  0.70880000  1.0 0.1122529046
H  H26  1  0.32070000  0.60970000  0.55120000  1.0 0.1290707244
H  H27  1  0.57080000  0.27130000  0.33350000  1.0 0.1122529046
H  H28  1  0.09500000  0.72730000  0.42140000  1.0 0.1201318614
H  H29  1  0.06290000  0.06570000  0.80230000  1.0 0.1290707244
H  H30  1  0.83420000  0.54650000  0.56630000  1.0 0.1201318614
H  H31  1  0.79940000  0.33430000  0.87660000  1.0 0.1201318614
H  H32  1  0.22780000  0.45040000  0.66140000  1.0 0.1290707244
H  H33  1  0.69430000  0.57360000  0.14490000  1.0 0.1290707244
H  H34  1  0.69910000  0.04800000  0.17200000  1.0 0.1201318614
H  H35  1  0.62480000  0.52350000  0.30410000  1.0 0.1201318614
H  H36  1  0.47330000  0.53660000  0.21140000  1.0 0.1290707244
H  H37  1  0.71060000  0.54870000  0.54950000  1.0 0.1201318614
H  H38  1  0.19820000  0.51340000  0.59390000  1.0 0.1201318614
H  H39  1  0.95850000  0.52090000  0.64570000  1.0 0.1201318614
H  H40  1  0.18970000  0.56460000  0.74660000  1.0 0.1201318614
H  H41  1  0.47080000  0.46060000  0.15670000  1.0 0.1201318614
H  H42  1  0.16540000  0.46740000  0.80490000  1.0 0.1201318614
H  H43  1  0.77160000  0.38520000  0.13100000  1.0 0.1201318614
H  H44  1  0.69070000  0.50170000  0.08780000  1.0 0.1201318614
H  H45  1  0.90370000  0.65800000  0.44670000  1.0 0.1201318614
H  H46  1  0.78980000  0.26870000  0.02920000  1.0 0.1201318614
H  H47  1  0.20090000  0.76500000  0.36650000  1.0 0.1201318614
H  H48  1  0.06260000  0.93910000  0.78670000  1.0 0.1201318614
H  H49  1  0.86900000  0.40530000  0.06530000  1.0 0.1201318614
H  H50  1  0.53470000  0.11720000  0.28200000  1.0 0.1201318614
H  H51  1  0.30130000  0.20880000  0.86620000  1.0 0.1290707244
H  H52  1  0.36980000  0.82540000  0.53500000  1.0 0.1201318614
H  H53  1  0.26070000  0.94820000  0.68740000  1.0 0.1201318614
H  H54  1  0.26090000  0.57400000  0.48170000  1.0 0.1201318614
H  H55  1  0.36680000  0.61180000  0.42470000  1.0 0.1201318614
H  H56  1  0.28670000  0.85180000  0.60490000  1.0 0.1201318614
H  H57  1  0.91370000  0.24340000  0.97780000  1.0 0.1201318614
H  H58  1  0.33990000  0.19970000  0.67500000  1.0 0.1290707244
H  H59  1  0.90300000  0.19260000  0.21800000  1.0 0.1201318614
H  H60  1  0.26740000  0.85120000  0.83740000  1.0 0.1201318614
H  H61  1  0.41680000  0.78800000  0.72140000  1.0 0.1201318614
H  H62  1  0.22400000  0.33550000  0.56960000  1.0 0.1201318614
H  H63  1  0.66880000  0.68640000  0.03460000  1.0 0.1290707244
H  H64  1  0.05740000  0.45740000  0.42010000  1.0 0.1201318614
H  H65  1  0.46940000  0.64300000  0.61040000  1.0 0.1201318614
H  H66  1  0.64450000  0.50860000  0.94530000  1.0 0.1122529046
H  H67  1  0.76930000  0.49990000  0.96450000  1.0 0.1290707244
H  H68  1  0.82310000  0.34520000  0.31240000  1.0 0.1201318614
H  H69  1  0.98910000  0.27630000  0.18600000  1.0 0.1122529046
H  H70  1  0.01420000  0.37350000  0.12800000  1.0 0.1290707244
H  H71  1  0.02950000  0.82720000  0.92450000  1.0 0.1201318614
H  H72  1  0.32260000  0.63840000  0.07330000  1.0 0.1201318614
H  H73  1  0.98870000  0.34510000  0.54200000  1.0 0.1201318614
H  H74  1  0.54440000  0.69220000  0.01620000  1.0 0.1201318614
H  H75  1  0.13310000  0.84720000  0.86350000  1.0 0.1201318614
H  H76  1  0.01100000  0.53930000  0.28790000  1.0 0.1290707244
H  H77  1  0.34260000  0.55690000  0.75370000  1.0 0.1201318614
H  H78  1  0.33500000  0.07140000  0.81570000  1.0 0.1201318614
H  H79  1  0.43350000  0.66700000  0.01780000  1.0 0.1201318614
H  H80  1  0.50610000  0.00340000  0.70850000  1.0 0.1290707244
H  H81  1  0.76630000  0.36630000  0.37970000  1.0 0.1122529046
H  H82  1  0.54620000  0.54490000  0.91150000  1.0 0.1201318614
H  H83  1  0.72980000  0.93250000  0.29120000  1.0 0.1122529046
H  H84  1  0.67930000  0.39030000  0.44880000  1.0 0.1290707244
H  H85  1  0.42920000  0.72870000  0.66650000  1.0 0.1122529046
H  H86  1  0.90500000  0.27270000  0.57860000  1.0 0.1201318614
H  H87  1  0.93710000  0.93430000  0.19770000  1.0 0.1290707244
H  H88  1  0.16580000  0.45350000  0.43370000  1.0 0.1201318614
H  H89  1  0.20060000  0.66570000  0.12340000  1.0 0.1201318614
H  H90  1  0.77220000  0.54960000  0.33860000  1.0 0.1290707244
H  H91  1  0.30570000  0.42640000  0.85510000  1.0 0.1290707244
H  H92  1  0.30090000  0.95200000  0.82800000  1.0 0.1201318614
H  H93  1  0.37520000  0.47650000  0.69590000  1.0 0.1201318614
H  H94  1  0.52670000  0.46340000  0.78860000  1.0 0.1290707244
H  H95  1  0.28940000  0.45130000  0.45050000  1.0 0.1201318614
H  H96  1  0.80180000  0.48660000  0.40610000  1.0 0.1201318614
H  H97  1  0.04150000  0.47910000  0.35430000  1.0 0.1201318614
H  H98  1  0.81030000  0.43540000  0.25340000  1.0 0.1201318614
H  H99  1  0.52920000  0.53940000  0.84330000  1.0 0.1201318614
H  H100  1  0.83460000  0.53260000  0.19510000  1.0 0.1201318614
H  H101  1  0.22840000  0.61480000  0.86900000  1.0 0.1201318614
H  H102  1  0.30930000  0.49830000  0.91220000  1.0 0.1201318614
H  H103  1  0.09630000  0.34200000  0.55330000  1.0 0.1201318614
H  H104  1  0.21020000  0.73130000  0.97080000  1.0 0.1201318614
H  H105  1  0.79910000  0.23500000  0.63350000  1.0 0.1201318614
H  H106  1  0.93740000  0.06090000  0.21330000  1.0 0.1201318614
H  H107  1  0.13100000  0.59470000  0.93470000  1.0 0.1201318614
H  H108  1  0.46530000  0.88280000  0.71800000  1.0 0.1201318614
H  H109  1  0.69870000  0.79120000  0.13380000  1.0 0.1290707244
H  H110  1  0.63020000  0.17460000  0.46500000  1.0 0.1201318614
H  H111  1  0.73930000  0.05180000  0.31260000  1.0 0.1201318614
H  H112  1  0.73910000  0.42600000  0.51830000  1.0 0.1201318614
H  H113  1  0.63320000  0.38820000  0.57530000  1.0 0.1201318614
H  H114  1  0.71330000  0.14820000  0.39510000  1.0 0.1201318614
H  H115  1  0.08630000  0.75660000  0.02220000  1.0 0.1201318614
H  H116  1  0.66010000  0.80030000  0.32500000  1.0 0.1290707244
C  C1  1  0.12450000  0.79490000  0.75313000  1.0 -0.2243967138
C  C2  1  0.71140000  0.18490000  0.18412000  1.0 -0.2312152356
C  C3  1  0.62220000  0.22330000  0.25294000  1.0 -0.2312152356
C  C4  1  0.78820000  0.63740000  0.45740000  1.0 -0.0998594934
C  C5  1  0.33530000  0.34910000  0.98410000  1.0 -0.0882362291
C  C6  1  0.98160000  0.56540000  0.55865000  1.0 -0.2312152356
C  C7  1  0.55790000  0.37350000  0.36085000  1.0 -0.0882362291
C  C8  1  0.73160000  0.59970000  0.48650000  1.0 -0.0274018943
C  C9  1  0.35040000  0.45450000  0.03720000  1.0 -0.150173766
C  C10  1  0.27560000  0.45980000  0.02600000  1.0 -0.0848351054
C  C11  1  0.17170000  0.70470000  0.69663000  1.0 -0.2143819712
C  C12  1  0.09670000  0.62890000  0.49560000  1.0 0.206854976
C  C13  1  0.04330000  0.67270000  0.81236000  1.0 -0.1390851272
C  C14  1  0.02770000  0.61400000  0.84693000  1.0 -0.0882362291
C  C15  1  0.15830000  0.85050000  0.72210000  1.0 0.206854976
C  C16  1  0.65220000  0.16970000  0.22080000  1.0 0.1122529046
C  C17  1  0.05620000  0.56420000  0.56860000  1.0 0.193818944
C  C18  1  0.13220000  0.72000000  0.74047000  1.0 0.1201318614
C  C19  1  0.92970000  0.21570000  0.08600000  1.0 -0.0998594934
C  C20  1  0.72560000  0.34050000  0.93730000  1.0 -0.1587792158
C  C21  1  0.02250000  0.63170000  0.48590000  1.0 -0.2365460925
C  C22  1  0.61930000  0.34900000  0.28332000  1.0 0.0585681053
C  C23  1  0.40970000  0.34550000  0.99540000  1.0 -0.150173766
C  C24  1  0.86780000  0.20390000  0.12250000  1.0 -0.1587792158
C  C25  1  0.03180000  0.46990000  0.68810000  1.0 -0.0998594934
C  C26  1  0.20240000  0.76090000  0.66708000  1.0 0.193818944
C  C27  1  0.41710000  0.39640000  0.02320000  1.0 0.0722345392
C  C28  1  0.63350000  0.42430000  0.27530000  1.0 -0.1314791747
C  C29  1  0.63630000  0.96730000  0.20340000  1.0 -0.0882362291
C  C30  1  0.58480000  0.56360000  0.18378000  1.0 -0.0274018943
C  C31  1  0.56920000  0.35770000  0.00640000  1.0 -0.2365460925
C  C32  1  0.64900000  0.29190000  0.24749000  1.0 0.193818944
C  C33  1  0.29130000  0.69840000  0.39210000  1.0 -0.0057555933
C  C34  1  0.53580000  0.00680000  0.26720000  1.0 -0.0882362291
C  C35  1  0.26110000  0.67230000  0.60362000  1.0 -0.1390851272
C  C36  1  0.58640000  0.61480000  0.21900000  1.0 0.579002849
C  C37  1  0.50210000  0.43040000  0.07010000  1.0 -0.2312152356
C  C38  1  0.22750000  0.04240000  0.72390000  1.0 -0.0882362291
C  C39  1  0.31270000  0.65870000  0.56189000  1.0 -0.0998594934
C  C40  1  0.96400000  0.59980000  0.51790000  1.0 0.1122529046
C  C41  1  0.58080000  0.32240000  0.32718000  1.0 -0.150173766
C  C42  1  0.73950000  0.25280000  0.17901000  1.0 0.193818944
C  C43  1  0.49830000  0.39460000  0.03380000  1.0 0.1201318614
C  C44  1  0.80700000  0.26630000  0.13889000  1.0 0.050768173
C  C45  1  0.14920000  0.70640000  0.42420000  1.0 -0.1390851272
C  C46  1  0.10480000  0.04040000  0.78050000  1.0 -0.0882362291
C  C47  1  0.82380000  0.56910000  0.53820000  1.0 -0.1587792158
C  C48  1  0.99390000  0.30290000  0.02189000  1.0 0.5709220387
C  C49  1  0.36190000  0.71700000  0.35460000  1.0 0.5373769321
C  C50  1  0.79840000  0.32410000  0.90740000  1.0 -0.0882362291
C  C51  1  0.17330000  0.46400000  0.65816000  1.0 -0.0998594934
C  C52  1  0.57700000  0.42970000  0.07930000  1.0 0.193818944
C  C53  1  0.64860000  0.55180000  0.14710000  1.0 -0.0998594934
C  C54  1  0.65820000  0.03770000  0.19690000  1.0 -0.1390851272
C  C55  1  0.07430000  0.52710000  0.61200000  1.0 0.050768173
C  C56  1  0.61290000  0.47310000  0.30980000  1.0 -0.1101053848
C  C57  1  0.51750000  0.52920000  0.18680000  1.0 -0.0998594934
C  C58  1  0.75010000  0.56970000  0.52770000  1.0 -0.0998594934
C  C59  1  0.15540000  0.50310000  0.61769000  1.0 -0.1314791747
C  C60  1  0.57150000  0.95070000  0.23820000  1.0 -0.0369431626
C  C61  1  0.11210000  0.44470000  0.69380000  1.0 -0.0274018943
C  C62  1  0.01330000  0.50760000  0.64860000  1.0 -0.150173766
C  C63  1  0.16850000  0.07560000  0.75850000  1.0 -0.045374383
C  C64  1  0.14980000  0.57780000  0.77240000  1.0 -0.1314791747
C  C65  1  0.51560000  0.48400000  0.15370000  1.0 -0.150173766
C  C66  1  0.13470000  0.51900000  0.80691000  1.0 -0.0998594934
C  C67  1  0.26860000  0.40380000  0.00020000  1.0 -0.0205008493
C  C68  1  0.16050000  0.93000000  0.73460000  1.0 0.050768173
C  C69  1  0.72140000  0.32650000  0.98380000  1.0 0.0585681053
C  C70  1  0.93140000  0.29080000  0.06483000  1.0 -0.0274018943
C  C71  1  0.80990000  0.34220000  0.11881000  1.0 -0.1207317196
C  C72  1  0.58010000  0.47330000  0.11610000  1.0 0.050768173
C  C73  1  0.64340000  0.35790000  0.01550000  1.0 0.1992264308
C  C74  1  0.54850000  0.87180000  0.24670000  1.0 0.5709220387
C  C75  1  0.64710000  0.50780000  0.11270000  1.0 -0.1207317196
C  C76  1  0.86450000  0.63530000  0.46790000  1.0 -0.150173766
C  C77  1  0.41110000  0.69680000  0.49120000  1.0 0.5709220387
C  C78  1  0.07230000  0.53820000  0.84521000  1.0 -0.0205008493
C  C79  1  0.88230000  0.60200000  0.50720000  1.0 0.0722345392
C  C80  1  0.79220000  0.28540000  0.99870000  1.0 -0.1207317196
C  C81  1  0.35220000  0.71510000  0.53587000  1.0 -0.0205008493
C  C82  1  0.62200000  0.09540000  0.22570000  1.0 0.0759359032
C  C83  1  0.10760000  0.65580000  0.77482000  1.0 0.0722345392
C  C84  1  0.21350000  0.72830000  0.39060000  1.0 -0.0882362291
C  C85  1  0.16330000  0.65720000  0.45960000  1.0 0.0585681053
C  C86  1  0.87000000  0.29290000  0.92170000  1.0 -0.0274018943
C  C87  1  0.57510000  0.44730000  0.35233000  1.0 -0.0205008493
C  C88  1  0.10310000  0.96550000  0.76980000  1.0 -0.1587792158
C  C89  1  0.13250000  0.39790000  0.73610000  1.0 0.579002849
C  C90  1  0.86990000  0.35470000  0.08043000  1.0 -0.0882362291
C  C91  1  0.65210000  0.59710000  0.47460000  1.0 0.600144845
C  C92  1  0.56020000  0.07980000  0.26160000  1.0 -0.150173766
C  C93  1  0.24590000  0.23400000  0.87000000  1.0 0.4978030838
C  C94  1  0.34250000  0.78710000  0.55230000  1.0 -0.0998594934
C  C95  1  0.22200000  0.97010000  0.71160000  1.0 -0.1390851272
C  C96  1  0.95150000  0.28520000  0.88990000  1.0 0.579002849
C  C97  1  0.25120000  0.74520000  0.62010000  1.0 0.0585681053
C  C98  1  0.18580000  0.41060000  0.98700000  1.0 0.5875246592
C  C99  1  0.24910000  0.61490000  0.45940000  1.0 -0.1101053848
C  C100  1  0.31210000  0.63710000  0.42540000  1.0 -0.0998594934
C  C101  1  0.29270000  0.80330000  0.59410000  1.0 -0.1390851272
C  C102  1  0.55100000  0.50220000  0.38960000  1.0 0.5875246592
C  C103  1  0.06160000  0.47450000  0.88430000  1.0 0.600144845
C  C104  1  0.17410000  0.15270000  0.77080000  1.0 0.600144845
C  C105  1  0.86600000  0.26980000  0.96780000  1.0 -0.0882362291
C  C106  1  0.37810000  0.23210000  0.66490000  1.0 0.3639851578
C  C107  1  0.87550000  0.20510000  0.24687000  1.0 -0.2243967138
C  C108  1  0.28860000  0.81510000  0.81588000  1.0 -0.2312152356
C  C109  1  0.37780000  0.77670000  0.74706000  1.0 -0.2312152356
C  C110  1  0.21180000  0.36260000  0.54260000  1.0 -0.0998594934
C  C111  1  0.66470000  0.65090000  0.01590000  1.0 -0.0882362291
C  C112  1  0.01840000  0.43460000  0.44135000  1.0 -0.2312152356
C  C113  1  0.44210000  0.62650000  0.63915000  1.0 -0.0882362291
C  C114  1  0.26840000  0.40030000  0.51350000  1.0 -0.0274018943
C  C115  1  0.64960000  0.54550000  0.96280000  1.0 -0.150173766
C  C116  1  0.72440000  0.54020000  0.97400000  1.0 -0.0882362291
C  C117  1  0.82830000  0.29530000  0.30337000  1.0 -0.2143819712
C  C118  1  0.90330000  0.37110000  0.50440000  1.0 0.206854976
C  C119  1  0.95670000  0.32730000  0.18764000  1.0 -0.1390851272
C  C120  1  0.97230000  0.38600000  0.15307000  1.0 -0.0882362291
C  C121  1  0.84170000  0.14950000  0.27790000  1.0 0.206854976
C  C122  1  0.34780000  0.83030000  0.77920000  1.0 0.1122529046
C  C123  1  0.94380000  0.43580000  0.43140000  1.0 0.193818944
C  C124  1  0.86780000  0.28000000  0.25953000  1.0 0.1201318614
C  C125  1  0.07030000  0.78430000  0.91400000  1.0 -0.0998594934
C  C126  1  0.27440000  0.65950000  0.06270000  1.0 -0.1587792158
C  C127  1  0.97750000  0.36830000  0.51410000  1.0 -0.2365460925
C  C128  1  0.38070000  0.65100000  0.71668000  1.0 0.0585681053
C  C129  1  0.59030000  0.65450000  0.00460000  1.0 -0.150173766
C  C130  1  0.13220000  0.79610000  0.87750000  1.0 -0.1587792158
C  C131  1  0.96820000  0.53010000  0.31190000  1.0 -0.0998594934
C  C132  1  0.79760000  0.23910000  0.33292000  1.0 0.193818944
C  C133  1  0.58290000  0.60360000  0.97680000  1.0 0.0722345392
C  C134  1  0.36650000  0.57570000  0.72470000  1.0 -0.1314791747
C  C135  1  0.36370000  0.03270000  0.79660000  1.0 -0.0882362291
C  C136  1  0.41520000  0.43640000  0.81622000  1.0 -0.0274018943
C  C137  1  0.43080000  0.64230000  0.99360000  1.0 -0.2365460925
C  C138  1  0.35100000  0.70810000  0.75251000  1.0 0.193818944
C  C139  1  0.70870000  0.30160000  0.60790000  1.0 -0.0057555933
C  C140  1  0.46420000  0.99320000  0.73280000  1.0 -0.0882362291
C  C141  1  0.73890000  0.32770000  0.39638000  1.0 -0.1390851272
C  C142  1  0.41360000  0.38520000  0.78100000  1.0 0.579002849
C  C143  1  0.49790000  0.56960000  0.92990000  1.0 -0.2312152356
C  C144  1  0.77250000  0.95760000  0.27610000  1.0 -0.0882362291
C  C145  1  0.68730000  0.34130000  0.43811000  1.0 -0.0998594934
C  C146  1  0.03600000  0.40020000  0.48210000  1.0 0.1201318614
C  C147  1  0.41920000  0.67760000  0.67282000  1.0 -0.150173766
C  C148  1  0.26050000  0.74720000  0.82099000  1.0 0.193818944
C  C149  1  0.50170000  0.60540000  0.96620000  1.0 0.1201318614
C  C150  1  0.19300000  0.73370000  0.86111000  1.0 0.050768173
C  C151  1  0.85080000  0.29360000  0.57580000  1.0 -0.1390851272
C  C152  1  0.89520000  0.95960000  0.21950000  1.0 -0.0882362291
C  C153  1  0.17620000  0.43090000  0.46180000  1.0 -0.1587792158
C  C154  1  0.00610000  0.69710000  0.97811000  1.0 0.5709220387
C  C155  1  0.63810000  0.28300000  0.64540000  1.0 0.5373769321
C  C156  1  0.20160000  0.67590000  0.09260000  1.0 -0.0882362291
C  C157  1  0.82670000  0.53600000  0.34184000  1.0 -0.0998594934
C  C158  1  0.42300000  0.57030000  0.92070000  1.0 0.193818944
C  C159  1  0.35140000  0.44820000  0.85290000  1.0 -0.0998594934
C  C160  1  0.34180000  0.96230000  0.80310000  1.0 -0.1390851272
C  C161  1  0.92570000  0.47290000  0.38800000  1.0 0.050768173
C  C162  1  0.38710000  0.52690000  0.69020000  1.0 -0.1101053848
C  C163  1  0.48250000  0.47080000  0.81320000  1.0 -0.0998594934
C  C164  1  0.24990000  0.43030000  0.47230000  1.0 -0.0998594934
C  C165  1  0.84460000  0.49690000  0.38231000  1.0 -0.1314791747
C  C166  1  0.42850000  0.04930000  0.76180000  1.0 -0.0369431626
C  C167  1  0.88790000  0.55530000  0.30620000  1.0 -0.0274018943
C  C168  1  0.98670000  0.49240000  0.35140000  1.0 -0.150173766
C  C169  1  0.83150000  0.92440000  0.24150000  1.0 -0.045374383
C  C170  1  0.85020000  0.42220000  0.22760000  1.0 -0.1314791747
C  C171  1  0.48440000  0.51600000  0.84630000  1.0 -0.150173766
C  C172  1  0.86530000  0.48100000  0.19309000  1.0 -0.0998594934
C  C173  1  0.73140000  0.59620000  0.99980000  1.0 -0.0205008493
C  C174  1  0.83950000  0.07000000  0.26540000  1.0 0.050768173
C  C175  1  0.27860000  0.67350000  0.01620000  1.0 0.0585681053
C  C176  1  0.06860000  0.70920000  0.93517000  1.0 -0.0274018943
C  C177  1  0.19010000  0.65780000  0.88119000  1.0 -0.1207317196
C  C178  1  0.41990000  0.52670000  0.88390000  1.0 0.050768173
C  C179  1  0.35660000  0.64210000  0.98450000  1.0 0.1992264308
C  C180  1  0.45150000  0.12820000  0.75330000  1.0 0.5709220387
C  C181  1  0.35290000  0.49220000  0.88730000  1.0 -0.1207317196
C  C182  1  0.13550000  0.36470000  0.53210000  1.0 -0.150173766
C  C183  1  0.58890000  0.30320000  0.50880000  1.0 0.5709220387
C  C184  1  0.92770000  0.46180000  0.15479000  1.0 -0.0205008493
C  C185  1  0.11770000  0.39800000  0.49280000  1.0 0.0722345392
C  C186  1  0.20780000  0.71460000  0.00130000  1.0 -0.1207317196
C  C187  1  0.64780000  0.28490000  0.46413000  1.0 -0.0205008493
C  C188  1  0.37800000  0.90460000  0.77430000  1.0 0.0759359032
C  C189  1  0.89240000  0.34420000  0.22518000  1.0 0.0722345392
C  C190  1  0.78650000  0.27170000  0.60940000  1.0 -0.0848351054
C  C191  1  0.83670000  0.34280000  0.54040000  1.0 0.0585681053
C  C192  1  0.13000000  0.70710000  0.07830000  1.0 -0.0274018943
C  C193  1  0.42490000  0.55270000  0.64767000  1.0 -0.0205008493
C  C194  1  0.89690000  0.03450000  0.23020000  1.0 -0.1587792158
C  C195  1  0.86750000  0.60210000  0.26390000  1.0 0.579002849
C  C196  1  0.13010000  0.64530000  0.91957000  1.0 -0.0882362291
C  C197  1  0.34790000  0.40290000  0.52540000  1.0 0.600144845
C  C198  1  0.43980000  0.92020000  0.73840000  1.0 -0.150173766
C  C199  1  0.75410000  0.76600000  0.13000000  1.0 0.4978030838
C  C200  1  0.65750000  0.21290000  0.44770000  1.0 -0.0998594934
C  C201  1  0.77800000  0.02990000  0.28840000  1.0 -0.1390851272
C  C202  1  0.04850000  0.71480000  0.11010000  1.0 0.579002849
C  C203  1  0.74880000  0.25480000  0.37990000  1.0 0.0585681053
C  C204  1  0.81420000  0.58940000  0.01300000  1.0 0.5875246592
C  C205  1  0.75090000  0.38510000  0.54060000  1.0 -0.1101053848
C  C206  1  0.68790000  0.36290000  0.57460000  1.0 -0.0998594934
C  C207  1  0.70730000  0.19670000  0.40590000  1.0 -0.1390851272
C  C208  1  0.44900000  0.49780000  0.61040000  1.0 0.5875246592
C  C209  1  0.93840000  0.52550000  0.11570000  1.0 0.600144845
C  C210  1  0.82590000  0.84730000  0.22920000  1.0 0.600144845
C  C211  1  0.13400000  0.73020000  0.03220000  1.0 -0.0882362291
C  C212  1  0.62190000  0.76790000  0.33510000  1.0 0.3639851578
N  N1  1  0.19640000  0.83400000  0.67964000  1.0 -0.3235596947
N  N2  1  0.11520000  0.59700000  0.53673000  1.0 -0.3499165036
N  N3  1  0.64920000  0.39090000  0.05210000  1.0 -0.3499165036
N  N4  1  0.70820000  0.30860000  0.20939000  1.0 -0.3706947647
N  N5  1  0.80360000  0.16600000  0.32036000  1.0 -0.3235596947
N  N6  1  0.88480000  0.40300000  0.46327000  1.0 -0.3499165036
N  N7  1  0.35080000  0.60910000  0.94790000  1.0 -0.3499165036
N  N8  1  0.29180000  0.69140000  0.79061000  1.0 -0.3706947647
O  O1  1  0.43630000  0.62840000  0.48167000  1.0 -0.5698848747
O  O2  1  0.04800000  0.24460000  0.00743000  1.0 -0.5170748763
O  O3  1  0.38340000  0.27620000  0.69221000  1.0 -0.4970764451
O  O4  1  0.01850000  0.26070000  0.90409000  1.0 -0.5871673606
O  O5  1  0.22280000  0.26760000  0.83597000  1.0 -0.5170748763
O  O6  1  0.98780000  0.37210000  0.00011000  1.0 -0.6089086316
O  O7  1  0.48760000  0.86410000  0.27929000  1.0 -0.4942403368
O  O8  1  0.52140000  0.63210000  0.24826000  1.0 -0.480884888
O  O9  1  0.58910000  0.81800000  0.22228000  1.0 -0.5996328972
O  O10  1  0.20520000  0.37750000  0.73876000  1.0 -0.5516068818
O  O11  1  0.08680000  0.40260000  0.87663000  1.0 -0.5808916472
O  O12  1  0.02430000  0.49670000  0.92183000  1.0 -0.5698848747
O  O13  1  0.43560000  0.69640000  0.35954000  1.0 -0.4942403368
O  O14  1  0.57480000  0.56520000  0.38009000  1.0 -0.5405780159
O  O15  1  0.11660000  0.18670000  0.80151000  1.0 -0.5516068818
O  O16  1  0.43010000  0.75560000  0.46436000  1.0 -0.5065286241
O  O17  1  0.12850000  0.46370000  0.00090000  1.0 -0.5405780159
O  O18  1  0.34790000  0.75000000  0.31840000  1.0 -0.4466651015
O  O19  1  0.18650000  0.36070000  0.96157000  1.0 -0.5516068818
O  O20  1  0.65140000  0.63620000  0.21559000  1.0 -0.5405780159
O  O21  1  0.95300000  0.30900000  0.84927000  1.0 -0.4970764451
O  O22  1  0.51330000  0.47780000  0.42738000  1.0 -0.5618959747
O  O23  1  0.62280000  0.53670000  0.48893000  1.0 -0.5618959747
O  O24  1  0.07180000  0.38140000  0.76623000  1.0 -0.5318160139
O  O25  1  0.41950000  0.22710000  0.62472000  1.0 -0.4466651015
O  O26  1  0.62230000  0.65600000  0.44940000  1.0 -0.5405780159
O  O27  1  0.20470000  0.22930000  0.90884000  1.0 -0.4441234998
O  O28  1  0.23350000  0.18550000  0.74944000  1.0 -0.5996328972
O  O29  1  0.56370000  0.37160000  0.51833000  1.0 -0.5698848747
O  O30  1  0.95200000  0.75540000  0.99257000  1.0 -0.5170748763
O  O31  1  0.61660000  0.72380000  0.30779000  1.0 -0.4942403368
O  O32  1  0.98150000  0.73930000  0.09591000  1.0 -0.5871673606
O  O33  1  0.77720000  0.73240000  0.16403000  1.0 -0.5170748763
O  O34  1  0.01220000  0.62790000  0.99989000  1.0 -0.6089086316
O  O35  1  0.51240000  0.13590000  0.72071000  1.0 -0.4942403368
O  O36  1  0.47860000  0.36790000  0.75174000  1.0 -0.480884888
O  O37  1  0.41090000  0.18200000  0.77772000  1.0 -0.5996328972
O  O38  1  0.79480000  0.62250000  0.26124000  1.0 -0.5516068818
O  O39  1  0.91320000  0.59740000  0.12337000  1.0 -0.5808916472
O  O40  1  0.97570000  0.50330000  0.07817000  1.0 -0.5698848747
O  O41  1  0.56440000  0.30360000  0.64046000  1.0 -0.4970764451
O  O42  1  0.42520000  0.43480000  0.61991000  1.0 -0.5405780159
O  O43  1  0.88340000  0.81330000  0.19849000  1.0 -0.5516068818
O  O44  1  0.56990000  0.24440000  0.53564000  1.0 -0.5065286241
O  O45  1  0.87150000  0.53630000  0.99910000  1.0 -0.5405780159
O  O46  1  0.65210000  0.25000000  0.68160000  1.0 -0.4466651015
O  O47  1  0.81350000  0.63930000  0.03843000  1.0 -0.5516068818
O  O48  1  0.34860000  0.36380000  0.78441000  1.0 -0.5405780159
O  O49  1  0.04700000  0.69100000  0.15073000  1.0 -0.4970764451
O  O50  1  0.48670000  0.52220000  0.57262000  1.0 -0.5618959747
O  O51  1  0.37720000  0.46330000  0.51107000  1.0 -0.5618959747
O  O52  1  0.92820000  0.61860000  0.23377000  1.0 -0.5318160139
O  O53  1  0.58050000  0.77290000  0.37528000  1.0 -0.4466651015
O  O54  1  0.37770000  0.34400000  0.55060000  1.0 -0.5405780159
O  O55  1  0.79530000  0.77070000  0.09116000  1.0 -0.4441234998
O  O56  1  0.76650000  0.81450000  0.25056000  1.0 -0.5996328972
