# DDEC6 charges by PACMAN v1.1 (https://github.com/mtap-research/PACMAN-charge/)
data_GINSII_ASR_pacman
_symmetry_space_group_name_H-M   'P 1'
_cell_length_a   33.36410000
_cell_length_b   33.36410000
_cell_length_c   33.36410000
_cell_angle_alpha   60.00000000
_cell_angle_beta   60.00000000
_cell_angle_gamma   60.00000000
_symmetry_Int_Tables_number   1
_chemical_formula_structural   CuH20(C9O)4
_chemical_formula_sum   'Cu24 H480 C864 O96'
_cell_volume   26261.72472718
_cell_formula_units_Z   24
loop_
 _symmetry_equiv_pos_site_id
 _symmetry_equiv_pos_as_xyz
  1  'x, y, z'
loop_
 _atom_site_type_symbol
 _atom_site_label
 _atom_site_symmetry_multiplicity
 _atom_site_fract_x
 _atom_site_fract_y
 _atom_site_fract_z
 _atom_site_occupancy
 _atom_site_charge
Cu  Cu1  1  0.18640000  0.50000000  0.81360000  1.0 0.8294144569
Cu  Cu2  1  0.25900000  0.50000000  0.74100000  1.0 0.8672608716
Cu  Cu3  1  0.81360000  0.50000000  0.18640000  1.0 0.8351762807
Cu  Cu4  1  0.74100000  0.50000000  0.25900000  1.0 0.8643015142
Cu  Cu5  1  0.50000000  0.18640000  0.50000000  1.0 0.8294144569
Cu  Cu6  1  0.50000000  0.25900000  0.50000000  1.0 0.8672608716
Cu  Cu7  1  0.50000000  0.81360000  0.50000000  1.0 0.8294144569
Cu  Cu8  1  0.50000000  0.74100000  0.50000000  1.0 0.8672608716
Cu  Cu9  1  0.50000000  0.81360000  0.18640000  1.0 0.8294144569
Cu  Cu10  1  0.50000000  0.74100000  0.25900000  1.0 0.8672608716
Cu  Cu11  1  0.50000000  0.18640000  0.81360000  1.0 0.8294144569
Cu  Cu12  1  0.50000000  0.25900000  0.74100000  1.0 0.8643015142
Cu  Cu13  1  0.18640000  0.50000000  0.50000000  1.0 0.8294144569
Cu  Cu14  1  0.25900000  0.50000000  0.50000000  1.0 0.8672608716
Cu  Cu15  1  0.81360000  0.50000000  0.50000000  1.0 0.8294144569
Cu  Cu16  1  0.74100000  0.50000000  0.50000000  1.0 0.8643015142
Cu  Cu17  1  0.81360000  0.18640000  0.50000000  1.0 0.8294144569
Cu  Cu18  1  0.74100000  0.25900000  0.50000000  1.0 0.8672608716
Cu  Cu19  1  0.18640000  0.81360000  0.50000000  1.0 0.8294144569
Cu  Cu20  1  0.25900000  0.74100000  0.50000000  1.0 0.8672608716
Cu  Cu21  1  0.50000000  0.50000000  0.18640000  1.0 0.8294144569
Cu  Cu22  1  0.50000000  0.50000000  0.25900000  1.0 0.8672608716
Cu  Cu23  1  0.50000000  0.50000000  0.81360000  1.0 0.8294144569
Cu  Cu24  1  0.50000000  0.50000000  0.74100000  1.0 0.8672608716
H  H1  1  0.08954000  0.64620000  0.77246000  1.0 0.1386646213
H  H2  1  0.04374000  0.71614000  0.66258000  1.0 0.0916435151
H  H3  1  0.98122000  0.73322000  0.63336000  1.0 0.0961260255
H  H4  1  0.89533000  0.77329000  0.67343000  1.0 0.0916435151
H  H5  1  0.87192000  0.79628000  0.74274000  1.0 0.0916435151
H  H6  1  0.08895000  0.72297000  0.77653000  1.0 0.0916435151
H  H7  1  0.06555000  0.74597000  0.84583000  1.0 0.1201615401
H  H8  1  0.97963000  0.78605000  0.88591000  1.0 0.1141351639
H  H9  1  0.91713000  0.80313000  0.85667000  1.0 0.0916435151
H  H10  1  0.77246000  0.49180000  0.08954000  1.0 0.1386646213
H  H11  1  0.66258000  0.57754000  0.04374000  1.0 0.0916435151
H  H12  1  0.63336000  0.65220000  0.98122000  1.0 0.0961260255
H  H13  1  0.67343000  0.65795000  0.89533000  1.0 0.0916435151
H  H14  1  0.74274000  0.58906000  0.87192000  1.0 0.0916435151
H  H15  1  0.77653000  0.41155000  0.08895000  1.0 0.0916435151
H  H16  1  0.84583000  0.34265000  0.06555000  1.0 0.1201615401
H  H17  1  0.88591000  0.34841000  0.97963000  1.0 0.1141351639
H  H18  1  0.85667000  0.42307000  0.91713000  1.0 0.0916435151
H  H19  1  0.64620000  0.08954000  0.49180000  1.0 0.1386646213
H  H20  1  0.71614000  0.04374000  0.57754000  1.0 0.0916435151
H  H21  1  0.73322000  0.98122000  0.65220000  1.0 0.0961260255
H  H22  1  0.77329000  0.89533000  0.65795000  1.0 0.0916435151
H  H23  1  0.79628000  0.87192000  0.58906000  1.0 0.0916435151
H  H24  1  0.72297000  0.08895000  0.41155000  1.0 0.0916435151
H  H25  1  0.74597000  0.06555000  0.34265000  1.0 0.1201615401
H  H26  1  0.78605000  0.97963000  0.34841000  1.0 0.1141351639
H  H27  1  0.80313000  0.91713000  0.42307000  1.0 0.0916435151
H  H28  1  0.49180000  0.77246000  0.64620000  1.0 0.1386646213
H  H29  1  0.57754000  0.66258000  0.71614000  1.0 0.0916435151
H  H30  1  0.65220000  0.63336000  0.73322000  1.0 0.0961260255
H  H31  1  0.65795000  0.67343000  0.77329000  1.0 0.0916435151
H  H32  1  0.58906000  0.74274000  0.79628000  1.0 0.0916435151
H  H33  1  0.41155000  0.77653000  0.72297000  1.0 0.0916435151
H  H34  1  0.34265000  0.84583000  0.74597000  1.0 0.1201615401
H  H35  1  0.34841000  0.88591000  0.78605000  1.0 0.1141351639
H  H36  1  0.42307000  0.85667000  0.80313000  1.0 0.0916435151
H  H37  1  0.64620000  0.77246000  0.08954000  1.0 0.1386646213
H  H38  1  0.71614000  0.66258000  0.04374000  1.0 0.0916435151
H  H39  1  0.73322000  0.63336000  0.98122000  1.0 0.0961260255
H  H40  1  0.77329000  0.67343000  0.89533000  1.0 0.0916435151
H  H41  1  0.79628000  0.74274000  0.87192000  1.0 0.0916435151
H  H42  1  0.72297000  0.77653000  0.08895000  1.0 0.0916435151
H  H43  1  0.74597000  0.84583000  0.06555000  1.0 0.1201615401
H  H44  1  0.78605000  0.88591000  0.97963000  1.0 0.1141351639
H  H45  1  0.80313000  0.85667000  0.91713000  1.0 0.0916435151
H  H46  1  0.49180000  0.08954000  0.77246000  1.0 0.1386646213
H  H47  1  0.57754000  0.04374000  0.66258000  1.0 0.0916435151
H  H48  1  0.65220000  0.98122000  0.63336000  1.0 0.0961260255
H  H49  1  0.65795000  0.89533000  0.67343000  1.0 0.0916435151
H  H50  1  0.58906000  0.87192000  0.74274000  1.0 0.0916435151
H  H51  1  0.41155000  0.08895000  0.77653000  1.0 0.0916435151
H  H52  1  0.34265000  0.06555000  0.84583000  1.0 0.1201615401
H  H53  1  0.34841000  0.97963000  0.88591000  1.0 0.1141351639
H  H54  1  0.42307000  0.91713000  0.85667000  1.0 0.0916435151
H  H55  1  0.08954000  0.49180000  0.64620000  1.0 0.1386646213
H  H56  1  0.04374000  0.57754000  0.71614000  1.0 0.0916435151
H  H57  1  0.98122000  0.65220000  0.73322000  1.0 0.0961260255
H  H58  1  0.89533000  0.65795000  0.77329000  1.0 0.0916435151
H  H59  1  0.87192000  0.58906000  0.79628000  1.0 0.0916435151
H  H60  1  0.08895000  0.41155000  0.72297000  1.0 0.0916435151
H  H61  1  0.06555000  0.34265000  0.74597000  1.0 0.1201615401
H  H62  1  0.97963000  0.34841000  0.78605000  1.0 0.1141351639
H  H63  1  0.91713000  0.42307000  0.80313000  1.0 0.0916435151
H  H64  1  0.77246000  0.64620000  0.49180000  1.0 0.1386646213
H  H65  1  0.66258000  0.71614000  0.57754000  1.0 0.0916435151
H  H66  1  0.63336000  0.73322000  0.65220000  1.0 0.0961260255
H  H67  1  0.67343000  0.77329000  0.65795000  1.0 0.0916435151
H  H68  1  0.74274000  0.79628000  0.58906000  1.0 0.0916435151
H  H69  1  0.77653000  0.72297000  0.41155000  1.0 0.0916435151
H  H70  1  0.84583000  0.74597000  0.34265000  1.0 0.1201615401
H  H71  1  0.88591000  0.78605000  0.34841000  1.0 0.1141351639
H  H72  1  0.85667000  0.80313000  0.42307000  1.0 0.0916435151
H  H73  1  0.77246000  0.08954000  0.64620000  1.0 0.1386646213
H  H74  1  0.66258000  0.04374000  0.71614000  1.0 0.0916435151
H  H75  1  0.63336000  0.98122000  0.73322000  1.0 0.0961260255
H  H76  1  0.67343000  0.89533000  0.77329000  1.0 0.0916435151
H  H77  1  0.74274000  0.87192000  0.79628000  1.0 0.0916435151
H  H78  1  0.77653000  0.08895000  0.72297000  1.0 0.0916435151
H  H79  1  0.84583000  0.06555000  0.74597000  1.0 0.1201615401
H  H80  1  0.88591000  0.97963000  0.78605000  1.0 0.1141351639
H  H81  1  0.85667000  0.91713000  0.80313000  1.0 0.0916435151
H  H82  1  0.08954000  0.77246000  0.49180000  1.0 0.1386646213
H  H83  1  0.04374000  0.66258000  0.57754000  1.0 0.0916435151
H  H84  1  0.98122000  0.63336000  0.65220000  1.0 0.0961260255
H  H85  1  0.89533000  0.67343000  0.65795000  1.0 0.0916435151
H  H86  1  0.87192000  0.74274000  0.58906000  1.0 0.0916435151
H  H87  1  0.08895000  0.77653000  0.41155000  1.0 0.0916435151
H  H88  1  0.06555000  0.84583000  0.34265000  1.0 0.1201615401
H  H89  1  0.97963000  0.88591000  0.34841000  1.0 0.1141351639
H  H90  1  0.91713000  0.85667000  0.42307000  1.0 0.0916435151
H  H91  1  0.49180000  0.64620000  0.08954000  1.0 0.1386646213
H  H92  1  0.57754000  0.71614000  0.04374000  1.0 0.0916435151
H  H93  1  0.65220000  0.73322000  0.98122000  1.0 0.0961260255
H  H94  1  0.65795000  0.77329000  0.89533000  1.0 0.0916435151
H  H95  1  0.58906000  0.79628000  0.87192000  1.0 0.0916435151
H  H96  1  0.41155000  0.72297000  0.08895000  1.0 0.0916435151
H  H97  1  0.34265000  0.74597000  0.06555000  1.0 0.1201615401
H  H98  1  0.34841000  0.78605000  0.97963000  1.0 0.1141351639
H  H99  1  0.42307000  0.80313000  0.91713000  1.0 0.0916435151
H  H100  1  0.64620000  0.49180000  0.77246000  1.0 0.1386646213
H  H101  1  0.71614000  0.57754000  0.66258000  1.0 0.0916435151
H  H102  1  0.73322000  0.65220000  0.63336000  1.0 0.0961260255
H  H103  1  0.77329000  0.65795000  0.67343000  1.0 0.0916435151
H  H104  1  0.79628000  0.58906000  0.74274000  1.0 0.0916435151
H  H105  1  0.72297000  0.41155000  0.77653000  1.0 0.0916435151
H  H106  1  0.74597000  0.34265000  0.84583000  1.0 0.1201615401
H  H107  1  0.78605000  0.34841000  0.88591000  1.0 0.1141351639
H  H108  1  0.80313000  0.42307000  0.85667000  1.0 0.0916435151
H  H109  1  0.91046000  0.50820000  0.22754000  1.0 0.1386646213
H  H110  1  0.95626000  0.42246000  0.33742000  1.0 0.0916435151
H  H111  1  0.01878000  0.34780000  0.36664000  1.0 0.0961260255
H  H112  1  0.10467000  0.34205000  0.32657000  1.0 0.0916435151
H  H113  1  0.12808000  0.41094000  0.25726000  1.0 0.0916435151
H  H114  1  0.91105000  0.58845000  0.22347000  1.0 0.0916435151
H  H115  1  0.93445000  0.65735000  0.15417000  1.0 0.1201615401
H  H116  1  0.02037000  0.65159000  0.11409000  1.0 0.1141351639
H  H117  1  0.08287000  0.57693000  0.14333000  1.0 0.0916435151
H  H118  1  0.22754000  0.35380000  0.91046000  1.0 0.1386646213
H  H119  1  0.33742000  0.28386000  0.95626000  1.0 0.0916435151
H  H120  1  0.36664000  0.26678000  0.01878000  1.0 0.0961260255
H  H121  1  0.32657000  0.22671000  0.10467000  1.0 0.0916435151
H  H122  1  0.25726000  0.20372000  0.12808000  1.0 0.0916435151
H  H123  1  0.22347000  0.27703000  0.91105000  1.0 0.0916435151
H  H124  1  0.15417000  0.25403000  0.93445000  1.0 0.1201615401
H  H125  1  0.11409000  0.21395000  0.02037000  1.0 0.1141351639
H  H126  1  0.14333000  0.19687000  0.08287000  1.0 0.0916435151
H  H127  1  0.35380000  0.22754000  0.50820000  1.0 0.1386646213
H  H128  1  0.28386000  0.33742000  0.42246000  1.0 0.0916435151
H  H129  1  0.26678000  0.36664000  0.34780000  1.0 0.0961260255
H  H130  1  0.22671000  0.32657000  0.34205000  1.0 0.0916435151
H  H131  1  0.20372000  0.25726000  0.41094000  1.0 0.0916435151
H  H132  1  0.27703000  0.22347000  0.58845000  1.0 0.0916435151
H  H133  1  0.25403000  0.15417000  0.65735000  1.0 0.1201615401
H  H134  1  0.21395000  0.11409000  0.65159000  1.0 0.1141351639
H  H135  1  0.19687000  0.14333000  0.57693000  1.0 0.0916435151
H  H136  1  0.50820000  0.91046000  0.35380000  1.0 0.1386646213
H  H137  1  0.42246000  0.95626000  0.28386000  1.0 0.0916435151
H  H138  1  0.34780000  0.01878000  0.26678000  1.0 0.0961260255
H  H139  1  0.34205000  0.10467000  0.22671000  1.0 0.0916435151
H  H140  1  0.41094000  0.12808000  0.20372000  1.0 0.0916435151
H  H141  1  0.58845000  0.91105000  0.27703000  1.0 0.0916435151
H  H142  1  0.65735000  0.93445000  0.25403000  1.0 0.1201615401
H  H143  1  0.65159000  0.02037000  0.21395000  1.0 0.1141351639
H  H144  1  0.57693000  0.08287000  0.19687000  1.0 0.0916435151
H  H145  1  0.35380000  0.50820000  0.91046000  1.0 0.1386646213
H  H146  1  0.28386000  0.42246000  0.95626000  1.0 0.0916435151
H  H147  1  0.26678000  0.34780000  0.01878000  1.0 0.0961260255
H  H148  1  0.22671000  0.34205000  0.10467000  1.0 0.0916435151
H  H149  1  0.20372000  0.41094000  0.12808000  1.0 0.0916435151
H  H150  1  0.27703000  0.58845000  0.91105000  1.0 0.0916435151
H  H151  1  0.25403000  0.65735000  0.93445000  1.0 0.1201615401
H  H152  1  0.21395000  0.65159000  0.02037000  1.0 0.1141351639
H  H153  1  0.19687000  0.57693000  0.08287000  1.0 0.0916435151
H  H154  1  0.50820000  0.35380000  0.22754000  1.0 0.1386646213
H  H155  1  0.42246000  0.28386000  0.33742000  1.0 0.0916435151
H  H156  1  0.34780000  0.26678000  0.36664000  1.0 0.0961260255
H  H157  1  0.34205000  0.22671000  0.32657000  1.0 0.0916435151
H  H158  1  0.41094000  0.20372000  0.25726000  1.0 0.0916435151
H  H159  1  0.58845000  0.27703000  0.22347000  1.0 0.0916435151
H  H160  1  0.65735000  0.25403000  0.15417000  1.0 0.1201615401
H  H161  1  0.65159000  0.21395000  0.11409000  1.0 0.1141351639
H  H162  1  0.57693000  0.19687000  0.14333000  1.0 0.0916435151
H  H163  1  0.91046000  0.22754000  0.35380000  1.0 0.1386646213
H  H164  1  0.95626000  0.33742000  0.28386000  1.0 0.0916435151
H  H165  1  0.01878000  0.36664000  0.26678000  1.0 0.0961260255
H  H166  1  0.10467000  0.32657000  0.22671000  1.0 0.0916435151
H  H167  1  0.12808000  0.25726000  0.20372000  1.0 0.0916435151
H  H168  1  0.91105000  0.22347000  0.27703000  1.0 0.0916435151
H  H169  1  0.93445000  0.15417000  0.25403000  1.0 0.1201615401
H  H170  1  0.02037000  0.11409000  0.21395000  1.0 0.1141351639
H  H171  1  0.08287000  0.14333000  0.19687000  1.0 0.0916435151
H  H172  1  0.22754000  0.91046000  0.50820000  1.0 0.1386646213
H  H173  1  0.33742000  0.95626000  0.42246000  1.0 0.0916435151
H  H174  1  0.36664000  0.01878000  0.34780000  1.0 0.0961260255
H  H175  1  0.32657000  0.10467000  0.34205000  1.0 0.0916435151
H  H176  1  0.25726000  0.12808000  0.41094000  1.0 0.0916435151
H  H177  1  0.22347000  0.91105000  0.58845000  1.0 0.0916435151
H  H178  1  0.15417000  0.93445000  0.65735000  1.0 0.1201615401
H  H179  1  0.11409000  0.02037000  0.65159000  1.0 0.1141351639
H  H180  1  0.14333000  0.08287000  0.57693000  1.0 0.0916435151
H  H181  1  0.22754000  0.50820000  0.35380000  1.0 0.1386646213
H  H182  1  0.33742000  0.42246000  0.28386000  1.0 0.0916435151
H  H183  1  0.36664000  0.34780000  0.26678000  1.0 0.0961260255
H  H184  1  0.32657000  0.34205000  0.22671000  1.0 0.0916435151
H  H185  1  0.25726000  0.41094000  0.20372000  1.0 0.0916435151
H  H186  1  0.22347000  0.58845000  0.27703000  1.0 0.0916435151
H  H187  1  0.15417000  0.65735000  0.25403000  1.0 0.1201615401
H  H188  1  0.11409000  0.65159000  0.21395000  1.0 0.1141351639
H  H189  1  0.14333000  0.57693000  0.19687000  1.0 0.0916435151
H  H190  1  0.91046000  0.35380000  0.50820000  1.0 0.1386646213
H  H191  1  0.95626000  0.28386000  0.42246000  1.0 0.0916435151
H  H192  1  0.01878000  0.26678000  0.34780000  1.0 0.0961260255
H  H193  1  0.10467000  0.22671000  0.34205000  1.0 0.0916435151
H  H194  1  0.12808000  0.20372000  0.41094000  1.0 0.0916435151
H  H195  1  0.91105000  0.27703000  0.58845000  1.0 0.0916435151
H  H196  1  0.93445000  0.25403000  0.65735000  1.0 0.1201615401
H  H197  1  0.02037000  0.21395000  0.65159000  1.0 0.1141351639
H  H198  1  0.08287000  0.19687000  0.57693000  1.0 0.0916435151
H  H199  1  0.50820000  0.22754000  0.91046000  1.0 0.1386646213
H  H200  1  0.42246000  0.33742000  0.95626000  1.0 0.0916435151
H  H201  1  0.34780000  0.36664000  0.01878000  1.0 0.0961260255
H  H202  1  0.34205000  0.32657000  0.10467000  1.0 0.0916435151
H  H203  1  0.41094000  0.25726000  0.12808000  1.0 0.0916435151
H  H204  1  0.58845000  0.22347000  0.91105000  1.0 0.0916435151
H  H205  1  0.65735000  0.15417000  0.93445000  1.0 0.1201615401
H  H206  1  0.65159000  0.11409000  0.02037000  1.0 0.1141351639
H  H207  1  0.57693000  0.14333000  0.08287000  1.0 0.0916435151
H  H208  1  0.35380000  0.91046000  0.22754000  1.0 0.1386646213
H  H209  1  0.28386000  0.95626000  0.33742000  1.0 0.0916435151
H  H210  1  0.26678000  0.01878000  0.36664000  1.0 0.0961260255
H  H211  1  0.22671000  0.10467000  0.32657000  1.0 0.0916435151
H  H212  1  0.20372000  0.12808000  0.25726000  1.0 0.0916435151
H  H213  1  0.27703000  0.91105000  0.22347000  1.0 0.0916435151
H  H214  1  0.25403000  0.93445000  0.15417000  1.0 0.1201615401
H  H215  1  0.21395000  0.02037000  0.11409000  1.0 0.1141351639
H  H216  1  0.19687000  0.08287000  0.14333000  1.0 0.0916435151
H  H217  1  0.91046000  0.35380000  0.22754000  1.0 0.1386646213
H  H218  1  0.95626000  0.28386000  0.33742000  1.0 0.0916435151
H  H219  1  0.01878000  0.26678000  0.36664000  1.0 0.0961260255
H  H220  1  0.10467000  0.22671000  0.32657000  1.0 0.0916435151
H  H221  1  0.12808000  0.20372000  0.25726000  1.0 0.0916435151
H  H222  1  0.91105000  0.27703000  0.22347000  1.0 0.0916435151
H  H223  1  0.93445000  0.25403000  0.15417000  1.0 0.1201615401
H  H224  1  0.02037000  0.21395000  0.11409000  1.0 0.1141351639
H  H225  1  0.08287000  0.19687000  0.14333000  1.0 0.0916435151
H  H226  1  0.22754000  0.50820000  0.91046000  1.0 0.1386646213
H  H227  1  0.33742000  0.42246000  0.95626000  1.0 0.0916435151
H  H228  1  0.36664000  0.34780000  0.01878000  1.0 0.0961260255
H  H229  1  0.32657000  0.34205000  0.10467000  1.0 0.0916435151
H  H230  1  0.25726000  0.41094000  0.12808000  1.0 0.0916435151
H  H231  1  0.22347000  0.58845000  0.91105000  1.0 0.0916435151
H  H232  1  0.15417000  0.65735000  0.93445000  1.0 0.1201615401
H  H233  1  0.11409000  0.65159000  0.02037000  1.0 0.1141351639
H  H234  1  0.14333000  0.57693000  0.08287000  1.0 0.0916435151
H  H235  1  0.35380000  0.91046000  0.50820000  1.0 0.1386646213
H  H236  1  0.28386000  0.95626000  0.42246000  1.0 0.0916435151
H  H237  1  0.26678000  0.01878000  0.34780000  1.0 0.0961260255
H  H238  1  0.22671000  0.10467000  0.34205000  1.0 0.0916435151
H  H239  1  0.20372000  0.12808000  0.41094000  1.0 0.0916435151
H  H240  1  0.27703000  0.91105000  0.58845000  1.0 0.0916435151
H  H241  1  0.25403000  0.93445000  0.65735000  1.0 0.1201615401
H  H242  1  0.21395000  0.02037000  0.65159000  1.0 0.1141351639
H  H243  1  0.19687000  0.08287000  0.57693000  1.0 0.0916435151
H  H244  1  0.50820000  0.22754000  0.35380000  1.0 0.1386646213
H  H245  1  0.42246000  0.33742000  0.28386000  1.0 0.0916435151
H  H246  1  0.34780000  0.36664000  0.26678000  1.0 0.0961260255
H  H247  1  0.34205000  0.32657000  0.22671000  1.0 0.0916435151
H  H248  1  0.41094000  0.25726000  0.20372000  1.0 0.0916435151
H  H249  1  0.58845000  0.22347000  0.27703000  1.0 0.0916435151
H  H250  1  0.65735000  0.15417000  0.25403000  1.0 0.1201615401
H  H251  1  0.65159000  0.11409000  0.21395000  1.0 0.1141351639
H  H252  1  0.57693000  0.14333000  0.19687000  1.0 0.0916435151
H  H253  1  0.35380000  0.22754000  0.91046000  1.0 0.1386646213
H  H254  1  0.28386000  0.33742000  0.95626000  1.0 0.0916435151
H  H255  1  0.26678000  0.36664000  0.01878000  1.0 0.0961260255
H  H256  1  0.22671000  0.32657000  0.10467000  1.0 0.0916435151
H  H257  1  0.20372000  0.25726000  0.12808000  1.0 0.0916435151
H  H258  1  0.27703000  0.22347000  0.91105000  1.0 0.0916435151
H  H259  1  0.25403000  0.15417000  0.93445000  1.0 0.1201615401
H  H260  1  0.21395000  0.11409000  0.02037000  1.0 0.1141351639
H  H261  1  0.19687000  0.14333000  0.08287000  1.0 0.0916435151
H  H262  1  0.50820000  0.91046000  0.22754000  1.0 0.1386646213
H  H263  1  0.42246000  0.95626000  0.33742000  1.0 0.0916435151
H  H264  1  0.34780000  0.01878000  0.36664000  1.0 0.0961260255
H  H265  1  0.34205000  0.10467000  0.32657000  1.0 0.0916435151
H  H266  1  0.41094000  0.12808000  0.25726000  1.0 0.0916435151
H  H267  1  0.58845000  0.91105000  0.22347000  1.0 0.0916435151
H  H268  1  0.65735000  0.93445000  0.15417000  1.0 0.1201615401
H  H269  1  0.65159000  0.02037000  0.11409000  1.0 0.1141351639
H  H270  1  0.57693000  0.08287000  0.14333000  1.0 0.0916435151
H  H271  1  0.91046000  0.50820000  0.35380000  1.0 0.1386646213
H  H272  1  0.95626000  0.42246000  0.28386000  1.0 0.0916435151
H  H273  1  0.01878000  0.34780000  0.26678000  1.0 0.0961260255
H  H274  1  0.10467000  0.34205000  0.22671000  1.0 0.0916435151
H  H275  1  0.12808000  0.41094000  0.20372000  1.0 0.0916435151
H  H276  1  0.91105000  0.58845000  0.27703000  1.0 0.0916435151
H  H277  1  0.93445000  0.65735000  0.25403000  1.0 0.1201615401
H  H278  1  0.02037000  0.65159000  0.21395000  1.0 0.1141351639
H  H279  1  0.08287000  0.57693000  0.19687000  1.0 0.0916435151
H  H280  1  0.22754000  0.35380000  0.50820000  1.0 0.1386646213
H  H281  1  0.33742000  0.28386000  0.42246000  1.0 0.0916435151
H  H282  1  0.36664000  0.26678000  0.34780000  1.0 0.0961260255
H  H283  1  0.32657000  0.22671000  0.34205000  1.0 0.0916435151
H  H284  1  0.25726000  0.20372000  0.41094000  1.0 0.0916435151
H  H285  1  0.22347000  0.27703000  0.58845000  1.0 0.0916435151
H  H286  1  0.15417000  0.25403000  0.65735000  1.0 0.1201615401
H  H287  1  0.11409000  0.21395000  0.65159000  1.0 0.1141351639
H  H288  1  0.14333000  0.19687000  0.57693000  1.0 0.0916435151
H  H289  1  0.22754000  0.91046000  0.35380000  1.0 0.1386646213
H  H290  1  0.33742000  0.95626000  0.28386000  1.0 0.0916435151
H  H291  1  0.36664000  0.01878000  0.26678000  1.0 0.0961260255
H  H292  1  0.32657000  0.10467000  0.22671000  1.0 0.0916435151
H  H293  1  0.25726000  0.12808000  0.20372000  1.0 0.0916435151
H  H294  1  0.22347000  0.91105000  0.27703000  1.0 0.0916435151
H  H295  1  0.15417000  0.93445000  0.25403000  1.0 0.1201615401
H  H296  1  0.11409000  0.02037000  0.21395000  1.0 0.1141351639
H  H297  1  0.14333000  0.08287000  0.19687000  1.0 0.0916435151
H  H298  1  0.91046000  0.22754000  0.50820000  1.0 0.1386646213
H  H299  1  0.95626000  0.33742000  0.42246000  1.0 0.0916435151
H  H300  1  0.01878000  0.36664000  0.34780000  1.0 0.0961260255
H  H301  1  0.10467000  0.32657000  0.34205000  1.0 0.0916435151
H  H302  1  0.12808000  0.25726000  0.41094000  1.0 0.0916435151
H  H303  1  0.91105000  0.22347000  0.58845000  1.0 0.0916435151
H  H304  1  0.93445000  0.15417000  0.65735000  1.0 0.1201615401
H  H305  1  0.02037000  0.11409000  0.65159000  1.0 0.1141351639
H  H306  1  0.08287000  0.14333000  0.57693000  1.0 0.0916435151
H  H307  1  0.50820000  0.35380000  0.91046000  1.0 0.1386646213
H  H308  1  0.42246000  0.28386000  0.95626000  1.0 0.0916435151
H  H309  1  0.34780000  0.26678000  0.01878000  1.0 0.0961260255
H  H310  1  0.34205000  0.22671000  0.10467000  1.0 0.0916435151
H  H311  1  0.41094000  0.20372000  0.12808000  1.0 0.0916435151
H  H312  1  0.58845000  0.27703000  0.91105000  1.0 0.0916435151
H  H313  1  0.65735000  0.25403000  0.93445000  1.0 0.1201615401
H  H314  1  0.65159000  0.21395000  0.02037000  1.0 0.1141351639
H  H315  1  0.57693000  0.19687000  0.08287000  1.0 0.0916435151
H  H316  1  0.35380000  0.50820000  0.22754000  1.0 0.1386646213
H  H317  1  0.28386000  0.42246000  0.33742000  1.0 0.0916435151
H  H318  1  0.26678000  0.34780000  0.36664000  1.0 0.0961260255
H  H319  1  0.22671000  0.34205000  0.32657000  1.0 0.0916435151
H  H320  1  0.20372000  0.41094000  0.25726000  1.0 0.0916435151
H  H321  1  0.27703000  0.58845000  0.22347000  1.0 0.0916435151
H  H322  1  0.25403000  0.65735000  0.15417000  1.0 0.1201615401
H  H323  1  0.21395000  0.65159000  0.11409000  1.0 0.1141351639
H  H324  1  0.19687000  0.57693000  0.14333000  1.0 0.0916435151
H  H325  1  0.08954000  0.49180000  0.77246000  1.0 0.1386646213
H  H326  1  0.04374000  0.57754000  0.66258000  1.0 0.0916435151
H  H327  1  0.98122000  0.65220000  0.63336000  1.0 0.0961260255
H  H328  1  0.89533000  0.65795000  0.67343000  1.0 0.0916435151
H  H329  1  0.87192000  0.58906000  0.74274000  1.0 0.0916435151
H  H330  1  0.08895000  0.41155000  0.77653000  1.0 0.0916435151
H  H331  1  0.06555000  0.34265000  0.84583000  1.0 0.1201615401
H  H332  1  0.97963000  0.34841000  0.88591000  1.0 0.1141351639
H  H333  1  0.91713000  0.42307000  0.85667000  1.0 0.0916435151
H  H334  1  0.77246000  0.64620000  0.08954000  1.0 0.1386646213
H  H335  1  0.66258000  0.71614000  0.04374000  1.0 0.0916435151
H  H336  1  0.63336000  0.73322000  0.98122000  1.0 0.0961260255
H  H337  1  0.67343000  0.77329000  0.89533000  1.0 0.0916435151
H  H338  1  0.74274000  0.79628000  0.87192000  1.0 0.0916435151
H  H339  1  0.77653000  0.72297000  0.08895000  1.0 0.0916435151
H  H340  1  0.84583000  0.74597000  0.06555000  1.0 0.1201615401
H  H341  1  0.88591000  0.78605000  0.97963000  1.0 0.1141351639
H  H342  1  0.85667000  0.80313000  0.91713000  1.0 0.0916435151
H  H343  1  0.64620000  0.77246000  0.49180000  1.0 0.1386646213
H  H344  1  0.71614000  0.66258000  0.57754000  1.0 0.0916435151
H  H345  1  0.73322000  0.63336000  0.65220000  1.0 0.0961260255
H  H346  1  0.77329000  0.67343000  0.65795000  1.0 0.0916435151
H  H347  1  0.79628000  0.74274000  0.58906000  1.0 0.0916435151
H  H348  1  0.72297000  0.77653000  0.41155000  1.0 0.0916435151
H  H349  1  0.74597000  0.84583000  0.34265000  1.0 0.1201615401
H  H350  1  0.78605000  0.88591000  0.34841000  1.0 0.1141351639
H  H351  1  0.80313000  0.85667000  0.42307000  1.0 0.0916435151
H  H352  1  0.49180000  0.08954000  0.64620000  1.0 0.1386646213
H  H353  1  0.57754000  0.04374000  0.71614000  1.0 0.0916435151
H  H354  1  0.65220000  0.98122000  0.73322000  1.0 0.0961260255
H  H355  1  0.65795000  0.89533000  0.77329000  1.0 0.0916435151
H  H356  1  0.58906000  0.87192000  0.79628000  1.0 0.0916435151
H  H357  1  0.41155000  0.08895000  0.72297000  1.0 0.0916435151
H  H358  1  0.34265000  0.06555000  0.74597000  1.0 0.1201615401
H  H359  1  0.34841000  0.97963000  0.78605000  1.0 0.1141351639
H  H360  1  0.42307000  0.91713000  0.80313000  1.0 0.0916435151
H  H361  1  0.64620000  0.49180000  0.08954000  1.0 0.1386646213
H  H362  1  0.71614000  0.57754000  0.04374000  1.0 0.0916435151
H  H363  1  0.73322000  0.65220000  0.98122000  1.0 0.0961260255
H  H364  1  0.77329000  0.65795000  0.89533000  1.0 0.0916435151
H  H365  1  0.79628000  0.58906000  0.87192000  1.0 0.0916435151
H  H366  1  0.72297000  0.41155000  0.08895000  1.0 0.0916435151
H  H367  1  0.74597000  0.34265000  0.06555000  1.0 0.1201615401
H  H368  1  0.78605000  0.34841000  0.97963000  1.0 0.1141351639
H  H369  1  0.80313000  0.42307000  0.91713000  1.0 0.0916435151
H  H370  1  0.49180000  0.64620000  0.77246000  1.0 0.1386646213
H  H371  1  0.57754000  0.71614000  0.66258000  1.0 0.0916435151
H  H372  1  0.65220000  0.73322000  0.63336000  1.0 0.0961260255
H  H373  1  0.65795000  0.77329000  0.67343000  1.0 0.0916435151
H  H374  1  0.58906000  0.79628000  0.74274000  1.0 0.0916435151
H  H375  1  0.41155000  0.72297000  0.77653000  1.0 0.0916435151
H  H376  1  0.34265000  0.74597000  0.84583000  1.0 0.1201615401
H  H377  1  0.34841000  0.78605000  0.88591000  1.0 0.1141351639
H  H378  1  0.42307000  0.80313000  0.85667000  1.0 0.0916435151
H  H379  1  0.08954000  0.77246000  0.64620000  1.0 0.1386646213
H  H380  1  0.04374000  0.66258000  0.71614000  1.0 0.0916435151
H  H381  1  0.98122000  0.63336000  0.73322000  1.0 0.0961260255
H  H382  1  0.89533000  0.67343000  0.77329000  1.0 0.0916435151
H  H383  1  0.87192000  0.74274000  0.79628000  1.0 0.0916435151
H  H384  1  0.08895000  0.77653000  0.72297000  1.0 0.0916435151
H  H385  1  0.06555000  0.84583000  0.74597000  1.0 0.1201615401
H  H386  1  0.97963000  0.88591000  0.78605000  1.0 0.1141351639
H  H387  1  0.91713000  0.85667000  0.80313000  1.0 0.0916435151
H  H388  1  0.77246000  0.08954000  0.49180000  1.0 0.1386646213
H  H389  1  0.66258000  0.04374000  0.57754000  1.0 0.0916435151
H  H390  1  0.63336000  0.98122000  0.65220000  1.0 0.0961260255
H  H391  1  0.67343000  0.89533000  0.65795000  1.0 0.0916435151
H  H392  1  0.74274000  0.87192000  0.58906000  1.0 0.0916435151
H  H393  1  0.77653000  0.08895000  0.41155000  1.0 0.0916435151
H  H394  1  0.84583000  0.06555000  0.34265000  1.0 0.1201615401
H  H395  1  0.88591000  0.97963000  0.34841000  1.0 0.1141351639
H  H396  1  0.85667000  0.91713000  0.42307000  1.0 0.0916435151
H  H397  1  0.77246000  0.49180000  0.64620000  1.0 0.1386646213
H  H398  1  0.66258000  0.57754000  0.71614000  1.0 0.0916435151
H  H399  1  0.63336000  0.65220000  0.73322000  1.0 0.0961260255
H  H400  1  0.67343000  0.65795000  0.77329000  1.0 0.0916435151
H  H401  1  0.74274000  0.58906000  0.79628000  1.0 0.0916435151
H  H402  1  0.77653000  0.41155000  0.72297000  1.0 0.0916435151
H  H403  1  0.84583000  0.34265000  0.74597000  1.0 0.1201615401
H  H404  1  0.88591000  0.34841000  0.78605000  1.0 0.1141351639
H  H405  1  0.85667000  0.42307000  0.80313000  1.0 0.0916435151
H  H406  1  0.08954000  0.64620000  0.49180000  1.0 0.1386646213
H  H407  1  0.04374000  0.71614000  0.57754000  1.0 0.0916435151
H  H408  1  0.98122000  0.73322000  0.65220000  1.0 0.0961260255
H  H409  1  0.89533000  0.77329000  0.65795000  1.0 0.0916435151
H  H410  1  0.87192000  0.79628000  0.58906000  1.0 0.0916435151
H  H411  1  0.08895000  0.72297000  0.41155000  1.0 0.0916435151
H  H412  1  0.06555000  0.74597000  0.34265000  1.0 0.1201615401
H  H413  1  0.97963000  0.78605000  0.34841000  1.0 0.1141351639
H  H414  1  0.91713000  0.80313000  0.42307000  1.0 0.0916435151
H  H415  1  0.49180000  0.77246000  0.08954000  1.0 0.1386646213
H  H416  1  0.57754000  0.66258000  0.04374000  1.0 0.0916435151
H  H417  1  0.65220000  0.63336000  0.98122000  1.0 0.0961260255
H  H418  1  0.65795000  0.67343000  0.89533000  1.0 0.0916435151
H  H419  1  0.58906000  0.74274000  0.87192000  1.0 0.0916435151
H  H420  1  0.41155000  0.77653000  0.08895000  1.0 0.0916435151
H  H421  1  0.34265000  0.84583000  0.06555000  1.0 0.1201615401
H  H422  1  0.34841000  0.88591000  0.97963000  1.0 0.1141351639
H  H423  1  0.42307000  0.85667000  0.91713000  1.0 0.0916435151
H  H424  1  0.64620000  0.08954000  0.77246000  1.0 0.1386646213
H  H425  1  0.71614000  0.04374000  0.66258000  1.0 0.0916435151
H  H426  1  0.73322000  0.98122000  0.63336000  1.0 0.0961260255
H  H427  1  0.77329000  0.89533000  0.67343000  1.0 0.0916435151
H  H428  1  0.79628000  0.87192000  0.74274000  1.0 0.0916435151
H  H429  1  0.72297000  0.08895000  0.77653000  1.0 0.0916435151
H  H430  1  0.74597000  0.06555000  0.84583000  1.0 0.1201615401
H  H431  1  0.78605000  0.97963000  0.88591000  1.0 0.1141351639
H  H432  1  0.80313000  0.91713000  0.85667000  1.0 0.0916435151
H  H433  1  0.21908000  0.65020000  0.65020000  1.0 0.1386646213
H  H434  1  0.65020000  0.48052000  0.21908000  1.0 0.1386646213
H  H435  1  0.65020000  0.21908000  0.48052000  1.0 0.1386646213
H  H436  1  0.48052000  0.65020000  0.65020000  1.0 0.1386646213
H  H437  1  0.65020000  0.65020000  0.21908000  1.0 0.1386646213
H  H438  1  0.48052000  0.21908000  0.65020000  1.0 0.1386646213
H  H439  1  0.21908000  0.48052000  0.65020000  1.0 0.1386646213
H  H440  1  0.65020000  0.65020000  0.48052000  1.0 0.1386646213
H  H441  1  0.65020000  0.21908000  0.65020000  1.0 0.1386646213
H  H442  1  0.21908000  0.65020000  0.48052000  1.0 0.1386646213
H  H443  1  0.48052000  0.65020000  0.21908000  1.0 0.1386646213
H  H444  1  0.65020000  0.48052000  0.65020000  1.0 0.1386646213
H  H445  1  0.78092000  0.51948000  0.34980000  1.0 0.1386646213
H  H446  1  0.34980000  0.34980000  0.78092000  1.0 0.1386646213
H  H447  1  0.34980000  0.34980000  0.51948000  1.0 0.1386646213
H  H448  1  0.51948000  0.78092000  0.34980000  1.0 0.1386646213
H  H449  1  0.34980000  0.51948000  0.78092000  1.0 0.1386646213
H  H450  1  0.51948000  0.34980000  0.34980000  1.0 0.1386646213
H  H451  1  0.78092000  0.34980000  0.34980000  1.0 0.1386646213
H  H452  1  0.34980000  0.78092000  0.51948000  1.0 0.1386646213
H  H453  1  0.34980000  0.51948000  0.34980000  1.0 0.1386646213
H  H454  1  0.78092000  0.34980000  0.51948000  1.0 0.1386646213
H  H455  1  0.51948000  0.34980000  0.78092000  1.0 0.1386646213
H  H456  1  0.34980000  0.78092000  0.34980000  1.0 0.1386646213
H  H457  1  0.87306000  0.87306000  0.74682000  1.0 0.1386646213
H  H458  1  0.74682000  0.50706000  0.87306000  1.0 0.1386646213
H  H459  1  0.87306000  0.87306000  0.50706000  1.0 0.1386646213
H  H460  1  0.50706000  0.74682000  0.87306000  1.0 0.1386646213
H  H461  1  0.87306000  0.74682000  0.87306000  1.0 0.1386646213
H  H462  1  0.50706000  0.87306000  0.74682000  1.0 0.1386646213
H  H463  1  0.87306000  0.50706000  0.87306000  1.0 0.1386646213
H  H464  1  0.74682000  0.87306000  0.50706000  1.0 0.1386646213
H  H465  1  0.74682000  0.87306000  0.87306000  1.0 0.1386646213
H  H466  1  0.87306000  0.74682000  0.50706000  1.0 0.1386646213
H  H467  1  0.50706000  0.87306000  0.87306000  1.0 0.1386646213
H  H468  1  0.87306000  0.50706000  0.74682000  1.0 0.1386646213
H  H469  1  0.12694000  0.49294000  0.25318000  1.0 0.1386646213
H  H470  1  0.25318000  0.12694000  0.12694000  1.0 0.1386646213
H  H471  1  0.12694000  0.25318000  0.49294000  1.0 0.1386646213
H  H472  1  0.49294000  0.12694000  0.12694000  1.0 0.1386646213
H  H473  1  0.12694000  0.49294000  0.12694000  1.0 0.1386646213
H  H474  1  0.49294000  0.12694000  0.25318000  1.0 0.1386646213
H  H475  1  0.12694000  0.25318000  0.12694000  1.0 0.1386646213
H  H476  1  0.25318000  0.12694000  0.49294000  1.0 0.1386646213
H  H477  1  0.25318000  0.49294000  0.12694000  1.0 0.1386646213
H  H478  1  0.12694000  0.12694000  0.49294000  1.0 0.1386646213
H  H479  1  0.49294000  0.25318000  0.12694000  1.0 0.1386646213
H  H480  1  0.12694000  0.12694000  0.25318000  1.0 0.1386646213
C  C1  1  0.18467000  0.58805000  0.73995000  1.0 0.5808640262
C  C2  1  0.10776000  0.66452000  0.73750000  1.0 -0.1709296433
C  C3  1  0.15770000  0.64172000  0.71472000  1.0 0.0103854173
C  C4  1  0.94429000  0.76951000  0.74273000  1.0 0.0405743927
C  C5  1  0.99396000  0.74634000  0.71956000  1.0 0.0405743927
C  C6  1  0.00750000  0.73304000  0.67948000  1.0 -0.1167245277
C  C7  1  0.97136000  0.74292000  0.66258000  1.0 -0.0883918994
C  C8  1  0.92169000  0.76609000  0.68575000  1.0 -0.1787278962
C  C9  1  0.90815000  0.77939000  0.72583000  1.0 -0.0883918994
C  C10  1  0.96690000  0.77292000  0.79970000  1.0 0.0405743927
C  C11  1  0.01657000  0.74975000  0.77653000  1.0 0.0405743927
C  C12  1  0.05271000  0.73989000  0.79343000  1.0 -0.0729034824
C  C13  1  0.03918000  0.75318000  0.83350000  1.0 -0.1402844516
C  C14  1  0.98951000  0.77635000  0.85667000  1.0 -0.1318848884
C  C15  1  0.95337000  0.78623000  0.83977000  1.0 -0.0752502763
C  C16  1  0.73995000  0.48733000  0.18467000  1.0 0.5808640262
C  C17  1  0.73750000  0.49022000  0.10776000  1.0 -0.1709296433
C  C18  1  0.71472000  0.48586000  0.15770000  1.0 0.0103854173
C  C19  1  0.74273000  0.54347000  0.94429000  1.0 0.0405743927
C  C20  1  0.71956000  0.54014000  0.99396000  1.0 0.0405743927
C  C21  1  0.67948000  0.57998000  0.00750000  1.0 -0.1167245277
C  C22  1  0.66258000  0.62314000  0.97136000  1.0 -0.0883918994
C  C23  1  0.68575000  0.62647000  0.92169000  1.0 -0.1787278962
C  C24  1  0.72583000  0.58663000  0.90815000  1.0 -0.0883918994
C  C25  1  0.79970000  0.46048000  0.96690000  1.0 0.0405743927
C  C26  1  0.77653000  0.45715000  0.01657000  1.0 0.0405743927
C  C27  1  0.79343000  0.41397000  0.05271000  1.0 -0.0729034824
C  C28  1  0.83350000  0.37414000  0.03918000  1.0 -0.1402844516
C  C29  1  0.85667000  0.37747000  0.98951000  1.0 -0.1318848884
C  C30  1  0.83977000  0.42063000  0.95337000  1.0 -0.0729034824
C  C31  1  0.58805000  0.18467000  0.48733000  1.0 0.5808640262
C  C32  1  0.66452000  0.10776000  0.49022000  1.0 -0.1709296433
C  C33  1  0.64172000  0.15770000  0.48586000  1.0 0.0103854173
C  C34  1  0.76951000  0.94429000  0.54347000  1.0 0.0405743927
C  C35  1  0.74634000  0.99396000  0.54014000  1.0 0.0405743927
C  C36  1  0.73304000  0.00750000  0.57998000  1.0 -0.1167245277
C  C37  1  0.74292000  0.97136000  0.62314000  1.0 -0.0883918994
C  C38  1  0.76609000  0.92169000  0.62647000  1.0 -0.1787278962
C  C39  1  0.77939000  0.90815000  0.58663000  1.0 -0.0883918994
C  C40  1  0.77292000  0.96690000  0.46048000  1.0 0.0405743927
C  C41  1  0.74975000  0.01657000  0.45715000  1.0 0.0405743927
C  C42  1  0.73989000  0.05271000  0.41397000  1.0 -0.0729034824
C  C43  1  0.75318000  0.03918000  0.37414000  1.0 -0.1402844516
C  C44  1  0.77635000  0.98951000  0.37747000  1.0 -0.1318848884
C  C45  1  0.78623000  0.95337000  0.42063000  1.0 -0.0729034824
C  C46  1  0.48733000  0.73995000  0.58805000  1.0 0.5808640262
C  C47  1  0.49022000  0.73750000  0.66452000  1.0 -0.1709296433
C  C48  1  0.48586000  0.71472000  0.64172000  1.0 0.0103854173
C  C49  1  0.54347000  0.74273000  0.76951000  1.0 0.0405743927
C  C50  1  0.54014000  0.71956000  0.74634000  1.0 0.0405743927
C  C51  1  0.57998000  0.67948000  0.73304000  1.0 -0.1167245277
C  C52  1  0.62314000  0.66258000  0.74292000  1.0 -0.0883918994
C  C53  1  0.62647000  0.68575000  0.76609000  1.0 -0.1787278962
C  C54  1  0.58663000  0.72583000  0.77939000  1.0 -0.0883918994
C  C55  1  0.46048000  0.79970000  0.77292000  1.0 0.0405743927
C  C56  1  0.45715000  0.77653000  0.74975000  1.0 0.0405743927
C  C57  1  0.41397000  0.79343000  0.73989000  1.0 -0.0729034824
C  C58  1  0.37414000  0.83350000  0.75318000  1.0 -0.1402844516
C  C59  1  0.37747000  0.85667000  0.77635000  1.0 -0.1318848884
C  C60  1  0.42063000  0.83977000  0.78623000  1.0 -0.0729034824
C  C61  1  0.58805000  0.73995000  0.18467000  1.0 0.5808640262
C  C62  1  0.66452000  0.73750000  0.10776000  1.0 -0.1709296433
C  C63  1  0.64172000  0.71472000  0.15770000  1.0 0.0103854173
C  C64  1  0.76951000  0.74273000  0.94429000  1.0 0.0405743927
C  C65  1  0.74634000  0.71956000  0.99396000  1.0 0.0405743927
C  C66  1  0.73304000  0.67948000  0.00750000  1.0 -0.1167245277
C  C67  1  0.74292000  0.66258000  0.97136000  1.0 -0.0883918994
C  C68  1  0.76609000  0.68575000  0.92169000  1.0 -0.1787278962
C  C69  1  0.77939000  0.72583000  0.90815000  1.0 -0.0883918994
C  C70  1  0.77292000  0.79970000  0.96690000  1.0 0.0405743927
C  C71  1  0.74975000  0.77653000  0.01657000  1.0 0.0405743927
C  C72  1  0.73989000  0.79343000  0.05271000  1.0 -0.0729034824
C  C73  1  0.75318000  0.83350000  0.03918000  1.0 -0.1402844516
C  C74  1  0.77635000  0.85667000  0.98951000  1.0 -0.1318848884
C  C75  1  0.78623000  0.83977000  0.95337000  1.0 -0.0729034824
C  C76  1  0.48733000  0.18467000  0.73995000  1.0 0.5808640262
C  C77  1  0.49022000  0.10776000  0.73750000  1.0 -0.1709296433
C  C78  1  0.48586000  0.15770000  0.71472000  1.0 0.0103854173
C  C79  1  0.54347000  0.94429000  0.74273000  1.0 0.0405743927
C  C80  1  0.54014000  0.99396000  0.71956000  1.0 0.0405743927
C  C81  1  0.57998000  0.00750000  0.67948000  1.0 -0.1167245277
C  C82  1  0.62314000  0.97136000  0.66258000  1.0 -0.0883918994
C  C83  1  0.62647000  0.92169000  0.68575000  1.0 -0.1787278962
C  C84  1  0.58663000  0.90815000  0.72583000  1.0 -0.0883918994
C  C85  1  0.46048000  0.96690000  0.79970000  1.0 0.0405743927
C  C86  1  0.45715000  0.01657000  0.77653000  1.0 0.0405743927
C  C87  1  0.41397000  0.05271000  0.79343000  1.0 -0.0729034824
C  C88  1  0.37414000  0.03918000  0.83350000  1.0 -0.1402844516
C  C89  1  0.37747000  0.98951000  0.85667000  1.0 -0.1318848884
C  C90  1  0.42063000  0.95337000  0.83977000  1.0 -0.0729034824
C  C91  1  0.18467000  0.48733000  0.58805000  1.0 0.5808640262
C  C92  1  0.10776000  0.49022000  0.66452000  1.0 -0.1709296433
C  C93  1  0.15770000  0.48586000  0.64172000  1.0 0.0103854173
C  C94  1  0.94429000  0.54347000  0.76951000  1.0 0.0405743927
C  C95  1  0.99396000  0.54014000  0.74634000  1.0 0.0405743927
C  C96  1  0.00750000  0.57998000  0.73304000  1.0 -0.1167245277
C  C97  1  0.97136000  0.62314000  0.74292000  1.0 -0.0883918994
C  C98  1  0.92169000  0.62647000  0.76609000  1.0 -0.1787278962
C  C99  1  0.90815000  0.58663000  0.77939000  1.0 -0.0883918994
C  C100  1  0.96690000  0.46048000  0.77292000  1.0 0.0405743927
C  C101  1  0.01657000  0.45715000  0.74975000  1.0 0.0405743927
C  C102  1  0.05271000  0.41397000  0.73989000  1.0 -0.0729034824
C  C103  1  0.03918000  0.37414000  0.75318000  1.0 -0.1402844516
C  C104  1  0.98951000  0.37747000  0.77635000  1.0 -0.1318848884
C  C105  1  0.95337000  0.42063000  0.78623000  1.0 -0.0729034824
C  C106  1  0.73995000  0.58805000  0.48733000  1.0 0.5808640262
C  C107  1  0.73750000  0.66452000  0.49022000  1.0 -0.1709296433
C  C108  1  0.71472000  0.64172000  0.48586000  1.0 0.0103854173
C  C109  1  0.74273000  0.76951000  0.54347000  1.0 0.0405743927
C  C110  1  0.71956000  0.74634000  0.54014000  1.0 0.0405743927
C  C111  1  0.67948000  0.73304000  0.57998000  1.0 -0.1167245277
C  C112  1  0.66258000  0.74292000  0.62314000  1.0 -0.0883918994
C  C113  1  0.68575000  0.76609000  0.62647000  1.0 -0.1787278962
C  C114  1  0.72583000  0.77939000  0.58663000  1.0 -0.0883918994
C  C115  1  0.79970000  0.77292000  0.46048000  1.0 0.0405743927
C  C116  1  0.77653000  0.74975000  0.45715000  1.0 0.0405743927
C  C117  1  0.79343000  0.73989000  0.41397000  1.0 -0.0729034824
C  C118  1  0.83350000  0.75318000  0.37414000  1.0 -0.1402844516
C  C119  1  0.85667000  0.77635000  0.37747000  1.0 -0.1318848884
C  C120  1  0.83977000  0.78623000  0.42063000  1.0 -0.0752502763
C  C121  1  0.73995000  0.18467000  0.58805000  1.0 0.5808640262
C  C122  1  0.73750000  0.10776000  0.66452000  1.0 -0.1709296433
C  C123  1  0.71472000  0.15770000  0.64172000  1.0 0.0103854173
C  C124  1  0.74273000  0.94429000  0.76951000  1.0 0.0405743927
C  C125  1  0.71956000  0.99396000  0.74634000  1.0 0.0405743927
C  C126  1  0.67948000  0.00750000  0.73304000  1.0 -0.1167245277
C  C127  1  0.66258000  0.97136000  0.74292000  1.0 -0.0883918994
C  C128  1  0.68575000  0.92169000  0.76609000  1.0 -0.1787278962
C  C129  1  0.72583000  0.90815000  0.77939000  1.0 -0.0883918994
C  C130  1  0.79970000  0.96690000  0.77292000  1.0 0.0405743927
C  C131  1  0.77653000  0.01657000  0.74975000  1.0 0.0405743927
C  C132  1  0.79343000  0.05271000  0.73989000  1.0 -0.0729034824
C  C133  1  0.83350000  0.03918000  0.75318000  1.0 -0.1402844516
C  C134  1  0.85667000  0.98951000  0.77635000  1.0 -0.1318848884
C  C135  1  0.83977000  0.95337000  0.78623000  1.0 -0.0752502763
C  C136  1  0.18467000  0.73995000  0.48733000  1.0 0.5808640262
C  C137  1  0.10776000  0.73750000  0.49022000  1.0 -0.1709296433
C  C138  1  0.15770000  0.71472000  0.48586000  1.0 0.0103854173
C  C139  1  0.94429000  0.74273000  0.54347000  1.0 0.0405743927
C  C140  1  0.99396000  0.71956000  0.54014000  1.0 0.0405743927
C  C141  1  0.00750000  0.67948000  0.57998000  1.0 -0.1167245277
C  C142  1  0.97136000  0.66258000  0.62314000  1.0 -0.0883918994
C  C143  1  0.92169000  0.68575000  0.62647000  1.0 -0.1787278962
C  C144  1  0.90815000  0.72583000  0.58663000  1.0 -0.0883918994
C  C145  1  0.96690000  0.79970000  0.46048000  1.0 0.0405743927
C  C146  1  0.01657000  0.77653000  0.45715000  1.0 0.0405743927
C  C147  1  0.05271000  0.79343000  0.41397000  1.0 -0.0729034824
C  C148  1  0.03918000  0.83350000  0.37414000  1.0 -0.1402844516
C  C149  1  0.98951000  0.85667000  0.37747000  1.0 -0.1318848884
C  C150  1  0.95337000  0.83977000  0.42063000  1.0 -0.0729034824
C  C151  1  0.48733000  0.58805000  0.18467000  1.0 0.5808640262
C  C152  1  0.49022000  0.66452000  0.10776000  1.0 -0.1709296433
C  C153  1  0.48586000  0.64172000  0.15770000  1.0 0.0103854173
C  C154  1  0.54347000  0.76951000  0.94429000  1.0 0.0405743927
C  C155  1  0.54014000  0.74634000  0.99396000  1.0 0.0405743927
C  C156  1  0.57998000  0.73304000  0.00750000  1.0 -0.1167245277
C  C157  1  0.62314000  0.74292000  0.97136000  1.0 -0.0883918994
C  C158  1  0.62647000  0.76609000  0.92169000  1.0 -0.1787278962
C  C159  1  0.58663000  0.77939000  0.90815000  1.0 -0.0883918994
C  C160  1  0.46048000  0.77292000  0.96690000  1.0 0.0405743927
C  C161  1  0.45715000  0.74975000  0.01657000  1.0 0.0405743927
C  C162  1  0.41397000  0.73989000  0.05271000  1.0 -0.0729034824
C  C163  1  0.37414000  0.75318000  0.03918000  1.0 -0.1402844516
C  C164  1  0.37747000  0.77635000  0.98951000  1.0 -0.1318848884
C  C165  1  0.42063000  0.78623000  0.95337000  1.0 -0.0729034824
C  C166  1  0.58805000  0.48733000  0.73995000  1.0 0.5808640262
C  C167  1  0.66452000  0.49022000  0.73750000  1.0 -0.1709296433
C  C168  1  0.64172000  0.48586000  0.71472000  1.0 0.0103854173
C  C169  1  0.76951000  0.54347000  0.74273000  1.0 0.0405743927
C  C170  1  0.74634000  0.54014000  0.71956000  1.0 0.0405743927
C  C171  1  0.73304000  0.57998000  0.67948000  1.0 -0.1167245277
C  C172  1  0.74292000  0.62314000  0.66258000  1.0 -0.0883918994
C  C173  1  0.76609000  0.62647000  0.68575000  1.0 -0.1787278962
C  C174  1  0.77939000  0.58663000  0.72583000  1.0 -0.0883918994
C  C175  1  0.77292000  0.46048000  0.79970000  1.0 0.0405743927
C  C176  1  0.74975000  0.45715000  0.77653000  1.0 0.0405743927
C  C177  1  0.73989000  0.41397000  0.79343000  1.0 -0.0729034824
C  C178  1  0.75318000  0.37414000  0.83350000  1.0 -0.1402844516
C  C179  1  0.77635000  0.37747000  0.85667000  1.0 -0.1318848884
C  C180  1  0.78623000  0.42063000  0.83977000  1.0 -0.0752502763
C  C181  1  0.81533000  0.51267000  0.26005000  1.0 0.5808640262
C  C182  1  0.89224000  0.50978000  0.26250000  1.0 -0.1709296433
C  C183  1  0.84230000  0.51414000  0.28528000  1.0 0.0103854173
C  C184  1  0.05571000  0.45653000  0.25727000  1.0 0.0405743927
C  C185  1  0.00604000  0.45986000  0.28044000  1.0 0.0405743927
C  C186  1  0.99250000  0.42002000  0.32052000  1.0 -0.1167245277
C  C187  1  0.02864000  0.37686000  0.33742000  1.0 -0.0883918994
C  C188  1  0.07831000  0.37353000  0.31425000  1.0 -0.1787278962
C  C189  1  0.09185000  0.41337000  0.27417000  1.0 -0.0883918994
C  C190  1  0.03310000  0.53952000  0.20030000  1.0 0.0405743927
C  C191  1  0.98343000  0.54285000  0.22347000  1.0 0.0405743927
C  C192  1  0.94729000  0.58603000  0.20657000  1.0 -0.0729034824
C  C193  1  0.96082000  0.62586000  0.16650000  1.0 -0.1402844516
C  C194  1  0.01049000  0.62253000  0.14333000  1.0 -0.1318848884
C  C195  1  0.04663000  0.57937000  0.16023000  1.0 -0.0729034824
C  C196  1  0.26005000  0.41195000  0.81533000  1.0 0.5808640262
C  C197  1  0.26250000  0.33548000  0.89224000  1.0 -0.1709296433
C  C198  1  0.28528000  0.35828000  0.84230000  1.0 0.0103854173
C  C199  1  0.25727000  0.23049000  0.05571000  1.0 0.0405743927
C  C200  1  0.28044000  0.25366000  0.00604000  1.0 0.0405743927
C  C201  1  0.32052000  0.26696000  0.99250000  1.0 -0.1167245277
C  C202  1  0.33742000  0.25708000  0.02864000  1.0 -0.0883918994
C  C203  1  0.31425000  0.23391000  0.07831000  1.0 -0.1787278962
C  C204  1  0.27417000  0.22061000  0.09185000  1.0 -0.0883918994
C  C205  1  0.20030000  0.22708000  0.03310000  1.0 0.0405743927
C  C206  1  0.22347000  0.25025000  0.98343000  1.0 0.0405743927
C  C207  1  0.20657000  0.26011000  0.94729000  1.0 -0.0729034824
C  C208  1  0.16650000  0.24682000  0.96082000  1.0 -0.1402844516
C  C209  1  0.14333000  0.22365000  0.01049000  1.0 -0.1318848884
C  C210  1  0.16023000  0.21377000  0.04663000  1.0 -0.0729034824
C  C211  1  0.41195000  0.26005000  0.51267000  1.0 0.5808640262
C  C212  1  0.33548000  0.26250000  0.50978000  1.0 -0.1709296433
C  C213  1  0.35828000  0.28528000  0.51414000  1.0 0.0103854173
C  C214  1  0.23049000  0.25727000  0.45653000  1.0 0.0405743927
C  C215  1  0.25366000  0.28044000  0.45986000  1.0 0.0405743927
C  C216  1  0.26696000  0.32052000  0.42002000  1.0 -0.1167245277
C  C217  1  0.25708000  0.33742000  0.37686000  1.0 -0.0883918994
C  C218  1  0.23391000  0.31425000  0.37353000  1.0 -0.1787278962
C  C219  1  0.22061000  0.27417000  0.41337000  1.0 -0.0883918994
C  C220  1  0.22708000  0.20030000  0.53952000  1.0 0.0405743927
C  C221  1  0.25025000  0.22347000  0.54285000  1.0 0.0405743927
C  C222  1  0.26011000  0.20657000  0.58603000  1.0 -0.0729034824
C  C223  1  0.24682000  0.16650000  0.62586000  1.0 -0.1402844516
C  C224  1  0.22365000  0.14333000  0.62253000  1.0 -0.1318848884
C  C225  1  0.21377000  0.16023000  0.57937000  1.0 -0.0729034824
C  C226  1  0.51267000  0.81533000  0.41195000  1.0 0.5808640262
C  C227  1  0.50978000  0.89224000  0.33548000  1.0 -0.1709296433
C  C228  1  0.51414000  0.84230000  0.35828000  1.0 0.0103854173
C  C229  1  0.45653000  0.05571000  0.23049000  1.0 0.0405743927
C  C230  1  0.45986000  0.00604000  0.25366000  1.0 0.0405743927
C  C231  1  0.42002000  0.99250000  0.26696000  1.0 -0.1167245277
C  C232  1  0.37686000  0.02864000  0.25708000  1.0 -0.0883918994
C  C233  1  0.37353000  0.07831000  0.23391000  1.0 -0.1787278962
C  C234  1  0.41337000  0.09185000  0.22061000  1.0 -0.0883918994
C  C235  1  0.53952000  0.03310000  0.22708000  1.0 0.0405743927
C  C236  1  0.54285000  0.98343000  0.25025000  1.0 0.0405743927
C  C237  1  0.58603000  0.94729000  0.26011000  1.0 -0.0729034824
C  C238  1  0.62586000  0.96082000  0.24682000  1.0 -0.1402844516
C  C239  1  0.62253000  0.01049000  0.22365000  1.0 -0.1318848884
C  C240  1  0.57937000  0.04663000  0.21377000  1.0 -0.0729034824
C  C241  1  0.41195000  0.51267000  0.81533000  1.0 0.5808640262
C  C242  1  0.33548000  0.50978000  0.89224000  1.0 -0.1709296433
C  C243  1  0.35828000  0.51414000  0.84230000  1.0 0.0103854173
C  C244  1  0.23049000  0.45653000  0.05571000  1.0 0.0405743927
C  C245  1  0.25366000  0.45986000  0.00604000  1.0 0.0405743927
C  C246  1  0.26696000  0.42002000  0.99250000  1.0 -0.1167245277
C  C247  1  0.25708000  0.37686000  0.02864000  1.0 -0.0883918994
C  C248  1  0.23391000  0.37353000  0.07831000  1.0 -0.1787278962
C  C249  1  0.22061000  0.41337000  0.09185000  1.0 -0.0883918994
C  C250  1  0.22708000  0.53952000  0.03310000  1.0 0.0405743927
C  C251  1  0.25025000  0.54285000  0.98343000  1.0 0.0405743927
C  C252  1  0.26011000  0.58603000  0.94729000  1.0 -0.0729034824
C  C253  1  0.24682000  0.62586000  0.96082000  1.0 -0.1402844516
C  C254  1  0.22365000  0.62253000  0.01049000  1.0 -0.1318848884
C  C255  1  0.21377000  0.57937000  0.04663000  1.0 -0.0752502763
C  C256  1  0.51267000  0.41195000  0.26005000  1.0 0.5808640262
C  C257  1  0.50978000  0.33548000  0.26250000  1.0 -0.1709296433
C  C258  1  0.51414000  0.35828000  0.28528000  1.0 0.0103854173
C  C259  1  0.45653000  0.23049000  0.25727000  1.0 0.0405743927
C  C260  1  0.45986000  0.25366000  0.28044000  1.0 0.0405743927
C  C261  1  0.42002000  0.26696000  0.32052000  1.0 -0.1167245277
C  C262  1  0.37686000  0.25708000  0.33742000  1.0 -0.0883918994
C  C263  1  0.37353000  0.23391000  0.31425000  1.0 -0.1787278962
C  C264  1  0.41337000  0.22061000  0.27417000  1.0 -0.0883918994
C  C265  1  0.53952000  0.22708000  0.20030000  1.0 0.0405743927
C  C266  1  0.54285000  0.25025000  0.22347000  1.0 0.0405743927
C  C267  1  0.58603000  0.26011000  0.20657000  1.0 -0.0729034824
C  C268  1  0.62586000  0.24682000  0.16650000  1.0 -0.1402844516
C  C269  1  0.62253000  0.22365000  0.14333000  1.0 -0.1318848884
C  C270  1  0.57937000  0.21377000  0.16023000  1.0 -0.0729034824
C  C271  1  0.81533000  0.26005000  0.41195000  1.0 0.5808640262
C  C272  1  0.89224000  0.26250000  0.33548000  1.0 -0.1709296433
C  C273  1  0.84230000  0.28528000  0.35828000  1.0 0.0103854173
C  C274  1  0.05571000  0.25727000  0.23049000  1.0 0.0405743927
C  C275  1  0.00604000  0.28044000  0.25366000  1.0 0.0405743927
C  C276  1  0.99250000  0.32052000  0.26696000  1.0 -0.1167245277
C  C277  1  0.02864000  0.33742000  0.25708000  1.0 -0.0883918994
C  C278  1  0.07831000  0.31425000  0.23391000  1.0 -0.1787278962
C  C279  1  0.09185000  0.27417000  0.22061000  1.0 -0.0883918994
C  C280  1  0.03310000  0.20030000  0.22708000  1.0 0.0405743927
C  C281  1  0.98343000  0.22347000  0.25025000  1.0 0.0405743927
C  C282  1  0.94729000  0.20657000  0.26011000  1.0 -0.0729034824
C  C283  1  0.96082000  0.16650000  0.24682000  1.0 -0.1402844516
C  C284  1  0.01049000  0.14333000  0.22365000  1.0 -0.1318848884
C  C285  1  0.04663000  0.16023000  0.21377000  1.0 -0.0729034824
C  C286  1  0.26005000  0.81533000  0.51267000  1.0 0.5808640262
C  C287  1  0.26250000  0.89224000  0.50978000  1.0 -0.1709296433
C  C288  1  0.28528000  0.84230000  0.51414000  1.0 0.0103854173
C  C289  1  0.25727000  0.05571000  0.45653000  1.0 0.0405743927
C  C290  1  0.28044000  0.00604000  0.45986000  1.0 0.0405743927
C  C291  1  0.32052000  0.99250000  0.42002000  1.0 -0.1167245277
C  C292  1  0.33742000  0.02864000  0.37686000  1.0 -0.0883918994
C  C293  1  0.31425000  0.07831000  0.37353000  1.0 -0.1787278962
C  C294  1  0.27417000  0.09185000  0.41337000  1.0 -0.0883918994
C  C295  1  0.20030000  0.03310000  0.53952000  1.0 0.0405743927
C  C296  1  0.22347000  0.98343000  0.54285000  1.0 0.0405743927
C  C297  1  0.20657000  0.94729000  0.58603000  1.0 -0.0729034824
C  C298  1  0.16650000  0.96082000  0.62586000  1.0 -0.1402844516
C  C299  1  0.14333000  0.01049000  0.62253000  1.0 -0.1318848884
C  C300  1  0.16023000  0.04663000  0.57937000  1.0 -0.0729034824
C  C301  1  0.26005000  0.51267000  0.41195000  1.0 0.5808640262
C  C302  1  0.26250000  0.50978000  0.33548000  1.0 -0.1709296433
C  C303  1  0.28528000  0.51414000  0.35828000  1.0 0.0103854173
C  C304  1  0.25727000  0.45653000  0.23049000  1.0 0.0405743927
C  C305  1  0.28044000  0.45986000  0.25366000  1.0 0.0405743927
C  C306  1  0.32052000  0.42002000  0.26696000  1.0 -0.1167245277
C  C307  1  0.33742000  0.37686000  0.25708000  1.0 -0.0883918994
C  C308  1  0.31425000  0.37353000  0.23391000  1.0 -0.1787278962
C  C309  1  0.27417000  0.41337000  0.22061000  1.0 -0.0883918994
C  C310  1  0.20030000  0.53952000  0.22708000  1.0 0.0405743927
C  C311  1  0.22347000  0.54285000  0.25025000  1.0 0.0405743927
C  C312  1  0.20657000  0.58603000  0.26011000  1.0 -0.0729034824
C  C313  1  0.16650000  0.62586000  0.24682000  1.0 -0.1402844516
C  C314  1  0.14333000  0.62253000  0.22365000  1.0 -0.1318848884
C  C315  1  0.16023000  0.57937000  0.21377000  1.0 -0.0752502763
C  C316  1  0.81533000  0.41195000  0.51267000  1.0 0.5808640262
C  C317  1  0.89224000  0.33548000  0.50978000  1.0 -0.1709296433
C  C318  1  0.84230000  0.35828000  0.51414000  1.0 0.0103854173
C  C319  1  0.05571000  0.23049000  0.45653000  1.0 0.0405743927
C  C320  1  0.00604000  0.25366000  0.45986000  1.0 0.0405743927
C  C321  1  0.99250000  0.26696000  0.42002000  1.0 -0.1167245277
C  C322  1  0.02864000  0.25708000  0.37686000  1.0 -0.0883918994
C  C323  1  0.07831000  0.23391000  0.37353000  1.0 -0.1787278962
C  C324  1  0.09185000  0.22061000  0.41337000  1.0 -0.0883918994
C  C325  1  0.03310000  0.22708000  0.53952000  1.0 0.0405743927
C  C326  1  0.98343000  0.25025000  0.54285000  1.0 0.0405743927
C  C327  1  0.94729000  0.26011000  0.58603000  1.0 -0.0729034824
C  C328  1  0.96082000  0.24682000  0.62586000  1.0 -0.1402844516
C  C329  1  0.01049000  0.22365000  0.62253000  1.0 -0.1318848884
C  C330  1  0.04663000  0.21377000  0.57937000  1.0 -0.0729034824
C  C331  1  0.51267000  0.26005000  0.81533000  1.0 0.5808640262
C  C332  1  0.50978000  0.26250000  0.89224000  1.0 -0.1709296433
C  C333  1  0.51414000  0.28528000  0.84230000  1.0 0.0103854173
C  C334  1  0.45653000  0.25727000  0.05571000  1.0 0.0405743927
C  C335  1  0.45986000  0.28044000  0.00604000  1.0 0.0405743927
C  C336  1  0.42002000  0.32052000  0.99250000  1.0 -0.1167245277
C  C337  1  0.37686000  0.33742000  0.02864000  1.0 -0.0883918994
C  C338  1  0.37353000  0.31425000  0.07831000  1.0 -0.1787278962
C  C339  1  0.41337000  0.27417000  0.09185000  1.0 -0.0883918994
C  C340  1  0.53952000  0.20030000  0.03310000  1.0 0.0405743927
C  C341  1  0.54285000  0.22347000  0.98343000  1.0 0.0405743927
C  C342  1  0.58603000  0.20657000  0.94729000  1.0 -0.0729034824
C  C343  1  0.62586000  0.16650000  0.96082000  1.0 -0.1402844516
C  C344  1  0.62253000  0.14333000  0.01049000  1.0 -0.1318848884
C  C345  1  0.57937000  0.16023000  0.04663000  1.0 -0.0729034824
C  C346  1  0.41195000  0.81533000  0.26005000  1.0 0.5808640262
C  C347  1  0.33548000  0.89224000  0.26250000  1.0 -0.1709296433
C  C348  1  0.35828000  0.84230000  0.28528000  1.0 0.0103854173
C  C349  1  0.23049000  0.05571000  0.25727000  1.0 0.0405743927
C  C350  1  0.25366000  0.00604000  0.28044000  1.0 0.0405743927
C  C351  1  0.26696000  0.99250000  0.32052000  1.0 -0.1167245277
C  C352  1  0.25708000  0.02864000  0.33742000  1.0 -0.0883918994
C  C353  1  0.23391000  0.07831000  0.31425000  1.0 -0.1787278962
C  C354  1  0.22061000  0.09185000  0.27417000  1.0 -0.0883918994
C  C355  1  0.22708000  0.03310000  0.20030000  1.0 0.0405743927
C  C356  1  0.25025000  0.98343000  0.22347000  1.0 0.0405743927
C  C357  1  0.26011000  0.94729000  0.20657000  1.0 -0.0729034824
C  C358  1  0.24682000  0.96082000  0.16650000  1.0 -0.1402844516
C  C359  1  0.22365000  0.01049000  0.14333000  1.0 -0.1318848884
C  C360  1  0.21377000  0.04663000  0.16023000  1.0 -0.0729034824
C  C361  1  0.81533000  0.41195000  0.26005000  1.0 0.5808640262
C  C362  1  0.89224000  0.33548000  0.26250000  1.0 -0.1709296433
C  C363  1  0.84230000  0.35828000  0.28528000  1.0 0.0103854173
C  C364  1  0.05571000  0.23049000  0.25727000  1.0 0.0405743927
C  C365  1  0.00604000  0.25366000  0.28044000  1.0 0.0405743927
C  C366  1  0.99250000  0.26696000  0.32052000  1.0 -0.1167245277
C  C367  1  0.02864000  0.25708000  0.33742000  1.0 -0.0883918994
C  C368  1  0.07831000  0.23391000  0.31425000  1.0 -0.1787278962
C  C369  1  0.09185000  0.22061000  0.27417000  1.0 -0.0883918994
C  C370  1  0.03310000  0.22708000  0.20030000  1.0 0.0405743927
C  C371  1  0.98343000  0.25025000  0.22347000  1.0 0.0405743927
C  C372  1  0.94729000  0.26011000  0.20657000  1.0 -0.0729034824
C  C373  1  0.96082000  0.24682000  0.16650000  1.0 -0.1402844516
C  C374  1  0.01049000  0.22365000  0.14333000  1.0 -0.1318848884
C  C375  1  0.04663000  0.21377000  0.16023000  1.0 -0.0729034824
C  C376  1  0.26005000  0.51267000  0.81533000  1.0 0.5808640262
C  C377  1  0.26250000  0.50978000  0.89224000  1.0 -0.1709296433
C  C378  1  0.28528000  0.51414000  0.84230000  1.0 0.0103854173
C  C379  1  0.25727000  0.45653000  0.05571000  1.0 0.0405743927
C  C380  1  0.28044000  0.45986000  0.00604000  1.0 0.0405743927
C  C381  1  0.32052000  0.42002000  0.99250000  1.0 -0.1167245277
C  C382  1  0.33742000  0.37686000  0.02864000  1.0 -0.0883918994
C  C383  1  0.31425000  0.37353000  0.07831000  1.0 -0.1787278962
C  C384  1  0.27417000  0.41337000  0.09185000  1.0 -0.0883918994
C  C385  1  0.20030000  0.53952000  0.03310000  1.0 0.0405743927
C  C386  1  0.22347000  0.54285000  0.98343000  1.0 0.0405743927
C  C387  1  0.20657000  0.58603000  0.94729000  1.0 -0.0729034824
C  C388  1  0.16650000  0.62586000  0.96082000  1.0 -0.1402844516
C  C389  1  0.14333000  0.62253000  0.01049000  1.0 -0.1318848884
C  C390  1  0.16023000  0.57937000  0.04663000  1.0 -0.0752502763
C  C391  1  0.41195000  0.81533000  0.51267000  1.0 0.5808640262
C  C392  1  0.33548000  0.89224000  0.50978000  1.0 -0.1709296433
C  C393  1  0.35828000  0.84230000  0.51414000  1.0 0.0103854173
C  C394  1  0.23049000  0.05571000  0.45653000  1.0 0.0405743927
C  C395  1  0.25366000  0.00604000  0.45986000  1.0 0.0405743927
C  C396  1  0.26696000  0.99250000  0.42002000  1.0 -0.1167245277
C  C397  1  0.25708000  0.02864000  0.37686000  1.0 -0.0883918994
C  C398  1  0.23391000  0.07831000  0.37353000  1.0 -0.1787278962
C  C399  1  0.22061000  0.09185000  0.41337000  1.0 -0.0883918994
C  C400  1  0.22708000  0.03310000  0.53952000  1.0 0.0405743927
C  C401  1  0.25025000  0.98343000  0.54285000  1.0 0.0405743927
C  C402  1  0.26011000  0.94729000  0.58603000  1.0 -0.0729034824
C  C403  1  0.24682000  0.96082000  0.62586000  1.0 -0.1402844516
C  C404  1  0.22365000  0.01049000  0.62253000  1.0 -0.1318848884
C  C405  1  0.21377000  0.04663000  0.57937000  1.0 -0.0729034824
C  C406  1  0.51267000  0.26005000  0.41195000  1.0 0.5808640262
C  C407  1  0.50978000  0.26250000  0.33548000  1.0 -0.1709296433
C  C408  1  0.51414000  0.28528000  0.35828000  1.0 0.0103854173
C  C409  1  0.45653000  0.25727000  0.23049000  1.0 0.0405743927
C  C410  1  0.45986000  0.28044000  0.25366000  1.0 0.0405743927
C  C411  1  0.42002000  0.32052000  0.26696000  1.0 -0.1167245277
C  C412  1  0.37686000  0.33742000  0.25708000  1.0 -0.0883918994
C  C413  1  0.37353000  0.31425000  0.23391000  1.0 -0.1787278962
C  C414  1  0.41337000  0.27417000  0.22061000  1.0 -0.0883918994
C  C415  1  0.53952000  0.20030000  0.22708000  1.0 0.0405743927
C  C416  1  0.54285000  0.22347000  0.25025000  1.0 0.0405743927
C  C417  1  0.58603000  0.20657000  0.26011000  1.0 -0.0729034824
C  C418  1  0.62586000  0.16650000  0.24682000  1.0 -0.1402844516
C  C419  1  0.62253000  0.14333000  0.22365000  1.0 -0.1318848884
C  C420  1  0.57937000  0.16023000  0.21377000  1.0 -0.0729034824
C  C421  1  0.41195000  0.26005000  0.81533000  1.0 0.5808640262
C  C422  1  0.33548000  0.26250000  0.89224000  1.0 -0.1709296433
C  C423  1  0.35828000  0.28528000  0.84230000  1.0 0.0103854173
C  C424  1  0.23049000  0.25727000  0.05571000  1.0 0.0405743927
C  C425  1  0.25366000  0.28044000  0.00604000  1.0 0.0405743927
C  C426  1  0.26696000  0.32052000  0.99250000  1.0 -0.1167245277
C  C427  1  0.25708000  0.33742000  0.02864000  1.0 -0.0883918994
C  C428  1  0.23391000  0.31425000  0.07831000  1.0 -0.1787278962
C  C429  1  0.22061000  0.27417000  0.09185000  1.0 -0.0883918994
C  C430  1  0.22708000  0.20030000  0.03310000  1.0 0.0405743927
C  C431  1  0.25025000  0.22347000  0.98343000  1.0 0.0405743927
C  C432  1  0.26011000  0.20657000  0.94729000  1.0 -0.0729034824
C  C433  1  0.24682000  0.16650000  0.96082000  1.0 -0.1402844516
C  C434  1  0.22365000  0.14333000  0.01049000  1.0 -0.1318848884
C  C435  1  0.21377000  0.16023000  0.04663000  1.0 -0.0729034824
C  C436  1  0.51267000  0.81533000  0.26005000  1.0 0.5808640262
C  C437  1  0.50978000  0.89224000  0.26250000  1.0 -0.1709296433
C  C438  1  0.51414000  0.84230000  0.28528000  1.0 0.0103854173
C  C439  1  0.45653000  0.05571000  0.25727000  1.0 0.0405743927
C  C440  1  0.45986000  0.00604000  0.28044000  1.0 0.0405743927
C  C441  1  0.42002000  0.99250000  0.32052000  1.0 -0.1167245277
C  C442  1  0.37686000  0.02864000  0.33742000  1.0 -0.0883918994
C  C443  1  0.37353000  0.07831000  0.31425000  1.0 -0.1787278962
C  C444  1  0.41337000  0.09185000  0.27417000  1.0 -0.0883918994
C  C445  1  0.53952000  0.03310000  0.20030000  1.0 0.0405743927
C  C446  1  0.54285000  0.98343000  0.22347000  1.0 0.0405743927
C  C447  1  0.58603000  0.94729000  0.20657000  1.0 -0.0729034824
C  C448  1  0.62586000  0.96082000  0.16650000  1.0 -0.1402844516
C  C449  1  0.62253000  0.01049000  0.14333000  1.0 -0.1318848884
C  C450  1  0.57937000  0.04663000  0.16023000  1.0 -0.0729034824
C  C451  1  0.81533000  0.51267000  0.41195000  1.0 0.5808640262
C  C452  1  0.89224000  0.50978000  0.33548000  1.0 -0.1709296433
C  C453  1  0.84230000  0.51414000  0.35828000  1.0 0.0103854173
C  C454  1  0.05571000  0.45653000  0.23049000  1.0 0.0405743927
C  C455  1  0.00604000  0.45986000  0.25366000  1.0 0.0405743927
C  C456  1  0.99250000  0.42002000  0.26696000  1.0 -0.1167245277
C  C457  1  0.02864000  0.37686000  0.25708000  1.0 -0.0883918994
C  C458  1  0.07831000  0.37353000  0.23391000  1.0 -0.1787278962
C  C459  1  0.09185000  0.41337000  0.22061000  1.0 -0.0883918994
C  C460  1  0.03310000  0.53952000  0.22708000  1.0 0.0405743927
C  C461  1  0.98343000  0.54285000  0.25025000  1.0 0.0405743927
C  C462  1  0.94729000  0.58603000  0.26011000  1.0 -0.0729034824
C  C463  1  0.96082000  0.62586000  0.24682000  1.0 -0.1402844516
C  C464  1  0.01049000  0.62253000  0.22365000  1.0 -0.1318848884
C  C465  1  0.04663000  0.57937000  0.21377000  1.0 -0.0729034824
C  C466  1  0.26005000  0.41195000  0.51267000  1.0 0.5808640262
C  C467  1  0.26250000  0.33548000  0.50978000  1.0 -0.1709296433
C  C468  1  0.28528000  0.35828000  0.51414000  1.0 0.0103854173
C  C469  1  0.25727000  0.23049000  0.45653000  1.0 0.0405743927
C  C470  1  0.28044000  0.25366000  0.45986000  1.0 0.0405743927
C  C471  1  0.32052000  0.26696000  0.42002000  1.0 -0.1167245277
C  C472  1  0.33742000  0.25708000  0.37686000  1.0 -0.0883918994
C  C473  1  0.31425000  0.23391000  0.37353000  1.0 -0.1787278962
C  C474  1  0.27417000  0.22061000  0.41337000  1.0 -0.0883918994
C  C475  1  0.20030000  0.22708000  0.53952000  1.0 0.0405743927
C  C476  1  0.22347000  0.25025000  0.54285000  1.0 0.0405743927
C  C477  1  0.20657000  0.26011000  0.58603000  1.0 -0.0729034824
C  C478  1  0.16650000  0.24682000  0.62586000  1.0 -0.1402844516
C  C479  1  0.14333000  0.22365000  0.62253000  1.0 -0.1318848884
C  C480  1  0.16023000  0.21377000  0.57937000  1.0 -0.0729034824
C  C481  1  0.26005000  0.81533000  0.41195000  1.0 0.5808640262
C  C482  1  0.26250000  0.89224000  0.33548000  1.0 -0.1709296433
C  C483  1  0.28528000  0.84230000  0.35828000  1.0 0.0103854173
C  C484  1  0.25727000  0.05571000  0.23049000  1.0 0.0405743927
C  C485  1  0.28044000  0.00604000  0.25366000  1.0 0.0405743927
C  C486  1  0.32052000  0.99250000  0.26696000  1.0 -0.1167245277
C  C487  1  0.33742000  0.02864000  0.25708000  1.0 -0.0883918994
C  C488  1  0.31425000  0.07831000  0.23391000  1.0 -0.1787278962
C  C489  1  0.27417000  0.09185000  0.22061000  1.0 -0.0883918994
C  C490  1  0.20030000  0.03310000  0.22708000  1.0 0.0405743927
C  C491  1  0.22347000  0.98343000  0.25025000  1.0 0.0405743927
C  C492  1  0.20657000  0.94729000  0.26011000  1.0 -0.0729034824
C  C493  1  0.16650000  0.96082000  0.24682000  1.0 -0.1402844516
C  C494  1  0.14333000  0.01049000  0.22365000  1.0 -0.1318848884
C  C495  1  0.16023000  0.04663000  0.21377000  1.0 -0.0729034824
C  C496  1  0.81533000  0.26005000  0.51267000  1.0 0.5808640262
C  C497  1  0.89224000  0.26250000  0.50978000  1.0 -0.1709296433
C  C498  1  0.84230000  0.28528000  0.51414000  1.0 0.0103854173
C  C499  1  0.05571000  0.25727000  0.45653000  1.0 0.0405743927
C  C500  1  0.00604000  0.28044000  0.45986000  1.0 0.0405743927
C  C501  1  0.99250000  0.32052000  0.42002000  1.0 -0.1167245277
C  C502  1  0.02864000  0.33742000  0.37686000  1.0 -0.0883918994
C  C503  1  0.07831000  0.31425000  0.37353000  1.0 -0.1787278962
C  C504  1  0.09185000  0.27417000  0.41337000  1.0 -0.0883918994
C  C505  1  0.03310000  0.20030000  0.53952000  1.0 0.0405743927
C  C506  1  0.98343000  0.22347000  0.54285000  1.0 0.0405743927
C  C507  1  0.94729000  0.20657000  0.58603000  1.0 -0.0729034824
C  C508  1  0.96082000  0.16650000  0.62586000  1.0 -0.1402844516
C  C509  1  0.01049000  0.14333000  0.62253000  1.0 -0.1318848884
C  C510  1  0.04663000  0.16023000  0.57937000  1.0 -0.0729034824
C  C511  1  0.51267000  0.41195000  0.81533000  1.0 0.5808640262
C  C512  1  0.50978000  0.33548000  0.89224000  1.0 -0.1709296433
C  C513  1  0.51414000  0.35828000  0.84230000  1.0 0.0103854173
C  C514  1  0.45653000  0.23049000  0.05571000  1.0 0.0405743927
C  C515  1  0.45986000  0.25366000  0.00604000  1.0 0.0405743927
C  C516  1  0.42002000  0.26696000  0.99250000  1.0 -0.1167245277
C  C517  1  0.37686000  0.25708000  0.02864000  1.0 -0.0883918994
C  C518  1  0.37353000  0.23391000  0.07831000  1.0 -0.1787278962
C  C519  1  0.41337000  0.22061000  0.09185000  1.0 -0.0883918994
C  C520  1  0.53952000  0.22708000  0.03310000  1.0 0.0405743927
C  C521  1  0.54285000  0.25025000  0.98343000  1.0 0.0405743927
C  C522  1  0.58603000  0.26011000  0.94729000  1.0 -0.0729034824
C  C523  1  0.62586000  0.24682000  0.96082000  1.0 -0.1402844516
C  C524  1  0.62253000  0.22365000  0.01049000  1.0 -0.1318848884
C  C525  1  0.57937000  0.21377000  0.04663000  1.0 -0.0729034824
C  C526  1  0.41195000  0.51267000  0.26005000  1.0 0.5808640262
C  C527  1  0.33548000  0.50978000  0.26250000  1.0 -0.1709296433
C  C528  1  0.35828000  0.51414000  0.28528000  1.0 0.0103854173
C  C529  1  0.23049000  0.45653000  0.25727000  1.0 0.0405743927
C  C530  1  0.25366000  0.45986000  0.28044000  1.0 0.0405743927
C  C531  1  0.26696000  0.42002000  0.32052000  1.0 -0.1167245277
C  C532  1  0.25708000  0.37686000  0.33742000  1.0 -0.0883918994
C  C533  1  0.23391000  0.37353000  0.31425000  1.0 -0.1787278962
C  C534  1  0.22061000  0.41337000  0.27417000  1.0 -0.0883918994
C  C535  1  0.22708000  0.53952000  0.20030000  1.0 0.0405743927
C  C536  1  0.25025000  0.54285000  0.22347000  1.0 0.0405743927
C  C537  1  0.26011000  0.58603000  0.20657000  1.0 -0.0729034824
C  C538  1  0.24682000  0.62586000  0.16650000  1.0 -0.1402844516
C  C539  1  0.22365000  0.62253000  0.14333000  1.0 -0.1318848884
C  C540  1  0.21377000  0.57937000  0.16023000  1.0 -0.0729034824
C  C541  1  0.18467000  0.48733000  0.73995000  1.0 0.5808640262
C  C542  1  0.10776000  0.49022000  0.73750000  1.0 -0.1709296433
C  C543  1  0.15770000  0.48586000  0.71472000  1.0 0.0103854173
C  C544  1  0.94429000  0.54347000  0.74273000  1.0 0.0405743927
C  C545  1  0.99396000  0.54014000  0.71956000  1.0 0.0405743927
C  C546  1  0.00750000  0.57998000  0.67948000  1.0 -0.1167245277
C  C547  1  0.97136000  0.62314000  0.66258000  1.0 -0.0883918994
C  C548  1  0.92169000  0.62647000  0.68575000  1.0 -0.1787278962
C  C549  1  0.90815000  0.58663000  0.72583000  1.0 -0.0883918994
C  C550  1  0.96690000  0.46048000  0.79970000  1.0 0.0405743927
C  C551  1  0.01657000  0.45715000  0.77653000  1.0 0.0405743927
C  C552  1  0.05271000  0.41397000  0.79343000  1.0 -0.0729034824
C  C553  1  0.03918000  0.37414000  0.83350000  1.0 -0.1402844516
C  C554  1  0.98951000  0.37747000  0.85667000  1.0 -0.1318848884
C  C555  1  0.95337000  0.42063000  0.83977000  1.0 -0.0729034824
C  C556  1  0.73995000  0.58805000  0.18467000  1.0 0.5808640262
C  C557  1  0.73750000  0.66452000  0.10776000  1.0 -0.1709296433
C  C558  1  0.71472000  0.64172000  0.15770000  1.0 0.0103854173
C  C559  1  0.74273000  0.76951000  0.94429000  1.0 0.0405743927
C  C560  1  0.71956000  0.74634000  0.99396000  1.0 0.0405743927
C  C561  1  0.67948000  0.73304000  0.00750000  1.0 -0.1167245277
C  C562  1  0.66258000  0.74292000  0.97136000  1.0 -0.0883918994
C  C563  1  0.68575000  0.76609000  0.92169000  1.0 -0.1787278962
C  C564  1  0.72583000  0.77939000  0.90815000  1.0 -0.0883918994
C  C565  1  0.79970000  0.77292000  0.96690000  1.0 0.0405743927
C  C566  1  0.77653000  0.74975000  0.01657000  1.0 0.0405743927
C  C567  1  0.79343000  0.73989000  0.05271000  1.0 -0.0729034824
C  C568  1  0.83350000  0.75318000  0.03918000  1.0 -0.1402844516
C  C569  1  0.85667000  0.77635000  0.98951000  1.0 -0.1318848884
C  C570  1  0.83977000  0.78623000  0.95337000  1.0 -0.0729034824
C  C571  1  0.58805000  0.73995000  0.48733000  1.0 0.5808640262
C  C572  1  0.66452000  0.73750000  0.49022000  1.0 -0.1709296433
C  C573  1  0.64172000  0.71472000  0.48586000  1.0 0.0103854173
C  C574  1  0.76951000  0.74273000  0.54347000  1.0 0.0405743927
C  C575  1  0.74634000  0.71956000  0.54014000  1.0 0.0405743927
C  C576  1  0.73304000  0.67948000  0.57998000  1.0 -0.1167245277
C  C577  1  0.74292000  0.66258000  0.62314000  1.0 -0.0883918994
C  C578  1  0.76609000  0.68575000  0.62647000  1.0 -0.1787278962
C  C579  1  0.77939000  0.72583000  0.58663000  1.0 -0.0883918994
C  C580  1  0.77292000  0.79970000  0.46048000  1.0 0.0405743927
C  C581  1  0.74975000  0.77653000  0.45715000  1.0 0.0405743927
C  C582  1  0.73989000  0.79343000  0.41397000  1.0 -0.0729034824
C  C583  1  0.75318000  0.83350000  0.37414000  1.0 -0.1402844516
C  C584  1  0.77635000  0.85667000  0.37747000  1.0 -0.1318848884
C  C585  1  0.78623000  0.83977000  0.42063000  1.0 -0.0729034824
C  C586  1  0.48733000  0.18467000  0.58805000  1.0 0.5808640262
C  C587  1  0.49022000  0.10776000  0.66452000  1.0 -0.1709296433
C  C588  1  0.48586000  0.15770000  0.64172000  1.0 0.0103854173
C  C589  1  0.54347000  0.94429000  0.76951000  1.0 0.0405743927
C  C590  1  0.54014000  0.99396000  0.74634000  1.0 0.0405743927
C  C591  1  0.57998000  0.00750000  0.73304000  1.0 -0.1167245277
C  C592  1  0.62314000  0.97136000  0.74292000  1.0 -0.0883918994
C  C593  1  0.62647000  0.92169000  0.76609000  1.0 -0.1787278962
C  C594  1  0.58663000  0.90815000  0.77939000  1.0 -0.0883918994
C  C595  1  0.46048000  0.96690000  0.77292000  1.0 0.0405743927
C  C596  1  0.45715000  0.01657000  0.74975000  1.0 0.0405743927
C  C597  1  0.41397000  0.05271000  0.73989000  1.0 -0.0729034824
C  C598  1  0.37414000  0.03918000  0.75318000  1.0 -0.1402844516
C  C599  1  0.37747000  0.98951000  0.77635000  1.0 -0.1318848884
C  C600  1  0.42063000  0.95337000  0.78623000  1.0 -0.0729034824
C  C601  1  0.58805000  0.48733000  0.18467000  1.0 0.5808640262
C  C602  1  0.66452000  0.49022000  0.10776000  1.0 -0.1709296433
C  C603  1  0.64172000  0.48586000  0.15770000  1.0 0.0103854173
C  C604  1  0.76951000  0.54347000  0.94429000  1.0 0.0405743927
C  C605  1  0.74634000  0.54014000  0.99396000  1.0 0.0405743927
C  C606  1  0.73304000  0.57998000  0.00750000  1.0 -0.1167245277
C  C607  1  0.74292000  0.62314000  0.97136000  1.0 -0.0883918994
C  C608  1  0.76609000  0.62647000  0.92169000  1.0 -0.1787278962
C  C609  1  0.77939000  0.58663000  0.90815000  1.0 -0.0883918994
C  C610  1  0.77292000  0.46048000  0.96690000  1.0 0.0405743927
C  C611  1  0.74975000  0.45715000  0.01657000  1.0 0.0405743927
C  C612  1  0.73989000  0.41397000  0.05271000  1.0 -0.0729034824
C  C613  1  0.75318000  0.37414000  0.03918000  1.0 -0.1402844516
C  C614  1  0.77635000  0.37747000  0.98951000  1.0 -0.1318848884
C  C615  1  0.78623000  0.42063000  0.95337000  1.0 -0.0729034824
C  C616  1  0.48733000  0.58805000  0.73995000  1.0 0.5808640262
C  C617  1  0.49022000  0.66452000  0.73750000  1.0 -0.1709296433
C  C618  1  0.48586000  0.64172000  0.71472000  1.0 0.0103854173
C  C619  1  0.54347000  0.76951000  0.74273000  1.0 0.0405743927
C  C620  1  0.54014000  0.74634000  0.71956000  1.0 0.0405743927
C  C621  1  0.57998000  0.73304000  0.67948000  1.0 -0.1167245277
C  C622  1  0.62314000  0.74292000  0.66258000  1.0 -0.0883918994
C  C623  1  0.62647000  0.76609000  0.68575000  1.0 -0.1787278962
C  C624  1  0.58663000  0.77939000  0.72583000  1.0 -0.0883918994
C  C625  1  0.46048000  0.77292000  0.79970000  1.0 0.0405743927
C  C626  1  0.45715000  0.74975000  0.77653000  1.0 0.0405743927
C  C627  1  0.41397000  0.73989000  0.79343000  1.0 -0.0729034824
C  C628  1  0.37414000  0.75318000  0.83350000  1.0 -0.1402844516
C  C629  1  0.37747000  0.77635000  0.85667000  1.0 -0.1318848884
C  C630  1  0.42063000  0.78623000  0.83977000  1.0 -0.0752502763
C  C631  1  0.18467000  0.73995000  0.58805000  1.0 0.5808640262
C  C632  1  0.10776000  0.73750000  0.66452000  1.0 -0.1709296433
C  C633  1  0.15770000  0.71472000  0.64172000  1.0 0.0103854173
C  C634  1  0.94429000  0.74273000  0.76951000  1.0 0.0405743927
C  C635  1  0.99396000  0.71956000  0.74634000  1.0 0.0405743927
C  C636  1  0.00750000  0.67948000  0.73304000  1.0 -0.1167245277
C  C637  1  0.97136000  0.66258000  0.74292000  1.0 -0.0883918994
C  C638  1  0.92169000  0.68575000  0.76609000  1.0 -0.1787278962
C  C639  1  0.90815000  0.72583000  0.77939000  1.0 -0.0883918994
C  C640  1  0.96690000  0.79970000  0.77292000  1.0 0.0405743927
C  C641  1  0.01657000  0.77653000  0.74975000  1.0 0.0405743927
C  C642  1  0.05271000  0.79343000  0.73989000  1.0 -0.0729034824
C  C643  1  0.03918000  0.83350000  0.75318000  1.0 -0.1402844516
C  C644  1  0.98951000  0.85667000  0.77635000  1.0 -0.1318848884
C  C645  1  0.95337000  0.83977000  0.78623000  1.0 -0.0729034824
C  C646  1  0.73995000  0.18467000  0.48733000  1.0 0.5808640262
C  C647  1  0.73750000  0.10776000  0.49022000  1.0 -0.1709296433
C  C648  1  0.71472000  0.15770000  0.48586000  1.0 0.0103854173
C  C649  1  0.74273000  0.94429000  0.54347000  1.0 0.0405743927
C  C650  1  0.71956000  0.99396000  0.54014000  1.0 0.0405743927
C  C651  1  0.67948000  0.00750000  0.57998000  1.0 -0.1167245277
C  C652  1  0.66258000  0.97136000  0.62314000  1.0 -0.0883918994
C  C653  1  0.68575000  0.92169000  0.62647000  1.0 -0.1787278962
C  C654  1  0.72583000  0.90815000  0.58663000  1.0 -0.0883918994
C  C655  1  0.79970000  0.96690000  0.46048000  1.0 0.0405743927
C  C656  1  0.77653000  0.01657000  0.45715000  1.0 0.0405743927
C  C657  1  0.79343000  0.05271000  0.41397000  1.0 -0.0729034824
C  C658  1  0.83350000  0.03918000  0.37414000  1.0 -0.1402844516
C  C659  1  0.85667000  0.98951000  0.37747000  1.0 -0.1318848884
C  C660  1  0.83977000  0.95337000  0.42063000  1.0 -0.0729034824
C  C661  1  0.73995000  0.48733000  0.58805000  1.0 0.5808640262
C  C662  1  0.73750000  0.49022000  0.66452000  1.0 -0.1709296433
C  C663  1  0.71472000  0.48586000  0.64172000  1.0 0.0103854173
C  C664  1  0.74273000  0.54347000  0.76951000  1.0 0.0405743927
C  C665  1  0.71956000  0.54014000  0.74634000  1.0 0.0405743927
C  C666  1  0.67948000  0.57998000  0.73304000  1.0 -0.1167245277
C  C667  1  0.66258000  0.62314000  0.74292000  1.0 -0.0883918994
C  C668  1  0.68575000  0.62647000  0.76609000  1.0 -0.1787278962
C  C669  1  0.72583000  0.58663000  0.77939000  1.0 -0.0883918994
C  C670  1  0.79970000  0.46048000  0.77292000  1.0 0.0405743927
C  C671  1  0.77653000  0.45715000  0.74975000  1.0 0.0405743927
C  C672  1  0.79343000  0.41397000  0.73989000  1.0 -0.0729034824
C  C673  1  0.83350000  0.37414000  0.75318000  1.0 -0.1402844516
C  C674  1  0.85667000  0.37747000  0.77635000  1.0 -0.1318848884
C  C675  1  0.83977000  0.42063000  0.78623000  1.0 -0.0729034824
C  C676  1  0.18467000  0.58805000  0.48733000  1.0 0.5808640262
C  C677  1  0.10776000  0.66452000  0.49022000  1.0 -0.1709296433
C  C678  1  0.15770000  0.64172000  0.48586000  1.0 0.0103854173
C  C679  1  0.94429000  0.76951000  0.54347000  1.0 0.0405743927
C  C680  1  0.99396000  0.74634000  0.54014000  1.0 0.0405743927
C  C681  1  0.00750000  0.73304000  0.57998000  1.0 -0.1167245277
C  C682  1  0.97136000  0.74292000  0.62314000  1.0 -0.0883918994
C  C683  1  0.92169000  0.76609000  0.62647000  1.0 -0.1787278962
C  C684  1  0.90815000  0.77939000  0.58663000  1.0 -0.0883918994
C  C685  1  0.96690000  0.77292000  0.46048000  1.0 0.0405743927
C  C686  1  0.01657000  0.74975000  0.45715000  1.0 0.0405743927
C  C687  1  0.05271000  0.73989000  0.41397000  1.0 -0.0729034824
C  C688  1  0.03918000  0.75318000  0.37414000  1.0 -0.1402844516
C  C689  1  0.98951000  0.77635000  0.37747000  1.0 -0.1318848884
C  C690  1  0.95337000  0.78623000  0.42063000  1.0 -0.0752502763
C  C691  1  0.48733000  0.73995000  0.18467000  1.0 0.5808640262
C  C692  1  0.49022000  0.73750000  0.10776000  1.0 -0.1709296433
C  C693  1  0.48586000  0.71472000  0.15770000  1.0 0.0103854173
C  C694  1  0.54347000  0.74273000  0.94429000  1.0 0.0405743927
C  C695  1  0.54014000  0.71956000  0.99396000  1.0 0.0405743927
C  C696  1  0.57998000  0.67948000  0.00750000  1.0 -0.1167245277
C  C697  1  0.62314000  0.66258000  0.97136000  1.0 -0.0883918994
C  C698  1  0.62647000  0.68575000  0.92169000  1.0 -0.1787278962
C  C699  1  0.58663000  0.72583000  0.90815000  1.0 -0.0883918994
C  C700  1  0.46048000  0.79970000  0.96690000  1.0 0.0405743927
C  C701  1  0.45715000  0.77653000  0.01657000  1.0 0.0405743927
C  C702  1  0.41397000  0.79343000  0.05271000  1.0 -0.0729034824
C  C703  1  0.37414000  0.83350000  0.03918000  1.0 -0.1402844516
C  C704  1  0.37747000  0.85667000  0.98951000  1.0 -0.1318848884
C  C705  1  0.42063000  0.83977000  0.95337000  1.0 -0.0729034824
C  C706  1  0.58805000  0.18467000  0.73995000  1.0 0.5808640262
C  C707  1  0.66452000  0.10776000  0.73750000  1.0 -0.1709296433
C  C708  1  0.64172000  0.15770000  0.71472000  1.0 0.0103854173
C  C709  1  0.76951000  0.94429000  0.74273000  1.0 0.0405743927
C  C710  1  0.74634000  0.99396000  0.71956000  1.0 0.0405743927
C  C711  1  0.73304000  0.00750000  0.67948000  1.0 -0.1167245277
C  C712  1  0.74292000  0.97136000  0.66258000  1.0 -0.0883918994
C  C713  1  0.76609000  0.92169000  0.68575000  1.0 -0.1787278962
C  C714  1  0.77939000  0.90815000  0.72583000  1.0 -0.0883918994
C  C715  1  0.77292000  0.96690000  0.79970000  1.0 0.0405743927
C  C716  1  0.74975000  0.01657000  0.77653000  1.0 0.0405743927
C  C717  1  0.73989000  0.05271000  0.79343000  1.0 -0.0729034824
C  C718  1  0.75318000  0.03918000  0.83350000  1.0 -0.1402844516
C  C719  1  0.77635000  0.98951000  0.85667000  1.0 -0.1318848884
C  C720  1  0.78623000  0.95337000  0.83977000  1.0 -0.0729034824
C  C721  1  0.08279000  0.71241000  0.71241000  1.0 0.0663325281
C  C722  1  0.18266000  0.66682000  0.66682000  1.0 -0.1402844516
C  C723  1  0.93076000  0.78280000  0.78280000  1.0 -0.0117090984
C  C724  1  0.03010000  0.73646000  0.73646000  1.0 -0.0177935385
C  C725  1  0.87965000  0.80665000  0.80665000  1.0 0.0635302033
C  C726  1  0.71241000  0.49239000  0.08279000  1.0 0.0663325281
C  C727  1  0.66682000  0.48370000  0.18266000  1.0 -0.1402844516
C  C728  1  0.78280000  0.50364000  0.93076000  1.0 -0.0117090984
C  C729  1  0.73646000  0.49698000  0.03010000  1.0 -0.0177935385
C  C730  1  0.80665000  0.50705000  0.87965000  1.0 0.0635302033
C  C731  1  0.71241000  0.08279000  0.49239000  1.0 0.0663325281
C  C732  1  0.66682000  0.18266000  0.48370000  1.0 -0.1402844516
C  C733  1  0.78280000  0.93076000  0.50364000  1.0 -0.0117090984
C  C734  1  0.73646000  0.03010000  0.49698000  1.0 -0.0177935385
C  C735  1  0.80665000  0.87965000  0.50705000  1.0 0.0635302033
C  C736  1  0.49239000  0.71241000  0.71241000  1.0 0.0663325281
C  C737  1  0.48370000  0.66682000  0.66682000  1.0 -0.1402844516
C  C738  1  0.50364000  0.78280000  0.78280000  1.0 -0.0117090984
C  C739  1  0.49698000  0.73646000  0.73646000  1.0 -0.0177935385
C  C740  1  0.50705000  0.80665000  0.80665000  1.0 0.0635302033
C  C741  1  0.71241000  0.71241000  0.08279000  1.0 0.0663325281
C  C742  1  0.66682000  0.66682000  0.18266000  1.0 -0.1402844516
C  C743  1  0.78280000  0.78280000  0.93076000  1.0 -0.0117090984
C  C744  1  0.73646000  0.73646000  0.03010000  1.0 -0.0177935385
C  C745  1  0.80665000  0.80665000  0.87965000  1.0 0.0635302033
C  C746  1  0.49239000  0.08279000  0.71241000  1.0 0.0663325281
C  C747  1  0.48370000  0.18266000  0.66682000  1.0 -0.1402844516
C  C748  1  0.50364000  0.93076000  0.78280000  1.0 -0.0117090984
C  C749  1  0.49698000  0.03010000  0.73646000  1.0 -0.0177935385
C  C750  1  0.50705000  0.87965000  0.80665000  1.0 0.0635302033
C  C751  1  0.08279000  0.49239000  0.71241000  1.0 0.0663325281
C  C752  1  0.18266000  0.48370000  0.66682000  1.0 -0.1402844516
C  C753  1  0.93076000  0.50364000  0.78280000  1.0 -0.0117090984
C  C754  1  0.03010000  0.49698000  0.73646000  1.0 -0.0177935385
C  C755  1  0.87965000  0.50705000  0.80665000  1.0 0.0635302033
C  C756  1  0.71241000  0.71241000  0.49239000  1.0 0.0663325281
C  C757  1  0.66682000  0.66682000  0.48370000  1.0 -0.1402844516
C  C758  1  0.78280000  0.78280000  0.50364000  1.0 -0.0117090984
C  C759  1  0.73646000  0.73646000  0.49698000  1.0 -0.0177935385
C  C760  1  0.80665000  0.80665000  0.50705000  1.0 0.0635302033
C  C761  1  0.71241000  0.08279000  0.71241000  1.0 0.0663325281
C  C762  1  0.66682000  0.18266000  0.66682000  1.0 -0.1402844516
C  C763  1  0.78280000  0.93076000  0.78280000  1.0 -0.0117090984
C  C764  1  0.73646000  0.03010000  0.73646000  1.0 -0.0177935385
C  C765  1  0.80665000  0.87965000  0.80665000  1.0 0.0635302033
C  C766  1  0.08279000  0.71241000  0.49239000  1.0 0.0663325281
C  C767  1  0.18266000  0.66682000  0.48370000  1.0 -0.1402844516
C  C768  1  0.93076000  0.78280000  0.50364000  1.0 -0.0117090984
C  C769  1  0.03010000  0.73646000  0.49698000  1.0 -0.0177935385
C  C770  1  0.87965000  0.80665000  0.50705000  1.0 0.0635302033
C  C771  1  0.49239000  0.71241000  0.08279000  1.0 0.0663325281
C  C772  1  0.48370000  0.66682000  0.18266000  1.0 -0.1402844516
C  C773  1  0.50364000  0.78280000  0.93076000  1.0 -0.0117090984
C  C774  1  0.49698000  0.73646000  0.03010000  1.0 -0.0177935385
C  C775  1  0.50705000  0.80665000  0.87965000  1.0 0.0635302033
C  C776  1  0.71241000  0.49239000  0.71241000  1.0 0.0663325281
C  C777  1  0.66682000  0.48370000  0.66682000  1.0 -0.1402844516
C  C778  1  0.78280000  0.50364000  0.78280000  1.0 -0.0117090984
C  C779  1  0.73646000  0.49698000  0.73646000  1.0 -0.0177935385
C  C780  1  0.80665000  0.50705000  0.80665000  1.0 0.0635302033
C  C781  1  0.91721000  0.50761000  0.28759000  1.0 0.0663325281
C  C782  1  0.81734000  0.51630000  0.33318000  1.0 -0.1402844516
C  C783  1  0.06924000  0.49636000  0.21720000  1.0 -0.0117090984
C  C784  1  0.96990000  0.50302000  0.26354000  1.0 -0.0177935385
C  C785  1  0.12035000  0.49295000  0.19335000  1.0 0.0635302033
C  C786  1  0.28759000  0.28759000  0.91721000  1.0 0.0663325281
C  C787  1  0.33318000  0.33318000  0.81734000  1.0 -0.1402844516
C  C788  1  0.21720000  0.21720000  0.06924000  1.0 -0.0117090984
C  C789  1  0.26354000  0.26354000  0.96990000  1.0 -0.0177935385
C  C790  1  0.19335000  0.19335000  0.12035000  1.0 0.0635302033
C  C791  1  0.28759000  0.28759000  0.50761000  1.0 0.0663325281
C  C792  1  0.33318000  0.33318000  0.51630000  1.0 -0.1402844516
C  C793  1  0.21720000  0.21720000  0.49636000  1.0 -0.0117090984
C  C794  1  0.26354000  0.26354000  0.50302000  1.0 -0.0177935385
C  C795  1  0.19335000  0.19335000  0.49295000  1.0 0.0635302033
C  C796  1  0.50761000  0.91721000  0.28759000  1.0 0.0663325281
C  C797  1  0.51630000  0.81734000  0.33318000  1.0 -0.1402844516
C  C798  1  0.49636000  0.06924000  0.21720000  1.0 -0.0117090984
C  C799  1  0.50302000  0.96990000  0.26354000  1.0 -0.0177935385
C  C800  1  0.49295000  0.12035000  0.19335000  1.0 0.0635302033
C  C801  1  0.28759000  0.50761000  0.91721000  1.0 0.0663325281
C  C802  1  0.33318000  0.51630000  0.81734000  1.0 -0.1402844516
C  C803  1  0.21720000  0.49636000  0.06924000  1.0 -0.0117090984
C  C804  1  0.26354000  0.50302000  0.96990000  1.0 -0.0177935385
C  C805  1  0.19335000  0.49295000  0.12035000  1.0 0.0635302033
C  C806  1  0.50761000  0.28759000  0.28759000  1.0 0.0663325281
C  C807  1  0.51630000  0.33318000  0.33318000  1.0 -0.1402844516
C  C808  1  0.49636000  0.21720000  0.21720000  1.0 -0.0117090984
C  C809  1  0.50302000  0.26354000  0.26354000  1.0 -0.0177935385
C  C810  1  0.49295000  0.19335000  0.19335000  1.0 0.0635302033
C  C811  1  0.91721000  0.28759000  0.28759000  1.0 0.0663325281
C  C812  1  0.81734000  0.33318000  0.33318000  1.0 -0.1402844516
C  C813  1  0.06924000  0.21720000  0.21720000  1.0 -0.0117090984
C  C814  1  0.96990000  0.26354000  0.26354000  1.0 -0.0177935385
C  C815  1  0.12035000  0.19335000  0.19335000  1.0 0.0635302033
C  C816  1  0.28759000  0.91721000  0.50761000  1.0 0.0663325281
C  C817  1  0.33318000  0.81734000  0.51630000  1.0 -0.1402844516
C  C818  1  0.21720000  0.06924000  0.49636000  1.0 -0.0117090984
C  C819  1  0.26354000  0.96990000  0.50302000  1.0 -0.0177935385
C  C820  1  0.19335000  0.12035000  0.49295000  1.0 0.0635302033
C  C821  1  0.28759000  0.50761000  0.28759000  1.0 0.0663325281
C  C822  1  0.33318000  0.51630000  0.33318000  1.0 -0.1402844516
C  C823  1  0.21720000  0.49636000  0.21720000  1.0 -0.0117090984
C  C824  1  0.26354000  0.50302000  0.26354000  1.0 -0.0177935385
C  C825  1  0.19335000  0.49295000  0.19335000  1.0 0.0635302033
C  C826  1  0.91721000  0.28759000  0.50761000  1.0 0.0663325281
C  C827  1  0.81734000  0.33318000  0.51630000  1.0 -0.1402844516
C  C828  1  0.06924000  0.21720000  0.49636000  1.0 -0.0117090984
C  C829  1  0.96990000  0.26354000  0.50302000  1.0 -0.0177935385
C  C830  1  0.12035000  0.19335000  0.49295000  1.0 0.0635302033
C  C831  1  0.50761000  0.28759000  0.91721000  1.0 0.0663325281
C  C832  1  0.51630000  0.33318000  0.81734000  1.0 -0.1402844516
C  C833  1  0.49636000  0.21720000  0.06924000  1.0 -0.0117090984
C  C834  1  0.50302000  0.26354000  0.96990000  1.0 -0.0177935385
C  C835  1  0.49295000  0.19335000  0.12035000  1.0 0.0635302033
C  C836  1  0.28759000  0.91721000  0.28759000  1.0 0.0663325281
C  C837  1  0.33318000  0.81734000  0.33318000  1.0 -0.1402844516
C  C838  1  0.21720000  0.06924000  0.21720000  1.0 -0.0117090984
C  C839  1  0.26354000  0.96990000  0.26354000  1.0 -0.0177935385
C  C840  1  0.19335000  0.12035000  0.19335000  1.0 0.0635302033
C  C841  1  0.85531000  0.85531000  0.78231000  1.0 -0.2389242472
C  C842  1  0.78231000  0.50707000  0.85531000  1.0 -0.2389242472
C  C843  1  0.85531000  0.85531000  0.50707000  1.0 -0.2389242472
C  C844  1  0.50707000  0.78231000  0.85531000  1.0 -0.2389242472
C  C845  1  0.85531000  0.78231000  0.85531000  1.0 -0.2389242472
C  C846  1  0.50707000  0.85531000  0.78231000  1.0 -0.2389242472
C  C847  1  0.85531000  0.50707000  0.85531000  1.0 -0.2389242472
C  C848  1  0.78231000  0.85531000  0.50707000  1.0 -0.2389242472
C  C849  1  0.78231000  0.85531000  0.85531000  1.0 -0.2389242472
C  C850  1  0.85531000  0.78231000  0.50707000  1.0 -0.2389242472
C  C851  1  0.50707000  0.85531000  0.85531000  1.0 -0.2389242472
C  C852  1  0.85531000  0.50707000  0.78231000  1.0 -0.2389242472
C  C853  1  0.14469000  0.49293000  0.21769000  1.0 -0.2389242472
C  C854  1  0.21769000  0.14469000  0.14469000  1.0 -0.2389242472
C  C855  1  0.14469000  0.21769000  0.49293000  1.0 -0.2389242472
C  C856  1  0.49293000  0.14469000  0.14469000  1.0 -0.2389242472
C  C857  1  0.14469000  0.49293000  0.14469000  1.0 -0.2389242472
C  C858  1  0.49293000  0.14469000  0.21769000  1.0 -0.2389242472
C  C859  1  0.14469000  0.21769000  0.14469000  1.0 -0.2389242472
C  C860  1  0.21769000  0.14469000  0.49293000  1.0 -0.2389242472
C  C861  1  0.21769000  0.49293000  0.14469000  1.0 -0.2389242472
C  C862  1  0.14469000  0.14469000  0.49293000  1.0 -0.2389242472
C  C863  1  0.49293000  0.21769000  0.14469000  1.0 -0.2389242472
C  C864  1  0.14469000  0.14469000  0.21769000  1.0 -0.2389242472
O  O1  1  0.16152000  0.56672000  0.78448000  1.0 -0.5213069875
O  O2  1  0.22870000  0.56790000  0.71490000  1.0 -0.5213069875
O  O3  1  0.78448000  0.48728000  0.16152000  1.0 -0.5213069875
O  O4  1  0.71490000  0.48850000  0.22870000  1.0 -0.5213069875
O  O5  1  0.56672000  0.16152000  0.48728000  1.0 -0.5213069875
O  O6  1  0.56790000  0.22870000  0.48850000  1.0 -0.5213069875
O  O7  1  0.48728000  0.78448000  0.56672000  1.0 -0.5213069875
O  O8  1  0.48850000  0.71490000  0.56790000  1.0 -0.5213069875
O  O9  1  0.56672000  0.78448000  0.16152000  1.0 -0.5213069875
O  O10  1  0.56790000  0.71490000  0.22870000  1.0 -0.5213069875
O  O11  1  0.48728000  0.16152000  0.78448000  1.0 -0.5213069875
O  O12  1  0.48850000  0.22870000  0.71490000  1.0 -0.5213069875
O  O13  1  0.16152000  0.48728000  0.56672000  1.0 -0.5213069875
O  O14  1  0.22870000  0.48850000  0.56790000  1.0 -0.5213069875
O  O15  1  0.78448000  0.56672000  0.48728000  1.0 -0.5213069875
O  O16  1  0.71490000  0.56790000  0.48850000  1.0 -0.5213069875
O  O17  1  0.78448000  0.16152000  0.56672000  1.0 -0.5213069875
O  O18  1  0.71490000  0.22870000  0.56790000  1.0 -0.5213069875
O  O19  1  0.16152000  0.78448000  0.48728000  1.0 -0.5213069875
O  O20  1  0.22870000  0.71490000  0.48850000  1.0 -0.5213069875
O  O21  1  0.48728000  0.56672000  0.16152000  1.0 -0.5213069875
O  O22  1  0.48850000  0.56790000  0.22870000  1.0 -0.5213069875
O  O23  1  0.56672000  0.48728000  0.78448000  1.0 -0.5213069875
O  O24  1  0.56790000  0.48850000  0.71490000  1.0 -0.5213069875
O  O25  1  0.83848000  0.51272000  0.21552000  1.0 -0.5213069875
O  O26  1  0.77130000  0.51150000  0.28510000  1.0 -0.5213069875
O  O27  1  0.21552000  0.43328000  0.83848000  1.0 -0.5213069875
O  O28  1  0.28510000  0.43210000  0.77130000  1.0 -0.5213069875
O  O29  1  0.43328000  0.21552000  0.51272000  1.0 -0.5213069875
O  O30  1  0.43210000  0.28510000  0.51150000  1.0 -0.5213069875
O  O31  1  0.51272000  0.83848000  0.43328000  1.0 -0.5213069875
O  O32  1  0.51150000  0.77130000  0.43210000  1.0 -0.5213069875
O  O33  1  0.43328000  0.51272000  0.83848000  1.0 -0.5213069875
O  O34  1  0.43210000  0.51150000  0.77130000  1.0 -0.5213069875
O  O35  1  0.51272000  0.43328000  0.21552000  1.0 -0.5213069875
O  O36  1  0.51150000  0.43210000  0.28510000  1.0 -0.5213069875
O  O37  1  0.83848000  0.21552000  0.43328000  1.0 -0.5213069875
O  O38  1  0.77130000  0.28510000  0.43210000  1.0 -0.5213069875
O  O39  1  0.21552000  0.83848000  0.51272000  1.0 -0.5213069875
O  O40  1  0.28510000  0.77130000  0.51150000  1.0 -0.5213069875
O  O41  1  0.21552000  0.51272000  0.43328000  1.0 -0.5213069875
O  O42  1  0.28510000  0.51150000  0.43210000  1.0 -0.5213069875
O  O43  1  0.83848000  0.43328000  0.51272000  1.0 -0.5213069875
O  O44  1  0.77130000  0.43210000  0.51150000  1.0 -0.5213069875
O  O45  1  0.51272000  0.21552000  0.83848000  1.0 -0.5213069875
O  O46  1  0.51150000  0.28510000  0.77130000  1.0 -0.5213069875
O  O47  1  0.43328000  0.83848000  0.21552000  1.0 -0.5213069875
O  O48  1  0.43210000  0.77130000  0.28510000  1.0 -0.5213069875
O  O49  1  0.83848000  0.43328000  0.21552000  1.0 -0.5213069875
O  O50  1  0.77130000  0.43210000  0.28510000  1.0 -0.5213069875
O  O51  1  0.21552000  0.51272000  0.83848000  1.0 -0.5213069875
O  O52  1  0.28510000  0.51150000  0.77130000  1.0 -0.5213069875
O  O53  1  0.43328000  0.83848000  0.51272000  1.0 -0.5213069875
O  O54  1  0.43210000  0.77130000  0.51150000  1.0 -0.5213069875
O  O55  1  0.51272000  0.21552000  0.43328000  1.0 -0.5213069875
O  O56  1  0.51150000  0.28510000  0.43210000  1.0 -0.5213069875
O  O57  1  0.43328000  0.21552000  0.83848000  1.0 -0.5213069875
O  O58  1  0.43210000  0.28510000  0.77130000  1.0 -0.5213069875
O  O59  1  0.51272000  0.83848000  0.21552000  1.0 -0.5213069875
O  O60  1  0.51150000  0.77130000  0.28510000  1.0 -0.5213069875
O  O61  1  0.83848000  0.51272000  0.43328000  1.0 -0.5213069875
O  O62  1  0.77130000  0.51150000  0.43210000  1.0 -0.5213069875
O  O63  1  0.21552000  0.43328000  0.51272000  1.0 -0.5213069875
O  O64  1  0.28510000  0.43210000  0.51150000  1.0 -0.5213069875
O  O65  1  0.21552000  0.83848000  0.43328000  1.0 -0.5213069875
O  O66  1  0.28510000  0.77130000  0.43210000  1.0 -0.5213069875
O  O67  1  0.83848000  0.21552000  0.51272000  1.0 -0.5213069875
O  O68  1  0.77130000  0.28510000  0.51150000  1.0 -0.5213069875
O  O69  1  0.51272000  0.43328000  0.83848000  1.0 -0.5213069875
O  O70  1  0.51150000  0.43210000  0.77130000  1.0 -0.5213069875
O  O71  1  0.43328000  0.51272000  0.21552000  1.0 -0.5213069875
O  O72  1  0.43210000  0.51150000  0.28510000  1.0 -0.5213069875
O  O73  1  0.16152000  0.48728000  0.78448000  1.0 -0.5213069875
O  O74  1  0.22870000  0.48850000  0.71490000  1.0 -0.5213069875
O  O75  1  0.78448000  0.56672000  0.16152000  1.0 -0.5213069875
O  O76  1  0.71490000  0.56790000  0.22870000  1.0 -0.5213069875
O  O77  1  0.56672000  0.78448000  0.48728000  1.0 -0.5213069875
O  O78  1  0.56790000  0.71490000  0.48850000  1.0 -0.5213069875
O  O79  1  0.48728000  0.16152000  0.56672000  1.0 -0.5213069875
O  O80  1  0.48850000  0.22870000  0.56790000  1.0 -0.5213069875
O  O81  1  0.56672000  0.48728000  0.16152000  1.0 -0.5213069875
O  O82  1  0.56790000  0.48850000  0.22870000  1.0 -0.5213069875
O  O83  1  0.48728000  0.56672000  0.78448000  1.0 -0.5213069875
O  O84  1  0.48850000  0.56790000  0.71490000  1.0 -0.5213069875
O  O85  1  0.16152000  0.78448000  0.56672000  1.0 -0.5213069875
O  O86  1  0.22870000  0.71490000  0.56790000  1.0 -0.5213069875
O  O87  1  0.78448000  0.16152000  0.48728000  1.0 -0.5213069875
O  O88  1  0.71490000  0.22870000  0.48850000  1.0 -0.5213069875
O  O89  1  0.78448000  0.48728000  0.56672000  1.0 -0.5213069875
O  O90  1  0.71490000  0.48850000  0.56790000  1.0 -0.5213069875
O  O91  1  0.16152000  0.56672000  0.48728000  1.0 -0.5213069875
O  O92  1  0.22870000  0.56790000  0.48850000  1.0 -0.5213069875
O  O93  1  0.48728000  0.78448000  0.16152000  1.0 -0.5213069875
O  O94  1  0.48850000  0.71490000  0.22870000  1.0 -0.5213069875
O  O95  1  0.56672000  0.16152000  0.78448000  1.0 -0.5213069875
O  O96  1  0.56790000  0.22870000  0.71490000  1.0 -0.5213069875
