# DDEC6 charges by PACMAN v1.1 (https://github.com/mtap-research/PACMAN-charge/)
data_GIPGIY_ASR_pacman
_symmetry_space_group_name_H-M   'P 1'
_cell_length_a   33.36700000
_cell_length_b   33.36700000
_cell_length_c   33.36700000
_cell_angle_alpha   60.00000000
_cell_angle_beta   60.00000000
_cell_angle_gamma   60.00000000
_symmetry_Int_Tables_number   1
_chemical_formula_structural   CuH20(C9O)4
_chemical_formula_sum   'Cu24 H480 C864 O96'
_cell_volume   26268.57331189
_cell_formula_units_Z   24
loop_
 _symmetry_equiv_pos_site_id
 _symmetry_equiv_pos_as_xyz
  1  'x, y, z'
loop_
 _atom_site_type_symbol
 _atom_site_label
 _atom_site_symmetry_multiplicity
 _atom_site_fract_x
 _atom_site_fract_y
 _atom_site_fract_z
 _atom_site_occupancy
 _atom_site_charge
Cu  Cu1  1  0.18700000  0.50000000  0.81300000  1.0 0.840974945
Cu  Cu2  1  0.25880000  0.50000000  0.74120000  1.0 0.840974945
Cu  Cu3  1  0.81300000  0.50000000  0.18700000  1.0 0.840974945
Cu  Cu4  1  0.74120000  0.50000000  0.25880000  1.0 0.840974945
Cu  Cu5  1  0.50000000  0.18700000  0.50000000  1.0 0.840974945
Cu  Cu6  1  0.50000000  0.25880000  0.50000000  1.0 0.840974945
Cu  Cu7  1  0.50000000  0.81300000  0.50000000  1.0 0.840974945
Cu  Cu8  1  0.50000000  0.74120000  0.50000000  1.0 0.840974945
Cu  Cu9  1  0.50000000  0.81300000  0.18700000  1.0 0.840974945
Cu  Cu10  1  0.50000000  0.74120000  0.25880000  1.0 0.840974945
Cu  Cu11  1  0.50000000  0.18700000  0.81300000  1.0 0.840974945
Cu  Cu12  1  0.50000000  0.25880000  0.74120000  1.0 0.840974945
Cu  Cu13  1  0.18700000  0.50000000  0.50000000  1.0 0.840974945
Cu  Cu14  1  0.25880000  0.50000000  0.50000000  1.0 0.840974945
Cu  Cu15  1  0.81300000  0.50000000  0.50000000  1.0 0.840974945
Cu  Cu16  1  0.74120000  0.50000000  0.50000000  1.0 0.840974945
Cu  Cu17  1  0.81300000  0.18700000  0.50000000  1.0 0.840974945
Cu  Cu18  1  0.74120000  0.25880000  0.50000000  1.0 0.840974945
Cu  Cu19  1  0.18700000  0.81300000  0.50000000  1.0 0.840974945
Cu  Cu20  1  0.25880000  0.74120000  0.50000000  1.0 0.840974945
Cu  Cu21  1  0.50000000  0.50000000  0.18700000  1.0 0.840974945
Cu  Cu22  1  0.50000000  0.50000000  0.25880000  1.0 0.840974945
Cu  Cu23  1  0.50000000  0.50000000  0.81300000  1.0 0.840974945
Cu  Cu24  1  0.50000000  0.50000000  0.74120000  1.0 0.840974945
H  H1  1  0.09065000  0.64579000  0.77143000  1.0 0.1390158851
H  H2  1  0.04339000  0.71601000  0.66259000  1.0 0.0930233766
H  H3  1  0.98125000  0.73279000  0.63353000  1.0 0.0930233766
H  H4  1  0.89572000  0.77262000  0.67338000  1.0 0.0930233766
H  H5  1  0.87232000  0.79568000  0.74226000  1.0 0.0952972156
H  H6  1  0.08855000  0.72335000  0.77677000  1.0 0.0930233766
H  H7  1  0.06517000  0.74641000  0.84565000  1.0 0.1194000406
H  H8  1  0.97964000  0.78624000  0.88548000  1.0 0.1134344307
H  H9  1  0.91750000  0.80302000  0.85644000  1.0 0.0930233766
H  H10  1  0.77143000  0.49213000  0.09065000  1.0 0.1390158851
H  H11  1  0.66259000  0.57801000  0.04339000  1.0 0.0930233766
H  H12  1  0.63353000  0.65243000  0.98125000  1.0 0.0930233766
H  H13  1  0.67338000  0.65828000  0.89572000  1.0 0.0930233766
H  H14  1  0.74226000  0.58974000  0.87232000  1.0 0.0952972156
H  H15  1  0.77677000  0.41133000  0.08855000  1.0 0.0930233766
H  H16  1  0.84565000  0.34277000  0.06517000  1.0 0.1194000406
H  H17  1  0.88548000  0.34864000  0.97964000  1.0 0.1134344307
H  H18  1  0.85644000  0.42304000  0.91750000  1.0 0.0930233766
H  H19  1  0.64579000  0.09065000  0.49213000  1.0 0.1390158851
H  H20  1  0.71601000  0.04339000  0.57801000  1.0 0.0930233766
H  H21  1  0.73279000  0.98125000  0.65243000  1.0 0.0930233766
H  H22  1  0.77262000  0.89572000  0.65828000  1.0 0.0930233766
H  H23  1  0.79568000  0.87232000  0.58974000  1.0 0.0952972156
H  H24  1  0.72335000  0.08855000  0.41133000  1.0 0.0930233766
H  H25  1  0.74641000  0.06517000  0.34277000  1.0 0.1194000406
H  H26  1  0.78624000  0.97964000  0.34864000  1.0 0.1134344307
H  H27  1  0.80302000  0.91750000  0.42304000  1.0 0.0930233766
H  H28  1  0.49213000  0.77143000  0.64579000  1.0 0.1390158851
H  H29  1  0.57801000  0.66259000  0.71601000  1.0 0.0930233766
H  H30  1  0.65243000  0.63353000  0.73279000  1.0 0.0930233766
H  H31  1  0.65828000  0.67338000  0.77262000  1.0 0.0930233766
H  H32  1  0.58974000  0.74226000  0.79568000  1.0 0.0930233766
H  H33  1  0.41133000  0.77677000  0.72335000  1.0 0.0930233766
H  H34  1  0.34277000  0.84565000  0.74641000  1.0 0.1194000406
H  H35  1  0.34864000  0.88548000  0.78624000  1.0 0.1134344307
H  H36  1  0.42304000  0.85644000  0.80302000  1.0 0.0930233766
H  H37  1  0.64579000  0.77143000  0.09065000  1.0 0.1390158851
H  H38  1  0.71601000  0.66259000  0.04339000  1.0 0.0930233766
H  H39  1  0.73279000  0.63353000  0.98125000  1.0 0.0930233766
H  H40  1  0.77262000  0.67338000  0.89572000  1.0 0.0930233766
H  H41  1  0.79568000  0.74226000  0.87232000  1.0 0.0952972156
H  H42  1  0.72335000  0.77677000  0.08855000  1.0 0.0930233766
H  H43  1  0.74641000  0.84565000  0.06517000  1.0 0.1194000406
H  H44  1  0.78624000  0.88548000  0.97964000  1.0 0.1134344307
H  H45  1  0.80302000  0.85644000  0.91750000  1.0 0.0930233766
H  H46  1  0.49213000  0.09065000  0.77143000  1.0 0.1390158851
H  H47  1  0.57801000  0.04339000  0.66259000  1.0 0.0930233766
H  H48  1  0.65243000  0.98125000  0.63353000  1.0 0.0930233766
H  H49  1  0.65828000  0.89572000  0.67338000  1.0 0.0930233766
H  H50  1  0.58974000  0.87232000  0.74226000  1.0 0.0952972156
H  H51  1  0.41133000  0.08855000  0.77677000  1.0 0.0930233766
H  H52  1  0.34277000  0.06517000  0.84565000  1.0 0.1194000406
H  H53  1  0.34864000  0.97964000  0.88548000  1.0 0.1134344307
H  H54  1  0.42304000  0.91750000  0.85644000  1.0 0.0930233766
H  H55  1  0.09065000  0.49213000  0.64579000  1.0 0.1390158851
H  H56  1  0.04339000  0.57801000  0.71601000  1.0 0.0930233766
H  H57  1  0.98125000  0.65243000  0.73279000  1.0 0.0930233766
H  H58  1  0.89572000  0.65828000  0.77262000  1.0 0.0930233766
H  H59  1  0.87232000  0.58974000  0.79568000  1.0 0.0952972156
H  H60  1  0.08855000  0.41133000  0.72335000  1.0 0.0930233766
H  H61  1  0.06517000  0.34277000  0.74641000  1.0 0.1194000406
H  H62  1  0.97964000  0.34864000  0.78624000  1.0 0.1134344307
H  H63  1  0.91750000  0.42304000  0.80302000  1.0 0.0930233766
H  H64  1  0.77143000  0.64579000  0.49213000  1.0 0.1390158851
H  H65  1  0.66259000  0.71601000  0.57801000  1.0 0.0930233766
H  H66  1  0.63353000  0.73279000  0.65243000  1.0 0.0930233766
H  H67  1  0.67338000  0.77262000  0.65828000  1.0 0.0930233766
H  H68  1  0.74226000  0.79568000  0.58974000  1.0 0.0952972156
H  H69  1  0.77677000  0.72335000  0.41133000  1.0 0.0930233766
H  H70  1  0.84565000  0.74641000  0.34277000  1.0 0.1194000406
H  H71  1  0.88548000  0.78624000  0.34864000  1.0 0.1134344307
H  H72  1  0.85644000  0.80302000  0.42304000  1.0 0.0930233766
H  H73  1  0.77143000  0.09065000  0.64579000  1.0 0.1390158851
H  H74  1  0.66259000  0.04339000  0.71601000  1.0 0.0930233766
H  H75  1  0.63353000  0.98125000  0.73279000  1.0 0.0930233766
H  H76  1  0.67338000  0.89572000  0.77262000  1.0 0.0930233766
H  H77  1  0.74226000  0.87232000  0.79568000  1.0 0.0952972156
H  H78  1  0.77677000  0.08855000  0.72335000  1.0 0.0930233766
H  H79  1  0.84565000  0.06517000  0.74641000  1.0 0.1194000406
H  H80  1  0.88548000  0.97964000  0.78624000  1.0 0.1134344307
H  H81  1  0.85644000  0.91750000  0.80302000  1.0 0.0930233766
H  H82  1  0.09065000  0.77143000  0.49213000  1.0 0.1390158851
H  H83  1  0.04339000  0.66259000  0.57801000  1.0 0.0930233766
H  H84  1  0.98125000  0.63353000  0.65243000  1.0 0.0930233766
H  H85  1  0.89572000  0.67338000  0.65828000  1.0 0.0930233766
H  H86  1  0.87232000  0.74226000  0.58974000  1.0 0.0952972156
H  H87  1  0.08855000  0.77677000  0.41133000  1.0 0.0930233766
H  H88  1  0.06517000  0.84565000  0.34277000  1.0 0.1194000406
H  H89  1  0.97964000  0.88548000  0.34864000  1.0 0.1134344307
H  H90  1  0.91750000  0.85644000  0.42304000  1.0 0.0930233766
H  H91  1  0.49213000  0.64579000  0.09065000  1.0 0.1390158851
H  H92  1  0.57801000  0.71601000  0.04339000  1.0 0.0930233766
H  H93  1  0.65243000  0.73279000  0.98125000  1.0 0.0930233766
H  H94  1  0.65828000  0.77262000  0.89572000  1.0 0.0930233766
H  H95  1  0.58974000  0.79568000  0.87232000  1.0 0.0952972156
H  H96  1  0.41133000  0.72335000  0.08855000  1.0 0.0930233766
H  H97  1  0.34277000  0.74641000  0.06517000  1.0 0.1194000406
H  H98  1  0.34864000  0.78624000  0.97964000  1.0 0.1134344307
H  H99  1  0.42304000  0.80302000  0.91750000  1.0 0.0930233766
H  H100  1  0.64579000  0.49213000  0.77143000  1.0 0.1390158851
H  H101  1  0.71601000  0.57801000  0.66259000  1.0 0.0930233766
H  H102  1  0.73279000  0.65243000  0.63353000  1.0 0.0930233766
H  H103  1  0.77262000  0.65828000  0.67338000  1.0 0.0930233766
H  H104  1  0.79568000  0.58974000  0.74226000  1.0 0.0952972156
H  H105  1  0.72335000  0.41133000  0.77677000  1.0 0.0930233766
H  H106  1  0.74641000  0.34277000  0.84565000  1.0 0.1194000406
H  H107  1  0.78624000  0.34864000  0.88548000  1.0 0.1134344307
H  H108  1  0.80302000  0.42304000  0.85644000  1.0 0.0930233766
H  H109  1  0.90935000  0.50787000  0.22857000  1.0 0.1390158851
H  H110  1  0.95661000  0.42199000  0.33741000  1.0 0.0930233766
H  H111  1  0.01875000  0.34757000  0.36647000  1.0 0.0952972156
H  H112  1  0.10428000  0.34172000  0.32662000  1.0 0.0930233766
H  H113  1  0.12768000  0.41026000  0.25774000  1.0 0.0952972156
H  H114  1  0.91145000  0.58867000  0.22323000  1.0 0.0930233766
H  H115  1  0.93483000  0.65723000  0.15435000  1.0 0.1194000406
H  H116  1  0.02036000  0.65136000  0.11452000  1.0 0.1134344307
H  H117  1  0.08250000  0.57696000  0.14356000  1.0 0.0930233766
H  H118  1  0.22857000  0.35421000  0.90935000  1.0 0.1390158851
H  H119  1  0.33741000  0.28399000  0.95661000  1.0 0.0930233766
H  H120  1  0.36647000  0.26721000  0.01875000  1.0 0.0952972156
H  H121  1  0.32662000  0.22738000  0.10428000  1.0 0.0930233766
H  H122  1  0.25774000  0.20432000  0.12768000  1.0 0.0952972156
H  H123  1  0.22323000  0.27665000  0.91145000  1.0 0.0930233766
H  H124  1  0.15435000  0.25359000  0.93483000  1.0 0.1194000406
H  H125  1  0.11452000  0.21376000  0.02036000  1.0 0.1134344307
H  H126  1  0.14356000  0.19698000  0.08250000  1.0 0.0930233766
H  H127  1  0.35421000  0.22857000  0.50787000  1.0 0.1390158851
H  H128  1  0.28399000  0.33741000  0.42199000  1.0 0.0930233766
H  H129  1  0.26721000  0.36647000  0.34757000  1.0 0.0952972156
H  H130  1  0.22738000  0.32662000  0.34172000  1.0 0.0930233766
H  H131  1  0.20432000  0.25774000  0.41026000  1.0 0.0930233766
H  H132  1  0.27665000  0.22323000  0.58867000  1.0 0.0930233766
H  H133  1  0.25359000  0.15435000  0.65723000  1.0 0.1194000406
H  H134  1  0.21376000  0.11452000  0.65136000  1.0 0.1134344307
H  H135  1  0.19698000  0.14356000  0.57696000  1.0 0.0930233766
H  H136  1  0.50787000  0.90935000  0.35421000  1.0 0.1390158851
H  H137  1  0.42199000  0.95661000  0.28399000  1.0 0.0930233766
H  H138  1  0.34757000  0.01875000  0.26721000  1.0 0.0952972156
H  H139  1  0.34172000  0.10428000  0.22738000  1.0 0.0930233766
H  H140  1  0.41026000  0.12768000  0.20432000  1.0 0.0952972156
H  H141  1  0.58867000  0.91145000  0.27665000  1.0 0.0930233766
H  H142  1  0.65723000  0.93483000  0.25359000  1.0 0.1194000406
H  H143  1  0.65136000  0.02036000  0.21376000  1.0 0.1134344307
H  H144  1  0.57696000  0.08250000  0.19698000  1.0 0.0930233766
H  H145  1  0.35421000  0.50787000  0.90935000  1.0 0.1390158851
H  H146  1  0.28399000  0.42199000  0.95661000  1.0 0.0930233766
H  H147  1  0.26721000  0.34757000  0.01875000  1.0 0.0952972156
H  H148  1  0.22738000  0.34172000  0.10428000  1.0 0.0930233766
H  H149  1  0.20432000  0.41026000  0.12768000  1.0 0.0930233766
H  H150  1  0.27665000  0.58867000  0.91145000  1.0 0.0930233766
H  H151  1  0.25359000  0.65723000  0.93483000  1.0 0.1194000406
H  H152  1  0.21376000  0.65136000  0.02036000  1.0 0.1134344307
H  H153  1  0.19698000  0.57696000  0.08250000  1.0 0.0930233766
H  H154  1  0.50787000  0.35421000  0.22857000  1.0 0.1390158851
H  H155  1  0.42199000  0.28399000  0.33741000  1.0 0.0930233766
H  H156  1  0.34757000  0.26721000  0.36647000  1.0 0.0952972156
H  H157  1  0.34172000  0.22738000  0.32662000  1.0 0.0930233766
H  H158  1  0.41026000  0.20432000  0.25774000  1.0 0.0952972156
H  H159  1  0.58867000  0.27665000  0.22323000  1.0 0.0930233766
H  H160  1  0.65723000  0.25359000  0.15435000  1.0 0.1194000406
H  H161  1  0.65136000  0.21376000  0.11452000  1.0 0.1134344307
H  H162  1  0.57696000  0.19698000  0.14356000  1.0 0.0930233766
H  H163  1  0.90935000  0.22857000  0.35421000  1.0 0.1390158851
H  H164  1  0.95661000  0.33741000  0.28399000  1.0 0.0930233766
H  H165  1  0.01875000  0.36647000  0.26721000  1.0 0.0952972156
H  H166  1  0.10428000  0.32662000  0.22738000  1.0 0.0930233766
H  H167  1  0.12768000  0.25774000  0.20432000  1.0 0.0952972156
H  H168  1  0.91145000  0.22323000  0.27665000  1.0 0.0930233766
H  H169  1  0.93483000  0.15435000  0.25359000  1.0 0.1194000406
H  H170  1  0.02036000  0.11452000  0.21376000  1.0 0.1134344307
H  H171  1  0.08250000  0.14356000  0.19698000  1.0 0.0930233766
H  H172  1  0.22857000  0.90935000  0.50787000  1.0 0.1390158851
H  H173  1  0.33741000  0.95661000  0.42199000  1.0 0.0930233766
H  H174  1  0.36647000  0.01875000  0.34757000  1.0 0.0952972156
H  H175  1  0.32662000  0.10428000  0.34172000  1.0 0.0930233766
H  H176  1  0.25774000  0.12768000  0.41026000  1.0 0.0952972156
H  H177  1  0.22323000  0.91145000  0.58867000  1.0 0.0930233766
H  H178  1  0.15435000  0.93483000  0.65723000  1.0 0.1194000406
H  H179  1  0.11452000  0.02036000  0.65136000  1.0 0.1134344307
H  H180  1  0.14356000  0.08250000  0.57696000  1.0 0.0930233766
H  H181  1  0.22857000  0.50787000  0.35421000  1.0 0.1390158851
H  H182  1  0.33741000  0.42199000  0.28399000  1.0 0.0930233766
H  H183  1  0.36647000  0.34757000  0.26721000  1.0 0.0952972156
H  H184  1  0.32662000  0.34172000  0.22738000  1.0 0.0930233766
H  H185  1  0.25774000  0.41026000  0.20432000  1.0 0.0952972156
H  H186  1  0.22323000  0.58867000  0.27665000  1.0 0.0930233766
H  H187  1  0.15435000  0.65723000  0.25359000  1.0 0.1194000406
H  H188  1  0.11452000  0.65136000  0.21376000  1.0 0.1134344307
H  H189  1  0.14356000  0.57696000  0.19698000  1.0 0.0930233766
H  H190  1  0.90935000  0.35421000  0.50787000  1.0 0.1390158851
H  H191  1  0.95661000  0.28399000  0.42199000  1.0 0.0930233766
H  H192  1  0.01875000  0.26721000  0.34757000  1.0 0.0952972156
H  H193  1  0.10428000  0.22738000  0.34172000  1.0 0.0930233766
H  H194  1  0.12768000  0.20432000  0.41026000  1.0 0.0930233766
H  H195  1  0.91145000  0.27665000  0.58867000  1.0 0.0930233766
H  H196  1  0.93483000  0.25359000  0.65723000  1.0 0.1194000406
H  H197  1  0.02036000  0.21376000  0.65136000  1.0 0.1134344307
H  H198  1  0.08250000  0.19698000  0.57696000  1.0 0.0930233766
H  H199  1  0.50787000  0.22857000  0.90935000  1.0 0.1390158851
H  H200  1  0.42199000  0.33741000  0.95661000  1.0 0.0930233766
H  H201  1  0.34757000  0.36647000  0.01875000  1.0 0.0952972156
H  H202  1  0.34172000  0.32662000  0.10428000  1.0 0.0930233766
H  H203  1  0.41026000  0.25774000  0.12768000  1.0 0.0952972156
H  H204  1  0.58867000  0.22323000  0.91145000  1.0 0.0930233766
H  H205  1  0.65723000  0.15435000  0.93483000  1.0 0.1194000406
H  H206  1  0.65136000  0.11452000  0.02036000  1.0 0.1134344307
H  H207  1  0.57696000  0.14356000  0.08250000  1.0 0.0930233766
H  H208  1  0.35421000  0.90935000  0.22857000  1.0 0.1390158851
H  H209  1  0.28399000  0.95661000  0.33741000  1.0 0.0930233766
H  H210  1  0.26721000  0.01875000  0.36647000  1.0 0.0952972156
H  H211  1  0.22738000  0.10428000  0.32662000  1.0 0.0930233766
H  H212  1  0.20432000  0.12768000  0.25774000  1.0 0.0952972156
H  H213  1  0.27665000  0.91145000  0.22323000  1.0 0.0930233766
H  H214  1  0.25359000  0.93483000  0.15435000  1.0 0.1194000406
H  H215  1  0.21376000  0.02036000  0.11452000  1.0 0.1134344307
H  H216  1  0.19698000  0.08250000  0.14356000  1.0 0.0930233766
H  H217  1  0.90935000  0.35421000  0.22857000  1.0 0.1390158851
H  H218  1  0.95661000  0.28399000  0.33741000  1.0 0.0930233766
H  H219  1  0.01875000  0.26721000  0.36647000  1.0 0.0952972156
H  H220  1  0.10428000  0.22738000  0.32662000  1.0 0.0930233766
H  H221  1  0.12768000  0.20432000  0.25774000  1.0 0.0952972156
H  H222  1  0.91145000  0.27665000  0.22323000  1.0 0.0930233766
H  H223  1  0.93483000  0.25359000  0.15435000  1.0 0.1194000406
H  H224  1  0.02036000  0.21376000  0.11452000  1.0 0.1134344307
H  H225  1  0.08250000  0.19698000  0.14356000  1.0 0.0930233766
H  H226  1  0.22857000  0.50787000  0.90935000  1.0 0.1390158851
H  H227  1  0.33741000  0.42199000  0.95661000  1.0 0.0930233766
H  H228  1  0.36647000  0.34757000  0.01875000  1.0 0.0952972156
H  H229  1  0.32662000  0.34172000  0.10428000  1.0 0.0930233766
H  H230  1  0.25774000  0.41026000  0.12768000  1.0 0.0952972156
H  H231  1  0.22323000  0.58867000  0.91145000  1.0 0.0930233766
H  H232  1  0.15435000  0.65723000  0.93483000  1.0 0.1194000406
H  H233  1  0.11452000  0.65136000  0.02036000  1.0 0.1134344307
H  H234  1  0.14356000  0.57696000  0.08250000  1.0 0.0930233766
H  H235  1  0.35421000  0.90935000  0.50787000  1.0 0.1390158851
H  H236  1  0.28399000  0.95661000  0.42199000  1.0 0.0930233766
H  H237  1  0.26721000  0.01875000  0.34757000  1.0 0.0952972156
H  H238  1  0.22738000  0.10428000  0.34172000  1.0 0.0930233766
H  H239  1  0.20432000  0.12768000  0.41026000  1.0 0.0952972156
H  H240  1  0.27665000  0.91145000  0.58867000  1.0 0.0930233766
H  H241  1  0.25359000  0.93483000  0.65723000  1.0 0.1194000406
H  H242  1  0.21376000  0.02036000  0.65136000  1.0 0.1134344307
H  H243  1  0.19698000  0.08250000  0.57696000  1.0 0.0930233766
H  H244  1  0.50787000  0.22857000  0.35421000  1.0 0.1390158851
H  H245  1  0.42199000  0.33741000  0.28399000  1.0 0.0930233766
H  H246  1  0.34757000  0.36647000  0.26721000  1.0 0.0952972156
H  H247  1  0.34172000  0.32662000  0.22738000  1.0 0.0930233766
H  H248  1  0.41026000  0.25774000  0.20432000  1.0 0.0952972156
H  H249  1  0.58867000  0.22323000  0.27665000  1.0 0.0930233766
H  H250  1  0.65723000  0.15435000  0.25359000  1.0 0.1194000406
H  H251  1  0.65136000  0.11452000  0.21376000  1.0 0.1134344307
H  H252  1  0.57696000  0.14356000  0.19698000  1.0 0.0930233766
H  H253  1  0.35421000  0.22857000  0.90935000  1.0 0.1390158851
H  H254  1  0.28399000  0.33741000  0.95661000  1.0 0.0930233766
H  H255  1  0.26721000  0.36647000  0.01875000  1.0 0.0952972156
H  H256  1  0.22738000  0.32662000  0.10428000  1.0 0.0930233766
H  H257  1  0.20432000  0.25774000  0.12768000  1.0 0.0952972156
H  H258  1  0.27665000  0.22323000  0.91145000  1.0 0.0930233766
H  H259  1  0.25359000  0.15435000  0.93483000  1.0 0.1194000406
H  H260  1  0.21376000  0.11452000  0.02036000  1.0 0.1134344307
H  H261  1  0.19698000  0.14356000  0.08250000  1.0 0.0930233766
H  H262  1  0.50787000  0.90935000  0.22857000  1.0 0.1390158851
H  H263  1  0.42199000  0.95661000  0.33741000  1.0 0.0930233766
H  H264  1  0.34757000  0.01875000  0.36647000  1.0 0.0952972156
H  H265  1  0.34172000  0.10428000  0.32662000  1.0 0.0930233766
H  H266  1  0.41026000  0.12768000  0.25774000  1.0 0.0952972156
H  H267  1  0.58867000  0.91145000  0.22323000  1.0 0.0930233766
H  H268  1  0.65723000  0.93483000  0.15435000  1.0 0.1194000406
H  H269  1  0.65136000  0.02036000  0.11452000  1.0 0.1134344307
H  H270  1  0.57696000  0.08250000  0.14356000  1.0 0.0930233766
H  H271  1  0.90935000  0.50787000  0.35421000  1.0 0.1390158851
H  H272  1  0.95661000  0.42199000  0.28399000  1.0 0.0930233766
H  H273  1  0.01875000  0.34757000  0.26721000  1.0 0.0952972156
H  H274  1  0.10428000  0.34172000  0.22738000  1.0 0.0930233766
H  H275  1  0.12768000  0.41026000  0.20432000  1.0 0.0952972156
H  H276  1  0.91145000  0.58867000  0.27665000  1.0 0.0930233766
H  H277  1  0.93483000  0.65723000  0.25359000  1.0 0.1194000406
H  H278  1  0.02036000  0.65136000  0.21376000  1.0 0.1134344307
H  H279  1  0.08250000  0.57696000  0.19698000  1.0 0.0930233766
H  H280  1  0.22857000  0.35421000  0.50787000  1.0 0.1390158851
H  H281  1  0.33741000  0.28399000  0.42199000  1.0 0.0930233766
H  H282  1  0.36647000  0.26721000  0.34757000  1.0 0.0930233766
H  H283  1  0.32662000  0.22738000  0.34172000  1.0 0.0930233766
H  H284  1  0.25774000  0.20432000  0.41026000  1.0 0.0930233766
H  H285  1  0.22323000  0.27665000  0.58867000  1.0 0.0930233766
H  H286  1  0.15435000  0.25359000  0.65723000  1.0 0.1194000406
H  H287  1  0.11452000  0.21376000  0.65136000  1.0 0.1134344307
H  H288  1  0.14356000  0.19698000  0.57696000  1.0 0.0930233766
H  H289  1  0.22857000  0.90935000  0.35421000  1.0 0.1390158851
H  H290  1  0.33741000  0.95661000  0.28399000  1.0 0.0930233766
H  H291  1  0.36647000  0.01875000  0.26721000  1.0 0.0952972156
H  H292  1  0.32662000  0.10428000  0.22738000  1.0 0.0930233766
H  H293  1  0.25774000  0.12768000  0.20432000  1.0 0.0952972156
H  H294  1  0.22323000  0.91145000  0.27665000  1.0 0.0930233766
H  H295  1  0.15435000  0.93483000  0.25359000  1.0 0.1194000406
H  H296  1  0.11452000  0.02036000  0.21376000  1.0 0.1134344307
H  H297  1  0.14356000  0.08250000  0.19698000  1.0 0.0930233766
H  H298  1  0.90935000  0.22857000  0.50787000  1.0 0.1390158851
H  H299  1  0.95661000  0.33741000  0.42199000  1.0 0.0930233766
H  H300  1  0.01875000  0.36647000  0.34757000  1.0 0.0952972156
H  H301  1  0.10428000  0.32662000  0.34172000  1.0 0.0930233766
H  H302  1  0.12768000  0.25774000  0.41026000  1.0 0.0952972156
H  H303  1  0.91145000  0.22323000  0.58867000  1.0 0.0930233766
H  H304  1  0.93483000  0.15435000  0.65723000  1.0 0.1194000406
H  H305  1  0.02036000  0.11452000  0.65136000  1.0 0.1134344307
H  H306  1  0.08250000  0.14356000  0.57696000  1.0 0.0930233766
H  H307  1  0.50787000  0.35421000  0.90935000  1.0 0.1390158851
H  H308  1  0.42199000  0.28399000  0.95661000  1.0 0.0930233766
H  H309  1  0.34757000  0.26721000  0.01875000  1.0 0.0952972156
H  H310  1  0.34172000  0.22738000  0.10428000  1.0 0.0930233766
H  H311  1  0.41026000  0.20432000  0.12768000  1.0 0.0952972156
H  H312  1  0.58867000  0.27665000  0.91145000  1.0 0.0930233766
H  H313  1  0.65723000  0.25359000  0.93483000  1.0 0.1194000406
H  H314  1  0.65136000  0.21376000  0.02036000  1.0 0.1134344307
H  H315  1  0.57696000  0.19698000  0.08250000  1.0 0.0930233766
H  H316  1  0.35421000  0.50787000  0.22857000  1.0 0.1390158851
H  H317  1  0.28399000  0.42199000  0.33741000  1.0 0.0930233766
H  H318  1  0.26721000  0.34757000  0.36647000  1.0 0.0952972156
H  H319  1  0.22738000  0.34172000  0.32662000  1.0 0.0930233766
H  H320  1  0.20432000  0.41026000  0.25774000  1.0 0.0952972156
H  H321  1  0.27665000  0.58867000  0.22323000  1.0 0.0930233766
H  H322  1  0.25359000  0.65723000  0.15435000  1.0 0.1194000406
H  H323  1  0.21376000  0.65136000  0.11452000  1.0 0.1134344307
H  H324  1  0.19698000  0.57696000  0.14356000  1.0 0.0930233766
H  H325  1  0.09065000  0.49213000  0.77143000  1.0 0.1390158851
H  H326  1  0.04339000  0.57801000  0.66259000  1.0 0.0930233766
H  H327  1  0.98125000  0.65243000  0.63353000  1.0 0.0930233766
H  H328  1  0.89572000  0.65828000  0.67338000  1.0 0.0930233766
H  H329  1  0.87232000  0.58974000  0.74226000  1.0 0.0952972156
H  H330  1  0.08855000  0.41133000  0.77677000  1.0 0.0930233766
H  H331  1  0.06517000  0.34277000  0.84565000  1.0 0.1194000406
H  H332  1  0.97964000  0.34864000  0.88548000  1.0 0.1134344307
H  H333  1  0.91750000  0.42304000  0.85644000  1.0 0.0930233766
H  H334  1  0.77143000  0.64579000  0.09065000  1.0 0.1390158851
H  H335  1  0.66259000  0.71601000  0.04339000  1.0 0.0930233766
H  H336  1  0.63353000  0.73279000  0.98125000  1.0 0.0930233766
H  H337  1  0.67338000  0.77262000  0.89572000  1.0 0.0930233766
H  H338  1  0.74226000  0.79568000  0.87232000  1.0 0.0952972156
H  H339  1  0.77677000  0.72335000  0.08855000  1.0 0.0930233766
H  H340  1  0.84565000  0.74641000  0.06517000  1.0 0.1194000406
H  H341  1  0.88548000  0.78624000  0.97964000  1.0 0.1134344307
H  H342  1  0.85644000  0.80302000  0.91750000  1.0 0.0930233766
H  H343  1  0.64579000  0.77143000  0.49213000  1.0 0.1390158851
H  H344  1  0.71601000  0.66259000  0.57801000  1.0 0.0930233766
H  H345  1  0.73279000  0.63353000  0.65243000  1.0 0.0930233766
H  H346  1  0.77262000  0.67338000  0.65828000  1.0 0.0930233766
H  H347  1  0.79568000  0.74226000  0.58974000  1.0 0.0952972156
H  H348  1  0.72335000  0.77677000  0.41133000  1.0 0.0930233766
H  H349  1  0.74641000  0.84565000  0.34277000  1.0 0.1194000406
H  H350  1  0.78624000  0.88548000  0.34864000  1.0 0.1134344307
H  H351  1  0.80302000  0.85644000  0.42304000  1.0 0.0930233766
H  H352  1  0.49213000  0.09065000  0.64579000  1.0 0.1390158851
H  H353  1  0.57801000  0.04339000  0.71601000  1.0 0.0930233766
H  H354  1  0.65243000  0.98125000  0.73279000  1.0 0.0930233766
H  H355  1  0.65828000  0.89572000  0.77262000  1.0 0.0930233766
H  H356  1  0.58974000  0.87232000  0.79568000  1.0 0.0952972156
H  H357  1  0.41133000  0.08855000  0.72335000  1.0 0.0930233766
H  H358  1  0.34277000  0.06517000  0.74641000  1.0 0.1194000406
H  H359  1  0.34864000  0.97964000  0.78624000  1.0 0.1134344307
H  H360  1  0.42304000  0.91750000  0.80302000  1.0 0.0930233766
H  H361  1  0.64579000  0.49213000  0.09065000  1.0 0.1390158851
H  H362  1  0.71601000  0.57801000  0.04339000  1.0 0.0930233766
H  H363  1  0.73279000  0.65243000  0.98125000  1.0 0.0930233766
H  H364  1  0.77262000  0.65828000  0.89572000  1.0 0.0930233766
H  H365  1  0.79568000  0.58974000  0.87232000  1.0 0.0952972156
H  H366  1  0.72335000  0.41133000  0.08855000  1.0 0.0930233766
H  H367  1  0.74641000  0.34277000  0.06517000  1.0 0.1194000406
H  H368  1  0.78624000  0.34864000  0.97964000  1.0 0.1134344307
H  H369  1  0.80302000  0.42304000  0.91750000  1.0 0.0930233766
H  H370  1  0.49213000  0.64579000  0.77143000  1.0 0.1390158851
H  H371  1  0.57801000  0.71601000  0.66259000  1.0 0.0930233766
H  H372  1  0.65243000  0.73279000  0.63353000  1.0 0.0930233766
H  H373  1  0.65828000  0.77262000  0.67338000  1.0 0.0930233766
H  H374  1  0.58974000  0.79568000  0.74226000  1.0 0.0952972156
H  H375  1  0.41133000  0.72335000  0.77677000  1.0 0.0930233766
H  H376  1  0.34277000  0.74641000  0.84565000  1.0 0.1194000406
H  H377  1  0.34864000  0.78624000  0.88548000  1.0 0.1134344307
H  H378  1  0.42304000  0.80302000  0.85644000  1.0 0.0930233766
H  H379  1  0.09065000  0.77143000  0.64579000  1.0 0.1390158851
H  H380  1  0.04339000  0.66259000  0.71601000  1.0 0.0930233766
H  H381  1  0.98125000  0.63353000  0.73279000  1.0 0.0930233766
H  H382  1  0.89572000  0.67338000  0.77262000  1.0 0.0930233766
H  H383  1  0.87232000  0.74226000  0.79568000  1.0 0.0952972156
H  H384  1  0.08855000  0.77677000  0.72335000  1.0 0.0930233766
H  H385  1  0.06517000  0.84565000  0.74641000  1.0 0.1194000406
H  H386  1  0.97964000  0.88548000  0.78624000  1.0 0.1134344307
H  H387  1  0.91750000  0.85644000  0.80302000  1.0 0.0930233766
H  H388  1  0.77143000  0.09065000  0.49213000  1.0 0.1390158851
H  H389  1  0.66259000  0.04339000  0.57801000  1.0 0.0930233766
H  H390  1  0.63353000  0.98125000  0.65243000  1.0 0.0930233766
H  H391  1  0.67338000  0.89572000  0.65828000  1.0 0.0930233766
H  H392  1  0.74226000  0.87232000  0.58974000  1.0 0.0952972156
H  H393  1  0.77677000  0.08855000  0.41133000  1.0 0.0930233766
H  H394  1  0.84565000  0.06517000  0.34277000  1.0 0.1194000406
H  H395  1  0.88548000  0.97964000  0.34864000  1.0 0.1134344307
H  H396  1  0.85644000  0.91750000  0.42304000  1.0 0.0930233766
H  H397  1  0.77143000  0.49213000  0.64579000  1.0 0.1390158851
H  H398  1  0.66259000  0.57801000  0.71601000  1.0 0.0930233766
H  H399  1  0.63353000  0.65243000  0.73279000  1.0 0.0930233766
H  H400  1  0.67338000  0.65828000  0.77262000  1.0 0.0930233766
H  H401  1  0.74226000  0.58974000  0.79568000  1.0 0.0952972156
H  H402  1  0.77677000  0.41133000  0.72335000  1.0 0.0930233766
H  H403  1  0.84565000  0.34277000  0.74641000  1.0 0.1194000406
H  H404  1  0.88548000  0.34864000  0.78624000  1.0 0.1134344307
H  H405  1  0.85644000  0.42304000  0.80302000  1.0 0.0930233766
H  H406  1  0.09065000  0.64579000  0.49213000  1.0 0.1390158851
H  H407  1  0.04339000  0.71601000  0.57801000  1.0 0.0930233766
H  H408  1  0.98125000  0.73279000  0.65243000  1.0 0.0930233766
H  H409  1  0.89572000  0.77262000  0.65828000  1.0 0.0930233766
H  H410  1  0.87232000  0.79568000  0.58974000  1.0 0.0952972156
H  H411  1  0.08855000  0.72335000  0.41133000  1.0 0.0930233766
H  H412  1  0.06517000  0.74641000  0.34277000  1.0 0.1194000406
H  H413  1  0.97964000  0.78624000  0.34864000  1.0 0.1134344307
H  H414  1  0.91750000  0.80302000  0.42304000  1.0 0.0930233766
H  H415  1  0.49213000  0.77143000  0.09065000  1.0 0.1390158851
H  H416  1  0.57801000  0.66259000  0.04339000  1.0 0.0930233766
H  H417  1  0.65243000  0.63353000  0.98125000  1.0 0.0930233766
H  H418  1  0.65828000  0.67338000  0.89572000  1.0 0.0930233766
H  H419  1  0.58974000  0.74226000  0.87232000  1.0 0.0952972156
H  H420  1  0.41133000  0.77677000  0.08855000  1.0 0.0930233766
H  H421  1  0.34277000  0.84565000  0.06517000  1.0 0.1194000406
H  H422  1  0.34864000  0.88548000  0.97964000  1.0 0.1134344307
H  H423  1  0.42304000  0.85644000  0.91750000  1.0 0.0930233766
H  H424  1  0.64579000  0.09065000  0.77143000  1.0 0.1390158851
H  H425  1  0.71601000  0.04339000  0.66259000  1.0 0.0930233766
H  H426  1  0.73279000  0.98125000  0.63353000  1.0 0.0930233766
H  H427  1  0.77262000  0.89572000  0.67338000  1.0 0.0930233766
H  H428  1  0.79568000  0.87232000  0.74226000  1.0 0.0952972156
H  H429  1  0.72335000  0.08855000  0.77677000  1.0 0.0930233766
H  H430  1  0.74641000  0.06517000  0.84565000  1.0 0.1194000406
H  H431  1  0.78624000  0.97964000  0.88548000  1.0 0.1134344307
H  H432  1  0.80302000  0.91750000  0.85644000  1.0 0.0930233766
H  H433  1  0.21946000  0.64950000  0.64950000  1.0 0.1390158851
H  H434  1  0.64950000  0.48154000  0.21946000  1.0 0.1390158851
H  H435  1  0.64950000  0.21946000  0.48154000  1.0 0.1390158851
H  H436  1  0.48154000  0.64950000  0.64950000  1.0 0.1390158851
H  H437  1  0.64950000  0.64950000  0.21946000  1.0 0.1390158851
H  H438  1  0.48154000  0.21946000  0.64950000  1.0 0.1390158851
H  H439  1  0.21946000  0.48154000  0.64950000  1.0 0.1390158851
H  H440  1  0.64950000  0.64950000  0.48154000  1.0 0.1390158851
H  H441  1  0.64950000  0.21946000  0.64950000  1.0 0.1390158851
H  H442  1  0.21946000  0.64950000  0.48154000  1.0 0.1390158851
H  H443  1  0.48154000  0.64950000  0.21946000  1.0 0.1390158851
H  H444  1  0.64950000  0.48154000  0.64950000  1.0 0.1390158851
H  H445  1  0.78054000  0.51846000  0.35050000  1.0 0.1390158851
H  H446  1  0.35050000  0.35050000  0.78054000  1.0 0.1390158851
H  H447  1  0.35050000  0.35050000  0.51846000  1.0 0.1390158851
H  H448  1  0.51846000  0.78054000  0.35050000  1.0 0.1390158851
H  H449  1  0.35050000  0.51846000  0.78054000  1.0 0.1390158851
H  H450  1  0.51846000  0.35050000  0.35050000  1.0 0.1390158851
H  H451  1  0.78054000  0.35050000  0.35050000  1.0 0.1390158851
H  H452  1  0.35050000  0.78054000  0.51846000  1.0 0.1390158851
H  H453  1  0.35050000  0.51846000  0.35050000  1.0 0.1390158851
H  H454  1  0.78054000  0.35050000  0.51846000  1.0 0.1390158851
H  H455  1  0.51846000  0.35050000  0.78054000  1.0 0.1390158851
H  H456  1  0.35050000  0.78054000  0.35050000  1.0 0.1390158851
H  H457  1  0.87274000  0.87274000  0.74710000  1.0 0.1390158851
H  H458  1  0.74710000  0.50742000  0.87274000  1.0 0.1390158851
H  H459  1  0.87274000  0.87274000  0.50742000  1.0 0.1390158851
H  H460  1  0.50742000  0.74710000  0.87274000  1.0 0.1390158851
H  H461  1  0.87274000  0.74710000  0.87274000  1.0 0.1390158851
H  H462  1  0.50742000  0.87274000  0.74710000  1.0 0.1390158851
H  H463  1  0.87274000  0.50742000  0.87274000  1.0 0.1390158851
H  H464  1  0.74710000  0.87274000  0.50742000  1.0 0.1390158851
H  H465  1  0.74710000  0.87274000  0.87274000  1.0 0.1390158851
H  H466  1  0.87274000  0.74710000  0.50742000  1.0 0.1390158851
H  H467  1  0.50742000  0.87274000  0.87274000  1.0 0.1390158851
H  H468  1  0.87274000  0.50742000  0.74710000  1.0 0.1390158851
H  H469  1  0.12726000  0.49258000  0.25290000  1.0 0.1390158851
H  H470  1  0.25290000  0.12726000  0.12726000  1.0 0.1390158851
H  H471  1  0.12726000  0.25290000  0.49258000  1.0 0.1390158851
H  H472  1  0.49258000  0.12726000  0.12726000  1.0 0.1390158851
H  H473  1  0.12726000  0.49258000  0.12726000  1.0 0.1390158851
H  H474  1  0.49258000  0.12726000  0.25290000  1.0 0.1390158851
H  H475  1  0.12726000  0.25290000  0.12726000  1.0 0.1390158851
H  H476  1  0.25290000  0.12726000  0.49258000  1.0 0.1390158851
H  H477  1  0.25290000  0.49258000  0.12726000  1.0 0.1390158851
H  H478  1  0.12726000  0.12726000  0.49258000  1.0 0.1390158851
H  H479  1  0.49258000  0.25290000  0.12726000  1.0 0.1390158851
H  H480  1  0.12726000  0.12726000  0.25290000  1.0 0.1390158851
C  C1  1  0.18515000  0.58791000  0.73969000  1.0 0.5802736761
C  C2  1  0.10855000  0.66377000  0.73703000  1.0 -0.1778987458
C  C3  1  0.15860000  0.64082000  0.71406000  1.0 0.0101564928
C  C4  1  0.94422000  0.76930000  0.74258000  1.0 0.0457093958
C  C5  1  0.99408000  0.74606000  0.71936000  1.0 0.0457093958
C  C6  1  0.00772000  0.73262000  0.67920000  1.0 -0.122136192
C  C7  1  0.97149000  0.74241000  0.66227000  1.0 -0.0854919003
C  C8  1  0.92163000  0.76563000  0.68549000  1.0 -0.1778987458
C  C9  1  0.90799000  0.77907000  0.72565000  1.0 -0.0961422193
C  C10  1  0.96681000  0.77295000  0.79967000  1.0 0.041192253
C  C11  1  0.01667000  0.74973000  0.77645000  1.0 0.041192253
C  C12  1  0.05289000  0.73995000  0.79339000  1.0 -0.0707269945
C  C13  1  0.03926000  0.75340000  0.83354000  1.0 -0.1434343065
C  C14  1  0.98940000  0.77662000  0.85676000  1.0 -0.1340000225
C  C15  1  0.95318000  0.78640000  0.83982000  1.0 -0.0707269945
C  C16  1  0.73969000  0.48725000  0.18515000  1.0 0.5802736761
C  C17  1  0.73703000  0.49065000  0.10855000  1.0 -0.1778987458
C  C18  1  0.71406000  0.48652000  0.15860000  1.0 0.0101564928
C  C19  1  0.74258000  0.54390000  0.94422000  1.0 0.041192253
C  C20  1  0.71936000  0.54050000  0.99408000  1.0 0.0457093958
C  C21  1  0.67920000  0.58046000  0.00772000  1.0 -0.122136192
C  C22  1  0.66227000  0.62383000  0.97149000  1.0 -0.0854919003
C  C23  1  0.68549000  0.62725000  0.92163000  1.0 -0.1778987458
C  C24  1  0.72565000  0.58729000  0.90799000  1.0 -0.0961422193
C  C25  1  0.79967000  0.46057000  0.96681000  1.0 0.041192253
C  C26  1  0.77645000  0.45715000  0.01667000  1.0 0.041192253
C  C27  1  0.79339000  0.41377000  0.05289000  1.0 -0.0707269945
C  C28  1  0.83354000  0.37380000  0.03926000  1.0 -0.1434343065
C  C29  1  0.85676000  0.37722000  0.98940000  1.0 -0.1340000225
C  C30  1  0.83982000  0.42060000  0.95318000  1.0 -0.0707269945
C  C31  1  0.58791000  0.18515000  0.48725000  1.0 0.5802736761
C  C32  1  0.66377000  0.10855000  0.49065000  1.0 -0.1778987458
C  C33  1  0.64082000  0.15860000  0.48652000  1.0 0.0101564928
C  C34  1  0.76930000  0.94422000  0.54390000  1.0 0.041192253
C  C35  1  0.74606000  0.99408000  0.54050000  1.0 0.0457093958
C  C36  1  0.73262000  0.00772000  0.58046000  1.0 -0.122136192
C  C37  1  0.74241000  0.97149000  0.62383000  1.0 -0.0854919003
C  C38  1  0.76563000  0.92163000  0.62725000  1.0 -0.1778987458
C  C39  1  0.77907000  0.90799000  0.58729000  1.0 -0.0961422193
C  C40  1  0.77295000  0.96681000  0.46057000  1.0 0.041192253
C  C41  1  0.74973000  0.01667000  0.45715000  1.0 0.041192253
C  C42  1  0.73995000  0.05289000  0.41377000  1.0 -0.0707269945
C  C43  1  0.75340000  0.03926000  0.37380000  1.0 -0.1434343065
C  C44  1  0.77662000  0.98940000  0.37722000  1.0 -0.1340000225
C  C45  1  0.78640000  0.95318000  0.42060000  1.0 -0.0707269945
C  C46  1  0.48725000  0.73969000  0.58791000  1.0 0.5802736761
C  C47  1  0.49065000  0.73703000  0.66377000  1.0 -0.1778987458
C  C48  1  0.48652000  0.71406000  0.64082000  1.0 0.0101564928
C  C49  1  0.54390000  0.74258000  0.76930000  1.0 0.041192253
C  C50  1  0.54050000  0.71936000  0.74606000  1.0 0.0457093958
C  C51  1  0.58046000  0.67920000  0.73262000  1.0 -0.122136192
C  C52  1  0.62383000  0.66227000  0.74241000  1.0 -0.0854919003
C  C53  1  0.62725000  0.68549000  0.76563000  1.0 -0.1778987458
C  C54  1  0.58729000  0.72565000  0.77907000  1.0 -0.0961422193
C  C55  1  0.46057000  0.79967000  0.77295000  1.0 0.041192253
C  C56  1  0.45715000  0.77645000  0.74973000  1.0 0.041192253
C  C57  1  0.41377000  0.79339000  0.73995000  1.0 -0.0707269945
C  C58  1  0.37380000  0.83354000  0.75340000  1.0 -0.1434343065
C  C59  1  0.37722000  0.85676000  0.77662000  1.0 -0.1340000225
C  C60  1  0.42060000  0.83982000  0.78640000  1.0 -0.0707269945
C  C61  1  0.58791000  0.73969000  0.18515000  1.0 0.5802736761
C  C62  1  0.66377000  0.73703000  0.10855000  1.0 -0.1778987458
C  C63  1  0.64082000  0.71406000  0.15860000  1.0 0.0101564928
C  C64  1  0.76930000  0.74258000  0.94422000  1.0 0.041192253
C  C65  1  0.74606000  0.71936000  0.99408000  1.0 0.0457093958
C  C66  1  0.73262000  0.67920000  0.00772000  1.0 -0.122136192
C  C67  1  0.74241000  0.66227000  0.97149000  1.0 -0.0854919003
C  C68  1  0.76563000  0.68549000  0.92163000  1.0 -0.1778987458
C  C69  1  0.77907000  0.72565000  0.90799000  1.0 -0.0961422193
C  C70  1  0.77295000  0.79967000  0.96681000  1.0 0.041192253
C  C71  1  0.74973000  0.77645000  0.01667000  1.0 0.041192253
C  C72  1  0.73995000  0.79339000  0.05289000  1.0 -0.0707269945
C  C73  1  0.75340000  0.83354000  0.03926000  1.0 -0.1434343065
C  C74  1  0.77662000  0.85676000  0.98940000  1.0 -0.1340000225
C  C75  1  0.78640000  0.83982000  0.95318000  1.0 -0.0707269945
C  C76  1  0.48725000  0.18515000  0.73969000  1.0 0.5802736761
C  C77  1  0.49065000  0.10855000  0.73703000  1.0 -0.1778987458
C  C78  1  0.48652000  0.15860000  0.71406000  1.0 0.0101564928
C  C79  1  0.54390000  0.94422000  0.74258000  1.0 0.041192253
C  C80  1  0.54050000  0.99408000  0.71936000  1.0 0.0457093958
C  C81  1  0.58046000  0.00772000  0.67920000  1.0 -0.122136192
C  C82  1  0.62383000  0.97149000  0.66227000  1.0 -0.0854919003
C  C83  1  0.62725000  0.92163000  0.68549000  1.0 -0.1778987458
C  C84  1  0.58729000  0.90799000  0.72565000  1.0 -0.0961422193
C  C85  1  0.46057000  0.96681000  0.79967000  1.0 0.041192253
C  C86  1  0.45715000  0.01667000  0.77645000  1.0 0.041192253
C  C87  1  0.41377000  0.05289000  0.79339000  1.0 -0.0707269945
C  C88  1  0.37380000  0.03926000  0.83354000  1.0 -0.1434343065
C  C89  1  0.37722000  0.98940000  0.85676000  1.0 -0.1340000225
C  C90  1  0.42060000  0.95318000  0.83982000  1.0 -0.0707269945
C  C91  1  0.18515000  0.48725000  0.58791000  1.0 0.5802736761
C  C92  1  0.10855000  0.49065000  0.66377000  1.0 -0.1778987458
C  C93  1  0.15860000  0.48652000  0.64082000  1.0 0.0101564928
C  C94  1  0.94422000  0.54390000  0.76930000  1.0 0.041192253
C  C95  1  0.99408000  0.54050000  0.74606000  1.0 0.0457093958
C  C96  1  0.00772000  0.58046000  0.73262000  1.0 -0.122136192
C  C97  1  0.97149000  0.62383000  0.74241000  1.0 -0.0854919003
C  C98  1  0.92163000  0.62725000  0.76563000  1.0 -0.1778987458
C  C99  1  0.90799000  0.58729000  0.77907000  1.0 -0.0961422193
C  C100  1  0.96681000  0.46057000  0.77295000  1.0 0.041192253
C  C101  1  0.01667000  0.45715000  0.74973000  1.0 0.041192253
C  C102  1  0.05289000  0.41377000  0.73995000  1.0 -0.0707269945
C  C103  1  0.03926000  0.37380000  0.75340000  1.0 -0.1434343065
C  C104  1  0.98940000  0.37722000  0.77662000  1.0 -0.1340000225
C  C105  1  0.95318000  0.42060000  0.78640000  1.0 -0.0707269945
C  C106  1  0.73969000  0.58791000  0.48725000  1.0 0.5802736761
C  C107  1  0.73703000  0.66377000  0.49065000  1.0 -0.1778987458
C  C108  1  0.71406000  0.64082000  0.48652000  1.0 0.0101564928
C  C109  1  0.74258000  0.76930000  0.54390000  1.0 0.041192253
C  C110  1  0.71936000  0.74606000  0.54050000  1.0 0.0457093958
C  C111  1  0.67920000  0.73262000  0.58046000  1.0 -0.122136192
C  C112  1  0.66227000  0.74241000  0.62383000  1.0 -0.0854919003
C  C113  1  0.68549000  0.76563000  0.62725000  1.0 -0.1778987458
C  C114  1  0.72565000  0.77907000  0.58729000  1.0 -0.0961422193
C  C115  1  0.79967000  0.77295000  0.46057000  1.0 0.041192253
C  C116  1  0.77645000  0.74973000  0.45715000  1.0 0.041192253
C  C117  1  0.79339000  0.73995000  0.41377000  1.0 -0.0707269945
C  C118  1  0.83354000  0.75340000  0.37380000  1.0 -0.1434343065
C  C119  1  0.85676000  0.77662000  0.37722000  1.0 -0.1340000225
C  C120  1  0.83982000  0.78640000  0.42060000  1.0 -0.0707269945
C  C121  1  0.73969000  0.18515000  0.58791000  1.0 0.5802736761
C  C122  1  0.73703000  0.10855000  0.66377000  1.0 -0.1778987458
C  C123  1  0.71406000  0.15860000  0.64082000  1.0 0.0101564928
C  C124  1  0.74258000  0.94422000  0.76930000  1.0 0.041192253
C  C125  1  0.71936000  0.99408000  0.74606000  1.0 0.0457093958
C  C126  1  0.67920000  0.00772000  0.73262000  1.0 -0.122136192
C  C127  1  0.66227000  0.97149000  0.74241000  1.0 -0.0854919003
C  C128  1  0.68549000  0.92163000  0.76563000  1.0 -0.1778987458
C  C129  1  0.72565000  0.90799000  0.77907000  1.0 -0.0961422193
C  C130  1  0.79967000  0.96681000  0.77295000  1.0 0.041192253
C  C131  1  0.77645000  0.01667000  0.74973000  1.0 0.041192253
C  C132  1  0.79339000  0.05289000  0.73995000  1.0 -0.0707269945
C  C133  1  0.83354000  0.03926000  0.75340000  1.0 -0.1434343065
C  C134  1  0.85676000  0.98940000  0.77662000  1.0 -0.1340000225
C  C135  1  0.83982000  0.95318000  0.78640000  1.0 -0.0707269945
C  C136  1  0.18515000  0.73969000  0.48725000  1.0 0.5802736761
C  C137  1  0.10855000  0.73703000  0.49065000  1.0 -0.1778987458
C  C138  1  0.15860000  0.71406000  0.48652000  1.0 0.0101564928
C  C139  1  0.94422000  0.74258000  0.54390000  1.0 0.041192253
C  C140  1  0.99408000  0.71936000  0.54050000  1.0 0.0457093958
C  C141  1  0.00772000  0.67920000  0.58046000  1.0 -0.122136192
C  C142  1  0.97149000  0.66227000  0.62383000  1.0 -0.0854919003
C  C143  1  0.92163000  0.68549000  0.62725000  1.0 -0.1778987458
C  C144  1  0.90799000  0.72565000  0.58729000  1.0 -0.0961422193
C  C145  1  0.96681000  0.79967000  0.46057000  1.0 0.041192253
C  C146  1  0.01667000  0.77645000  0.45715000  1.0 0.041192253
C  C147  1  0.05289000  0.79339000  0.41377000  1.0 -0.0707269945
C  C148  1  0.03926000  0.83354000  0.37380000  1.0 -0.1434343065
C  C149  1  0.98940000  0.85676000  0.37722000  1.0 -0.1340000225
C  C150  1  0.95318000  0.83982000  0.42060000  1.0 -0.0707269945
C  C151  1  0.48725000  0.58791000  0.18515000  1.0 0.5802736761
C  C152  1  0.49065000  0.66377000  0.10855000  1.0 -0.1778987458
C  C153  1  0.48652000  0.64082000  0.15860000  1.0 0.0101564928
C  C154  1  0.54390000  0.76930000  0.94422000  1.0 0.041192253
C  C155  1  0.54050000  0.74606000  0.99408000  1.0 0.0457093958
C  C156  1  0.58046000  0.73262000  0.00772000  1.0 -0.122136192
C  C157  1  0.62383000  0.74241000  0.97149000  1.0 -0.0854919003
C  C158  1  0.62725000  0.76563000  0.92163000  1.0 -0.1778987458
C  C159  1  0.58729000  0.77907000  0.90799000  1.0 -0.0961422193
C  C160  1  0.46057000  0.77295000  0.96681000  1.0 0.041192253
C  C161  1  0.45715000  0.74973000  0.01667000  1.0 0.041192253
C  C162  1  0.41377000  0.73995000  0.05289000  1.0 -0.0707269945
C  C163  1  0.37380000  0.75340000  0.03926000  1.0 -0.1434343065
C  C164  1  0.37722000  0.77662000  0.98940000  1.0 -0.1340000225
C  C165  1  0.42060000  0.78640000  0.95318000  1.0 -0.0707269945
C  C166  1  0.58791000  0.48725000  0.73969000  1.0 0.5802736761
C  C167  1  0.66377000  0.49065000  0.73703000  1.0 -0.1778987458
C  C168  1  0.64082000  0.48652000  0.71406000  1.0 0.0101564928
C  C169  1  0.76930000  0.54390000  0.74258000  1.0 0.0457093958
C  C170  1  0.74606000  0.54050000  0.71936000  1.0 0.0457093958
C  C171  1  0.73262000  0.58046000  0.67920000  1.0 -0.122136192
C  C172  1  0.74241000  0.62383000  0.66227000  1.0 -0.0854919003
C  C173  1  0.76563000  0.62725000  0.68549000  1.0 -0.1778987458
C  C174  1  0.77907000  0.58729000  0.72565000  1.0 -0.0961422193
C  C175  1  0.77295000  0.46057000  0.79967000  1.0 0.041192253
C  C176  1  0.74973000  0.45715000  0.77645000  1.0 0.041192253
C  C177  1  0.73995000  0.41377000  0.79339000  1.0 -0.0707269945
C  C178  1  0.75340000  0.37380000  0.83354000  1.0 -0.1434343065
C  C179  1  0.77662000  0.37722000  0.85676000  1.0 -0.1340000225
C  C180  1  0.78640000  0.42060000  0.83982000  1.0 -0.0707269945
C  C181  1  0.81485000  0.51275000  0.26031000  1.0 0.5802736761
C  C182  1  0.89145000  0.50935000  0.26297000  1.0 -0.1778987458
C  C183  1  0.84140000  0.51348000  0.28594000  1.0 0.0101564928
C  C184  1  0.05578000  0.45610000  0.25742000  1.0 0.041192253
C  C185  1  0.00592000  0.45950000  0.28064000  1.0 0.0457093958
C  C186  1  0.99228000  0.41954000  0.32080000  1.0 -0.122136192
C  C187  1  0.02851000  0.37617000  0.33773000  1.0 -0.0854919003
C  C188  1  0.07837000  0.37275000  0.31451000  1.0 -0.1778987458
C  C189  1  0.09201000  0.41271000  0.27435000  1.0 -0.0961422193
C  C190  1  0.03319000  0.53943000  0.20033000  1.0 0.041192253
C  C191  1  0.98333000  0.54285000  0.22355000  1.0 0.041192253
C  C192  1  0.94711000  0.58623000  0.20661000  1.0 -0.0707269945
C  C193  1  0.96074000  0.62620000  0.16646000  1.0 -0.1434343065
C  C194  1  0.01060000  0.62278000  0.14324000  1.0 -0.1340000225
C  C195  1  0.04682000  0.57940000  0.16018000  1.0 -0.0707269945
C  C196  1  0.26031000  0.41209000  0.81485000  1.0 0.5802736761
C  C197  1  0.26297000  0.33623000  0.89145000  1.0 -0.1778987458
C  C198  1  0.28594000  0.35918000  0.84140000  1.0 0.0101564928
C  C199  1  0.25742000  0.23070000  0.05578000  1.0 0.041192253
C  C200  1  0.28064000  0.25394000  0.00592000  1.0 0.0457093958
C  C201  1  0.32080000  0.26738000  0.99228000  1.0 -0.122136192
C  C202  1  0.33773000  0.25759000  0.02851000  1.0 -0.0854919003
C  C203  1  0.31451000  0.23437000  0.07837000  1.0 -0.1778987458
C  C204  1  0.27435000  0.22093000  0.09201000  1.0 -0.0961422193
C  C205  1  0.20033000  0.22705000  0.03319000  1.0 0.041192253
C  C206  1  0.22355000  0.25027000  0.98333000  1.0 0.041192253
C  C207  1  0.20661000  0.26005000  0.94711000  1.0 -0.0707269945
C  C208  1  0.16646000  0.24660000  0.96074000  1.0 -0.1434343065
C  C209  1  0.14324000  0.22338000  0.01060000  1.0 -0.1340000225
C  C210  1  0.16018000  0.21360000  0.04682000  1.0 -0.0707269945
C  C211  1  0.41209000  0.26031000  0.51275000  1.0 0.5802736761
C  C212  1  0.33623000  0.26297000  0.50935000  1.0 -0.1778987458
C  C213  1  0.35918000  0.28594000  0.51348000  1.0 0.0101564928
C  C214  1  0.23070000  0.25742000  0.45610000  1.0 0.041192253
C  C215  1  0.25394000  0.28064000  0.45950000  1.0 0.0457093958
C  C216  1  0.26738000  0.32080000  0.41954000  1.0 -0.122136192
C  C217  1  0.25759000  0.33773000  0.37617000  1.0 -0.0854919003
C  C218  1  0.23437000  0.31451000  0.37275000  1.0 -0.1778987458
C  C219  1  0.22093000  0.27435000  0.41271000  1.0 -0.0961422193
C  C220  1  0.22705000  0.20033000  0.53943000  1.0 0.041192253
C  C221  1  0.25027000  0.22355000  0.54285000  1.0 0.041192253
C  C222  1  0.26005000  0.20661000  0.58623000  1.0 -0.0707269945
C  C223  1  0.24660000  0.16646000  0.62620000  1.0 -0.1434343065
C  C224  1  0.22338000  0.14324000  0.62278000  1.0 -0.1340000225
C  C225  1  0.21360000  0.16018000  0.57940000  1.0 -0.0707269945
C  C226  1  0.51275000  0.81485000  0.41209000  1.0 0.5802736761
C  C227  1  0.50935000  0.89145000  0.33623000  1.0 -0.1778987458
C  C228  1  0.51348000  0.84140000  0.35918000  1.0 0.0101564928
C  C229  1  0.45610000  0.05578000  0.23070000  1.0 0.041192253
C  C230  1  0.45950000  0.00592000  0.25394000  1.0 0.0457093958
C  C231  1  0.41954000  0.99228000  0.26738000  1.0 -0.122136192
C  C232  1  0.37617000  0.02851000  0.25759000  1.0 -0.0854919003
C  C233  1  0.37275000  0.07837000  0.23437000  1.0 -0.1778987458
C  C234  1  0.41271000  0.09201000  0.22093000  1.0 -0.0961422193
C  C235  1  0.53943000  0.03319000  0.22705000  1.0 0.041192253
C  C236  1  0.54285000  0.98333000  0.25027000  1.0 0.041192253
C  C237  1  0.58623000  0.94711000  0.26005000  1.0 -0.0707269945
C  C238  1  0.62620000  0.96074000  0.24660000  1.0 -0.1434343065
C  C239  1  0.62278000  0.01060000  0.22338000  1.0 -0.1340000225
C  C240  1  0.57940000  0.04682000  0.21360000  1.0 -0.0707269945
C  C241  1  0.41209000  0.51275000  0.81485000  1.0 0.5802736761
C  C242  1  0.33623000  0.50935000  0.89145000  1.0 -0.1778987458
C  C243  1  0.35918000  0.51348000  0.84140000  1.0 0.0101564928
C  C244  1  0.23070000  0.45610000  0.05578000  1.0 0.041192253
C  C245  1  0.25394000  0.45950000  0.00592000  1.0 0.0457093958
C  C246  1  0.26738000  0.41954000  0.99228000  1.0 -0.122136192
C  C247  1  0.25759000  0.37617000  0.02851000  1.0 -0.0854919003
C  C248  1  0.23437000  0.37275000  0.07837000  1.0 -0.1778987458
C  C249  1  0.22093000  0.41271000  0.09201000  1.0 -0.0961422193
C  C250  1  0.22705000  0.53943000  0.03319000  1.0 0.041192253
C  C251  1  0.25027000  0.54285000  0.98333000  1.0 0.041192253
C  C252  1  0.26005000  0.58623000  0.94711000  1.0 -0.0707269945
C  C253  1  0.24660000  0.62620000  0.96074000  1.0 -0.1434343065
C  C254  1  0.22338000  0.62278000  0.01060000  1.0 -0.1340000225
C  C255  1  0.21360000  0.57940000  0.04682000  1.0 -0.0707269945
C  C256  1  0.51275000  0.41209000  0.26031000  1.0 0.5802736761
C  C257  1  0.50935000  0.33623000  0.26297000  1.0 -0.1778987458
C  C258  1  0.51348000  0.35918000  0.28594000  1.0 0.0101564928
C  C259  1  0.45610000  0.23070000  0.25742000  1.0 0.041192253
C  C260  1  0.45950000  0.25394000  0.28064000  1.0 0.0457093958
C  C261  1  0.41954000  0.26738000  0.32080000  1.0 -0.122136192
C  C262  1  0.37617000  0.25759000  0.33773000  1.0 -0.0854919003
C  C263  1  0.37275000  0.23437000  0.31451000  1.0 -0.1778987458
C  C264  1  0.41271000  0.22093000  0.27435000  1.0 -0.0961422193
C  C265  1  0.53943000  0.22705000  0.20033000  1.0 0.041192253
C  C266  1  0.54285000  0.25027000  0.22355000  1.0 0.041192253
C  C267  1  0.58623000  0.26005000  0.20661000  1.0 -0.0707269945
C  C268  1  0.62620000  0.24660000  0.16646000  1.0 -0.1434343065
C  C269  1  0.62278000  0.22338000  0.14324000  1.0 -0.1340000225
C  C270  1  0.57940000  0.21360000  0.16018000  1.0 -0.0707269945
C  C271  1  0.81485000  0.26031000  0.41209000  1.0 0.5802736761
C  C272  1  0.89145000  0.26297000  0.33623000  1.0 -0.1778987458
C  C273  1  0.84140000  0.28594000  0.35918000  1.0 0.0101564928
C  C274  1  0.05578000  0.25742000  0.23070000  1.0 0.041192253
C  C275  1  0.00592000  0.28064000  0.25394000  1.0 0.0457093958
C  C276  1  0.99228000  0.32080000  0.26738000  1.0 -0.122136192
C  C277  1  0.02851000  0.33773000  0.25759000  1.0 -0.0854919003
C  C278  1  0.07837000  0.31451000  0.23437000  1.0 -0.1778987458
C  C279  1  0.09201000  0.27435000  0.22093000  1.0 -0.0961422193
C  C280  1  0.03319000  0.20033000  0.22705000  1.0 0.041192253
C  C281  1  0.98333000  0.22355000  0.25027000  1.0 0.041192253
C  C282  1  0.94711000  0.20661000  0.26005000  1.0 -0.0707269945
C  C283  1  0.96074000  0.16646000  0.24660000  1.0 -0.1434343065
C  C284  1  0.01060000  0.14324000  0.22338000  1.0 -0.1340000225
C  C285  1  0.04682000  0.16018000  0.21360000  1.0 -0.0707269945
C  C286  1  0.26031000  0.81485000  0.51275000  1.0 0.5802736761
C  C287  1  0.26297000  0.89145000  0.50935000  1.0 -0.1778987458
C  C288  1  0.28594000  0.84140000  0.51348000  1.0 0.0101564928
C  C289  1  0.25742000  0.05578000  0.45610000  1.0 0.041192253
C  C290  1  0.28064000  0.00592000  0.45950000  1.0 0.0457093958
C  C291  1  0.32080000  0.99228000  0.41954000  1.0 -0.122136192
C  C292  1  0.33773000  0.02851000  0.37617000  1.0 -0.0854919003
C  C293  1  0.31451000  0.07837000  0.37275000  1.0 -0.1778987458
C  C294  1  0.27435000  0.09201000  0.41271000  1.0 -0.0961422193
C  C295  1  0.20033000  0.03319000  0.53943000  1.0 0.041192253
C  C296  1  0.22355000  0.98333000  0.54285000  1.0 0.041192253
C  C297  1  0.20661000  0.94711000  0.58623000  1.0 -0.0707269945
C  C298  1  0.16646000  0.96074000  0.62620000  1.0 -0.1434343065
C  C299  1  0.14324000  0.01060000  0.62278000  1.0 -0.1340000225
C  C300  1  0.16018000  0.04682000  0.57940000  1.0 -0.0707269945
C  C301  1  0.26031000  0.51275000  0.41209000  1.0 0.5802736761
C  C302  1  0.26297000  0.50935000  0.33623000  1.0 -0.1778987458
C  C303  1  0.28594000  0.51348000  0.35918000  1.0 0.0101564928
C  C304  1  0.25742000  0.45610000  0.23070000  1.0 0.041192253
C  C305  1  0.28064000  0.45950000  0.25394000  1.0 0.0457093958
C  C306  1  0.32080000  0.41954000  0.26738000  1.0 -0.122136192
C  C307  1  0.33773000  0.37617000  0.25759000  1.0 -0.0854919003
C  C308  1  0.31451000  0.37275000  0.23437000  1.0 -0.1778987458
C  C309  1  0.27435000  0.41271000  0.22093000  1.0 -0.0961422193
C  C310  1  0.20033000  0.53943000  0.22705000  1.0 0.041192253
C  C311  1  0.22355000  0.54285000  0.25027000  1.0 0.041192253
C  C312  1  0.20661000  0.58623000  0.26005000  1.0 -0.0707269945
C  C313  1  0.16646000  0.62620000  0.24660000  1.0 -0.1434343065
C  C314  1  0.14324000  0.62278000  0.22338000  1.0 -0.1340000225
C  C315  1  0.16018000  0.57940000  0.21360000  1.0 -0.0707269945
C  C316  1  0.81485000  0.41209000  0.51275000  1.0 0.5802736761
C  C317  1  0.89145000  0.33623000  0.50935000  1.0 -0.1778987458
C  C318  1  0.84140000  0.35918000  0.51348000  1.0 0.0101564928
C  C319  1  0.05578000  0.23070000  0.45610000  1.0 0.041192253
C  C320  1  0.00592000  0.25394000  0.45950000  1.0 0.0457093958
C  C321  1  0.99228000  0.26738000  0.41954000  1.0 -0.122136192
C  C322  1  0.02851000  0.25759000  0.37617000  1.0 -0.0854919003
C  C323  1  0.07837000  0.23437000  0.37275000  1.0 -0.1778987458
C  C324  1  0.09201000  0.22093000  0.41271000  1.0 -0.0961422193
C  C325  1  0.03319000  0.22705000  0.53943000  1.0 0.041192253
C  C326  1  0.98333000  0.25027000  0.54285000  1.0 0.041192253
C  C327  1  0.94711000  0.26005000  0.58623000  1.0 -0.0707269945
C  C328  1  0.96074000  0.24660000  0.62620000  1.0 -0.1434343065
C  C329  1  0.01060000  0.22338000  0.62278000  1.0 -0.1340000225
C  C330  1  0.04682000  0.21360000  0.57940000  1.0 -0.0707269945
C  C331  1  0.51275000  0.26031000  0.81485000  1.0 0.5802736761
C  C332  1  0.50935000  0.26297000  0.89145000  1.0 -0.1778987458
C  C333  1  0.51348000  0.28594000  0.84140000  1.0 0.0101564928
C  C334  1  0.45610000  0.25742000  0.05578000  1.0 0.041192253
C  C335  1  0.45950000  0.28064000  0.00592000  1.0 0.0457093958
C  C336  1  0.41954000  0.32080000  0.99228000  1.0 -0.122136192
C  C337  1  0.37617000  0.33773000  0.02851000  1.0 -0.0854919003
C  C338  1  0.37275000  0.31451000  0.07837000  1.0 -0.1778987458
C  C339  1  0.41271000  0.27435000  0.09201000  1.0 -0.0961422193
C  C340  1  0.53943000  0.20033000  0.03319000  1.0 0.041192253
C  C341  1  0.54285000  0.22355000  0.98333000  1.0 0.041192253
C  C342  1  0.58623000  0.20661000  0.94711000  1.0 -0.0707269945
C  C343  1  0.62620000  0.16646000  0.96074000  1.0 -0.1434343065
C  C344  1  0.62278000  0.14324000  0.01060000  1.0 -0.1340000225
C  C345  1  0.57940000  0.16018000  0.04682000  1.0 -0.0707269945
C  C346  1  0.41209000  0.81485000  0.26031000  1.0 0.5802736761
C  C347  1  0.33623000  0.89145000  0.26297000  1.0 -0.1778987458
C  C348  1  0.35918000  0.84140000  0.28594000  1.0 0.0101564928
C  C349  1  0.23070000  0.05578000  0.25742000  1.0 0.041192253
C  C350  1  0.25394000  0.00592000  0.28064000  1.0 0.0457093958
C  C351  1  0.26738000  0.99228000  0.32080000  1.0 -0.122136192
C  C352  1  0.25759000  0.02851000  0.33773000  1.0 -0.0854919003
C  C353  1  0.23437000  0.07837000  0.31451000  1.0 -0.1778987458
C  C354  1  0.22093000  0.09201000  0.27435000  1.0 -0.0961422193
C  C355  1  0.22705000  0.03319000  0.20033000  1.0 0.041192253
C  C356  1  0.25027000  0.98333000  0.22355000  1.0 0.041192253
C  C357  1  0.26005000  0.94711000  0.20661000  1.0 -0.0707269945
C  C358  1  0.24660000  0.96074000  0.16646000  1.0 -0.1434343065
C  C359  1  0.22338000  0.01060000  0.14324000  1.0 -0.1340000225
C  C360  1  0.21360000  0.04682000  0.16018000  1.0 -0.0707269945
C  C361  1  0.81485000  0.41209000  0.26031000  1.0 0.5802736761
C  C362  1  0.89145000  0.33623000  0.26297000  1.0 -0.1778987458
C  C363  1  0.84140000  0.35918000  0.28594000  1.0 0.0101564928
C  C364  1  0.05578000  0.23070000  0.25742000  1.0 0.041192253
C  C365  1  0.00592000  0.25394000  0.28064000  1.0 0.0457093958
C  C366  1  0.99228000  0.26738000  0.32080000  1.0 -0.122136192
C  C367  1  0.02851000  0.25759000  0.33773000  1.0 -0.0854919003
C  C368  1  0.07837000  0.23437000  0.31451000  1.0 -0.1778987458
C  C369  1  0.09201000  0.22093000  0.27435000  1.0 -0.0961422193
C  C370  1  0.03319000  0.22705000  0.20033000  1.0 0.041192253
C  C371  1  0.98333000  0.25027000  0.22355000  1.0 0.041192253
C  C372  1  0.94711000  0.26005000  0.20661000  1.0 -0.0707269945
C  C373  1  0.96074000  0.24660000  0.16646000  1.0 -0.1434343065
C  C374  1  0.01060000  0.22338000  0.14324000  1.0 -0.1340000225
C  C375  1  0.04682000  0.21360000  0.16018000  1.0 -0.0707269945
C  C376  1  0.26031000  0.51275000  0.81485000  1.0 0.5802736761
C  C377  1  0.26297000  0.50935000  0.89145000  1.0 -0.1778987458
C  C378  1  0.28594000  0.51348000  0.84140000  1.0 0.0101564928
C  C379  1  0.25742000  0.45610000  0.05578000  1.0 0.041192253
C  C380  1  0.28064000  0.45950000  0.00592000  1.0 0.0457093958
C  C381  1  0.32080000  0.41954000  0.99228000  1.0 -0.122136192
C  C382  1  0.33773000  0.37617000  0.02851000  1.0 -0.0854919003
C  C383  1  0.31451000  0.37275000  0.07837000  1.0 -0.1778987458
C  C384  1  0.27435000  0.41271000  0.09201000  1.0 -0.0961422193
C  C385  1  0.20033000  0.53943000  0.03319000  1.0 0.041192253
C  C386  1  0.22355000  0.54285000  0.98333000  1.0 0.041192253
C  C387  1  0.20661000  0.58623000  0.94711000  1.0 -0.0707269945
C  C388  1  0.16646000  0.62620000  0.96074000  1.0 -0.1434343065
C  C389  1  0.14324000  0.62278000  0.01060000  1.0 -0.1340000225
C  C390  1  0.16018000  0.57940000  0.04682000  1.0 -0.0707269945
C  C391  1  0.41209000  0.81485000  0.51275000  1.0 0.5802736761
C  C392  1  0.33623000  0.89145000  0.50935000  1.0 -0.1778987458
C  C393  1  0.35918000  0.84140000  0.51348000  1.0 0.0101564928
C  C394  1  0.23070000  0.05578000  0.45610000  1.0 0.041192253
C  C395  1  0.25394000  0.00592000  0.45950000  1.0 0.0457093958
C  C396  1  0.26738000  0.99228000  0.41954000  1.0 -0.122136192
C  C397  1  0.25759000  0.02851000  0.37617000  1.0 -0.0854919003
C  C398  1  0.23437000  0.07837000  0.37275000  1.0 -0.1778987458
C  C399  1  0.22093000  0.09201000  0.41271000  1.0 -0.0961422193
C  C400  1  0.22705000  0.03319000  0.53943000  1.0 0.041192253
C  C401  1  0.25027000  0.98333000  0.54285000  1.0 0.041192253
C  C402  1  0.26005000  0.94711000  0.58623000  1.0 -0.0707269945
C  C403  1  0.24660000  0.96074000  0.62620000  1.0 -0.1434343065
C  C404  1  0.22338000  0.01060000  0.62278000  1.0 -0.1340000225
C  C405  1  0.21360000  0.04682000  0.57940000  1.0 -0.0707269945
C  C406  1  0.51275000  0.26031000  0.41209000  1.0 0.5802736761
C  C407  1  0.50935000  0.26297000  0.33623000  1.0 -0.1778987458
C  C408  1  0.51348000  0.28594000  0.35918000  1.0 0.0101564928
C  C409  1  0.45610000  0.25742000  0.23070000  1.0 0.041192253
C  C410  1  0.45950000  0.28064000  0.25394000  1.0 0.0457093958
C  C411  1  0.41954000  0.32080000  0.26738000  1.0 -0.122136192
C  C412  1  0.37617000  0.33773000  0.25759000  1.0 -0.0854919003
C  C413  1  0.37275000  0.31451000  0.23437000  1.0 -0.1778987458
C  C414  1  0.41271000  0.27435000  0.22093000  1.0 -0.0961422193
C  C415  1  0.53943000  0.20033000  0.22705000  1.0 0.041192253
C  C416  1  0.54285000  0.22355000  0.25027000  1.0 0.041192253
C  C417  1  0.58623000  0.20661000  0.26005000  1.0 -0.0707269945
C  C418  1  0.62620000  0.16646000  0.24660000  1.0 -0.1434343065
C  C419  1  0.62278000  0.14324000  0.22338000  1.0 -0.1340000225
C  C420  1  0.57940000  0.16018000  0.21360000  1.0 -0.0707269945
C  C421  1  0.41209000  0.26031000  0.81485000  1.0 0.5802736761
C  C422  1  0.33623000  0.26297000  0.89145000  1.0 -0.1778987458
C  C423  1  0.35918000  0.28594000  0.84140000  1.0 0.0101564928
C  C424  1  0.23070000  0.25742000  0.05578000  1.0 0.041192253
C  C425  1  0.25394000  0.28064000  0.00592000  1.0 0.0457093958
C  C426  1  0.26738000  0.32080000  0.99228000  1.0 -0.122136192
C  C427  1  0.25759000  0.33773000  0.02851000  1.0 -0.0854919003
C  C428  1  0.23437000  0.31451000  0.07837000  1.0 -0.1778987458
C  C429  1  0.22093000  0.27435000  0.09201000  1.0 -0.0961422193
C  C430  1  0.22705000  0.20033000  0.03319000  1.0 0.041192253
C  C431  1  0.25027000  0.22355000  0.98333000  1.0 0.041192253
C  C432  1  0.26005000  0.20661000  0.94711000  1.0 -0.0707269945
C  C433  1  0.24660000  0.16646000  0.96074000  1.0 -0.1434343065
C  C434  1  0.22338000  0.14324000  0.01060000  1.0 -0.1340000225
C  C435  1  0.21360000  0.16018000  0.04682000  1.0 -0.0707269945
C  C436  1  0.51275000  0.81485000  0.26031000  1.0 0.5802736761
C  C437  1  0.50935000  0.89145000  0.26297000  1.0 -0.1778987458
C  C438  1  0.51348000  0.84140000  0.28594000  1.0 0.0101564928
C  C439  1  0.45610000  0.05578000  0.25742000  1.0 0.041192253
C  C440  1  0.45950000  0.00592000  0.28064000  1.0 0.0457093958
C  C441  1  0.41954000  0.99228000  0.32080000  1.0 -0.122136192
C  C442  1  0.37617000  0.02851000  0.33773000  1.0 -0.0854919003
C  C443  1  0.37275000  0.07837000  0.31451000  1.0 -0.1778987458
C  C444  1  0.41271000  0.09201000  0.27435000  1.0 -0.0961422193
C  C445  1  0.53943000  0.03319000  0.20033000  1.0 0.041192253
C  C446  1  0.54285000  0.98333000  0.22355000  1.0 0.041192253
C  C447  1  0.58623000  0.94711000  0.20661000  1.0 -0.0707269945
C  C448  1  0.62620000  0.96074000  0.16646000  1.0 -0.1434343065
C  C449  1  0.62278000  0.01060000  0.14324000  1.0 -0.1340000225
C  C450  1  0.57940000  0.04682000  0.16018000  1.0 -0.0707269945
C  C451  1  0.81485000  0.51275000  0.41209000  1.0 0.5802736761
C  C452  1  0.89145000  0.50935000  0.33623000  1.0 -0.1778987458
C  C453  1  0.84140000  0.51348000  0.35918000  1.0 0.0101564928
C  C454  1  0.05578000  0.45610000  0.23070000  1.0 0.041192253
C  C455  1  0.00592000  0.45950000  0.25394000  1.0 0.0457093958
C  C456  1  0.99228000  0.41954000  0.26738000  1.0 -0.122136192
C  C457  1  0.02851000  0.37617000  0.25759000  1.0 -0.0854919003
C  C458  1  0.07837000  0.37275000  0.23437000  1.0 -0.1778987458
C  C459  1  0.09201000  0.41271000  0.22093000  1.0 -0.0961422193
C  C460  1  0.03319000  0.53943000  0.22705000  1.0 0.041192253
C  C461  1  0.98333000  0.54285000  0.25027000  1.0 0.041192253
C  C462  1  0.94711000  0.58623000  0.26005000  1.0 -0.0707269945
C  C463  1  0.96074000  0.62620000  0.24660000  1.0 -0.1434343065
C  C464  1  0.01060000  0.62278000  0.22338000  1.0 -0.1340000225
C  C465  1  0.04682000  0.57940000  0.21360000  1.0 -0.0707269945
C  C466  1  0.26031000  0.41209000  0.51275000  1.0 0.5802736761
C  C467  1  0.26297000  0.33623000  0.50935000  1.0 -0.1778987458
C  C468  1  0.28594000  0.35918000  0.51348000  1.0 0.0101564928
C  C469  1  0.25742000  0.23070000  0.45610000  1.0 0.041192253
C  C470  1  0.28064000  0.25394000  0.45950000  1.0 0.0457093958
C  C471  1  0.32080000  0.26738000  0.41954000  1.0 -0.122136192
C  C472  1  0.33773000  0.25759000  0.37617000  1.0 -0.0854919003
C  C473  1  0.31451000  0.23437000  0.37275000  1.0 -0.1778987458
C  C474  1  0.27435000  0.22093000  0.41271000  1.0 -0.0961422193
C  C475  1  0.20033000  0.22705000  0.53943000  1.0 0.041192253
C  C476  1  0.22355000  0.25027000  0.54285000  1.0 0.041192253
C  C477  1  0.20661000  0.26005000  0.58623000  1.0 -0.0707269945
C  C478  1  0.16646000  0.24660000  0.62620000  1.0 -0.1434343065
C  C479  1  0.14324000  0.22338000  0.62278000  1.0 -0.1340000225
C  C480  1  0.16018000  0.21360000  0.57940000  1.0 -0.0707269945
C  C481  1  0.26031000  0.81485000  0.41209000  1.0 0.5802736761
C  C482  1  0.26297000  0.89145000  0.33623000  1.0 -0.1778987458
C  C483  1  0.28594000  0.84140000  0.35918000  1.0 0.0101564928
C  C484  1  0.25742000  0.05578000  0.23070000  1.0 0.041192253
C  C485  1  0.28064000  0.00592000  0.25394000  1.0 0.0457093958
C  C486  1  0.32080000  0.99228000  0.26738000  1.0 -0.122136192
C  C487  1  0.33773000  0.02851000  0.25759000  1.0 -0.0854919003
C  C488  1  0.31451000  0.07837000  0.23437000  1.0 -0.1778987458
C  C489  1  0.27435000  0.09201000  0.22093000  1.0 -0.0961422193
C  C490  1  0.20033000  0.03319000  0.22705000  1.0 0.041192253
C  C491  1  0.22355000  0.98333000  0.25027000  1.0 0.041192253
C  C492  1  0.20661000  0.94711000  0.26005000  1.0 -0.0707269945
C  C493  1  0.16646000  0.96074000  0.24660000  1.0 -0.1434343065
C  C494  1  0.14324000  0.01060000  0.22338000  1.0 -0.1340000225
C  C495  1  0.16018000  0.04682000  0.21360000  1.0 -0.0707269945
C  C496  1  0.81485000  0.26031000  0.51275000  1.0 0.5802736761
C  C497  1  0.89145000  0.26297000  0.50935000  1.0 -0.1778987458
C  C498  1  0.84140000  0.28594000  0.51348000  1.0 0.0101564928
C  C499  1  0.05578000  0.25742000  0.45610000  1.0 0.041192253
C  C500  1  0.00592000  0.28064000  0.45950000  1.0 0.0457093958
C  C501  1  0.99228000  0.32080000  0.41954000  1.0 -0.122136192
C  C502  1  0.02851000  0.33773000  0.37617000  1.0 -0.0854919003
C  C503  1  0.07837000  0.31451000  0.37275000  1.0 -0.1778987458
C  C504  1  0.09201000  0.27435000  0.41271000  1.0 -0.0961422193
C  C505  1  0.03319000  0.20033000  0.53943000  1.0 0.041192253
C  C506  1  0.98333000  0.22355000  0.54285000  1.0 0.041192253
C  C507  1  0.94711000  0.20661000  0.58623000  1.0 -0.0707269945
C  C508  1  0.96074000  0.16646000  0.62620000  1.0 -0.1434343065
C  C509  1  0.01060000  0.14324000  0.62278000  1.0 -0.1340000225
C  C510  1  0.04682000  0.16018000  0.57940000  1.0 -0.0707269945
C  C511  1  0.51275000  0.41209000  0.81485000  1.0 0.5802736761
C  C512  1  0.50935000  0.33623000  0.89145000  1.0 -0.1778987458
C  C513  1  0.51348000  0.35918000  0.84140000  1.0 0.0101564928
C  C514  1  0.45610000  0.23070000  0.05578000  1.0 0.041192253
C  C515  1  0.45950000  0.25394000  0.00592000  1.0 0.0457093958
C  C516  1  0.41954000  0.26738000  0.99228000  1.0 -0.122136192
C  C517  1  0.37617000  0.25759000  0.02851000  1.0 -0.0854919003
C  C518  1  0.37275000  0.23437000  0.07837000  1.0 -0.1778987458
C  C519  1  0.41271000  0.22093000  0.09201000  1.0 -0.0961422193
C  C520  1  0.53943000  0.22705000  0.03319000  1.0 0.041192253
C  C521  1  0.54285000  0.25027000  0.98333000  1.0 0.041192253
C  C522  1  0.58623000  0.26005000  0.94711000  1.0 -0.0707269945
C  C523  1  0.62620000  0.24660000  0.96074000  1.0 -0.1434343065
C  C524  1  0.62278000  0.22338000  0.01060000  1.0 -0.1340000225
C  C525  1  0.57940000  0.21360000  0.04682000  1.0 -0.0707269945
C  C526  1  0.41209000  0.51275000  0.26031000  1.0 0.5802736761
C  C527  1  0.33623000  0.50935000  0.26297000  1.0 -0.1778987458
C  C528  1  0.35918000  0.51348000  0.28594000  1.0 0.0101564928
C  C529  1  0.23070000  0.45610000  0.25742000  1.0 0.041192253
C  C530  1  0.25394000  0.45950000  0.28064000  1.0 0.0457093958
C  C531  1  0.26738000  0.41954000  0.32080000  1.0 -0.122136192
C  C532  1  0.25759000  0.37617000  0.33773000  1.0 -0.0854919003
C  C533  1  0.23437000  0.37275000  0.31451000  1.0 -0.1778987458
C  C534  1  0.22093000  0.41271000  0.27435000  1.0 -0.0961422193
C  C535  1  0.22705000  0.53943000  0.20033000  1.0 0.041192253
C  C536  1  0.25027000  0.54285000  0.22355000  1.0 0.041192253
C  C537  1  0.26005000  0.58623000  0.20661000  1.0 -0.0707269945
C  C538  1  0.24660000  0.62620000  0.16646000  1.0 -0.1434343065
C  C539  1  0.22338000  0.62278000  0.14324000  1.0 -0.1340000225
C  C540  1  0.21360000  0.57940000  0.16018000  1.0 -0.0707269945
C  C541  1  0.18515000  0.48725000  0.73969000  1.0 0.5802736761
C  C542  1  0.10855000  0.49065000  0.73703000  1.0 -0.1778987458
C  C543  1  0.15860000  0.48652000  0.71406000  1.0 0.0101564928
C  C544  1  0.94422000  0.54390000  0.74258000  1.0 0.0457093958
C  C545  1  0.99408000  0.54050000  0.71936000  1.0 0.0457093958
C  C546  1  0.00772000  0.58046000  0.67920000  1.0 -0.122136192
C  C547  1  0.97149000  0.62383000  0.66227000  1.0 -0.0854919003
C  C548  1  0.92163000  0.62725000  0.68549000  1.0 -0.1778987458
C  C549  1  0.90799000  0.58729000  0.72565000  1.0 -0.0961422193
C  C550  1  0.96681000  0.46057000  0.79967000  1.0 0.041192253
C  C551  1  0.01667000  0.45715000  0.77645000  1.0 0.041192253
C  C552  1  0.05289000  0.41377000  0.79339000  1.0 -0.0707269945
C  C553  1  0.03926000  0.37380000  0.83354000  1.0 -0.1434343065
C  C554  1  0.98940000  0.37722000  0.85676000  1.0 -0.1340000225
C  C555  1  0.95318000  0.42060000  0.83982000  1.0 -0.0707269945
C  C556  1  0.73969000  0.58791000  0.18515000  1.0 0.5802736761
C  C557  1  0.73703000  0.66377000  0.10855000  1.0 -0.1778987458
C  C558  1  0.71406000  0.64082000  0.15860000  1.0 0.0101564928
C  C559  1  0.74258000  0.76930000  0.94422000  1.0 0.041192253
C  C560  1  0.71936000  0.74606000  0.99408000  1.0 0.0457093958
C  C561  1  0.67920000  0.73262000  0.00772000  1.0 -0.122136192
C  C562  1  0.66227000  0.74241000  0.97149000  1.0 -0.0854919003
C  C563  1  0.68549000  0.76563000  0.92163000  1.0 -0.1778987458
C  C564  1  0.72565000  0.77907000  0.90799000  1.0 -0.0961422193
C  C565  1  0.79967000  0.77295000  0.96681000  1.0 0.041192253
C  C566  1  0.77645000  0.74973000  0.01667000  1.0 0.041192253
C  C567  1  0.79339000  0.73995000  0.05289000  1.0 -0.0707269945
C  C568  1  0.83354000  0.75340000  0.03926000  1.0 -0.1434343065
C  C569  1  0.85676000  0.77662000  0.98940000  1.0 -0.1340000225
C  C570  1  0.83982000  0.78640000  0.95318000  1.0 -0.0707269945
C  C571  1  0.58791000  0.73969000  0.48725000  1.0 0.5802736761
C  C572  1  0.66377000  0.73703000  0.49065000  1.0 -0.1778987458
C  C573  1  0.64082000  0.71406000  0.48652000  1.0 0.0101564928
C  C574  1  0.76930000  0.74258000  0.54390000  1.0 0.041192253
C  C575  1  0.74606000  0.71936000  0.54050000  1.0 0.0457093958
C  C576  1  0.73262000  0.67920000  0.58046000  1.0 -0.122136192
C  C577  1  0.74241000  0.66227000  0.62383000  1.0 -0.0854919003
C  C578  1  0.76563000  0.68549000  0.62725000  1.0 -0.1778987458
C  C579  1  0.77907000  0.72565000  0.58729000  1.0 -0.0961422193
C  C580  1  0.77295000  0.79967000  0.46057000  1.0 0.041192253
C  C581  1  0.74973000  0.77645000  0.45715000  1.0 0.041192253
C  C582  1  0.73995000  0.79339000  0.41377000  1.0 -0.0707269945
C  C583  1  0.75340000  0.83354000  0.37380000  1.0 -0.1434343065
C  C584  1  0.77662000  0.85676000  0.37722000  1.0 -0.1340000225
C  C585  1  0.78640000  0.83982000  0.42060000  1.0 -0.0707269945
C  C586  1  0.48725000  0.18515000  0.58791000  1.0 0.5802736761
C  C587  1  0.49065000  0.10855000  0.66377000  1.0 -0.1778987458
C  C588  1  0.48652000  0.15860000  0.64082000  1.0 0.0101564928
C  C589  1  0.54390000  0.94422000  0.76930000  1.0 0.041192253
C  C590  1  0.54050000  0.99408000  0.74606000  1.0 0.0457093958
C  C591  1  0.58046000  0.00772000  0.73262000  1.0 -0.122136192
C  C592  1  0.62383000  0.97149000  0.74241000  1.0 -0.0854919003
C  C593  1  0.62725000  0.92163000  0.76563000  1.0 -0.1778987458
C  C594  1  0.58729000  0.90799000  0.77907000  1.0 -0.0961422193
C  C595  1  0.46057000  0.96681000  0.77295000  1.0 0.041192253
C  C596  1  0.45715000  0.01667000  0.74973000  1.0 0.041192253
C  C597  1  0.41377000  0.05289000  0.73995000  1.0 -0.0707269945
C  C598  1  0.37380000  0.03926000  0.75340000  1.0 -0.1434343065
C  C599  1  0.37722000  0.98940000  0.77662000  1.0 -0.1340000225
C  C600  1  0.42060000  0.95318000  0.78640000  1.0 -0.0707269945
C  C601  1  0.58791000  0.48725000  0.18515000  1.0 0.5802736761
C  C602  1  0.66377000  0.49065000  0.10855000  1.0 -0.1778987458
C  C603  1  0.64082000  0.48652000  0.15860000  1.0 0.0101564928
C  C604  1  0.76930000  0.54390000  0.94422000  1.0 0.041192253
C  C605  1  0.74606000  0.54050000  0.99408000  1.0 0.0457093958
C  C606  1  0.73262000  0.58046000  0.00772000  1.0 -0.122136192
C  C607  1  0.74241000  0.62383000  0.97149000  1.0 -0.0854919003
C  C608  1  0.76563000  0.62725000  0.92163000  1.0 -0.1778987458
C  C609  1  0.77907000  0.58729000  0.90799000  1.0 -0.0961422193
C  C610  1  0.77295000  0.46057000  0.96681000  1.0 0.041192253
C  C611  1  0.74973000  0.45715000  0.01667000  1.0 0.041192253
C  C612  1  0.73995000  0.41377000  0.05289000  1.0 -0.0707269945
C  C613  1  0.75340000  0.37380000  0.03926000  1.0 -0.1434343065
C  C614  1  0.77662000  0.37722000  0.98940000  1.0 -0.1340000225
C  C615  1  0.78640000  0.42060000  0.95318000  1.0 -0.0707269945
C  C616  1  0.48725000  0.58791000  0.73969000  1.0 0.5802736761
C  C617  1  0.49065000  0.66377000  0.73703000  1.0 -0.1778987458
C  C618  1  0.48652000  0.64082000  0.71406000  1.0 0.0101564928
C  C619  1  0.54390000  0.76930000  0.74258000  1.0 0.041192253
C  C620  1  0.54050000  0.74606000  0.71936000  1.0 0.0457093958
C  C621  1  0.58046000  0.73262000  0.67920000  1.0 -0.122136192
C  C622  1  0.62383000  0.74241000  0.66227000  1.0 -0.0854919003
C  C623  1  0.62725000  0.76563000  0.68549000  1.0 -0.1778987458
C  C624  1  0.58729000  0.77907000  0.72565000  1.0 -0.0961422193
C  C625  1  0.46057000  0.77295000  0.79967000  1.0 0.041192253
C  C626  1  0.45715000  0.74973000  0.77645000  1.0 0.041192253
C  C627  1  0.41377000  0.73995000  0.79339000  1.0 -0.0707269945
C  C628  1  0.37380000  0.75340000  0.83354000  1.0 -0.1434343065
C  C629  1  0.37722000  0.77662000  0.85676000  1.0 -0.1340000225
C  C630  1  0.42060000  0.78640000  0.83982000  1.0 -0.0707269945
C  C631  1  0.18515000  0.73969000  0.58791000  1.0 0.5802736761
C  C632  1  0.10855000  0.73703000  0.66377000  1.0 -0.1778987458
C  C633  1  0.15860000  0.71406000  0.64082000  1.0 0.0101564928
C  C634  1  0.94422000  0.74258000  0.76930000  1.0 0.041192253
C  C635  1  0.99408000  0.71936000  0.74606000  1.0 0.0457093958
C  C636  1  0.00772000  0.67920000  0.73262000  1.0 -0.122136192
C  C637  1  0.97149000  0.66227000  0.74241000  1.0 -0.0854919003
C  C638  1  0.92163000  0.68549000  0.76563000  1.0 -0.1778987458
C  C639  1  0.90799000  0.72565000  0.77907000  1.0 -0.0961422193
C  C640  1  0.96681000  0.79967000  0.77295000  1.0 0.041192253
C  C641  1  0.01667000  0.77645000  0.74973000  1.0 0.041192253
C  C642  1  0.05289000  0.79339000  0.73995000  1.0 -0.0707269945
C  C643  1  0.03926000  0.83354000  0.75340000  1.0 -0.1434343065
C  C644  1  0.98940000  0.85676000  0.77662000  1.0 -0.1340000225
C  C645  1  0.95318000  0.83982000  0.78640000  1.0 -0.0707269945
C  C646  1  0.73969000  0.18515000  0.48725000  1.0 0.5802736761
C  C647  1  0.73703000  0.10855000  0.49065000  1.0 -0.1778987458
C  C648  1  0.71406000  0.15860000  0.48652000  1.0 0.0101564928
C  C649  1  0.74258000  0.94422000  0.54390000  1.0 0.041192253
C  C650  1  0.71936000  0.99408000  0.54050000  1.0 0.0457093958
C  C651  1  0.67920000  0.00772000  0.58046000  1.0 -0.122136192
C  C652  1  0.66227000  0.97149000  0.62383000  1.0 -0.0854919003
C  C653  1  0.68549000  0.92163000  0.62725000  1.0 -0.1778987458
C  C654  1  0.72565000  0.90799000  0.58729000  1.0 -0.0961422193
C  C655  1  0.79967000  0.96681000  0.46057000  1.0 0.041192253
C  C656  1  0.77645000  0.01667000  0.45715000  1.0 0.041192253
C  C657  1  0.79339000  0.05289000  0.41377000  1.0 -0.0707269945
C  C658  1  0.83354000  0.03926000  0.37380000  1.0 -0.1434343065
C  C659  1  0.85676000  0.98940000  0.37722000  1.0 -0.1340000225
C  C660  1  0.83982000  0.95318000  0.42060000  1.0 -0.0707269945
C  C661  1  0.73969000  0.48725000  0.58791000  1.0 0.5802736761
C  C662  1  0.73703000  0.49065000  0.66377000  1.0 -0.1778987458
C  C663  1  0.71406000  0.48652000  0.64082000  1.0 0.0101564928
C  C664  1  0.74258000  0.54390000  0.76930000  1.0 0.041192253
C  C665  1  0.71936000  0.54050000  0.74606000  1.0 0.0457093958
C  C666  1  0.67920000  0.58046000  0.73262000  1.0 -0.122136192
C  C667  1  0.66227000  0.62383000  0.74241000  1.0 -0.0854919003
C  C668  1  0.68549000  0.62725000  0.76563000  1.0 -0.1778987458
C  C669  1  0.72565000  0.58729000  0.77907000  1.0 -0.0961422193
C  C670  1  0.79967000  0.46057000  0.77295000  1.0 0.041192253
C  C671  1  0.77645000  0.45715000  0.74973000  1.0 0.041192253
C  C672  1  0.79339000  0.41377000  0.73995000  1.0 -0.0707269945
C  C673  1  0.83354000  0.37380000  0.75340000  1.0 -0.1434343065
C  C674  1  0.85676000  0.37722000  0.77662000  1.0 -0.1340000225
C  C675  1  0.83982000  0.42060000  0.78640000  1.0 -0.0707269945
C  C676  1  0.18515000  0.58791000  0.48725000  1.0 0.5802736761
C  C677  1  0.10855000  0.66377000  0.49065000  1.0 -0.1778987458
C  C678  1  0.15860000  0.64082000  0.48652000  1.0 0.0101564928
C  C679  1  0.94422000  0.76930000  0.54390000  1.0 0.041192253
C  C680  1  0.99408000  0.74606000  0.54050000  1.0 0.0457093958
C  C681  1  0.00772000  0.73262000  0.58046000  1.0 -0.122136192
C  C682  1  0.97149000  0.74241000  0.62383000  1.0 -0.0854919003
C  C683  1  0.92163000  0.76563000  0.62725000  1.0 -0.1778987458
C  C684  1  0.90799000  0.77907000  0.58729000  1.0 -0.0961422193
C  C685  1  0.96681000  0.77295000  0.46057000  1.0 0.041192253
C  C686  1  0.01667000  0.74973000  0.45715000  1.0 0.041192253
C  C687  1  0.05289000  0.73995000  0.41377000  1.0 -0.0707269945
C  C688  1  0.03926000  0.75340000  0.37380000  1.0 -0.1434343065
C  C689  1  0.98940000  0.77662000  0.37722000  1.0 -0.1340000225
C  C690  1  0.95318000  0.78640000  0.42060000  1.0 -0.0707269945
C  C691  1  0.48725000  0.73969000  0.18515000  1.0 0.5802736761
C  C692  1  0.49065000  0.73703000  0.10855000  1.0 -0.1778987458
C  C693  1  0.48652000  0.71406000  0.15860000  1.0 0.0101564928
C  C694  1  0.54390000  0.74258000  0.94422000  1.0 0.041192253
C  C695  1  0.54050000  0.71936000  0.99408000  1.0 0.0457093958
C  C696  1  0.58046000  0.67920000  0.00772000  1.0 -0.122136192
C  C697  1  0.62383000  0.66227000  0.97149000  1.0 -0.0854919003
C  C698  1  0.62725000  0.68549000  0.92163000  1.0 -0.1778987458
C  C699  1  0.58729000  0.72565000  0.90799000  1.0 -0.0961422193
C  C700  1  0.46057000  0.79967000  0.96681000  1.0 0.041192253
C  C701  1  0.45715000  0.77645000  0.01667000  1.0 0.041192253
C  C702  1  0.41377000  0.79339000  0.05289000  1.0 -0.0707269945
C  C703  1  0.37380000  0.83354000  0.03926000  1.0 -0.1434343065
C  C704  1  0.37722000  0.85676000  0.98940000  1.0 -0.1340000225
C  C705  1  0.42060000  0.83982000  0.95318000  1.0 -0.0707269945
C  C706  1  0.58791000  0.18515000  0.73969000  1.0 0.5802736761
C  C707  1  0.66377000  0.10855000  0.73703000  1.0 -0.1778987458
C  C708  1  0.64082000  0.15860000  0.71406000  1.0 0.0101564928
C  C709  1  0.76930000  0.94422000  0.74258000  1.0 0.041192253
C  C710  1  0.74606000  0.99408000  0.71936000  1.0 0.0457093958
C  C711  1  0.73262000  0.00772000  0.67920000  1.0 -0.122136192
C  C712  1  0.74241000  0.97149000  0.66227000  1.0 -0.0854919003
C  C713  1  0.76563000  0.92163000  0.68549000  1.0 -0.1778987458
C  C714  1  0.77907000  0.90799000  0.72565000  1.0 -0.0961422193
C  C715  1  0.77295000  0.96681000  0.79967000  1.0 0.041192253
C  C716  1  0.74973000  0.01667000  0.77645000  1.0 0.041192253
C  C717  1  0.73995000  0.05289000  0.79339000  1.0 -0.0707269945
C  C718  1  0.75340000  0.03926000  0.83354000  1.0 -0.1434343065
C  C719  1  0.77662000  0.98940000  0.85676000  1.0 -0.1340000225
C  C720  1  0.78640000  0.95318000  0.83982000  1.0 -0.0707269945
C  C721  1  0.08352000  0.71188000  0.71188000  1.0 0.0686581399
C  C722  1  0.18362000  0.66596000  0.66596000  1.0 -0.1434343065
C  C723  1  0.93058000  0.78274000  0.78274000  1.0 -0.0108844617
C  C724  1  0.03031000  0.73629000  0.73629000  1.0 -0.0179699338
C  C725  1  0.87968000  0.80644000  0.80644000  1.0 0.0603989385
C  C726  1  0.71188000  0.49272000  0.08352000  1.0 0.0686581399
C  C727  1  0.66596000  0.48446000  0.18362000  1.0 -0.1434343065
C  C728  1  0.78274000  0.50394000  0.93058000  1.0 -0.0108844617
C  C729  1  0.73629000  0.49711000  0.03031000  1.0 -0.0179699338
C  C730  1  0.80644000  0.50744000  0.87968000  1.0 0.0603989385
C  C731  1  0.71188000  0.08352000  0.49272000  1.0 0.0686581399
C  C732  1  0.66596000  0.18362000  0.48446000  1.0 -0.1434343065
C  C733  1  0.78274000  0.93058000  0.50394000  1.0 -0.0108844617
C  C734  1  0.73629000  0.03031000  0.49711000  1.0 -0.0179699338
C  C735  1  0.80644000  0.87968000  0.50744000  1.0 0.0603989385
C  C736  1  0.49272000  0.71188000  0.71188000  1.0 0.0686581399
C  C737  1  0.48446000  0.66596000  0.66596000  1.0 -0.1434343065
C  C738  1  0.50394000  0.78274000  0.78274000  1.0 -0.0108844617
C  C739  1  0.49711000  0.73629000  0.73629000  1.0 -0.0179699338
C  C740  1  0.50744000  0.80644000  0.80644000  1.0 0.0603989385
C  C741  1  0.71188000  0.71188000  0.08352000  1.0 0.0686581399
C  C742  1  0.66596000  0.66596000  0.18362000  1.0 -0.1434343065
C  C743  1  0.78274000  0.78274000  0.93058000  1.0 -0.0108844617
C  C744  1  0.73629000  0.73629000  0.03031000  1.0 -0.0179699338
C  C745  1  0.80644000  0.80644000  0.87968000  1.0 0.0603989385
C  C746  1  0.49272000  0.08352000  0.71188000  1.0 0.0686581399
C  C747  1  0.48446000  0.18362000  0.66596000  1.0 -0.1434343065
C  C748  1  0.50394000  0.93058000  0.78274000  1.0 -0.0108844617
C  C749  1  0.49711000  0.03031000  0.73629000  1.0 -0.0179699338
C  C750  1  0.50744000  0.87968000  0.80644000  1.0 0.0603989385
C  C751  1  0.08352000  0.49272000  0.71188000  1.0 0.0686581399
C  C752  1  0.18362000  0.48446000  0.66596000  1.0 -0.1434343065
C  C753  1  0.93058000  0.50394000  0.78274000  1.0 -0.0108844617
C  C754  1  0.03031000  0.49711000  0.73629000  1.0 -0.0179699338
C  C755  1  0.87968000  0.50744000  0.80644000  1.0 0.0603989385
C  C756  1  0.71188000  0.71188000  0.49272000  1.0 0.0686581399
C  C757  1  0.66596000  0.66596000  0.48446000  1.0 -0.1434343065
C  C758  1  0.78274000  0.78274000  0.50394000  1.0 -0.0108844617
C  C759  1  0.73629000  0.73629000  0.49711000  1.0 -0.0179699338
C  C760  1  0.80644000  0.80644000  0.50744000  1.0 0.0603989385
C  C761  1  0.71188000  0.08352000  0.71188000  1.0 0.0686581399
C  C762  1  0.66596000  0.18362000  0.66596000  1.0 -0.1434343065
C  C763  1  0.78274000  0.93058000  0.78274000  1.0 -0.0108844617
C  C764  1  0.73629000  0.03031000  0.73629000  1.0 -0.0179699338
C  C765  1  0.80644000  0.87968000  0.80644000  1.0 0.0603989385
C  C766  1  0.08352000  0.71188000  0.49272000  1.0 0.0686581399
C  C767  1  0.18362000  0.66596000  0.48446000  1.0 -0.1434343065
C  C768  1  0.93058000  0.78274000  0.50394000  1.0 -0.0108844617
C  C769  1  0.03031000  0.73629000  0.49711000  1.0 -0.0179699338
C  C770  1  0.87968000  0.80644000  0.50744000  1.0 0.0603989385
C  C771  1  0.49272000  0.71188000  0.08352000  1.0 0.0686581399
C  C772  1  0.48446000  0.66596000  0.18362000  1.0 -0.1434343065
C  C773  1  0.50394000  0.78274000  0.93058000  1.0 -0.0108844617
C  C774  1  0.49711000  0.73629000  0.03031000  1.0 -0.0179699338
C  C775  1  0.50744000  0.80644000  0.87968000  1.0 0.0603989385
C  C776  1  0.71188000  0.49272000  0.71188000  1.0 0.0686581399
C  C777  1  0.66596000  0.48446000  0.66596000  1.0 -0.1434343065
C  C778  1  0.78274000  0.50394000  0.78274000  1.0 -0.0108844617
C  C779  1  0.73629000  0.49711000  0.73629000  1.0 -0.0179699338
C  C780  1  0.80644000  0.50744000  0.80644000  1.0 0.0603989385
C  C781  1  0.91648000  0.50728000  0.28812000  1.0 0.0686581399
C  C782  1  0.81638000  0.51554000  0.33404000  1.0 -0.1434343065
C  C783  1  0.06942000  0.49606000  0.21726000  1.0 -0.0108844617
C  C784  1  0.96969000  0.50289000  0.26371000  1.0 -0.0179699338
C  C785  1  0.12032000  0.49256000  0.19356000  1.0 0.0603989385
C  C786  1  0.28812000  0.28812000  0.91648000  1.0 0.0686581399
C  C787  1  0.33404000  0.33404000  0.81638000  1.0 -0.1434343065
C  C788  1  0.21726000  0.21726000  0.06942000  1.0 -0.0108844617
C  C789  1  0.26371000  0.26371000  0.96969000  1.0 -0.0179699338
C  C790  1  0.19356000  0.19356000  0.12032000  1.0 0.0603989385
C  C791  1  0.28812000  0.28812000  0.50728000  1.0 0.0686581399
C  C792  1  0.33404000  0.33404000  0.51554000  1.0 -0.1434343065
C  C793  1  0.21726000  0.21726000  0.49606000  1.0 -0.0108844617
C  C794  1  0.26371000  0.26371000  0.50289000  1.0 -0.0179699338
C  C795  1  0.19356000  0.19356000  0.49256000  1.0 0.0603989385
C  C796  1  0.50728000  0.91648000  0.28812000  1.0 0.0686581399
C  C797  1  0.51554000  0.81638000  0.33404000  1.0 -0.1434343065
C  C798  1  0.49606000  0.06942000  0.21726000  1.0 -0.0108844617
C  C799  1  0.50289000  0.96969000  0.26371000  1.0 -0.0179699338
C  C800  1  0.49256000  0.12032000  0.19356000  1.0 0.0603989385
C  C801  1  0.28812000  0.50728000  0.91648000  1.0 0.0686581399
C  C802  1  0.33404000  0.51554000  0.81638000  1.0 -0.1434343065
C  C803  1  0.21726000  0.49606000  0.06942000  1.0 -0.0108844617
C  C804  1  0.26371000  0.50289000  0.96969000  1.0 -0.0179699338
C  C805  1  0.19356000  0.49256000  0.12032000  1.0 0.0603989385
C  C806  1  0.50728000  0.28812000  0.28812000  1.0 0.0686581399
C  C807  1  0.51554000  0.33404000  0.33404000  1.0 -0.1434343065
C  C808  1  0.49606000  0.21726000  0.21726000  1.0 -0.0108844617
C  C809  1  0.50289000  0.26371000  0.26371000  1.0 -0.0179699338
C  C810  1  0.49256000  0.19356000  0.19356000  1.0 0.0603989385
C  C811  1  0.91648000  0.28812000  0.28812000  1.0 0.0686581399
C  C812  1  0.81638000  0.33404000  0.33404000  1.0 -0.1434343065
C  C813  1  0.06942000  0.21726000  0.21726000  1.0 -0.0108844617
C  C814  1  0.96969000  0.26371000  0.26371000  1.0 -0.0179699338
C  C815  1  0.12032000  0.19356000  0.19356000  1.0 0.0603989385
C  C816  1  0.28812000  0.91648000  0.50728000  1.0 0.0686581399
C  C817  1  0.33404000  0.81638000  0.51554000  1.0 -0.1434343065
C  C818  1  0.21726000  0.06942000  0.49606000  1.0 -0.0108844617
C  C819  1  0.26371000  0.96969000  0.50289000  1.0 -0.0179699338
C  C820  1  0.19356000  0.12032000  0.49256000  1.0 0.0603989385
C  C821  1  0.28812000  0.50728000  0.28812000  1.0 0.0686581399
C  C822  1  0.33404000  0.51554000  0.33404000  1.0 -0.1434343065
C  C823  1  0.21726000  0.49606000  0.21726000  1.0 -0.0108844617
C  C824  1  0.26371000  0.50289000  0.26371000  1.0 -0.0179699338
C  C825  1  0.19356000  0.49256000  0.19356000  1.0 0.0603989385
C  C826  1  0.91648000  0.28812000  0.50728000  1.0 0.0686581399
C  C827  1  0.81638000  0.33404000  0.51554000  1.0 -0.1434343065
C  C828  1  0.06942000  0.21726000  0.49606000  1.0 -0.0108844617
C  C829  1  0.96969000  0.26371000  0.50289000  1.0 -0.0179699338
C  C830  1  0.12032000  0.19356000  0.49256000  1.0 0.0603989385
C  C831  1  0.50728000  0.28812000  0.91648000  1.0 0.0686581399
C  C832  1  0.51554000  0.33404000  0.81638000  1.0 -0.1434343065
C  C833  1  0.49606000  0.21726000  0.06942000  1.0 -0.0108844617
C  C834  1  0.50289000  0.26371000  0.96969000  1.0 -0.0179699338
C  C835  1  0.49256000  0.19356000  0.12032000  1.0 0.0603989385
C  C836  1  0.28812000  0.91648000  0.28812000  1.0 0.0686581399
C  C837  1  0.33404000  0.81638000  0.33404000  1.0 -0.1434343065
C  C838  1  0.21726000  0.06942000  0.21726000  1.0 -0.0108844617
C  C839  1  0.26371000  0.96969000  0.26371000  1.0 -0.0179699338
C  C840  1  0.19356000  0.12032000  0.19356000  1.0 0.0603989385
C  C841  1  0.85527000  0.85527000  0.78203000  1.0 -0.24178515
C  C842  1  0.78203000  0.50743000  0.85527000  1.0 -0.24178515
C  C843  1  0.85527000  0.85527000  0.50743000  1.0 -0.24178515
C  C844  1  0.50743000  0.78203000  0.85527000  1.0 -0.24178515
C  C845  1  0.85527000  0.78203000  0.85527000  1.0 -0.24178515
C  C846  1  0.50743000  0.85527000  0.78203000  1.0 -0.24178515
C  C847  1  0.85527000  0.50743000  0.85527000  1.0 -0.24178515
C  C848  1  0.78203000  0.85527000  0.50743000  1.0 -0.24178515
C  C849  1  0.78203000  0.85527000  0.85527000  1.0 -0.24178515
C  C850  1  0.85527000  0.78203000  0.50743000  1.0 -0.24178515
C  C851  1  0.50743000  0.85527000  0.85527000  1.0 -0.24178515
C  C852  1  0.85527000  0.50743000  0.78203000  1.0 -0.24178515
C  C853  1  0.14473000  0.49257000  0.21797000  1.0 -0.24178515
C  C854  1  0.21797000  0.14473000  0.14473000  1.0 -0.24178515
C  C855  1  0.14473000  0.21797000  0.49257000  1.0 -0.24178515
C  C856  1  0.49257000  0.14473000  0.14473000  1.0 -0.24178515
C  C857  1  0.14473000  0.49257000  0.14473000  1.0 -0.24178515
C  C858  1  0.49257000  0.14473000  0.21797000  1.0 -0.24178515
C  C859  1  0.14473000  0.21797000  0.14473000  1.0 -0.24178515
C  C860  1  0.21797000  0.14473000  0.49257000  1.0 -0.24178515
C  C861  1  0.21797000  0.49257000  0.14473000  1.0 -0.24178515
C  C862  1  0.14473000  0.14473000  0.49257000  1.0 -0.24178515
C  C863  1  0.49257000  0.21797000  0.14473000  1.0 -0.24178515
C  C864  1  0.14473000  0.14473000  0.21797000  1.0 -0.24178515
O  O1  1  0.16170000  0.56710000  0.78370000  1.0 -0.5188281542
O  O2  1  0.22900000  0.56780000  0.71560000  1.0 -0.5128264855
O  O3  1  0.78370000  0.48750000  0.16170000  1.0 -0.5188281542
O  O4  1  0.71560000  0.48760000  0.22900000  1.0 -0.5128264855
O  O5  1  0.56710000  0.16170000  0.48750000  1.0 -0.5188281542
O  O6  1  0.56780000  0.22900000  0.48760000  1.0 -0.5128264855
O  O7  1  0.48750000  0.78370000  0.56710000  1.0 -0.5188281542
O  O8  1  0.48760000  0.71560000  0.56780000  1.0 -0.5128264855
O  O9  1  0.56710000  0.78370000  0.16170000  1.0 -0.5188281542
O  O10  1  0.56780000  0.71560000  0.22900000  1.0 -0.5128264855
O  O11  1  0.48750000  0.16170000  0.78370000  1.0 -0.5188281542
O  O12  1  0.48760000  0.22900000  0.71560000  1.0 -0.5128264855
O  O13  1  0.16170000  0.48750000  0.56710000  1.0 -0.5188281542
O  O14  1  0.22900000  0.48760000  0.56780000  1.0 -0.5128264855
O  O15  1  0.78370000  0.56710000  0.48750000  1.0 -0.5188281542
O  O16  1  0.71560000  0.56780000  0.48760000  1.0 -0.5128264855
O  O17  1  0.78370000  0.16170000  0.56710000  1.0 -0.5188281542
O  O18  1  0.71560000  0.22900000  0.56780000  1.0 -0.5128264855
O  O19  1  0.16170000  0.78370000  0.48750000  1.0 -0.5188281542
O  O20  1  0.22900000  0.71560000  0.48760000  1.0 -0.5128264855
O  O21  1  0.48750000  0.56710000  0.16170000  1.0 -0.5188281542
O  O22  1  0.48760000  0.56780000  0.22900000  1.0 -0.5128264855
O  O23  1  0.56710000  0.48750000  0.78370000  1.0 -0.5188281542
O  O24  1  0.56780000  0.48760000  0.71560000  1.0 -0.5128264855
O  O25  1  0.83830000  0.51250000  0.21630000  1.0 -0.5188281542
O  O26  1  0.77100000  0.51240000  0.28440000  1.0 -0.5128264855
O  O27  1  0.21630000  0.43290000  0.83830000  1.0 -0.5188281542
O  O28  1  0.28440000  0.43220000  0.77100000  1.0 -0.5128264855
O  O29  1  0.43290000  0.21630000  0.51250000  1.0 -0.5188281542
O  O30  1  0.43220000  0.28440000  0.51240000  1.0 -0.5128264855
O  O31  1  0.51250000  0.83830000  0.43290000  1.0 -0.5188281542
O  O32  1  0.51240000  0.77100000  0.43220000  1.0 -0.5128264855
O  O33  1  0.43290000  0.51250000  0.83830000  1.0 -0.5188281542
O  O34  1  0.43220000  0.51240000  0.77100000  1.0 -0.5128264855
O  O35  1  0.51250000  0.43290000  0.21630000  1.0 -0.5188281542
O  O36  1  0.51240000  0.43220000  0.28440000  1.0 -0.5128264855
O  O37  1  0.83830000  0.21630000  0.43290000  1.0 -0.5188281542
O  O38  1  0.77100000  0.28440000  0.43220000  1.0 -0.5128264855
O  O39  1  0.21630000  0.83830000  0.51250000  1.0 -0.5188281542
O  O40  1  0.28440000  0.77100000  0.51240000  1.0 -0.5128264855
O  O41  1  0.21630000  0.51250000  0.43290000  1.0 -0.5188281542
O  O42  1  0.28440000  0.51240000  0.43220000  1.0 -0.5128264855
O  O43  1  0.83830000  0.43290000  0.51250000  1.0 -0.5188281542
O  O44  1  0.77100000  0.43220000  0.51240000  1.0 -0.5128264855
O  O45  1  0.51250000  0.21630000  0.83830000  1.0 -0.5188281542
O  O46  1  0.51240000  0.28440000  0.77100000  1.0 -0.5128264855
O  O47  1  0.43290000  0.83830000  0.21630000  1.0 -0.5188281542
O  O48  1  0.43220000  0.77100000  0.28440000  1.0 -0.5128264855
O  O49  1  0.83830000  0.43290000  0.21630000  1.0 -0.5188281542
O  O50  1  0.77100000  0.43220000  0.28440000  1.0 -0.5128264855
O  O51  1  0.21630000  0.51250000  0.83830000  1.0 -0.5188281542
O  O52  1  0.28440000  0.51240000  0.77100000  1.0 -0.5128264855
O  O53  1  0.43290000  0.83830000  0.51250000  1.0 -0.5188281542
O  O54  1  0.43220000  0.77100000  0.51240000  1.0 -0.5128264855
O  O55  1  0.51250000  0.21630000  0.43290000  1.0 -0.5188281542
O  O56  1  0.51240000  0.28440000  0.43220000  1.0 -0.5128264855
O  O57  1  0.43290000  0.21630000  0.83830000  1.0 -0.5188281542
O  O58  1  0.43220000  0.28440000  0.77100000  1.0 -0.5128264855
O  O59  1  0.51250000  0.83830000  0.21630000  1.0 -0.5188281542
O  O60  1  0.51240000  0.77100000  0.28440000  1.0 -0.5128264855
O  O61  1  0.83830000  0.51250000  0.43290000  1.0 -0.5188281542
O  O62  1  0.77100000  0.51240000  0.43220000  1.0 -0.5128264855
O  O63  1  0.21630000  0.43290000  0.51250000  1.0 -0.5188281542
O  O64  1  0.28440000  0.43220000  0.51240000  1.0 -0.5128264855
O  O65  1  0.21630000  0.83830000  0.43290000  1.0 -0.5188281542
O  O66  1  0.28440000  0.77100000  0.43220000  1.0 -0.5128264855
O  O67  1  0.83830000  0.21630000  0.51250000  1.0 -0.5188281542
O  O68  1  0.77100000  0.28440000  0.51240000  1.0 -0.5128264855
O  O69  1  0.51250000  0.43290000  0.83830000  1.0 -0.5188281542
O  O70  1  0.51240000  0.43220000  0.77100000  1.0 -0.5128264855
O  O71  1  0.43290000  0.51250000  0.21630000  1.0 -0.5188281542
O  O72  1  0.43220000  0.51240000  0.28440000  1.0 -0.5128264855
O  O73  1  0.16170000  0.48750000  0.78370000  1.0 -0.5188281542
O  O74  1  0.22900000  0.48760000  0.71560000  1.0 -0.5128264855
O  O75  1  0.78370000  0.56710000  0.16170000  1.0 -0.5188281542
O  O76  1  0.71560000  0.56780000  0.22900000  1.0 -0.5128264855
O  O77  1  0.56710000  0.78370000  0.48750000  1.0 -0.5188281542
O  O78  1  0.56780000  0.71560000  0.48760000  1.0 -0.5128264855
O  O79  1  0.48750000  0.16170000  0.56710000  1.0 -0.5188281542
O  O80  1  0.48760000  0.22900000  0.56780000  1.0 -0.5128264855
O  O81  1  0.56710000  0.48750000  0.16170000  1.0 -0.5188281542
O  O82  1  0.56780000  0.48760000  0.22900000  1.0 -0.5128264855
O  O83  1  0.48750000  0.56710000  0.78370000  1.0 -0.5188281542
O  O84  1  0.48760000  0.56780000  0.71560000  1.0 -0.5128264855
O  O85  1  0.16170000  0.78370000  0.56710000  1.0 -0.5188281542
O  O86  1  0.22900000  0.71560000  0.56780000  1.0 -0.5128264855
O  O87  1  0.78370000  0.16170000  0.48750000  1.0 -0.5188281542
O  O88  1  0.71560000  0.22900000  0.48760000  1.0 -0.5128264855
O  O89  1  0.78370000  0.48750000  0.56710000  1.0 -0.5188281542
O  O90  1  0.71560000  0.48760000  0.56780000  1.0 -0.5128264855
O  O91  1  0.16170000  0.56710000  0.48750000  1.0 -0.5188281542
O  O92  1  0.22900000  0.56780000  0.48760000  1.0 -0.5128264855
O  O93  1  0.48750000  0.78370000  0.16170000  1.0 -0.5188281542
O  O94  1  0.48760000  0.71560000  0.22900000  1.0 -0.5128264855
O  O95  1  0.56710000  0.16170000  0.78370000  1.0 -0.5188281542
O  O96  1  0.56780000  0.22900000  0.71560000  1.0 -0.5128264855
