# DDEC6 charges by PACMAN v1.1 (https://github.com/mtap-research/PACMAN-charge/)
data_GIQWEJ_ASR_pacman
_symmetry_space_group_name_H-M   'P 1'
_cell_length_a   17.04740000
_cell_length_b   17.04740000
_cell_length_c   32.58800000
_cell_angle_alpha   85.85790000
_cell_angle_beta   94.14210000
_cell_angle_gamma   72.44490000
_symmetry_Int_Tables_number   1
_chemical_formula_structural   Zn3H40C60(N3O4)3
_chemical_formula_sum   'Zn12 H160 C240 N36 O48'
_cell_volume   8961.74809859
_cell_formula_units_Z   4
loop_
 _symmetry_equiv_pos_site_id
 _symmetry_equiv_pos_as_xyz
  1  'x, y, z'
loop_
 _atom_site_type_symbol
 _atom_site_label
 _atom_site_symmetry_multiplicity
 _atom_site_fract_x
 _atom_site_fract_y
 _atom_site_fract_z
 _atom_site_occupancy
 _atom_site_charge
Zn  Zn1  1  0.75422000  0.22036000  0.62430000  1.0 0.8332212688
Zn  Zn2  1  0.77964000  0.24578000  0.12430000  1.0 0.8332212688
Zn  Zn3  1  0.74688000  0.23668000  0.53299000  1.0 0.8332212688
Zn  Zn4  1  0.76332000  0.25312000  0.03299000  1.0 0.8332212688
Zn  Zn5  1  0.22036000  0.75422000  0.87570000  1.0 0.8332212688
Zn  Zn6  1  0.24578000  0.77964000  0.37570000  1.0 0.8332212688
Zn  Zn7  1  0.23668000  0.74688000  0.96701000  1.0 0.8332212688
Zn  Zn8  1  0.25312000  0.76332000  0.46701000  1.0 0.8332212688
Zn  Zn9  1  0.53153000  0.52217000  0.79635000  1.0 0.8332212688
Zn  Zn10  1  0.52217000  0.53153000  0.70365000  1.0 0.8332212688
Zn  Zn11  1  0.46847000  0.47783000  0.20365000  1.0 0.8332212688
Zn  Zn12  1  0.47783000  0.46847000  0.29635000  1.0 0.8332212688
H  H1  1  0.77550000  0.09410000  0.69720000  1.0 0.1196610917
H  H2  1  0.90590000  0.22450000  0.19720000  1.0 0.1196610917
H  H3  1  0.77360000  0.08680000  0.76830000  1.0 0.1291603694
H  H4  1  0.91320000  0.22640000  0.26830000  1.0 0.1291603694
H  H5  1  0.74910000  0.33150000  0.76050000  1.0 0.1291603694
H  H6  1  0.66850000  0.25090000  0.26050000  1.0 0.1291603694
H  H7  1  0.74690000  0.33410000  0.69020000  1.0 0.1196610917
H  H8  1  0.66590000  0.25310000  0.19020000  1.0 0.1196610917
H  H9  1  0.76440000  0.15300000  0.83210000  1.0 0.1196610917
H  H10  1  0.84700000  0.23560000  0.33210000  1.0 0.1196610917
H  H11  1  0.75380000  0.32080000  0.82600000  1.0 0.1291603694
H  H12  1  0.67920000  0.24620000  0.32600000  1.0 0.1291603694
H  H13  1  0.73320000  0.15420000  0.89470000  1.0 0.1291603694
H  H14  1  0.84580000  0.26680000  0.39470000  1.0 0.1291603694
H  H15  1  0.72480000  0.15500000  0.96450000  1.0 0.1196610917
H  H16  1  0.84500000  0.27520000  0.46450000  1.0 0.1196610917
H  H17  1  0.79050000  0.35930000  0.96310000  1.0 0.1123796587
H  H18  1  0.64070000  0.20950000  0.46310000  1.0 0.1123796587
H  H19  1  0.79130000  0.36590000  0.89250000  1.0 0.1291603694
H  H20  1  0.63410000  0.20870000  0.39250000  1.0 0.1291603694
H  H21  1  0.75830000  0.99110000  0.51800000  1.0 0.1291603694
H  H22  1  0.00890000  0.24170000  0.01800000  1.0 0.1291603694
H  H23  1  0.74470000  0.86170000  0.51350000  1.0 0.1196610917
H  H24  1  0.13830000  0.25530000  0.01350000  1.0 0.1123796587
H  H25  1  0.75930000  0.82550000  0.63910000  1.0 0.1196610917
H  H26  1  0.17450000  0.24070000  0.13910000  1.0 0.1196610917
H  H27  1  0.76960000  0.96020000  0.64290000  1.0 0.1196610917
H  H28  1  0.03980000  0.23040000  0.14290000  1.0 0.1196610917
H  H29  1  0.74480000  0.62980000  0.52340000  1.0 0.1196610917
H  H30  1  0.37020000  0.25520000  0.02340000  1.0 0.1196610917
H  H31  1  0.73760000  0.49260000  0.51910000  1.0 0.1291603694
H  H32  1  0.50740000  0.26240000  0.01910000  1.0 0.1291603694
H  H33  1  0.70630000  0.47950000  0.64090000  1.0 0.1196610917
H  H34  1  0.52050000  0.29370000  0.14090000  1.0 0.1196610917
H  H35  1  0.69950000  0.61470000  0.64320000  1.0 0.1291603694
H  H36  1  0.38530000  0.30050000  0.14320000  1.0 0.1291603694
H  H37  1  0.49190000  0.24070000  0.50560000  1.0 0.1196610917
H  H38  1  0.75930000  0.50810000  0.00560000  1.0 0.1196610917
H  H39  1  0.36200000  0.22200000  0.50270000  1.0 0.0991473607
H  H40  1  0.77800000  0.63800000  0.00270000  1.0 0.0921646921
H  H41  1  0.37300000  0.20660000  0.62760000  1.0 0.1196610917
H  H42  1  0.79340000  0.62700000  0.12760000  1.0 0.1196610917
H  H43  1  0.50210000  0.22390000  0.63070000  1.0 0.1196610917
H  H44  1  0.77610000  0.49790000  0.13070000  1.0 0.1196610917
H  H45  1  0.13800000  0.21720000  0.52420000  1.0 0.0991473607
H  H46  1  0.78280000  0.86200000  0.02420000  1.0 0.0991473607
H  H47  1  0.00010000  0.21730000  0.52060000  1.0 0.1196610917
H  H48  1  0.78270000  0.99990000  0.02060000  1.0 0.1196610917
H  H49  1  0.01650000  0.18070000  0.64420000  1.0 0.1291603694
H  H50  1  0.81930000  0.98350000  0.14420000  1.0 0.1291603694
H  H51  1  0.15880000  0.17160000  0.64780000  1.0 0.1196610917
H  H52  1  0.82840000  0.84120000  0.14780000  1.0 0.1196610917
H  H53  1  0.74370000  0.72510000  0.54080000  1.0 0.2378393284
H  H54  1  0.27490000  0.25630000  0.04080000  1.0 0.2378393284
H  H55  1  0.72600000  0.74380000  0.61820000  1.0 0.2324639468
H  H56  1  0.25620000  0.27400000  0.11820000  1.0 0.2324639468
H  H57  1  0.09410000  0.77550000  0.80280000  1.0 0.1196610917
H  H58  1  0.22450000  0.90590000  0.30280000  1.0 0.1196610917
H  H59  1  0.08680000  0.77360000  0.73170000  1.0 0.1291603694
H  H60  1  0.22640000  0.91320000  0.23170000  1.0 0.1291603694
H  H61  1  0.33150000  0.74910000  0.73950000  1.0 0.1291603694
H  H62  1  0.25090000  0.66850000  0.23950000  1.0 0.1291603694
H  H63  1  0.33410000  0.74690000  0.80980000  1.0 0.1196610917
H  H64  1  0.25310000  0.66590000  0.30980000  1.0 0.1196610917
H  H65  1  0.15300000  0.76440000  0.66790000  1.0 0.1196610917
H  H66  1  0.23560000  0.84700000  0.16790000  1.0 0.1196610917
H  H67  1  0.32080000  0.75380000  0.67400000  1.0 0.1291603694
H  H68  1  0.24620000  0.67920000  0.17400000  1.0 0.1291603694
H  H69  1  0.15420000  0.73320000  0.60530000  1.0 0.1291603694
H  H70  1  0.26680000  0.84580000  0.10530000  1.0 0.1291603694
H  H71  1  0.15500000  0.72480000  0.53550000  1.0 0.1196610917
H  H72  1  0.27520000  0.84500000  0.03550000  1.0 0.1196610917
H  H73  1  0.35930000  0.79050000  0.53690000  1.0 0.1123796587
H  H74  1  0.20950000  0.64070000  0.03690000  1.0 0.1123796587
H  H75  1  0.36590000  0.79130000  0.60750000  1.0 0.1291603694
H  H76  1  0.20870000  0.63410000  0.10750000  1.0 0.1291603694
H  H77  1  0.99110000  0.75830000  0.98200000  1.0 0.1291603694
H  H78  1  0.24170000  0.00890000  0.48200000  1.0 0.1291603694
H  H79  1  0.86170000  0.74470000  0.98650000  1.0 0.1196610917
H  H80  1  0.25530000  0.13830000  0.48650000  1.0 0.1123796587
H  H81  1  0.82550000  0.75930000  0.86090000  1.0 0.1196610917
H  H82  1  0.24070000  0.17450000  0.36090000  1.0 0.1196610917
H  H83  1  0.96020000  0.76960000  0.85710000  1.0 0.1196610917
H  H84  1  0.23040000  0.03980000  0.35710000  1.0 0.1196610917
H  H85  1  0.62980000  0.74480000  0.97660000  1.0 0.1196610917
H  H86  1  0.25520000  0.37020000  0.47660000  1.0 0.1196610917
H  H87  1  0.49260000  0.73760000  0.98090000  1.0 0.1291603694
H  H88  1  0.26240000  0.50740000  0.48090000  1.0 0.1291603694
H  H89  1  0.47950000  0.70630000  0.85910000  1.0 0.1196610917
H  H90  1  0.29370000  0.52050000  0.35910000  1.0 0.1196610917
H  H91  1  0.61470000  0.69950000  0.85680000  1.0 0.1291603694
H  H92  1  0.30050000  0.38530000  0.35680000  1.0 0.1291603694
H  H93  1  0.24070000  0.49190000  0.99440000  1.0 0.1196610917
H  H94  1  0.50810000  0.75930000  0.49440000  1.0 0.1196610917
H  H95  1  0.22200000  0.36200000  0.99730000  1.0 0.0921646921
H  H96  1  0.63800000  0.77800000  0.49730000  1.0 0.0991473607
H  H97  1  0.20660000  0.37300000  0.87240000  1.0 0.1196610917
H  H98  1  0.62700000  0.79340000  0.37240000  1.0 0.1196610917
H  H99  1  0.22390000  0.50210000  0.86930000  1.0 0.1196610917
H  H100  1  0.49790000  0.77610000  0.36930000  1.0 0.1196610917
H  H101  1  0.21720000  0.13800000  0.97580000  1.0 0.0991473607
H  H102  1  0.86200000  0.78280000  0.47580000  1.0 0.0991473607
H  H103  1  0.21730000  0.00010000  0.97940000  1.0 0.1196610917
H  H104  1  0.99990000  0.78270000  0.47940000  1.0 0.1196610917
H  H105  1  0.18070000  0.01650000  0.85580000  1.0 0.1291603694
H  H106  1  0.98350000  0.81930000  0.35580000  1.0 0.1291603694
H  H107  1  0.17160000  0.15880000  0.85220000  1.0 0.1196610917
H  H108  1  0.84120000  0.82840000  0.35220000  1.0 0.1196610917
H  H109  1  0.72510000  0.74370000  0.95920000  1.0 0.2378393284
H  H110  1  0.25630000  0.27490000  0.45920000  1.0 0.2378393284
H  H111  1  0.74380000  0.72600000  0.88180000  1.0 0.2324639468
H  H112  1  0.27400000  0.25620000  0.38180000  1.0 0.2324639468
H  H113  1  0.50370000  0.64870000  0.62860000  1.0 0.0991473607
H  H114  1  0.64870000  0.50370000  0.87140000  1.0 0.0991473607
H  H115  1  0.49630000  0.35130000  0.37140000  1.0 0.0991473607
H  H116  1  0.35130000  0.49630000  0.12860000  1.0 0.0991473607
H  H117  1  0.48600000  0.65200000  0.55900000  1.0 0.1291603694
H  H118  1  0.65200000  0.48600000  0.94100000  1.0 0.1291603694
H  H119  1  0.51400000  0.34800000  0.44100000  1.0 0.1291603694
H  H120  1  0.34800000  0.51400000  0.05900000  1.0 0.1291603694
H  H121  1  0.53220000  0.40620000  0.56960000  1.0 0.1291603694
H  H122  1  0.40620000  0.53220000  0.93040000  1.0 0.1291603694
H  H123  1  0.46780000  0.59380000  0.43040000  1.0 0.1291603694
H  H124  1  0.59380000  0.46780000  0.06960000  1.0 0.1291603694
H  H125  1  0.53700000  0.41080000  0.64100000  1.0 0.1196610917
H  H126  1  0.41080000  0.53700000  0.85900000  1.0 0.1196610917
H  H127  1  0.46300000  0.58920000  0.35900000  1.0 0.1196610917
H  H128  1  0.58920000  0.46300000  0.14100000  1.0 0.1196610917
H  H129  1  0.77770000  0.52430000  0.70100000  1.0 0.1123796587
H  H130  1  0.52430000  0.77770000  0.79900000  1.0 0.1123796587
H  H131  1  0.22230000  0.47570000  0.29900000  1.0 0.1123796587
H  H132  1  0.47570000  0.22230000  0.20100000  1.0 0.1123796587
H  H133  1  0.90940000  0.53600000  0.70450000  1.0 0.1196610917
H  H134  1  0.53600000  0.90940000  0.79550000  1.0 0.1196610917
H  H135  1  0.09060000  0.46400000  0.29550000  1.0 0.1196610917
H  H136  1  0.46400000  0.09060000  0.20450000  1.0 0.1196610917
H  H137  1  0.91810000  0.51890000  0.82830000  1.0 0.1196610917
H  H138  1  0.51890000  0.91810000  0.67170000  1.0 0.1196610917
H  H139  1  0.08190000  0.48110000  0.17170000  1.0 0.1196610917
H  H140  1  0.48110000  0.08190000  0.32830000  1.0 0.1196610917
H  H141  1  0.78720000  0.50740000  0.82380000  1.0 0.1123796587
H  H142  1  0.50740000  0.78720000  0.67620000  1.0 0.1123796587
H  H143  1  0.21280000  0.49260000  0.17620000  1.0 0.1196610917
H  H144  1  0.49260000  0.21280000  0.32380000  1.0 0.1123796587
H  H145  1  0.13150000  0.54390000  0.68250000  1.0 0.1291603694
H  H146  1  0.54390000  0.13150000  0.81750000  1.0 0.1291603694
H  H147  1  0.86850000  0.45610000  0.31750000  1.0 0.1291603694
H  H148  1  0.45610000  0.86850000  0.18250000  1.0 0.1291603694
H  H149  1  0.26330000  0.55030000  0.68490000  1.0 0.1196610917
H  H150  1  0.55030000  0.26330000  0.81510000  1.0 0.1196610917
H  H151  1  0.73670000  0.44970000  0.31510000  1.0 0.1196610917
H  H152  1  0.44970000  0.73670000  0.18490000  1.0 0.1196610917
H  H153  1  0.27060000  0.55860000  0.80830000  1.0 0.1196610917
H  H154  1  0.55860000  0.27060000  0.69170000  1.0 0.1196610917
H  H155  1  0.72940000  0.44140000  0.19170000  1.0 0.1196610917
H  H156  1  0.44140000  0.72940000  0.30830000  1.0 0.1196610917
H  H157  1  0.13540000  0.55720000  0.80560000  1.0 0.1123796587
H  H158  1  0.55720000  0.13540000  0.69440000  1.0 0.1123796587
H  H159  1  0.86460000  0.44280000  0.19440000  1.0 0.1123796587
H  H160  1  0.44280000  0.86460000  0.30560000  1.0 0.1123796587
C  C1  1  0.76846000  0.14306000  0.71061000  1.0 0.0709699867
C  C2  1  0.85694000  0.23154000  0.21061000  1.0 0.0709699867
C  C3  1  0.76826000  0.13786000  0.75285000  1.0 -0.1912210866
C  C4  1  0.86214000  0.23174000  0.25285000  1.0 -0.1912210866
C  C5  1  0.75990000  0.21088000  0.77263000  1.0 0.1575742534
C  C6  1  0.78912000  0.24010000  0.27263000  1.0 0.1575742534
C  C7  1  0.75319000  0.28195000  0.74795000  1.0 -0.1912210866
C  C8  1  0.71805000  0.24681000  0.24795000  1.0 -0.1912210866
C  C9  1  0.75230000  0.28350000  0.70612000  1.0 0.1123796587
C  C10  1  0.71650000  0.24770000  0.20612000  1.0 0.1123796587
C  C11  1  0.76082000  0.20482000  0.81788000  1.0 -0.1496435942
C  C12  1  0.79518000  0.23918000  0.31788000  1.0 -0.1496435942
C  C13  1  0.75675000  0.26915000  0.84014000  1.0 -0.1399429956
C  C14  1  0.73085000  0.24325000  0.34014000  1.0 -0.1399429956
C  C15  1  0.75669000  0.26329000  0.88512000  1.0 0.1509850965
C  C16  1  0.73671000  0.24331000  0.38512000  1.0 0.1509850965
C  C17  1  0.74218000  0.19858000  0.90829000  1.0 -0.1912210866
C  C18  1  0.80142000  0.25782000  0.40829000  1.0 -0.1912210866
C  C19  1  0.74037000  0.19717000  0.94969000  1.0 0.0709699867
C  C20  1  0.80283000  0.25963000  0.44969000  1.0 0.0709699867
C  C21  1  0.77782000  0.31742000  0.94873000  1.0 0.0817359856
C  C22  1  0.68258000  0.22218000  0.44873000  1.0 0.0817359856
C  C23  1  0.77737000  0.32217000  0.90684000  1.0 -0.1981694081
C  C24  1  0.67783000  0.22263000  0.40684000  1.0 -0.1981694081
C  C25  1  0.76558000  0.07322000  0.58319000  1.0 0.5896824853
C  C26  1  0.92678000  0.23442000  0.08319000  1.0 0.5896824853
C  C27  1  0.76228000  0.98768000  0.58099000  1.0 -0.0476260434
C  C28  1  0.01232000  0.23772000  0.08099000  1.0 -0.0476260434
C  C29  1  0.75694000  0.95774000  0.54240000  1.0 -0.0792815
C  C30  1  0.04226000  0.24306000  0.04240000  1.0 -0.0792815
C  C31  1  0.74993000  0.88153000  0.53977000  1.0 -0.1981694081
C  C32  1  0.11847000  0.25007000  0.03977000  1.0 -0.1981694081
C  C33  1  0.75033000  0.83213000  0.57560000  1.0 0.0921646921
C  C34  1  0.16787000  0.24967000  0.07560000  1.0 0.0921646921
C  C35  1  0.75818000  0.85998000  0.61463000  1.0 -0.1981694081
C  C36  1  0.14002000  0.24182000  0.11463000  1.0 -0.1981694081
C  C37  1  0.76427000  0.93967000  0.61688000  1.0 -0.0911365635
C  C38  1  0.06033000  0.23573000  0.11688000  1.0 -0.0911365635
C  C39  1  0.72526000  0.63266000  0.58361000  1.0 0.0921646921
C  C40  1  0.36734000  0.27474000  0.08361000  1.0 0.0921646921
C  C41  1  0.73595000  0.59875000  0.54703000  1.0 -0.1912210866
C  C42  1  0.40125000  0.26405000  0.04703000  1.0 -0.1912210866
C  C43  1  0.73385000  0.51665000  0.54456000  1.0 -0.108714368
C  C44  1  0.48335000  0.26615000  0.04456000  1.0 -0.108714368
C  C45  1  0.72598000  0.47300000  0.58067000  1.0 -0.029704957
C  C46  1  0.52700000  0.27402000  0.08067000  1.0 -0.029704957
C  C47  1  0.71340000  0.51040000  0.61675000  1.0 -0.0911365635
C  C48  1  0.48960000  0.28660000  0.11675000  1.0 -0.0911365635
C  C49  1  0.71092000  0.58892000  0.61846000  1.0 -0.1981694081
C  C50  1  0.41108000  0.28908000  0.11846000  1.0 -0.1912210866
C  C51  1  0.72975000  0.38359000  0.57940000  1.0 0.5769115658
C  C52  1  0.61641000  0.27025000  0.07940000  1.0 0.5769115658
C  C53  1  0.59553000  0.24155000  0.57120000  1.0 0.5672014079
C  C54  1  0.75845000  0.40447000  0.07120000  1.0 0.5672014079
C  C55  1  0.51025000  0.23285000  0.56895000  1.0 -0.029704957
C  C56  1  0.76715000  0.48975000  0.06895000  1.0 -0.029704957
C  C57  1  0.46761000  0.23325000  0.53041000  1.0 -0.1180238908
C  C58  1  0.76675000  0.53239000  0.03041000  1.0 -0.1180238908
C  C59  1  0.39069000  0.22281000  0.52870000  1.0 -0.1912210866
C  C60  1  0.77719000  0.60931000  0.02870000  1.0 -0.1912210866
C  C61  1  0.35486000  0.21346000  0.56460000  1.0 0.1664796586
C  C62  1  0.78654000  0.64514000  0.06460000  1.0 0.1664796586
C  C63  1  0.39736000  0.21356000  0.60284000  1.0 -0.1496435942
C  C64  1  0.78644000  0.60264000  0.10284000  1.0 -0.1496435942
C  C65  1  0.47365000  0.22345000  0.60458000  1.0 -0.10015688
C  C66  1  0.77655000  0.52635000  0.10458000  1.0 -0.10015688
C  C67  1  0.15885000  0.19885000  0.58637000  1.0 0.1509850965
C  C68  1  0.80115000  0.84115000  0.08637000  1.0 0.1509850965
C  C69  1  0.11348000  0.20968000  0.54887000  1.0 -0.1785507461
C  C70  1  0.79032000  0.88652000  0.04887000  1.0 -0.1785507461
C  C71  1  0.03152000  0.20992000  0.54662000  1.0 -0.10015688
C  C72  1  0.79008000  0.96848000  0.04662000  1.0 -0.0911365635
C  C73  1  0.99660000  0.19918000  0.58253000  1.0 -0.029704957
C  C74  1  0.80082000  0.00340000  0.08253000  1.0 -0.0404633263
C  C75  1  0.04150000  0.18710000  0.61953000  1.0 -0.0792815
C  C76  1  0.81290000  0.95850000  0.11953000  1.0 -0.0792815
C  C77  1  0.12588000  0.18388000  0.62194000  1.0 -0.1599322723
C  C78  1  0.81612000  0.87412000  0.12194000  1.0 -0.1599322723
C  C79  1  0.90597000  0.20615000  0.58010000  1.0 0.5896824853
C  C80  1  0.79385000  0.09403000  0.08010000  1.0 0.5896824853
C  C81  1  0.14306000  0.76846000  0.78939000  1.0 0.0709699867
C  C82  1  0.23154000  0.85694000  0.28939000  1.0 0.0709699867
C  C83  1  0.13786000  0.76826000  0.74715000  1.0 -0.1912210866
C  C84  1  0.23174000  0.86214000  0.24715000  1.0 -0.1912210866
C  C85  1  0.21088000  0.75990000  0.72737000  1.0 0.1575742534
C  C86  1  0.24010000  0.78912000  0.22737000  1.0 0.1575742534
C  C87  1  0.28195000  0.75319000  0.75205000  1.0 -0.1912210866
C  C88  1  0.24681000  0.71805000  0.25205000  1.0 -0.1912210866
C  C89  1  0.28350000  0.75230000  0.79388000  1.0 0.1123796587
C  C90  1  0.24770000  0.71650000  0.29388000  1.0 0.1123796587
C  C91  1  0.20482000  0.76082000  0.68212000  1.0 -0.1496435942
C  C92  1  0.23918000  0.79518000  0.18212000  1.0 -0.1496435942
C  C93  1  0.26915000  0.75675000  0.65986000  1.0 -0.1399429956
C  C94  1  0.24325000  0.73085000  0.15986000  1.0 -0.1399429956
C  C95  1  0.26329000  0.75669000  0.61488000  1.0 0.1509850965
C  C96  1  0.24331000  0.73671000  0.11488000  1.0 0.1509850965
C  C97  1  0.19858000  0.74218000  0.59171000  1.0 -0.1912210866
C  C98  1  0.25782000  0.80142000  0.09171000  1.0 -0.1912210866
C  C99  1  0.19717000  0.74037000  0.55031000  1.0 0.0709699867
C  C100  1  0.25963000  0.80283000  0.05031000  1.0 0.0709699867
C  C101  1  0.31742000  0.77782000  0.55127000  1.0 0.0817359856
C  C102  1  0.22218000  0.68258000  0.05127000  1.0 0.0817359856
C  C103  1  0.32217000  0.77737000  0.59316000  1.0 -0.1981694081
C  C104  1  0.22263000  0.67783000  0.09316000  1.0 -0.1981694081
C  C105  1  0.07322000  0.76558000  0.91681000  1.0 0.5896824853
C  C106  1  0.23442000  0.92678000  0.41681000  1.0 0.5769115658
C  C107  1  0.98768000  0.76228000  0.91901000  1.0 -0.0476260434
C  C108  1  0.23772000  0.01232000  0.41901000  1.0 -0.0476260434
C  C109  1  0.95774000  0.75694000  0.95760000  1.0 -0.0792815
C  C110  1  0.24306000  0.04226000  0.45760000  1.0 -0.0792815
C  C111  1  0.88153000  0.74993000  0.96023000  1.0 -0.1981694081
C  C112  1  0.25007000  0.11847000  0.46023000  1.0 -0.1981694081
C  C113  1  0.83213000  0.75033000  0.92440000  1.0 0.0921646921
C  C114  1  0.24967000  0.16787000  0.42440000  1.0 0.0921646921
C  C115  1  0.85998000  0.75818000  0.88537000  1.0 -0.1981694081
C  C116  1  0.24182000  0.14002000  0.38537000  1.0 -0.1981694081
C  C117  1  0.93967000  0.76427000  0.88312000  1.0 -0.0911365635
C  C118  1  0.23573000  0.06033000  0.38312000  1.0 -0.0911365635
C  C119  1  0.63266000  0.72526000  0.91639000  1.0 0.0921646921
C  C120  1  0.27474000  0.36734000  0.41639000  1.0 0.0921646921
C  C121  1  0.59875000  0.73595000  0.95297000  1.0 -0.1912210866
C  C122  1  0.26405000  0.40125000  0.45297000  1.0 -0.1912210866
C  C123  1  0.51665000  0.73385000  0.95544000  1.0 -0.108714368
C  C124  1  0.26615000  0.48335000  0.45544000  1.0 -0.108714368
C  C125  1  0.47300000  0.72598000  0.91933000  1.0 -0.029704957
C  C126  1  0.27402000  0.52700000  0.41933000  1.0 -0.029704957
C  C127  1  0.51040000  0.71340000  0.88325000  1.0 -0.0911365635
C  C128  1  0.28660000  0.48960000  0.38325000  1.0 -0.0911365635
C  C129  1  0.58892000  0.71092000  0.88154000  1.0 -0.1912210866
C  C130  1  0.28908000  0.41108000  0.38154000  1.0 -0.1912210866
C  C131  1  0.38359000  0.72975000  0.92060000  1.0 0.5769115658
C  C132  1  0.27025000  0.61641000  0.42060000  1.0 0.5769115658
C  C133  1  0.24155000  0.59553000  0.92880000  1.0 0.5672014079
C  C134  1  0.40447000  0.75845000  0.42880000  1.0 0.5672014079
C  C135  1  0.23285000  0.51025000  0.93105000  1.0 -0.029704957
C  C136  1  0.48975000  0.76715000  0.43105000  1.0 -0.029704957
C  C137  1  0.23325000  0.46761000  0.96959000  1.0 -0.1180238908
C  C138  1  0.53239000  0.76675000  0.46959000  1.0 -0.1180238908
C  C139  1  0.22281000  0.39069000  0.97130000  1.0 -0.1912210866
C  C140  1  0.60931000  0.77719000  0.47130000  1.0 -0.1912210866
C  C141  1  0.21346000  0.35486000  0.93540000  1.0 0.1664796586
C  C142  1  0.64514000  0.78654000  0.43540000  1.0 0.1664796586
C  C143  1  0.21356000  0.39736000  0.89716000  1.0 -0.1496435942
C  C144  1  0.60264000  0.78644000  0.39716000  1.0 -0.1496435942
C  C145  1  0.22345000  0.47365000  0.89542000  1.0 -0.10015688
C  C146  1  0.52635000  0.77655000  0.39542000  1.0 -0.10015688
C  C147  1  0.19885000  0.15885000  0.91363000  1.0 0.1509850965
C  C148  1  0.84115000  0.80115000  0.41363000  1.0 0.1509850965
C  C149  1  0.20968000  0.11348000  0.95113000  1.0 -0.1785507461
C  C150  1  0.88652000  0.79032000  0.45113000  1.0 -0.1785507461
C  C151  1  0.20992000  0.03152000  0.95338000  1.0 -0.10015688
C  C152  1  0.96848000  0.79008000  0.45338000  1.0 -0.10015688
C  C153  1  0.19918000  0.99660000  0.91747000  1.0 -0.0404633263
C  C154  1  0.00340000  0.80082000  0.41747000  1.0 -0.0404633263
C  C155  1  0.18710000  0.04150000  0.88047000  1.0 -0.0792815
C  C156  1  0.95850000  0.81290000  0.38047000  1.0 -0.0792815
C  C157  1  0.18388000  0.12588000  0.87806000  1.0 -0.1599322723
C  C158  1  0.87412000  0.81612000  0.37806000  1.0 -0.1599322723
C  C159  1  0.20615000  0.90597000  0.91990000  1.0 0.5896824853
C  C160  1  0.09403000  0.79385000  0.41990000  1.0 0.5896824853
C  C161  1  0.50618000  0.59866000  0.61683000  1.0 0.0709699867
C  C162  1  0.59866000  0.50618000  0.88317000  1.0 0.0709699867
C  C163  1  0.49382000  0.40134000  0.38317000  1.0 0.0709699867
C  C164  1  0.40134000  0.49382000  0.11683000  1.0 0.0709699867
C  C165  1  0.49754000  0.60032000  0.57504000  1.0 -0.2116832396
C  C166  1  0.60032000  0.49754000  0.92496000  1.0 -0.2116832396
C  C167  1  0.50246000  0.39968000  0.42496000  1.0 -0.2116832396
C  C168  1  0.39968000  0.50246000  0.07504000  1.0 -0.2116832396
C  C169  1  0.50466000  0.53166000  0.55507000  1.0 0.1781805887
C  C170  1  0.53166000  0.50466000  0.94493000  1.0 0.1781805887
C  C171  1  0.49534000  0.46834000  0.44493000  1.0 0.1781805887
C  C172  1  0.46834000  0.49534000  0.05507000  1.0 0.1781805887
C  C173  1  0.52290000  0.45756000  0.58100000  1.0 -0.1912210866
C  C174  1  0.45756000  0.52290000  0.91900000  1.0 -0.1912210866
C  C175  1  0.47710000  0.54244000  0.41900000  1.0 -0.1912210866
C  C176  1  0.54244000  0.47710000  0.08100000  1.0 -0.1912210866
C  C177  1  0.52712000  0.46088000  0.62374000  1.0 0.0817359856
C  C178  1  0.46088000  0.52712000  0.87626000  1.0 0.0817359856
C  C179  1  0.47288000  0.53912000  0.37626000  1.0 0.0817359856
C  C180  1  0.53912000  0.47288000  0.12374000  1.0 0.0817359856
C  C181  1  0.49540000  0.53174000  0.51015000  1.0 -0.0792815
C  C182  1  0.53174000  0.49540000  0.98985000  1.0 -0.0792815
C  C183  1  0.50460000  0.46826000  0.48985000  1.0 -0.0792815
C  C184  1  0.46826000  0.50460000  0.01015000  1.0 -0.0792815
C  C185  1  0.68263000  0.51069000  0.75978000  1.0 0.5769115658
C  C186  1  0.51069000  0.68263000  0.74022000  1.0 0.5769115658
C  C187  1  0.31737000  0.48931000  0.24022000  1.0 0.5769115658
C  C188  1  0.48931000  0.31737000  0.25978000  1.0 0.5769115658
C  C189  1  0.76841000  0.51465000  0.76220000  1.0 -0.0476260434
C  C190  1  0.51465000  0.76841000  0.73780000  1.0 -0.0476260434
C  C191  1  0.23159000  0.48535000  0.23780000  1.0 -0.0476260434
C  C192  1  0.48535000  0.23159000  0.26220000  1.0 -0.0476260434
C  C193  1  0.80633000  0.52313000  0.72726000  1.0 -0.10015688
C  C194  1  0.52313000  0.80633000  0.77274000  1.0 -0.10015688
C  C195  1  0.19367000  0.47687000  0.27274000  1.0 -0.10015688
C  C196  1  0.47687000  0.19367000  0.22726000  1.0 -0.10015688
C  C197  1  0.88460000  0.53000000  0.72924000  1.0 -0.1599322723
C  C198  1  0.53000000  0.88460000  0.77076000  1.0 -0.1599322723
C  C199  1  0.11540000  0.47000000  0.27076000  1.0 -0.1599322723
C  C200  1  0.47000000  0.11540000  0.22924000  1.0 -0.1599322723
C  C201  1  0.92723000  0.52823000  0.76681000  1.0 0.1664796586
C  C202  1  0.52823000  0.92723000  0.73319000  1.0 0.1664796586
C  C203  1  0.07277000  0.47177000  0.23319000  1.0 0.1664796586
C  C204  1  0.47177000  0.07277000  0.26681000  1.0 0.1664796586
C  C205  1  0.88977000  0.51997000  0.80193000  1.0 -0.1599322723
C  C206  1  0.51997000  0.88977000  0.69807000  1.0 -0.1599322723
C  C207  1  0.11023000  0.48003000  0.19807000  1.0 -0.1599322723
C  C208  1  0.48003000  0.11023000  0.30193000  1.0 -0.1599322723
C  C209  1  0.81204000  0.51324000  0.79908000  1.0 -0.108714368
C  C210  1  0.51324000  0.81204000  0.70092000  1.0 -0.108714368
C  C211  1  0.18796000  0.48676000  0.20092000  1.0 -0.108714368
C  C212  1  0.48676000  0.18796000  0.29908000  1.0 -0.108714368
C  C213  1  0.12073000  0.54933000  0.74397000  1.0 0.1509850965
C  C214  1  0.54933000  0.12073000  0.75603000  1.0 0.1509850965
C  C215  1  0.87927000  0.45067000  0.25603000  1.0 0.1509850965
C  C216  1  0.45067000  0.87927000  0.24397000  1.0 0.1509850965
C  C217  1  0.15982000  0.54722000  0.70821000  1.0 -0.1496435942
C  C218  1  0.54722000  0.15982000  0.79179000  1.0 -0.1496435942
C  C219  1  0.84018000  0.45278000  0.29179000  1.0 -0.1496435942
C  C220  1  0.45278000  0.84018000  0.20821000  1.0 -0.1496435942
C  C221  1  0.23803000  0.54965000  0.70988000  1.0 -0.10015688
C  C222  1  0.54965000  0.23803000  0.79012000  1.0 -0.10015688
C  C223  1  0.76197000  0.45035000  0.29012000  1.0 -0.10015688
C  C224  1  0.45035000  0.76197000  0.20988000  1.0 -0.10015688
C  C225  1  0.28341000  0.55135000  0.74687000  1.0 -0.029704957
C  C226  1  0.55135000  0.28341000  0.75313000  1.0 -0.029704957
C  C227  1  0.71659000  0.44865000  0.25313000  1.0 -0.029704957
C  C228  1  0.44865000  0.71659000  0.24687000  1.0 -0.029704957
C  C229  1  0.24242000  0.55524000  0.78254000  1.0 -0.0911365635
C  C230  1  0.55524000  0.24242000  0.71746000  1.0 -0.0911365635
C  C231  1  0.75758000  0.44476000  0.21746000  1.0 -0.0911365635
C  C232  1  0.44476000  0.75758000  0.28254000  1.0 -0.0911365635
C  C233  1  0.16236000  0.55436000  0.78101000  1.0 -0.1599322723
C  C234  1  0.55436000  0.16236000  0.71899000  1.0 -0.1599322723
C  C235  1  0.83764000  0.44564000  0.21899000  1.0 -0.1599322723
C  C236  1  0.44564000  0.83764000  0.28101000  1.0 -0.1599322723
C  C237  1  0.54774000  0.37190000  0.75208000  1.0 0.5672014079
C  C238  1  0.37190000  0.54774000  0.74792000  1.0 0.5672014079
C  C239  1  0.45226000  0.62810000  0.24792000  1.0 0.5672014079
C  C240  1  0.62810000  0.45226000  0.25208000  1.0 0.5672014079
N  N1  1  0.75887000  0.21591000  0.68702000  1.0 -0.2260394541
N  N2  1  0.78409000  0.24113000  0.18702000  1.0 -0.2260394541
N  N3  1  0.76091000  0.25607000  0.97030000  1.0 -0.2116832396
N  N4  1  0.74393000  0.23909000  0.47030000  1.0 -0.2116832396
N  N5  1  0.74106000  0.74666000  0.56462000  1.0 -0.0404633263
N  N6  1  0.25334000  0.25894000  0.06462000  1.0 -0.0404633263
N  N7  1  0.73044000  0.72164000  0.59461000  1.0 -0.062333917
N  N8  1  0.27836000  0.26956000  0.09461000  1.0 -0.062333917
N  N9  1  0.27222000  0.20742000  0.55888000  1.0 -0.1785507461
N  N10  1  0.79258000  0.72778000  0.05888000  1.0 -0.1785507461
N  N11  1  0.24161000  0.20011000  0.59192000  1.0 -0.1180238908
N  N12  1  0.79989000  0.75839000  0.09192000  1.0 -0.1180238908
N  N13  1  0.21591000  0.75887000  0.81298000  1.0 -0.2260394541
N  N14  1  0.24113000  0.78409000  0.31298000  1.0 -0.2260394541
N  N15  1  0.25607000  0.76091000  0.52970000  1.0 -0.2116832396
N  N16  1  0.23909000  0.74393000  0.02970000  1.0 -0.2116832396
N  N17  1  0.74666000  0.74106000  0.93538000  1.0 -0.0404633263
N  N18  1  0.25894000  0.25334000  0.43538000  1.0 -0.0404633263
N  N19  1  0.72164000  0.73044000  0.90539000  1.0 -0.062333917
N  N20  1  0.26956000  0.27836000  0.40539000  1.0 -0.062333917
N  N21  1  0.20742000  0.27222000  0.94112000  1.0 -0.1785507461
N  N22  1  0.72778000  0.79258000  0.44112000  1.0 -0.1785507461
N  N23  1  0.20011000  0.24161000  0.90808000  1.0 -0.1180238908
N  N24  1  0.75839000  0.79989000  0.40808000  1.0 -0.1180238908
N  N25  1  0.51785000  0.53131000  0.64187000  1.0 -0.2260394541
N  N26  1  0.53131000  0.51785000  0.85813000  1.0 -0.2260394541
N  N27  1  0.48215000  0.46869000  0.35813000  1.0 -0.2260394541
N  N28  1  0.46869000  0.48215000  0.14187000  1.0 -0.2260394541
N  N29  1  0.00892000  0.53428000  0.77198000  1.0 -0.1399429956
N  N30  1  0.53428000  0.00892000  0.72802000  1.0 -0.1329936364
N  N31  1  0.99108000  0.46572000  0.22802000  1.0 -0.1329936364
N  N32  1  0.46572000  0.99108000  0.27198000  1.0 -0.1329936364
N  N33  1  0.03752000  0.54524000  0.73959000  1.0 -0.10015688
N  N34  1  0.54524000  0.03752000  0.76041000  1.0 -0.10015688
N  N35  1  0.96248000  0.45476000  0.26041000  1.0 -0.10015688
N  N36  1  0.45476000  0.96248000  0.23959000  1.0 -0.10015688
O  O1  1  0.75984000  0.11620000  0.54937000  1.0 -0.5400845834
O  O2  1  0.88380000  0.24016000  0.04937000  1.0 -0.5400845834
O  O3  1  0.77374000  0.09838000  0.61778000  1.0 -0.5307044813
O  O4  1  0.90162000  0.22626000  0.11778000  1.0 -0.5307044813
O  O5  1  0.73039000  0.35617000  0.54488000  1.0 -0.5400845834
O  O6  1  0.64383000  0.26961000  0.04488000  1.0 -0.5400845834
O  O7  1  0.73255000  0.34301000  0.61380000  1.0 -0.5495973496
O  O8  1  0.65699000  0.26745000  0.11380000  1.0 -0.5495973496
O  O9  1  0.62363000  0.25453000  0.53786000  1.0 -0.5400845834
O  O10  1  0.74547000  0.37637000  0.03786000  1.0 -0.5400845834
O  O11  1  0.63288000  0.23506000  0.60603000  1.0 -0.5307044813
O  O12  1  0.76494000  0.36712000  0.10603000  1.0 -0.5307044813
O  O13  1  0.86818000  0.21620000  0.54486000  1.0 -0.5400845834
O  O14  1  0.78380000  0.13182000  0.04486000  1.0 -0.5400845834
O  O15  1  0.87316000  0.20612000  0.61399000  1.0 -0.5495973496
O  O16  1  0.79388000  0.12684000  0.11399000  1.0 -0.5495973496
O  O17  1  0.11620000  0.75984000  0.95063000  1.0 -0.5400845834
O  O18  1  0.24016000  0.88380000  0.45063000  1.0 -0.5400845834
O  O19  1  0.09838000  0.77374000  0.88222000  1.0 -0.5307044813
O  O20  1  0.22626000  0.90162000  0.38222000  1.0 -0.5307044813
O  O21  1  0.35617000  0.73039000  0.95512000  1.0 -0.5400845834
O  O22  1  0.26961000  0.64383000  0.45512000  1.0 -0.5400845834
O  O23  1  0.34301000  0.73255000  0.88620000  1.0 -0.5495973496
O  O24  1  0.26745000  0.65699000  0.38620000  1.0 -0.5495973496
O  O25  1  0.25453000  0.62363000  0.96214000  1.0 -0.5400845834
O  O26  1  0.37637000  0.74547000  0.46214000  1.0 -0.5400845834
O  O27  1  0.23506000  0.63288000  0.89397000  1.0 -0.5307044813
O  O28  1  0.36712000  0.76494000  0.39397000  1.0 -0.5307044813
O  O29  1  0.21620000  0.86818000  0.95514000  1.0 -0.5400845834
O  O30  1  0.13182000  0.78380000  0.45514000  1.0 -0.5400845834
O  O31  1  0.20612000  0.87316000  0.88601000  1.0 -0.5495973496
O  O32  1  0.12684000  0.79388000  0.38601000  1.0 -0.5495973496
O  O33  1  0.65347000  0.50053000  0.79317000  1.0 -0.5400845834
O  O34  1  0.50053000  0.65347000  0.70683000  1.0 -0.5400845834
O  O35  1  0.34653000  0.49947000  0.20683000  1.0 -0.5400845834
O  O36  1  0.49947000  0.34653000  0.29317000  1.0 -0.5400845834
O  O37  1  0.64370000  0.51974000  0.72408000  1.0 -0.5495973496
O  O38  1  0.51974000  0.64370000  0.77592000  1.0 -0.5495973496
O  O39  1  0.35630000  0.48026000  0.27592000  1.0 -0.5551252195
O  O40  1  0.48026000  0.35630000  0.22408000  1.0 -0.5495973496
O  O41  1  0.54309000  0.40389000  0.78448000  1.0 -0.5137850472
O  O42  1  0.40389000  0.54309000  0.71552000  1.0 -0.5137850472
O  O43  1  0.45691000  0.59611000  0.21552000  1.0 -0.5137850472
O  O44  1  0.59611000  0.45691000  0.28448000  1.0 -0.5137850472
O  O45  1  0.54931000  0.40777000  0.71662000  1.0 -0.5495973496
O  O46  1  0.40777000  0.54931000  0.78338000  1.0 -0.5495973496
O  O47  1  0.45069000  0.59223000  0.28338000  1.0 -0.5495973496
O  O48  1  0.59223000  0.45069000  0.21662000  1.0 -0.5495973496
