# DDEC6 charges by PACMAN v1.1 (https://github.com/mtap-research/PACMAN-charge/)
data_GIQXIO_FSR_pacman
_symmetry_space_group_name_H-M   'P 1'
_cell_length_a   9.61163000
_cell_length_b   9.61163000
_cell_length_c   15.54800000
_cell_angle_alpha   87.06980000
_cell_angle_beta   92.93020000
_cell_angle_gamma   80.92550000
_symmetry_Int_Tables_number   1
_chemical_formula_structural   DyP4H20Ru2(CO5)4
_chemical_formula_sum   'Dy2 P8 H40 Ru4 C8 O40'
_cell_volume   1413.99257892
_cell_formula_units_Z   2
loop_
 _symmetry_equiv_pos_site_id
 _symmetry_equiv_pos_as_xyz
  1  'x, y, z'
loop_
 _atom_site_type_symbol
 _atom_site_label
 _atom_site_symmetry_multiplicity
 _atom_site_fract_x
 _atom_site_fract_y
 _atom_site_fract_z
 _atom_site_occupancy
 _atom_site_charge
Dy  Dy1  1  0.98915000  0.98915000  0.75000000  1.0 2.180615932
Dy  Dy2  1  0.01085000  0.01085000  0.25000000  1.0 2.180615932
P  P1  1  0.04483000  0.64607000  0.64557000  1.0 1.1790444258
P  P2  1  0.64607000  0.04483000  0.85443000  1.0 1.1790444258
P  P3  1  0.95517000  0.35393000  0.35443000  1.0 1.1790444258
P  P4  1  0.35393000  0.95517000  0.14557000  1.0 1.1790444258
P  P5  1  0.97608000  0.34850000  0.65429000  1.0 1.1790444258
P  P6  1  0.34850000  0.97608000  0.84571000  1.0 1.1790444258
P  P7  1  0.02392000  0.65150000  0.34571000  1.0 1.1790444258
P  P8  1  0.65150000  0.02392000  0.15429000  1.0 1.1790444258
H  H1  1  0.16080000  0.52480000  0.81470000  1.0 0.1494240168
H  H2  1  0.52480000  0.16080000  0.68530000  1.0 0.1494240168
H  H3  1  0.83920000  0.47520000  0.18530000  1.0 0.1494240168
H  H4  1  0.47520000  0.83920000  0.31470000  1.0 0.1494240168
H  H5  1  0.13110000  0.36570000  0.81490000  1.0 0.1433587263
H  H6  1  0.36570000  0.13110000  0.68510000  1.0 0.1433587263
H  H7  1  0.86890000  0.63430000  0.18510000  1.0 0.1433587263
H  H8  1  0.63430000  0.86890000  0.31490000  1.0 0.1433587263
H  H9  1  0.22830000  0.42210000  0.74470000  1.0 0.1433587263
H  H10  1  0.42210000  0.22830000  0.75530000  1.0 0.1433587263
H  H11  1  0.77170000  0.57790000  0.25530000  1.0 0.1433587263
H  H12  1  0.57790000  0.77170000  0.24470000  1.0 0.1433587263
H  H13  1  0.82400000  0.57800000  0.73000000  1.0 0.3461203727
H  H14  1  0.57800000  0.82400000  0.77000000  1.0 0.3461203727
H  H15  1  0.17600000  0.42200000  0.27000000  1.0 0.3461203727
H  H16  1  0.42200000  0.17600000  0.23000000  1.0 0.3461203727
H  H17  1  0.39000000  0.37600000  0.56000000  1.0 0.3793860758
H  H18  1  0.37600000  0.39000000  0.94000000  1.0 0.3793860758
H  H19  1  0.61000000  0.62400000  0.44000000  1.0 0.3793860758
H  H20  1  0.62400000  0.61000000  0.06000000  1.0 0.3852030936
H  H21  1  0.36400000  0.28400000  0.49700000  1.0 0.3604477945
H  H22  1  0.28400000  0.36400000  0.00300000  1.0 0.3604477945
H  H23  1  0.63600000  0.71600000  0.50300000  1.0 0.3604477945
H  H24  1  0.71600000  0.63600000  0.99700000  1.0 0.3604477945
H  H25  1  0.84000000  0.91000000  0.59900000  1.0 0.4214342537
H  H26  1  0.91000000  0.84000000  0.90100000  1.0 0.4214342537
H  H27  1  0.16000000  0.09000000  0.40100000  1.0 0.4214342537
H  H28  1  0.09000000  0.16000000  0.09900000  1.0 0.4214342537
H  H29  1  0.75700000  0.87500000  0.67200000  1.0 0.4016284573
H  H30  1  0.87500000  0.75700000  0.82800000  1.0 0.4016284573
H  H31  1  0.24300000  0.12500000  0.32800000  1.0 0.4016284573
H  H32  1  0.12500000  0.24300000  0.17200000  1.0 0.4016284573
H  H33  1  0.11400000  0.06600000  0.90500000  1.0 0.3793860758
H  H34  1  0.06600000  0.11400000  0.59500000  1.0 0.3793860758
H  H35  1  0.88600000  0.93400000  0.09500000  1.0 0.3793860758
H  H36  1  0.93400000  0.88600000  0.40500000  1.0 0.3793860758
H  H37  1  0.98600000  0.15600000  0.89600000  1.0 0.3793860758
H  H38  1  0.15600000  0.98600000  0.60400000  1.0 0.3793860758
H  H39  1  0.01400000  0.84400000  0.10400000  1.0 0.3793860758
H  H40  1  0.84400000  0.01400000  0.39600000  1.0 0.3793860758
Ru  Ru1  1  0.12160000  0.45448000  0.50202000  1.0 0.9222874942
Ru  Ru2  1  0.45448000  0.12160000  0.99798000  1.0 0.9222874942
Ru  Ru3  1  0.87840000  0.54552000  0.49798000  1.0 0.9222874942
Ru  Ru4  1  0.54552000  0.87840000  0.00202000  1.0 0.9222874942
C  C1  1  0.01910000  0.49370000  0.71890000  1.0 -0.1044942883
C  C2  1  0.49370000  0.01910000  0.78110000  1.0 -0.1044942883
C  C3  1  0.98090000  0.50630000  0.28110000  1.0 -0.1044942883
C  C4  1  0.50630000  0.98090000  0.21890000  1.0 -0.1044942883
C  C5  1  0.14560000  0.44760000  0.77840000  1.0 -0.4410239753
C  C6  1  0.44760000  0.14560000  0.72160000  1.0 -0.4410239753
C  C7  1  0.85440000  0.55240000  0.22160000  1.0 -0.4410239753
C  C8  1  0.55240000  0.85440000  0.27840000  1.0 -0.4410239753
O  O1  1  0.16840000  0.59160000  0.58940000  1.0 -0.6441189048
O  O2  1  0.59160000  0.16840000  0.91060000  1.0 -0.6441189048
O  O3  1  0.83160000  0.40840000  0.41060000  1.0 -0.6441189048
O  O4  1  0.40840000  0.83160000  0.08940000  1.0 -0.6441189048
O  O5  1  0.90920000  0.69000000  0.58630000  1.0 -0.7038979527
O  O6  1  0.69000000  0.90920000  0.91370000  1.0 -0.7038979527
O  O7  1  0.09080000  0.31000000  0.41370000  1.0 -0.7038979527
O  O8  1  0.31000000  0.09080000  0.08630000  1.0 -0.7038979527
O  O9  1  0.07580000  0.76580000  0.69990000  1.0 -0.8023106751
O  O10  1  0.76580000  0.07580000  0.80010000  1.0 -0.8023106751
O  O11  1  0.92420000  0.23420000  0.30010000  1.0 -0.8023106751
O  O12  1  0.23420000  0.92420000  0.19990000  1.0 -0.8023106751
O  O13  1  0.10390000  0.30810000  0.59860000  1.0 -0.6871074137
O  O14  1  0.30810000  0.10390000  0.90140000  1.0 -0.6871074137
O  O15  1  0.89610000  0.69190000  0.40140000  1.0 -0.6871074137
O  O16  1  0.69190000  0.89610000  0.09860000  1.0 -0.6871074137
O  O17  1  0.84310000  0.40470000  0.59460000  1.0 -0.656499311
O  O18  1  0.40470000  0.84310000  0.90540000  1.0 -0.656499311
O  O19  1  0.15690000  0.59530000  0.40540000  1.0 -0.656499311
O  O20  1  0.59530000  0.15690000  0.09460000  1.0 -0.656499311
O  O21  1  0.95440000  0.22780000  0.71440000  1.0 -0.8101500866
O  O22  1  0.22780000  0.95440000  0.78560000  1.0 -0.8101500866
O  O23  1  0.04560000  0.77220000  0.28560000  1.0 -0.8101500866
O  O24  1  0.77220000  0.04560000  0.21440000  1.0 -0.8101500866
O  O25  1  0.89960000  0.55040000  0.76780000  1.0 -0.445089936
O  O26  1  0.55040000  0.89960000  0.73220000  1.0 -0.445089936
O  O27  1  0.10040000  0.44960000  0.23220000  1.0 -0.445089936
O  O28  1  0.44960000  0.10040000  0.26780000  1.0 -0.4410239753
O  O29  1  0.35750000  0.37550000  0.50620000  1.0 -0.6026030478
O  O30  1  0.37550000  0.35750000  0.99380000  1.0 -0.6026030478
O  O31  1  0.64250000  0.62450000  0.49380000  1.0 -0.6026030478
O  O32  1  0.62450000  0.64250000  0.00620000  1.0 -0.6026030478
O  O33  1  0.80120000  0.94200000  0.64900000  1.0 -0.8101500866
O  O34  1  0.94200000  0.80120000  0.85100000  1.0 -0.8101500866
O  O35  1  0.19880000  0.05800000  0.35100000  1.0 -0.8101500866
O  O36  1  0.05800000  0.19880000  0.14900000  1.0 -0.8101500866
O  O37  1  0.02380000  0.07380000  0.89110000  1.0 -0.7696399536
O  O38  1  0.07380000  0.02380000  0.60890000  1.0 -0.7696399536
O  O39  1  0.97620000  0.92620000  0.10890000  1.0 -0.7696399536
O  O40  1  0.92620000  0.97620000  0.39110000  1.0 -0.7696399536
