# DDEC6 charges by PACMAN v1.1 (https://github.com/mtap-research/PACMAN-charge/)
data_GIQYOV_FSR_pacman
_symmetry_space_group_name_H-M   'P 1'
_cell_length_a   9.94020000
_cell_length_b   9.94020000
_cell_length_c   15.69000000
_cell_angle_alpha   87.53380000
_cell_angle_beta   92.46620000
_cell_angle_gamma   82.82190000
_symmetry_Int_Tables_number   1
_chemical_formula_structural   PrP4H20Ru2(CO5)4
_chemical_formula_sum   'Pr2 P8 H40 Ru4 C8 O40'
_cell_volume   1534.88238679
_cell_formula_units_Z   2
loop_
 _symmetry_equiv_pos_site_id
 _symmetry_equiv_pos_as_xyz
  1  'x, y, z'
loop_
 _atom_site_type_symbol
 _atom_site_label
 _atom_site_symmetry_multiplicity
 _atom_site_fract_x
 _atom_site_fract_y
 _atom_site_fract_z
 _atom_site_occupancy
 _atom_site_charge
Pr  Pr1  1  0.98942000  0.98942000  0.75000000  1.0 2.1738800654
Pr  Pr2  1  0.01058000  0.01058000  0.25000000  1.0 2.1774832854
P  P1  1  0.04635000  0.64317000  0.64161000  1.0 1.1308929274
P  P2  1  0.64317000  0.04635000  0.85839000  1.0 1.1308929274
P  P3  1  0.95365000  0.35683000  0.35839000  1.0 1.1308929274
P  P4  1  0.35683000  0.95365000  0.14161000  1.0 1.1308929274
P  P5  1  0.97740000  0.35026000  0.65167000  1.0 1.1158151874
P  P6  1  0.35026000  0.97740000  0.84833000  1.0 1.1158151874
P  P7  1  0.02260000  0.64974000  0.34833000  1.0 1.1158151874
P  P8  1  0.64974000  0.02260000  0.15167000  1.0 1.1158151874
H  H1  1  0.84750000  0.56990000  0.72070000  1.0 0.3297963837
H  H2  1  0.56990000  0.84750000  0.77930000  1.0 0.3297963837
H  H3  1  0.15250000  0.43010000  0.27930000  1.0 0.3297963837
H  H4  1  0.43010000  0.15250000  0.22070000  1.0 0.3297963837
H  H5  1  0.36470000  0.29070000  0.50080000  1.0 0.3613126972
H  H6  1  0.29070000  0.36470000  0.99920000  1.0 0.3613126972
H  H7  1  0.63530000  0.70930000  0.49920000  1.0 0.3613126972
H  H8  1  0.70930000  0.63530000  0.00080000  1.0 0.3613126972
H  H9  1  0.38670000  0.38790000  0.56110000  1.0 0.3816073077
H  H10  1  0.38790000  0.38670000  0.93890000  1.0 0.3816073077
H  H11  1  0.61330000  0.61210000  0.43890000  1.0 0.3816073077
H  H12  1  0.61210000  0.61330000  0.06110000  1.0 0.3816073077
H  H13  1  0.84030000  0.89330000  0.59730000  1.0 0.3816073077
H  H14  1  0.89330000  0.84030000  0.90270000  1.0 0.3816073077
H  H15  1  0.15970000  0.10670000  0.40270000  1.0 0.3816073077
H  H16  1  0.10670000  0.15970000  0.09730000  1.0 0.3816073077
H  H17  1  0.76380000  0.85980000  0.66666667  1.0 0.3510824838
H  H18  1  0.85980000  0.76380000  0.83340000  1.0 0.3510824838
H  H19  1  0.23620000  0.14020000  0.33340000  1.0 0.3510824838
H  H20  1  0.14020000  0.23620000  0.16660000  1.0 0.3510824838
H  H21  1  0.11900000  0.06980000  0.88730000  1.0 0.3965868005
H  H22  1  0.06980000  0.11900000  0.61270000  1.0 0.3965868005
H  H23  1  0.88100000  0.93020000  0.11270000  1.0 0.3965868005
H  H24  1  0.93020000  0.88100000  0.38730000  1.0 0.3965868005
H  H25  1  0.98550000  0.15070000  0.87870000  1.0 0.4130707035
H  H26  1  0.15070000  0.98550000  0.62130000  1.0 0.4130707035
H  H27  1  0.01450000  0.84930000  0.12130000  1.0 0.4130707035
H  H28  1  0.84930000  0.01450000  0.37870000  1.0 0.4130707035
H  H29  1  0.12860000  0.45040000  0.83060000  1.0 0.1404335374
H  H30  1  0.45040000  0.12860000  0.66940000  1.0 0.1404335374
H  H31  1  0.87140000  0.54960000  0.16940000  1.0 0.1404335374
H  H32  1  0.54960000  0.87140000  0.33060000  1.0 0.1404335374
H  H33  1  0.17660000  0.35280000  0.75620000  1.0 0.1404335374
H  H34  1  0.35280000  0.17660000  0.74380000  1.0 0.1404335374
H  H35  1  0.82340000  0.64720000  0.24380000  1.0 0.1404335374
H  H36  1  0.64720000  0.82340000  0.25620000  1.0 0.1404335374
H  H37  1  0.21760000  0.50340000  0.75660000  1.0 0.1558778832
H  H38  1  0.50340000  0.21760000  0.74340000  1.0 0.1558778832
H  H39  1  0.78240000  0.49660000  0.24340000  1.0 0.1558778832
H  H40  1  0.49660000  0.78240000  0.25660000  1.0 0.1558778832
Ru  Ru1  1  0.11899000  0.45531000  0.50338000  1.0 0.9073204944
Ru  Ru2  1  0.45531000  0.11899000  0.99662000  1.0 0.9073204944
Ru  Ru3  1  0.88101000  0.54469000  0.49662000  1.0 0.9073204944
Ru  Ru4  1  0.54469000  0.88101000  0.00338000  1.0 0.9073204944
C  C1  1  0.01870000  0.49870000  0.71730000  1.0 0.0146096093
C  C2  1  0.49870000  0.01870000  0.78270000  1.0 0.0146096093
C  C3  1  0.98130000  0.50130000  0.28270000  1.0 0.0146096093
C  C4  1  0.50130000  0.98130000  0.21730000  1.0 0.0146096093
C  C5  1  0.14650000  0.44670000  0.76980000  1.0 -0.4823488196
C  C6  1  0.44670000  0.14650000  0.73020000  1.0 -0.4823488196
C  C7  1  0.85350000  0.55330000  0.23020000  1.0 -0.4823488196
C  C8  1  0.55330000  0.85350000  0.26980000  1.0 -0.4823488196
O  O1  1  0.16880000  0.59280000  0.59120000  1.0 -0.6393163255
O  O2  1  0.59280000  0.16880000  0.90880000  1.0 -0.6393163255
O  O3  1  0.83120000  0.40720000  0.40880000  1.0 -0.6393163255
O  O4  1  0.40720000  0.83120000  0.09120000  1.0 -0.6393163255
O  O5  1  0.90510000  0.69430000  0.58040000  1.0 -0.7316874316
O  O6  1  0.69430000  0.90510000  0.91960000  1.0 -0.7316874316
O  O7  1  0.09490000  0.30570000  0.41960000  1.0 -0.7316874316
O  O8  1  0.30570000  0.09490000  0.08040000  1.0 -0.7316874316
O  O9  1  0.07680000  0.76300000  0.69870000  1.0 -0.8109704754
O  O10  1  0.76300000  0.07680000  0.80130000  1.0 -0.8109704754
O  O11  1  0.92320000  0.23700000  0.30130000  1.0 -0.8109704754
O  O12  1  0.23700000  0.92320000  0.19870000  1.0 -0.8109704754
O  O13  1  0.10160000  0.31180000  0.59590000  1.0 -0.6621574586
O  O14  1  0.31180000  0.10160000  0.90410000  1.0 -0.6621574586
O  O15  1  0.89840000  0.68820000  0.40410000  1.0 -0.6621574586
O  O16  1  0.68820000  0.89840000  0.09590000  1.0 -0.6621574586
O  O17  1  0.84330000  0.41530000  0.59710000  1.0 -0.6621574586
O  O18  1  0.41530000  0.84330000  0.90290000  1.0 -0.6621574586
O  O19  1  0.15670000  0.58470000  0.40290000  1.0 -0.6621574586
O  O20  1  0.58470000  0.15670000  0.09710000  1.0 -0.6621574586
O  O21  1  0.93740000  0.24380000  0.72220000  1.0 -0.8109704754
O  O22  1  0.24380000  0.93740000  0.77780000  1.0 -0.8109704754
O  O23  1  0.06260000  0.75620000  0.27780000  1.0 -0.8109704754
O  O24  1  0.75620000  0.06260000  0.22220000  1.0 -0.8109704754
O  O25  1  0.91810000  0.53970000  0.75560000  1.0 -0.2850506058
O  O26  1  0.53970000  0.91810000  0.74440000  1.0 -0.2850506058
O  O27  1  0.08190000  0.46030000  0.24440000  1.0 -0.2850506058
O  O28  1  0.46030000  0.08190000  0.25560000  1.0 -0.2844682982
O  O29  1  0.35050000  0.37770000  0.51120000  1.0 -0.6188695332
O  O30  1  0.37770000  0.35050000  0.98880000  1.0 -0.6188695332
O  O31  1  0.64950000  0.62230000  0.48880000  1.0 -0.6188695332
O  O32  1  0.62230000  0.64950000  0.01120000  1.0 -0.6188695332
O  O33  1  0.80530000  0.92270000  0.64340000  1.0 -0.769794648
O  O34  1  0.92270000  0.80530000  0.85660000  1.0 -0.769794648
O  O35  1  0.19470000  0.07730000  0.35660000  1.0 -0.769794648
O  O36  1  0.07730000  0.19470000  0.14340000  1.0 -0.769794648
O  O37  1  0.03170000  0.06810000  0.87660000  1.0 -0.8347095003
O  O38  1  0.06810000  0.03170000  0.62340000  1.0 -0.835243558
O  O39  1  0.96830000  0.93190000  0.12340000  1.0 -0.835243558
O  O40  1  0.93190000  0.96830000  0.37660000  1.0 -0.835243558
