# DDEC6 charges by PACMAN v1.1 (https://github.com/mtap-research/PACMAN-charge/)
data_GIRYAJ_ASR_pacman
_symmetry_space_group_name_H-M   'P 1'
_cell_length_a   20.46660000
_cell_length_b   20.46660000
_cell_length_c   20.46660000
_cell_angle_alpha   90.00000000
_cell_angle_beta   90.00000000
_cell_angle_gamma   90.00000000
_symmetry_Int_Tables_number   1
_chemical_formula_structural   Zn11H18C54(NO12)4
_chemical_formula_sum   'Zn22 H36 C108 N8 O96'
_cell_volume   8573.08451968
_cell_formula_units_Z   2
loop_
 _symmetry_equiv_pos_site_id
 _symmetry_equiv_pos_as_xyz
  1  'x, y, z'
loop_
 _atom_site_type_symbol
 _atom_site_label
 _atom_site_symmetry_multiplicity
 _atom_site_fract_x
 _atom_site_fract_y
 _atom_site_fract_z
 _atom_site_occupancy
 _atom_site_charge
Zn  Zn1  1  0.33696000  0.66304000  0.66304000  1.0 0.9740133377
Zn  Zn2  1  0.33696000  0.33696000  0.66304000  1.0 0.9740133377
Zn  Zn3  1  0.66304000  0.33696000  0.66304000  1.0 0.9740133377
Zn  Zn4  1  0.66304000  0.66304000  0.66304000  1.0 0.9740133377
Zn  Zn5  1  0.33696000  0.33696000  0.33696000  1.0 0.9740133377
Zn  Zn6  1  0.66304000  0.33696000  0.33696000  1.0 0.9740133377
Zn  Zn7  1  0.66304000  0.66304000  0.33696000  1.0 0.9740133377
Zn  Zn8  1  0.33696000  0.66304000  0.33696000  1.0 0.9740133377
Zn  Zn9  1  0.42623000  0.00000000  0.00000000  1.0 0.9539810287
Zn  Zn10  1  0.00000000  0.42623000  0.00000000  1.0 0.9539810287
Zn  Zn11  1  0.57377000  0.00000000  0.00000000  1.0 0.9539810287
Zn  Zn12  1  0.00000000  0.57377000  0.00000000  1.0 0.9539810287
Zn  Zn13  1  0.00000000  0.00000000  0.42623000  1.0 0.9539810287
Zn  Zn14  1  0.00000000  0.00000000  0.57377000  1.0 0.9539810287
Zn  Zn15  1  0.23581000  0.76419000  0.76419000  1.0 0.8595196473
Zn  Zn16  1  0.23581000  0.23581000  0.76419000  1.0 0.8595196473
Zn  Zn17  1  0.76419000  0.23581000  0.76419000  1.0 0.8595196473
Zn  Zn18  1  0.76419000  0.76419000  0.76419000  1.0 0.8595196473
Zn  Zn19  1  0.23581000  0.23581000  0.23581000  1.0 0.8595196473
Zn  Zn20  1  0.76419000  0.23581000  0.23581000  1.0 0.8595196473
Zn  Zn21  1  0.76419000  0.76419000  0.23581000  1.0 0.8595196473
Zn  Zn22  1  0.23581000  0.76419000  0.23581000  1.0 0.8595196473
H  H1  1  0.40010000  0.85150000  0.85150000  1.0 0.1513704141
H  H2  1  0.14850000  0.40010000  0.85150000  1.0 0.1513704141
H  H3  1  0.59990000  0.14850000  0.85150000  1.0 0.1513704141
H  H4  1  0.85150000  0.59990000  0.85150000  1.0 0.1513704141
H  H5  1  0.40010000  0.14850000  0.14850000  1.0 0.1513704141
H  H6  1  0.85150000  0.40010000  0.14850000  1.0 0.1513704141
H  H7  1  0.59990000  0.85150000  0.14850000  1.0 0.1513704141
H  H8  1  0.14850000  0.59990000  0.14850000  1.0 0.1513704141
H  H9  1  0.85150000  0.40010000  0.85150000  1.0 0.1513704141
H  H10  1  0.59990000  0.85150000  0.85150000  1.0 0.1513704141
H  H11  1  0.14850000  0.59990000  0.85150000  1.0 0.1513704141
H  H12  1  0.40010000  0.14850000  0.85150000  1.0 0.1513704141
H  H13  1  0.85150000  0.59990000  0.14850000  1.0 0.1513704141
H  H14  1  0.40010000  0.85150000  0.14850000  1.0 0.1513704141
H  H15  1  0.14850000  0.40010000  0.14850000  1.0 0.1513704141
H  H16  1  0.59990000  0.14850000  0.14850000  1.0 0.1513704141
H  H17  1  0.85150000  0.85150000  0.40010000  1.0 0.1513704141
H  H18  1  0.14850000  0.14850000  0.59990000  1.0 0.1513704141
H  H19  1  0.14850000  0.85150000  0.40010000  1.0 0.1513704141
H  H20  1  0.85150000  0.85150000  0.59990000  1.0 0.1513704141
H  H21  1  0.85150000  0.14850000  0.40010000  1.0 0.1513704141
H  H22  1  0.85150000  0.14850000  0.59990000  1.0 0.1513704141
H  H23  1  0.14850000  0.14850000  0.40010000  1.0 0.1513704141
H  H24  1  0.14850000  0.85150000  0.59990000  1.0 0.1513704141
H  H25  1  0.50000000  0.73230000  0.73230000  1.0 0.1229583116
H  H26  1  0.26770000  0.50000000  0.73230000  1.0 0.1229583116
H  H27  1  0.50000000  0.26770000  0.73230000  1.0 0.1229583116
H  H28  1  0.73230000  0.50000000  0.73230000  1.0 0.1229583116
H  H29  1  0.50000000  0.26770000  0.26770000  1.0 0.1229583116
H  H30  1  0.73230000  0.50000000  0.26770000  1.0 0.1229583116
H  H31  1  0.50000000  0.73230000  0.26770000  1.0 0.1229583116
H  H32  1  0.26770000  0.50000000  0.26770000  1.0 0.1229583116
H  H33  1  0.73230000  0.73230000  0.50000000  1.0 0.1229583116
H  H34  1  0.26770000  0.26770000  0.50000000  1.0 0.1229583116
H  H35  1  0.26770000  0.73230000  0.50000000  1.0 0.1229583116
H  H36  1  0.73230000  0.26770000  0.50000000  1.0 0.1229583116
C  C1  1  0.37730000  0.76150000  0.76150000  1.0 0.6064597583
C  C2  1  0.23850000  0.37730000  0.76150000  1.0 0.6064597583
C  C3  1  0.62270000  0.23850000  0.76150000  1.0 0.6064597583
C  C4  1  0.76150000  0.62270000  0.76150000  1.0 0.6064597583
C  C5  1  0.37730000  0.23850000  0.23850000  1.0 0.6064597583
C  C6  1  0.76150000  0.37730000  0.23850000  1.0 0.6064597583
C  C7  1  0.62270000  0.76150000  0.23850000  1.0 0.6064597583
C  C8  1  0.23850000  0.62270000  0.23850000  1.0 0.6064597583
C  C9  1  0.76150000  0.37730000  0.76150000  1.0 0.6064597583
C  C10  1  0.62270000  0.76150000  0.76150000  1.0 0.6064597583
C  C11  1  0.23850000  0.62270000  0.76150000  1.0 0.6064597583
C  C12  1  0.37730000  0.23850000  0.76150000  1.0 0.6064597583
C  C13  1  0.76150000  0.62270000  0.23850000  1.0 0.6064597583
C  C14  1  0.37730000  0.76150000  0.23850000  1.0 0.6064597583
C  C15  1  0.23850000  0.37730000  0.23850000  1.0 0.6064597583
C  C16  1  0.62270000  0.23850000  0.23850000  1.0 0.6064597583
C  C17  1  0.76150000  0.76150000  0.37730000  1.0 0.6064597583
C  C18  1  0.23850000  0.23850000  0.62270000  1.0 0.6064597583
C  C19  1  0.23850000  0.76150000  0.37730000  1.0 0.6064597583
C  C20  1  0.76150000  0.76150000  0.62270000  1.0 0.6064597583
C  C21  1  0.76150000  0.23850000  0.37730000  1.0 0.6064597583
C  C22  1  0.76150000  0.23850000  0.62270000  1.0 0.6064597583
C  C23  1  0.23850000  0.23850000  0.37730000  1.0 0.6064597583
C  C24  1  0.23850000  0.76150000  0.62270000  1.0 0.6064597583
C  C25  1  0.50000000  0.91170000  0.91170000  1.0 0.5942366587
C  C26  1  0.08830000  0.50000000  0.91170000  1.0 0.5942366587
C  C27  1  0.50000000  0.08830000  0.91170000  1.0 0.5942366587
C  C28  1  0.91170000  0.50000000  0.91170000  1.0 0.5942366587
C  C29  1  0.50000000  0.08830000  0.08830000  1.0 0.5942366587
C  C30  1  0.91170000  0.50000000  0.08830000  1.0 0.5942366587
C  C31  1  0.50000000  0.91170000  0.08830000  1.0 0.5942366587
C  C32  1  0.08830000  0.50000000  0.08830000  1.0 0.5942366587
C  C33  1  0.91170000  0.91170000  0.50000000  1.0 0.5942366587
C  C34  1  0.08830000  0.08830000  0.50000000  1.0 0.5942366587
C  C35  1  0.08830000  0.91170000  0.50000000  1.0 0.5942366587
C  C36  1  0.91170000  0.08830000  0.50000000  1.0 0.5942366587
C  C37  1  0.50000000  0.86080000  0.86080000  1.0 -0.0518050407
C  C38  1  0.13920000  0.50000000  0.86080000  1.0 -0.0518050407
C  C39  1  0.50000000  0.13920000  0.86080000  1.0 -0.0518050407
C  C40  1  0.86080000  0.50000000  0.86080000  1.0 -0.0518050407
C  C41  1  0.50000000  0.13920000  0.13920000  1.0 -0.0518050407
C  C42  1  0.86080000  0.50000000  0.13920000  1.0 -0.0518050407
C  C43  1  0.50000000  0.86080000  0.13920000  1.0 -0.0518050407
C  C44  1  0.13920000  0.50000000  0.13920000  1.0 -0.0518050407
C  C45  1  0.86080000  0.86080000  0.50000000  1.0 -0.0518050407
C  C46  1  0.13920000  0.13920000  0.50000000  1.0 -0.0518050407
C  C47  1  0.13920000  0.86080000  0.50000000  1.0 -0.0518050407
C  C48  1  0.86080000  0.13920000  0.50000000  1.0 -0.0518050407
C  C49  1  0.44070000  0.83560000  0.83560000  1.0 -0.0718648436
C  C50  1  0.16440000  0.44070000  0.83560000  1.0 -0.0718648436
C  C51  1  0.55930000  0.16440000  0.83560000  1.0 -0.0718648436
C  C52  1  0.83560000  0.55930000  0.83560000  1.0 -0.0718648436
C  C53  1  0.44070000  0.16440000  0.16440000  1.0 -0.0718648436
C  C54  1  0.83560000  0.44070000  0.16440000  1.0 -0.0718648436
C  C55  1  0.55930000  0.83560000  0.16440000  1.0 -0.0718648436
C  C56  1  0.16440000  0.55930000  0.16440000  1.0 -0.0718648436
C  C57  1  0.83560000  0.44070000  0.83560000  1.0 -0.0718648436
C  C58  1  0.55930000  0.83560000  0.83560000  1.0 -0.0718648436
C  C59  1  0.16440000  0.55930000  0.83560000  1.0 -0.0718648436
C  C60  1  0.44070000  0.16440000  0.83560000  1.0 -0.0718648436
C  C61  1  0.83560000  0.55930000  0.16440000  1.0 -0.0718648436
C  C62  1  0.44070000  0.83560000  0.16440000  1.0 -0.0718648436
C  C63  1  0.16440000  0.44070000  0.16440000  1.0 -0.0718648436
C  C64  1  0.55930000  0.16440000  0.16440000  1.0 -0.0718648436
C  C65  1  0.83560000  0.83560000  0.44070000  1.0 -0.0718648436
C  C66  1  0.16440000  0.16440000  0.55930000  1.0 -0.0718648436
C  C67  1  0.16440000  0.83560000  0.44070000  1.0 -0.0718648436
C  C68  1  0.83560000  0.83560000  0.55930000  1.0 -0.0718648436
C  C69  1  0.83560000  0.16440000  0.44070000  1.0 -0.0718648436
C  C70  1  0.83560000  0.16440000  0.55930000  1.0 -0.0718648436
C  C71  1  0.16440000  0.16440000  0.44070000  1.0 -0.0718648436
C  C72  1  0.16440000  0.83560000  0.55930000  1.0 -0.0718648436
C  C73  1  0.44180000  0.78780000  0.78780000  1.0 -0.0097391516
C  C74  1  0.21220000  0.44180000  0.78780000  1.0 -0.0097391516
C  C75  1  0.55820000  0.21220000  0.78780000  1.0 -0.0097391516
C  C76  1  0.78780000  0.55820000  0.78780000  1.0 -0.0097391516
C  C77  1  0.44180000  0.21220000  0.21220000  1.0 -0.0097391516
C  C78  1  0.78780000  0.44180000  0.21220000  1.0 -0.0097391516
C  C79  1  0.55820000  0.78780000  0.21220000  1.0 -0.0097391516
C  C80  1  0.21220000  0.55820000  0.21220000  1.0 -0.0097391516
C  C81  1  0.78780000  0.44180000  0.78780000  1.0 -0.0097391516
C  C82  1  0.55820000  0.78780000  0.78780000  1.0 -0.0097391516
C  C83  1  0.21220000  0.55820000  0.78780000  1.0 -0.0097391516
C  C84  1  0.44180000  0.21220000  0.78780000  1.0 -0.0097391516
C  C85  1  0.78780000  0.55820000  0.21220000  1.0 -0.0097391516
C  C86  1  0.44180000  0.78780000  0.21220000  1.0 -0.0097391516
C  C87  1  0.21220000  0.44180000  0.21220000  1.0 -0.0097391516
C  C88  1  0.55820000  0.21220000  0.21220000  1.0 -0.0097391516
C  C89  1  0.78780000  0.78780000  0.44180000  1.0 -0.0097391516
C  C90  1  0.21220000  0.21220000  0.55820000  1.0 -0.0097391516
C  C91  1  0.21220000  0.78780000  0.44180000  1.0 -0.0097391516
C  C92  1  0.78780000  0.78780000  0.55820000  1.0 -0.0097391516
C  C93  1  0.78780000  0.21220000  0.44180000  1.0 -0.0097391516
C  C94  1  0.78780000  0.21220000  0.55820000  1.0 -0.0097391516
C  C95  1  0.21220000  0.21220000  0.44180000  1.0 -0.0097391516
C  C96  1  0.21220000  0.78780000  0.55820000  1.0 -0.0097391516
C  C97  1  0.50000000  0.76510000  0.76510000  1.0 -0.0820690035
C  C98  1  0.23490000  0.50000000  0.76510000  1.0 -0.0820690035
C  C99  1  0.50000000  0.23490000  0.76510000  1.0 -0.0820690035
C  C100  1  0.76510000  0.50000000  0.76510000  1.0 -0.0820690035
C  C101  1  0.50000000  0.23490000  0.23490000  1.0 -0.0820690035
C  C102  1  0.76510000  0.50000000  0.23490000  1.0 -0.0820690035
C  C103  1  0.50000000  0.76510000  0.23490000  1.0 -0.0820690035
C  C104  1  0.23490000  0.50000000  0.23490000  1.0 -0.0820690035
C  C105  1  0.76510000  0.76510000  0.50000000  1.0 -0.0820690035
C  C106  1  0.23490000  0.23490000  0.50000000  1.0 -0.0820690035
C  C107  1  0.23490000  0.76510000  0.50000000  1.0 -0.0820690035
C  C108  1  0.76510000  0.23490000  0.50000000  1.0 -0.0820690035
N  N1  1  0.17820000  0.82180000  0.82180000  1.0 0.7265614437
N  N2  1  0.17820000  0.17820000  0.82180000  1.0 0.7265614437
N  N3  1  0.82180000  0.17820000  0.82180000  1.0 0.7265614437
N  N4  1  0.82180000  0.82180000  0.82180000  1.0 0.7265614437
N  N5  1  0.17820000  0.17820000  0.17820000  1.0 0.7265614437
N  N6  1  0.82180000  0.17820000  0.17820000  1.0 0.7265614437
N  N7  1  0.82180000  0.82180000  0.17820000  1.0 0.7265614437
N  N8  1  0.17820000  0.82180000  0.17820000  1.0 0.7265614437
O  O1  1  0.32750000  0.78260000  0.78260000  1.0 -0.4659214214
O  O2  1  0.21740000  0.32750000  0.78260000  1.0 -0.4659214214
O  O3  1  0.67250000  0.21740000  0.78260000  1.0 -0.4659214214
O  O4  1  0.78260000  0.67250000  0.78260000  1.0 -0.4659214214
O  O5  1  0.32750000  0.21740000  0.21740000  1.0 -0.4659214214
O  O6  1  0.78260000  0.32750000  0.21740000  1.0 -0.4659214214
O  O7  1  0.67250000  0.78260000  0.21740000  1.0 -0.4659214214
O  O8  1  0.21740000  0.67250000  0.21740000  1.0 -0.4659214214
O  O9  1  0.78260000  0.32750000  0.78260000  1.0 -0.4659214214
O  O10  1  0.67250000  0.78260000  0.78260000  1.0 -0.4659214214
O  O11  1  0.21740000  0.67250000  0.78260000  1.0 -0.4659214214
O  O12  1  0.32750000  0.21740000  0.78260000  1.0 -0.4659214214
O  O13  1  0.78260000  0.67250000  0.21740000  1.0 -0.4659214214
O  O14  1  0.32750000  0.78260000  0.21740000  1.0 -0.4659214214
O  O15  1  0.21740000  0.32750000  0.21740000  1.0 -0.4659214214
O  O16  1  0.67250000  0.21740000  0.21740000  1.0 -0.4659214214
O  O17  1  0.78260000  0.78260000  0.32750000  1.0 -0.4659214214
O  O18  1  0.21740000  0.21740000  0.67250000  1.0 -0.4659214214
O  O19  1  0.21740000  0.78260000  0.32750000  1.0 -0.4659214214
O  O20  1  0.78260000  0.78260000  0.67250000  1.0 -0.4659214214
O  O21  1  0.78260000  0.21740000  0.32750000  1.0 -0.4659214214
O  O22  1  0.78260000  0.21740000  0.67250000  1.0 -0.4659214214
O  O23  1  0.21740000  0.21740000  0.32750000  1.0 -0.4659214214
O  O24  1  0.21740000  0.78260000  0.67250000  1.0 -0.4659214214
O  O25  1  0.38590000  0.71790000  0.71790000  1.0 -0.5652565641
O  O26  1  0.28210000  0.38590000  0.71790000  1.0 -0.5652565641
O  O27  1  0.61410000  0.28210000  0.71790000  1.0 -0.5652565641
O  O28  1  0.71790000  0.61410000  0.71790000  1.0 -0.5652565641
O  O29  1  0.38590000  0.28210000  0.28210000  1.0 -0.5652565641
O  O30  1  0.71790000  0.38590000  0.28210000  1.0 -0.5652565641
O  O31  1  0.61410000  0.71790000  0.28210000  1.0 -0.5652565641
O  O32  1  0.28210000  0.61410000  0.28210000  1.0 -0.5652565641
O  O33  1  0.71790000  0.38590000  0.71790000  1.0 -0.5652565641
O  O34  1  0.61410000  0.71790000  0.71790000  1.0 -0.5652565641
O  O35  1  0.28210000  0.61410000  0.71790000  1.0 -0.5652565641
O  O36  1  0.38590000  0.28210000  0.71790000  1.0 -0.5652565641
O  O37  1  0.71790000  0.61410000  0.28210000  1.0 -0.5652565641
O  O38  1  0.38590000  0.71790000  0.28210000  1.0 -0.5652565641
O  O39  1  0.28210000  0.38590000  0.28210000  1.0 -0.5652565641
O  O40  1  0.61410000  0.28210000  0.28210000  1.0 -0.5652565641
O  O41  1  0.71790000  0.71790000  0.38590000  1.0 -0.5652565641
O  O42  1  0.28210000  0.28210000  0.61410000  1.0 -0.5652565641
O  O43  1  0.28210000  0.71790000  0.38590000  1.0 -0.5652565641
O  O44  1  0.71790000  0.71790000  0.61410000  1.0 -0.5652565641
O  O45  1  0.71790000  0.28210000  0.38590000  1.0 -0.5652565641
O  O46  1  0.71790000  0.28210000  0.61410000  1.0 -0.5652565641
O  O47  1  0.28210000  0.28210000  0.38590000  1.0 -0.5652565641
O  O48  1  0.28210000  0.71790000  0.61410000  1.0 -0.5652565641
O  O49  1  0.44450000  0.93163000  0.93163000  1.0 -0.5426459693
O  O50  1  0.06837000  0.44450000  0.93163000  1.0 -0.5426459693
O  O51  1  0.55550000  0.06837000  0.93163000  1.0 -0.5426459693
O  O52  1  0.93163000  0.55550000  0.93163000  1.0 -0.5426459693
O  O53  1  0.44450000  0.06837000  0.06837000  1.0 -0.5426459693
O  O54  1  0.93163000  0.44450000  0.06837000  1.0 -0.5426459693
O  O55  1  0.55550000  0.93163000  0.06837000  1.0 -0.5426459693
O  O56  1  0.06837000  0.55550000  0.06837000  1.0 -0.5426459693
O  O57  1  0.93163000  0.44450000  0.93163000  1.0 -0.5426459693
O  O58  1  0.55550000  0.93163000  0.93163000  1.0 -0.5426459693
O  O59  1  0.06837000  0.55550000  0.93163000  1.0 -0.5426459693
O  O60  1  0.44450000  0.06837000  0.93163000  1.0 -0.5426459693
O  O61  1  0.93163000  0.55550000  0.06837000  1.0 -0.5426459693
O  O62  1  0.44450000  0.93163000  0.06837000  1.0 -0.5426459693
O  O63  1  0.06837000  0.44450000  0.06837000  1.0 -0.5426459693
O  O64  1  0.55550000  0.06837000  0.06837000  1.0 -0.5426459693
O  O65  1  0.93163000  0.93163000  0.44450000  1.0 -0.5426459693
O  O66  1  0.06837000  0.06837000  0.55550000  1.0 -0.5426459693
O  O67  1  0.06837000  0.93163000  0.44450000  1.0 -0.5426459693
O  O68  1  0.93163000  0.93163000  0.55550000  1.0 -0.5426459693
O  O69  1  0.93163000  0.06837000  0.44450000  1.0 -0.5426459693
O  O70  1  0.93163000  0.06837000  0.55550000  1.0 -0.5426459693
O  O71  1  0.06837000  0.06837000  0.44450000  1.0 -0.5426459693
O  O72  1  0.06837000  0.93163000  0.55550000  1.0 -0.5426459693
O  O73  1  0.21160000  0.78840000  0.86600000  1.0 -0.4859227521
O  O74  1  0.21160000  0.21160000  0.86600000  1.0 -0.4859227521
O  O75  1  0.78840000  0.21160000  0.86600000  1.0 -0.4859227521
O  O76  1  0.78840000  0.78840000  0.86600000  1.0 -0.4859227521
O  O77  1  0.21160000  0.21160000  0.13400000  1.0 -0.4859227521
O  O78  1  0.78840000  0.21160000  0.13400000  1.0 -0.4859227521
O  O79  1  0.78840000  0.78840000  0.13400000  1.0 -0.4859227521
O  O80  1  0.21160000  0.78840000  0.13400000  1.0 -0.4859227521
O  O81  1  0.86600000  0.21160000  0.78840000  1.0 -0.4859227521
O  O82  1  0.78840000  0.86600000  0.78840000  1.0 -0.4859227521
O  O83  1  0.13400000  0.78840000  0.78840000  1.0 -0.4859227521
O  O84  1  0.21160000  0.13400000  0.78840000  1.0 -0.4859227521
O  O85  1  0.86600000  0.78840000  0.21160000  1.0 -0.4859227521
O  O86  1  0.21160000  0.86600000  0.21160000  1.0 -0.4859227521
O  O87  1  0.13400000  0.21160000  0.21160000  1.0 -0.4859227521
O  O88  1  0.78840000  0.13400000  0.21160000  1.0 -0.4859227521
O  O89  1  0.78840000  0.86600000  0.21160000  1.0 -0.4859227521
O  O90  1  0.13400000  0.21160000  0.78840000  1.0 -0.4859227521
O  O91  1  0.13400000  0.78840000  0.21160000  1.0 -0.4859227521
O  O92  1  0.86600000  0.78840000  0.78840000  1.0 -0.4859227521
O  O93  1  0.86600000  0.21160000  0.21160000  1.0 -0.4859227521
O  O94  1  0.78840000  0.13400000  0.78840000  1.0 -0.4859227521
O  O95  1  0.21160000  0.13400000  0.21160000  1.0 -0.4859227521
O  O96  1  0.21160000  0.86600000  0.78840000  1.0 -0.4859227521
