# DDEC6 charges by PACMAN v1.1 (https://github.com/mtap-research/PACMAN-charge/)
data_GISZUD_ASR_pacman
_symmetry_space_group_name_H-M   'P 1'
_cell_length_a   8.49700000
_cell_length_b   9.16700000
_cell_length_c   12.57000000
_cell_angle_alpha   90.00000000
_cell_angle_beta   90.00000000
_cell_angle_gamma   90.00000000
_symmetry_Int_Tables_number   1
_chemical_formula_structural   CdC4
_chemical_formula_sum   'Cd4 C16'
_cell_volume   979.10242743
_cell_formula_units_Z   4
loop_
 _symmetry_equiv_pos_site_id
 _symmetry_equiv_pos_as_xyz
  1  'x, y, z'
loop_
 _atom_site_type_symbol
 _atom_site_label
 _atom_site_symmetry_multiplicity
 _atom_site_fract_x
 _atom_site_fract_y
 _atom_site_fract_z
 _atom_site_occupancy
 _atom_site_charge
Cd  Cd1  1  0.59360000  0.25000000  0.89560000  1.0 0.7399247389
Cd  Cd2  1  0.90640000  0.75000000  0.39560000  1.0 0.7399247389
Cd  Cd3  1  0.09360000  0.25000000  0.60440000  1.0 0.7399247389
Cd  Cd4  1  0.40640000  0.75000000  0.10440000  1.0 0.7399247389
C  C1  1  0.51850000  0.44530000  0.97900000  1.0 -0.192759325
C  C2  1  0.98150000  0.55470000  0.47900000  1.0 -0.197873627
C  C3  1  0.01850000  0.05470000  0.52100000  1.0 -0.197873627
C  C4  1  0.48150000  0.94530000  0.02100000  1.0 -0.197873627
C  C5  1  0.48150000  0.55470000  0.02100000  1.0 -0.197873627
C  C6  1  0.01850000  0.44530000  0.52100000  1.0 -0.197873627
C  C7  1  0.98150000  0.94530000  0.47900000  1.0 -0.197873627
C  C8  1  0.51850000  0.05470000  0.97900000  1.0 -0.192759325
C  C9  1  0.38660000  0.25000000  0.77850000  1.0 -0.0543753516
C  C10  1  0.11340000  0.75000000  0.27850000  1.0 -0.0543753516
C  C11  1  0.88660000  0.25000000  0.72150000  1.0 -0.0566205282
C  C12  1  0.61340000  0.75000000  0.22150000  1.0 -0.0566205282
C  C13  1  0.78640000  0.25000000  0.78200000  1.0 -0.291236696
C  C14  1  0.71360000  0.75000000  0.28200000  1.0 -0.291236696
C  C15  1  0.28640000  0.25000000  0.71800000  1.0 -0.291236696
C  C16  1  0.21360000  0.75000000  0.21800000  1.0 -0.291236696
