# DDEC6 charges by PACMAN v1.1 (https://github.com/mtap-research/PACMAN-charge/)
data_GITVEL01_FSR_pacman
_symmetry_space_group_name_H-M   'P 1'
_cell_length_a   27.01110000
_cell_length_b   27.01110000
_cell_length_c   18.02080000
_cell_angle_alpha   90.00000000
_cell_angle_beta   90.00000000
_cell_angle_gamma   120.00000000
_symmetry_Int_Tables_number   1
_chemical_formula_structural   Zn2H15C16N11O6
_chemical_formula_sum   'Zn24 H180 C192 N132 O72'
_cell_volume   11386.47350621
_cell_formula_units_Z   12
loop_
 _symmetry_equiv_pos_site_id
 _symmetry_equiv_pos_as_xyz
  1  'x, y, z'
loop_
 _atom_site_type_symbol
 _atom_site_label
 _atom_site_symmetry_multiplicity
 _atom_site_fract_x
 _atom_site_fract_y
 _atom_site_fract_z
 _atom_site_occupancy
 _atom_site_charge
Zn  Zn1  1  0.66722000  0.11074000  0.42034000  1.0 0.6553870531
Zn  Zn2  1  0.88926000  0.55648000  0.42034000  1.0 0.6553870531
Zn  Zn3  1  0.44352000  0.33278000  0.42034000  1.0 0.6553870531
Zn  Zn4  1  0.11074000  0.44352000  0.92034000  1.0 0.6553870531
Zn  Zn5  1  0.55648000  0.66722000  0.92034000  1.0 0.6553870531
Zn  Zn6  1  0.11074000  0.66722000  0.57966000  1.0 0.6553870531
Zn  Zn7  1  0.44352000  0.11074000  0.07966000  1.0 0.6553870531
Zn  Zn8  1  0.66722000  0.55648000  0.07966000  1.0 0.6553870531
Zn  Zn9  1  0.33278000  0.88926000  0.92034000  1.0 0.6553870531
Zn  Zn10  1  0.55648000  0.88926000  0.57966000  1.0 0.6553870531
Zn  Zn11  1  0.33278000  0.44352000  0.57966000  1.0 0.6553870531
Zn  Zn12  1  0.88926000  0.33278000  0.07966000  1.0 0.6553870531
Zn  Zn13  1  0.33278000  0.88926000  0.57966000  1.0 0.6553870531
Zn  Zn14  1  0.11074000  0.44352000  0.57966000  1.0 0.6553870531
Zn  Zn15  1  0.55648000  0.66722000  0.57966000  1.0 0.6553870531
Zn  Zn16  1  0.88926000  0.55648000  0.07966000  1.0 0.6553870531
Zn  Zn17  1  0.44352000  0.33278000  0.07966000  1.0 0.6553870531
Zn  Zn18  1  0.88926000  0.33278000  0.42034000  1.0 0.6553870531
Zn  Zn19  1  0.55648000  0.88926000  0.92034000  1.0 0.6553870531
Zn  Zn20  1  0.33278000  0.44352000  0.92034000  1.0 0.6553870531
Zn  Zn21  1  0.66722000  0.11074000  0.07966000  1.0 0.6553870531
Zn  Zn22  1  0.44352000  0.11074000  0.42034000  1.0 0.6553870531
Zn  Zn23  1  0.66722000  0.55648000  0.42034000  1.0 0.6553870531
Zn  Zn24  1  0.11074000  0.66722000  0.92034000  1.0 0.6553870531
H  H1  1  0.75530000  0.15340000  0.55480000  1.0 0.1401808501
H  H2  1  0.84660000  0.60190000  0.55480000  1.0 0.1401808501
H  H3  1  0.39810000  0.24470000  0.55480000  1.0 0.1401808501
H  H4  1  0.15340000  0.39810000  0.05480000  1.0 0.1401808501
H  H5  1  0.60190000  0.75530000  0.05480000  1.0 0.1401808501
H  H6  1  0.15340000  0.75530000  0.44520000  1.0 0.1401808501
H  H7  1  0.39810000  0.15340000  0.94520000  1.0 0.1401808501
H  H8  1  0.75530000  0.60190000  0.94520000  1.0 0.1401808501
H  H9  1  0.24470000  0.84660000  0.05480000  1.0 0.1401808501
H  H10  1  0.60190000  0.84660000  0.44520000  1.0 0.1401808501
H  H11  1  0.24470000  0.39810000  0.44520000  1.0 0.1401808501
H  H12  1  0.84660000  0.24470000  0.94520000  1.0 0.1401808501
H  H13  1  0.24470000  0.84660000  0.44520000  1.0 0.1401808501
H  H14  1  0.15340000  0.39810000  0.44520000  1.0 0.1401808501
H  H15  1  0.60190000  0.75530000  0.44520000  1.0 0.1401808501
H  H16  1  0.84660000  0.60190000  0.94520000  1.0 0.1401808501
H  H17  1  0.39810000  0.24470000  0.94520000  1.0 0.1401808501
H  H18  1  0.84660000  0.24470000  0.55480000  1.0 0.1401808501
H  H19  1  0.60190000  0.84660000  0.05480000  1.0 0.1401808501
H  H20  1  0.24470000  0.39810000  0.05480000  1.0 0.1401808501
H  H21  1  0.75530000  0.15340000  0.94520000  1.0 0.1401808501
H  H22  1  0.39810000  0.15340000  0.55480000  1.0 0.1401808501
H  H23  1  0.75530000  0.60190000  0.55480000  1.0 0.1401808501
H  H24  1  0.15340000  0.75530000  0.05480000  1.0 0.1401808501
H  H25  1  0.77660000  0.22340000  0.37110000  1.0 0.120282135
H  H26  1  0.77660000  0.55320000  0.37110000  1.0 0.120282135
H  H27  1  0.44680000  0.22340000  0.37110000  1.0 0.120282135
H  H28  1  0.22340000  0.44680000  0.87110000  1.0 0.120282135
H  H29  1  0.55320000  0.77660000  0.87110000  1.0 0.120282135
H  H30  1  0.22340000  0.77660000  0.62890000  1.0 0.120282135
H  H31  1  0.44680000  0.22340000  0.12890000  1.0 0.120282135
H  H32  1  0.77660000  0.55320000  0.12890000  1.0 0.120282135
H  H33  1  0.22340000  0.77660000  0.87110000  1.0 0.120282135
H  H34  1  0.55320000  0.77660000  0.62890000  1.0 0.120282135
H  H35  1  0.22340000  0.44680000  0.62890000  1.0 0.120282135
H  H36  1  0.77660000  0.22340000  0.12890000  1.0 0.120282135
H  H37  1  0.66810000  0.01540000  0.31790000  1.0 0.1251379044
H  H38  1  0.98460000  0.65270000  0.31790000  1.0 0.1251379044
H  H39  1  0.34730000  0.33190000  0.31790000  1.0 0.1251379044
H  H40  1  0.01540000  0.34730000  0.81790000  1.0 0.1251379044
H  H41  1  0.65270000  0.66810000  0.81790000  1.0 0.1251379044
H  H42  1  0.01540000  0.66810000  0.68210000  1.0 0.1251379044
H  H43  1  0.34730000  0.01540000  0.18210000  1.0 0.1251379044
H  H44  1  0.66810000  0.65270000  0.18210000  1.0 0.1251379044
H  H45  1  0.33190000  0.98460000  0.81790000  1.0 0.1251379044
H  H46  1  0.65270000  0.98460000  0.68210000  1.0 0.1251379044
H  H47  1  0.33190000  0.34730000  0.68210000  1.0 0.1251379044
H  H48  1  0.98460000  0.33190000  0.18210000  1.0 0.1251379044
H  H49  1  0.33190000  0.98460000  0.68210000  1.0 0.1251379044
H  H50  1  0.01540000  0.34730000  0.68210000  1.0 0.1251379044
H  H51  1  0.65270000  0.66810000  0.68210000  1.0 0.1251379044
H  H52  1  0.98460000  0.65270000  0.18210000  1.0 0.1251379044
H  H53  1  0.34730000  0.33190000  0.18210000  1.0 0.1251379044
H  H54  1  0.98460000  0.33190000  0.31790000  1.0 0.1251379044
H  H55  1  0.65270000  0.98460000  0.81790000  1.0 0.1251379044
H  H56  1  0.33190000  0.34730000  0.81790000  1.0 0.1251379044
H  H57  1  0.66810000  0.01540000  0.18210000  1.0 0.1251379044
H  H58  1  0.34730000  0.01540000  0.31790000  1.0 0.1251379044
H  H59  1  0.66810000  0.65270000  0.31790000  1.0 0.1251379044
H  H60  1  0.01540000  0.66810000  0.81790000  1.0 0.1251379044
H  H61  1  0.54615000  0.09230000  0.37270000  1.0 0.1881836272
H  H62  1  0.90770000  0.45385000  0.37270000  1.0 0.1881836272
H  H63  1  0.54615000  0.45385000  0.37270000  1.0 0.1881836272
H  H64  1  0.09230000  0.54615000  0.87270000  1.0 0.1881836272
H  H65  1  0.45385000  0.54615000  0.87270000  1.0 0.1881836272
H  H66  1  0.09230000  0.54615000  0.62730000  1.0 0.1881836272
H  H67  1  0.54615000  0.09230000  0.12730000  1.0 0.1881836272
H  H68  1  0.54615000  0.45385000  0.12730000  1.0 0.1881836272
H  H69  1  0.45385000  0.90770000  0.87270000  1.0 0.1881836272
H  H70  1  0.45385000  0.90770000  0.62730000  1.0 0.1881836272
H  H71  1  0.45385000  0.54615000  0.62730000  1.0 0.1881836272
H  H72  1  0.90770000  0.45385000  0.12730000  1.0 0.1881836272
H  H73  1  0.59870000  0.10760000  0.56800000  1.0 0.1093636767
H  H74  1  0.89240000  0.49110000  0.56800000  1.0 0.1093636767
H  H75  1  0.50890000  0.40130000  0.56800000  1.0 0.1093636767
H  H76  1  0.10760000  0.50890000  0.06800000  1.0 0.1093636767
H  H77  1  0.49110000  0.59870000  0.06800000  1.0 0.1093636767
H  H78  1  0.10760000  0.59870000  0.43200000  1.0 0.1093636767
H  H79  1  0.50890000  0.10760000  0.93200000  1.0 0.1093636767
H  H80  1  0.59870000  0.49110000  0.93200000  1.0 0.1093636767
H  H81  1  0.40130000  0.89240000  0.06800000  1.0 0.1093636767
H  H82  1  0.49110000  0.89240000  0.43200000  1.0 0.1093636767
H  H83  1  0.40130000  0.50890000  0.43200000  1.0 0.1093636767
H  H84  1  0.89240000  0.40130000  0.93200000  1.0 0.1093636767
H  H85  1  0.40130000  0.89240000  0.43200000  1.0 0.1093636767
H  H86  1  0.10760000  0.50890000  0.43200000  1.0 0.1093636767
H  H87  1  0.49110000  0.59870000  0.43200000  1.0 0.1093636767
H  H88  1  0.89240000  0.49110000  0.93200000  1.0 0.1093636767
H  H89  1  0.50890000  0.40130000  0.93200000  1.0 0.1093636767
H  H90  1  0.89240000  0.40130000  0.56800000  1.0 0.1093636767
H  H91  1  0.49110000  0.89240000  0.06800000  1.0 0.1093636767
H  H92  1  0.40130000  0.50890000  0.06800000  1.0 0.1093636767
H  H93  1  0.59870000  0.10760000  0.93200000  1.0 0.1093636767
H  H94  1  0.50890000  0.10760000  0.56800000  1.0 0.1093636767
H  H95  1  0.59870000  0.49110000  0.56800000  1.0 0.1093636767
H  H96  1  0.10760000  0.59870000  0.06800000  1.0 0.1093636767
H  H97  1  0.73800000  0.04640000  0.46960000  1.0 0.120282135
H  H98  1  0.95360000  0.69160000  0.46960000  1.0 0.120282135
H  H99  1  0.30840000  0.26200000  0.46960000  1.0 0.120282135
H  H100  1  0.04640000  0.30840000  0.96960000  1.0 0.120282135
H  H101  1  0.69160000  0.73800000  0.96960000  1.0 0.120282135
H  H102  1  0.04640000  0.73800000  0.53040000  1.0 0.120282135
H  H103  1  0.30840000  0.04640000  0.03040000  1.0 0.120282135
H  H104  1  0.73800000  0.69160000  0.03040000  1.0 0.120282135
H  H105  1  0.26200000  0.95360000  0.96960000  1.0 0.120282135
H  H106  1  0.69160000  0.95360000  0.53040000  1.0 0.120282135
H  H107  1  0.26200000  0.30840000  0.53040000  1.0 0.120282135
H  H108  1  0.95360000  0.26200000  0.03040000  1.0 0.120282135
H  H109  1  0.26200000  0.95360000  0.53040000  1.0 0.120282135
H  H110  1  0.04640000  0.30840000  0.53040000  1.0 0.120282135
H  H111  1  0.69160000  0.73800000  0.53040000  1.0 0.120282135
H  H112  1  0.95360000  0.69160000  0.03040000  1.0 0.120282135
H  H113  1  0.30840000  0.26200000  0.03040000  1.0 0.120282135
H  H114  1  0.95360000  0.26200000  0.46960000  1.0 0.120282135
H  H115  1  0.69160000  0.95360000  0.96960000  1.0 0.120282135
H  H116  1  0.26200000  0.30840000  0.96960000  1.0 0.120282135
H  H117  1  0.73800000  0.04640000  0.03040000  1.0 0.120282135
H  H118  1  0.30840000  0.04640000  0.46960000  1.0 0.120282135
H  H119  1  0.73800000  0.69160000  0.46960000  1.0 0.120282135
H  H120  1  0.04640000  0.73800000  0.96960000  1.0 0.120282135
H  H121  1  0.57850000  0.00000000  0.50000000  1.0 0.1018002571
H  H122  1  0.00000000  0.57850000  0.50000000  1.0 0.1018002571
H  H123  1  0.42150000  0.42150000  0.50000000  1.0 0.1018002571
H  H124  1  0.00000000  0.42150000  0.00000000  1.0 0.1018002571
H  H125  1  0.57850000  0.57850000  0.00000000  1.0 0.1018002571
H  H126  1  0.42150000  0.00000000  0.00000000  1.0 0.1018002571
H  H127  1  0.42150000  0.00000000  0.50000000  1.0 0.1018002571
H  H128  1  0.00000000  0.42150000  0.50000000  1.0 0.1018002571
H  H129  1  0.57850000  0.57850000  0.50000000  1.0 0.1018002571
H  H130  1  0.00000000  0.57850000  0.00000000  1.0 0.1018002571
H  H131  1  0.42150000  0.42150000  0.00000000  1.0 0.1018002571
H  H132  1  0.57850000  0.00000000  0.00000000  1.0 0.1018002571
H  H133  1  0.68530000  0.21880000  0.50510000  1.0 0.0947568165
H  H134  1  0.78120000  0.46650000  0.50510000  1.0 0.0947568165
H  H135  1  0.53350000  0.31470000  0.50510000  1.0 0.0947568165
H  H136  1  0.21880000  0.53350000  0.00510000  1.0 0.0947568165
H  H137  1  0.46650000  0.68530000  0.00510000  1.0 0.0947568165
H  H138  1  0.21880000  0.68530000  0.49490000  1.0 0.0947568165
H  H139  1  0.53350000  0.21880000  0.99490000  1.0 0.0947568165
H  H140  1  0.68530000  0.46650000  0.99490000  1.0 0.0947568165
H  H141  1  0.31470000  0.78120000  0.00510000  1.0 0.0947568165
H  H142  1  0.46650000  0.78120000  0.49490000  1.0 0.0947568165
H  H143  1  0.31470000  0.53350000  0.49490000  1.0 0.0947568165
H  H144  1  0.78120000  0.31470000  0.99490000  1.0 0.0947568165
H  H145  1  0.31470000  0.78120000  0.49490000  1.0 0.0947568165
H  H146  1  0.21880000  0.53350000  0.49490000  1.0 0.0947568165
H  H147  1  0.46650000  0.68530000  0.49490000  1.0 0.0947568165
H  H148  1  0.78120000  0.46650000  0.99490000  1.0 0.0947568165
H  H149  1  0.53350000  0.31470000  0.99490000  1.0 0.0947568165
H  H150  1  0.78120000  0.31470000  0.50510000  1.0 0.0947568165
H  H151  1  0.46650000  0.78120000  0.00510000  1.0 0.0947568165
H  H152  1  0.31470000  0.53350000  0.00510000  1.0 0.0947568165
H  H153  1  0.68530000  0.21880000  0.99490000  1.0 0.0947568165
H  H154  1  0.53350000  0.21880000  0.50510000  1.0 0.0947568165
H  H155  1  0.68530000  0.46650000  0.50510000  1.0 0.0947568165
H  H156  1  0.21880000  0.68530000  0.00510000  1.0 0.0947568165
H  H157  1  0.64280000  0.19350000  0.51720000  1.0 0.0700508819
H  H158  1  0.80650000  0.44930000  0.51720000  1.0 0.0700508819
H  H159  1  0.55070000  0.35720000  0.51720000  1.0 0.0700508819
H  H160  1  0.19350000  0.55070000  0.01720000  1.0 0.0700508819
H  H161  1  0.44930000  0.64280000  0.01720000  1.0 0.0700508819
H  H162  1  0.19350000  0.64280000  0.48280000  1.0 0.0700508819
H  H163  1  0.55070000  0.19350000  0.98280000  1.0 0.0700508819
H  H164  1  0.64280000  0.44930000  0.98280000  1.0 0.0700508819
H  H165  1  0.35720000  0.80650000  0.01720000  1.0 0.0700508819
H  H166  1  0.44930000  0.80650000  0.48280000  1.0 0.0700508819
H  H167  1  0.35720000  0.55070000  0.48280000  1.0 0.0700508819
H  H168  1  0.80650000  0.35720000  0.98280000  1.0 0.0700508819
H  H169  1  0.35720000  0.80650000  0.48280000  1.0 0.0700508819
H  H170  1  0.19350000  0.55070000  0.48280000  1.0 0.0700508819
H  H171  1  0.44930000  0.64280000  0.48280000  1.0 0.0700508819
H  H172  1  0.80650000  0.44930000  0.98280000  1.0 0.0700508819
H  H173  1  0.55070000  0.35720000  0.98280000  1.0 0.0700508819
H  H174  1  0.80650000  0.35720000  0.51720000  1.0 0.0700508819
H  H175  1  0.44930000  0.80650000  0.01720000  1.0 0.0700508819
H  H176  1  0.35720000  0.55070000  0.01720000  1.0 0.0700508819
H  H177  1  0.64280000  0.19350000  0.98280000  1.0 0.0700508819
H  H178  1  0.55070000  0.19350000  0.51720000  1.0 0.0700508819
H  H179  1  0.64280000  0.44930000  0.51720000  1.0 0.0700508819
H  H180  1  0.19350000  0.64280000  0.01720000  1.0 0.0700508819
C  C1  1  0.76750000  0.18170000  0.51860000  1.0 -0.0782778232
C  C2  1  0.81830000  0.58580000  0.51860000  1.0 -0.0782778232
C  C3  1  0.41420000  0.23250000  0.51860000  1.0 -0.0782778232
C  C4  1  0.18170000  0.41420000  0.01860000  1.0 -0.0782778232
C  C5  1  0.58580000  0.76750000  0.01860000  1.0 -0.0782778232
C  C6  1  0.18170000  0.76750000  0.48140000  1.0 -0.0782778232
C  C7  1  0.41420000  0.18170000  0.98140000  1.0 -0.0782778232
C  C8  1  0.76750000  0.58580000  0.98140000  1.0 -0.0782778232
C  C9  1  0.23250000  0.81830000  0.01860000  1.0 -0.0782778232
C  C10  1  0.58580000  0.81830000  0.48140000  1.0 -0.0782778232
C  C11  1  0.23250000  0.41420000  0.48140000  1.0 -0.0782778232
C  C12  1  0.81830000  0.23250000  0.98140000  1.0 -0.0782778232
C  C13  1  0.23250000  0.81830000  0.48140000  1.0 -0.0782778232
C  C14  1  0.18170000  0.41420000  0.48140000  1.0 -0.0782778232
C  C15  1  0.58580000  0.76750000  0.48140000  1.0 -0.0782778232
C  C16  1  0.81830000  0.58580000  0.98140000  1.0 -0.0782778232
C  C17  1  0.41420000  0.23250000  0.98140000  1.0 -0.0782778232
C  C18  1  0.81830000  0.23250000  0.51860000  1.0 -0.0782778232
C  C19  1  0.58580000  0.81830000  0.01860000  1.0 -0.0782778232
C  C20  1  0.23250000  0.41420000  0.01860000  1.0 -0.0782778232
C  C21  1  0.76750000  0.18170000  0.98140000  1.0 -0.0782778232
C  C22  1  0.41420000  0.18170000  0.51860000  1.0 -0.0782778232
C  C23  1  0.76750000  0.58580000  0.51860000  1.0 -0.0782778232
C  C24  1  0.18170000  0.76750000  0.01860000  1.0 -0.0782778232
C  C25  1  0.77794000  0.22206000  0.42260000  1.0 0.1650627644
C  C26  1  0.77794000  0.55588000  0.42260000  1.0 0.1650627644
C  C27  1  0.44412000  0.22206000  0.42260000  1.0 0.1650627644
C  C28  1  0.22206000  0.44412000  0.92260000  1.0 0.1650627644
C  C29  1  0.55588000  0.77794000  0.92260000  1.0 0.1650627644
C  C30  1  0.22206000  0.77794000  0.57740000  1.0 0.1650627644
C  C31  1  0.44412000  0.22206000  0.07740000  1.0 0.1650627644
C  C32  1  0.77794000  0.55588000  0.07740000  1.0 0.1650627644
C  C33  1  0.22206000  0.77794000  0.92260000  1.0 0.1650627644
C  C34  1  0.55588000  0.77794000  0.57740000  1.0 0.1650627644
C  C35  1  0.22206000  0.44412000  0.57740000  1.0 0.1650627644
C  C36  1  0.77794000  0.22206000  0.07740000  1.0 0.1650627644
C  C37  1  0.66840000  0.04360000  0.28800000  1.0 0.0129760823
C  C38  1  0.95640000  0.62480000  0.28800000  1.0 0.0129760823
C  C39  1  0.37520000  0.33160000  0.28800000  1.0 0.0129760823
C  C40  1  0.04360000  0.37520000  0.78800000  1.0 0.0129760823
C  C41  1  0.62480000  0.66840000  0.78800000  1.0 0.0129760823
C  C42  1  0.04360000  0.66840000  0.71200000  1.0 0.0129760823
C  C43  1  0.37520000  0.04360000  0.21200000  1.0 0.0129760823
C  C44  1  0.66840000  0.62480000  0.21200000  1.0 0.0129760823
C  C45  1  0.33160000  0.95640000  0.78800000  1.0 0.0129760823
C  C46  1  0.62480000  0.95640000  0.71200000  1.0 0.0129760823
C  C47  1  0.33160000  0.37520000  0.71200000  1.0 0.0129760823
C  C48  1  0.95640000  0.33160000  0.21200000  1.0 0.0129760823
C  C49  1  0.33160000  0.95640000  0.71200000  1.0 0.0129760823
C  C50  1  0.04360000  0.37520000  0.71200000  1.0 0.0129760823
C  C51  1  0.62480000  0.66840000  0.71200000  1.0 0.0129760823
C  C52  1  0.95640000  0.62480000  0.21200000  1.0 0.0129760823
C  C53  1  0.37520000  0.33160000  0.21200000  1.0 0.0129760823
C  C54  1  0.95640000  0.33160000  0.28800000  1.0 0.0129760823
C  C55  1  0.62480000  0.95640000  0.78800000  1.0 0.0129760823
C  C56  1  0.33160000  0.37520000  0.78800000  1.0 0.0129760823
C  C57  1  0.66840000  0.04360000  0.21200000  1.0 0.0129760823
C  C58  1  0.37520000  0.04360000  0.28800000  1.0 0.0129760823
C  C59  1  0.66840000  0.62480000  0.28800000  1.0 0.0129760823
C  C60  1  0.04360000  0.66840000  0.78800000  1.0 0.0129760823
C  C61  1  0.66847000  0.11563000  0.25000000  1.0 0.288015377
C  C62  1  0.88437000  0.55284000  0.25000000  1.0 0.288015377
C  C63  1  0.44716000  0.33153000  0.25000000  1.0 0.288015377
C  C64  1  0.11563000  0.44716000  0.75000000  1.0 0.288015377
C  C65  1  0.55284000  0.66847000  0.75000000  1.0 0.288015377
C  C66  1  0.11563000  0.66847000  0.75000000  1.0 0.288015377
C  C67  1  0.44716000  0.11563000  0.25000000  1.0 0.288015377
C  C68  1  0.66847000  0.55284000  0.25000000  1.0 0.288015377
C  C69  1  0.33153000  0.88437000  0.75000000  1.0 0.288015377
C  C70  1  0.55284000  0.88437000  0.75000000  1.0 0.288015377
C  C71  1  0.33153000  0.44716000  0.75000000  1.0 0.288015377
C  C72  1  0.88437000  0.33153000  0.25000000  1.0 0.288015377
C  C73  1  0.55360000  0.10720000  0.42050000  1.0 0.1251379044
C  C74  1  0.89280000  0.44640000  0.42050000  1.0 0.1251379044
C  C75  1  0.55360000  0.44640000  0.42050000  1.0 0.1251379044
C  C76  1  0.10720000  0.55360000  0.92050000  1.0 0.1251379044
C  C77  1  0.44640000  0.55360000  0.92050000  1.0 0.1251379044
C  C78  1  0.10720000  0.55360000  0.57950000  1.0 0.1251379044
C  C79  1  0.55360000  0.10720000  0.07950000  1.0 0.1251379044
C  C80  1  0.55360000  0.44640000  0.07950000  1.0 0.1251379044
C  C81  1  0.44640000  0.89280000  0.92050000  1.0 0.1251379044
C  C82  1  0.44640000  0.89280000  0.57950000  1.0 0.1251379044
C  C83  1  0.44640000  0.55360000  0.57950000  1.0 0.1251379044
C  C84  1  0.89280000  0.44640000  0.07950000  1.0 0.1251379044
C  C85  1  0.58050000  0.11120000  0.52640000  1.0 -0.0422289477
C  C86  1  0.88880000  0.46930000  0.52640000  1.0 -0.0422289477
C  C87  1  0.53070000  0.41950000  0.52640000  1.0 -0.0422289477
C  C88  1  0.11120000  0.53070000  0.02640000  1.0 -0.0422289477
C  C89  1  0.46930000  0.58050000  0.02640000  1.0 -0.0422289477
C  C90  1  0.11120000  0.58050000  0.47360000  1.0 -0.0422289477
C  C91  1  0.53070000  0.11120000  0.97360000  1.0 -0.0422289477
C  C92  1  0.58050000  0.46930000  0.97360000  1.0 -0.0422289477
C  C93  1  0.41950000  0.88880000  0.02640000  1.0 -0.0422289477
C  C94  1  0.46930000  0.88880000  0.47360000  1.0 -0.0422289477
C  C95  1  0.41950000  0.53070000  0.47360000  1.0 -0.0422289477
C  C96  1  0.88880000  0.41950000  0.97360000  1.0 -0.0422289477
C  C97  1  0.41950000  0.88880000  0.47360000  1.0 -0.0422289477
C  C98  1  0.11120000  0.53070000  0.47360000  1.0 -0.0422289477
C  C99  1  0.46930000  0.58050000  0.47360000  1.0 -0.0422289477
C  C100  1  0.88880000  0.46930000  0.97360000  1.0 -0.0422289477
C  C101  1  0.53070000  0.41950000  0.97360000  1.0 -0.0422289477
C  C102  1  0.88880000  0.41950000  0.52640000  1.0 -0.0422289477
C  C103  1  0.46930000  0.88880000  0.02640000  1.0 -0.0422289477
C  C104  1  0.41950000  0.53070000  0.02640000  1.0 -0.0422289477
C  C105  1  0.58050000  0.11120000  0.97360000  1.0 -0.0422289477
C  C106  1  0.53070000  0.11120000  0.52640000  1.0 -0.0422289477
C  C107  1  0.58050000  0.46930000  0.52640000  1.0 -0.0422289477
C  C108  1  0.11120000  0.58050000  0.02640000  1.0 -0.0422289477
C  C109  1  0.69961000  0.02573000  0.48300000  1.0 -0.058942878
C  C110  1  0.97427000  0.67388000  0.48300000  1.0 -0.058942878
C  C111  1  0.32612000  0.30039000  0.48300000  1.0 -0.058942878
C  C112  1  0.02573000  0.32612000  0.98300000  1.0 -0.058942878
C  C113  1  0.67388000  0.69961000  0.98300000  1.0 -0.058942878
C  C114  1  0.02573000  0.69961000  0.51700000  1.0 -0.058942878
C  C115  1  0.32612000  0.02573000  0.01700000  1.0 -0.058942878
C  C116  1  0.69961000  0.67388000  0.01700000  1.0 -0.058942878
C  C117  1  0.30039000  0.97427000  0.98300000  1.0 -0.058942878
C  C118  1  0.67388000  0.97427000  0.51700000  1.0 -0.058942878
C  C119  1  0.30039000  0.32612000  0.51700000  1.0 -0.058942878
C  C120  1  0.97427000  0.30039000  0.01700000  1.0 -0.058942878
C  C121  1  0.30039000  0.97427000  0.51700000  1.0 -0.058942878
C  C122  1  0.02573000  0.32612000  0.51700000  1.0 -0.058942878
C  C123  1  0.67388000  0.69961000  0.51700000  1.0 -0.058942878
C  C124  1  0.97427000  0.67388000  0.01700000  1.0 -0.058942878
C  C125  1  0.32612000  0.30039000  0.01700000  1.0 -0.058942878
C  C126  1  0.97427000  0.30039000  0.48300000  1.0 -0.058942878
C  C127  1  0.67388000  0.97427000  0.98300000  1.0 -0.058942878
C  C128  1  0.30039000  0.32612000  0.98300000  1.0 -0.058942878
C  C129  1  0.69961000  0.02573000  0.01700000  1.0 -0.058942878
C  C130  1  0.32612000  0.02573000  0.48300000  1.0 -0.058942878
C  C131  1  0.69961000  0.67388000  0.48300000  1.0 -0.058942878
C  C132  1  0.02573000  0.69961000  0.98300000  1.0 -0.058942878
C  C133  1  0.61292000  0.00000000  0.50000000  1.0 0.1473093967
C  C134  1  0.00000000  0.61292000  0.50000000  1.0 0.1473093967
C  C135  1  0.38708000  0.38708000  0.50000000  1.0 0.1473093967
C  C136  1  0.00000000  0.38708000  0.00000000  1.0 0.1473093967
C  C137  1  0.61292000  0.61292000  0.00000000  1.0 0.1473093967
C  C138  1  0.38708000  0.00000000  0.00000000  1.0 0.1473093967
C  C139  1  0.38708000  0.00000000  0.50000000  1.0 0.1473093967
C  C140  1  0.00000000  0.38708000  0.50000000  1.0 0.1473093967
C  C141  1  0.61292000  0.61292000  0.50000000  1.0 0.1473093967
C  C142  1  0.00000000  0.61292000  0.00000000  1.0 0.1473093967
C  C143  1  0.38708000  0.38708000  0.00000000  1.0 0.1473093967
C  C144  1  0.61292000  0.00000000  0.00000000  1.0 0.1473093967
C  C145  1  0.72090000  0.22560000  0.48910000  1.0 -0.1572074352
C  C146  1  0.77440000  0.49530000  0.48910000  1.0 -0.1572074352
C  C147  1  0.50470000  0.27910000  0.48910000  1.0 -0.1572074352
C  C148  1  0.22560000  0.50470000  0.98910000  1.0 -0.1572074352
C  C149  1  0.49530000  0.72090000  0.98910000  1.0 -0.1572074352
C  C150  1  0.22560000  0.72090000  0.51090000  1.0 -0.1572074352
C  C151  1  0.50470000  0.22560000  0.01090000  1.0 -0.1572074352
C  C152  1  0.72090000  0.49530000  0.01090000  1.0 -0.1572074352
C  C153  1  0.27910000  0.77440000  0.98910000  1.0 -0.1572074352
C  C154  1  0.49530000  0.77440000  0.51090000  1.0 -0.1572074352
C  C155  1  0.27910000  0.50470000  0.51090000  1.0 -0.1572074352
C  C156  1  0.77440000  0.27910000  0.01090000  1.0 -0.1572074352
C  C157  1  0.27910000  0.77440000  0.51090000  1.0 -0.1572074352
C  C158  1  0.22560000  0.50470000  0.51090000  1.0 -0.1572074352
C  C159  1  0.49530000  0.72090000  0.51090000  1.0 -0.1572074352
C  C160  1  0.77440000  0.49530000  0.01090000  1.0 -0.1572074352
C  C161  1  0.50470000  0.27910000  0.01090000  1.0 -0.1572074352
C  C162  1  0.77440000  0.27910000  0.48910000  1.0 -0.1572074352
C  C163  1  0.49530000  0.77440000  0.98910000  1.0 -0.1572074352
C  C164  1  0.27910000  0.50470000  0.98910000  1.0 -0.1572074352
C  C165  1  0.72090000  0.22560000  0.01090000  1.0 -0.1572074352
C  C166  1  0.50470000  0.22560000  0.48910000  1.0 -0.1572074352
C  C167  1  0.72090000  0.49530000  0.48910000  1.0 -0.1572074352
C  C168  1  0.22560000  0.72090000  0.98910000  1.0 -0.1572074352
C  C169  1  0.60890000  0.16660000  0.49470000  1.0 -0.0203164855
C  C170  1  0.83340000  0.44230000  0.49470000  1.0 -0.0203164855
C  C171  1  0.55770000  0.39110000  0.49470000  1.0 -0.0203164855
C  C172  1  0.16660000  0.55770000  0.99470000  1.0 -0.0203164855
C  C173  1  0.44230000  0.60890000  0.99470000  1.0 -0.0203164855
C  C174  1  0.16660000  0.60890000  0.50530000  1.0 -0.0203164855
C  C175  1  0.55770000  0.16660000  0.00530000  1.0 -0.0203164855
C  C176  1  0.60890000  0.44230000  0.00530000  1.0 -0.0203164855
C  C177  1  0.39110000  0.83340000  0.99470000  1.0 -0.0203164855
C  C178  1  0.44230000  0.83340000  0.50530000  1.0 -0.0203164855
C  C179  1  0.39110000  0.55770000  0.50530000  1.0 -0.0203164855
C  C180  1  0.83340000  0.39110000  0.00530000  1.0 -0.0203164855
C  C181  1  0.39110000  0.83340000  0.50530000  1.0 -0.0203164855
C  C182  1  0.16660000  0.55770000  0.50530000  1.0 -0.0203164855
C  C183  1  0.44230000  0.60890000  0.50530000  1.0 -0.0203164855
C  C184  1  0.83340000  0.44230000  0.00530000  1.0 -0.0203164855
C  C185  1  0.55770000  0.39110000  0.00530000  1.0 -0.0203164855
C  C186  1  0.83340000  0.39110000  0.49470000  1.0 -0.0203164855
C  C187  1  0.44230000  0.83340000  0.99470000  1.0 -0.0203164855
C  C188  1  0.39110000  0.55770000  0.99470000  1.0 -0.0203164855
C  C189  1  0.60890000  0.16660000  0.00530000  1.0 -0.0203164855
C  C190  1  0.55770000  0.16660000  0.49470000  1.0 -0.0203164855
C  C191  1  0.60890000  0.44230000  0.49470000  1.0 -0.0203164855
C  C192  1  0.16660000  0.60890000  0.99470000  1.0 -0.0203164855
N  N1  1  0.73738000  0.17988000  0.45456000  1.0 -0.1572074352
N  N2  1  0.82012000  0.55750000  0.45456000  1.0 -0.1572074352
N  N3  1  0.44250000  0.26262000  0.45456000  1.0 -0.1572074352
N  N4  1  0.17988000  0.44250000  0.95456000  1.0 -0.1572074352
N  N5  1  0.55750000  0.73738000  0.95456000  1.0 -0.1572074352
N  N6  1  0.17988000  0.73738000  0.54544000  1.0 -0.1572074352
N  N7  1  0.44250000  0.17988000  0.04544000  1.0 -0.1572074352
N  N8  1  0.73738000  0.55750000  0.04544000  1.0 -0.1572074352
N  N9  1  0.26262000  0.82012000  0.95456000  1.0 -0.1572074352
N  N10  1  0.55750000  0.82012000  0.54544000  1.0 -0.1572074352
N  N11  1  0.26262000  0.44250000  0.54544000  1.0 -0.1572074352
N  N12  1  0.82012000  0.26262000  0.04544000  1.0 -0.1572074352
N  N13  1  0.26262000  0.82012000  0.54544000  1.0 -0.1572074352
N  N14  1  0.17988000  0.44250000  0.54544000  1.0 -0.1572074352
N  N15  1  0.55750000  0.73738000  0.54544000  1.0 -0.1572074352
N  N16  1  0.82012000  0.55750000  0.04544000  1.0 -0.1572074352
N  N17  1  0.44250000  0.26262000  0.04544000  1.0 -0.1572074352
N  N18  1  0.82012000  0.26262000  0.45456000  1.0 -0.1572074352
N  N19  1  0.55750000  0.82012000  0.95456000  1.0 -0.1572074352
N  N20  1  0.26262000  0.44250000  0.95456000  1.0 -0.1572074352
N  N21  1  0.73738000  0.17988000  0.04544000  1.0 -0.1572074352
N  N22  1  0.44250000  0.17988000  0.45456000  1.0 -0.1572074352
N  N23  1  0.73738000  0.55750000  0.45456000  1.0 -0.1572074352
N  N24  1  0.17988000  0.73738000  0.95456000  1.0 -0.1572074352
N  N25  1  0.66891000  0.09101000  0.31240000  1.0 -0.312303919
N  N26  1  0.90899000  0.57790000  0.31240000  1.0 -0.312303919
N  N27  1  0.42210000  0.33109000  0.31240000  1.0 -0.312303919
N  N28  1  0.09101000  0.42210000  0.81240000  1.0 -0.312303919
N  N29  1  0.57790000  0.66891000  0.81240000  1.0 -0.312303919
N  N30  1  0.09101000  0.66891000  0.68760000  1.0 -0.312303919
N  N31  1  0.42210000  0.09101000  0.18760000  1.0 -0.312303919
N  N32  1  0.66891000  0.57790000  0.18760000  1.0 -0.312303919
N  N33  1  0.33109000  0.90899000  0.81240000  1.0 -0.312303919
N  N34  1  0.57790000  0.90899000  0.68760000  1.0 -0.312303919
N  N35  1  0.33109000  0.42210000  0.68760000  1.0 -0.312303919
N  N36  1  0.90899000  0.33109000  0.18760000  1.0 -0.312303919
N  N37  1  0.33109000  0.90899000  0.68760000  1.0 -0.312303919
N  N38  1  0.09101000  0.42210000  0.68760000  1.0 -0.312303919
N  N39  1  0.57790000  0.66891000  0.68760000  1.0 -0.312303919
N  N40  1  0.90899000  0.57790000  0.18760000  1.0 -0.312303919
N  N41  1  0.42210000  0.33109000  0.18760000  1.0 -0.312303919
N  N42  1  0.90899000  0.33109000  0.31240000  1.0 -0.312303919
N  N43  1  0.57790000  0.90899000  0.81240000  1.0 -0.312303919
N  N44  1  0.33109000  0.42210000  0.81240000  1.0 -0.312303919
N  N45  1  0.66891000  0.09101000  0.18760000  1.0 -0.312303919
N  N46  1  0.42210000  0.09101000  0.31240000  1.0 -0.312303919
N  N47  1  0.66891000  0.57790000  0.31240000  1.0 -0.312303919
N  N48  1  0.09101000  0.66891000  0.81240000  1.0 -0.312303919
N  N49  1  0.66801000  0.16954000  0.25000000  1.0 0.2808965779
N  N50  1  0.83046000  0.49847000  0.25000000  1.0 0.2808965779
N  N51  1  0.50153000  0.33199000  0.25000000  1.0 0.2808965779
N  N52  1  0.16954000  0.50153000  0.75000000  1.0 0.2808965779
N  N53  1  0.49847000  0.66801000  0.75000000  1.0 0.2808965779
N  N54  1  0.16954000  0.66801000  0.75000000  1.0 0.2808965779
N  N55  1  0.50153000  0.16954000  0.25000000  1.0 0.2808965779
N  N56  1  0.66801000  0.49847000  0.25000000  1.0 0.288015377
N  N57  1  0.33199000  0.83046000  0.75000000  1.0 0.2808965779
N  N58  1  0.49847000  0.83046000  0.75000000  1.0 0.2808965779
N  N59  1  0.33199000  0.50153000  0.75000000  1.0 0.2808965779
N  N60  1  0.83046000  0.33199000  0.25000000  1.0 0.2808965779
N  N61  1  0.60020000  0.11761000  0.45380000  1.0 -0.2647888177
N  N62  1  0.88239000  0.48259000  0.45380000  1.0 -0.2647888177
N  N63  1  0.51741000  0.39980000  0.45380000  1.0 -0.2647888177
N  N64  1  0.11761000  0.51741000  0.95380000  1.0 -0.2647888177
N  N65  1  0.48259000  0.60020000  0.95380000  1.0 -0.2647888177
N  N66  1  0.11761000  0.60020000  0.54620000  1.0 -0.2647888177
N  N67  1  0.51741000  0.11761000  0.04620000  1.0 -0.2647888177
N  N68  1  0.60020000  0.48259000  0.04620000  1.0 -0.2647888177
N  N69  1  0.39980000  0.88239000  0.95380000  1.0 -0.2653460412
N  N70  1  0.48259000  0.88239000  0.54620000  1.0 -0.2647888177
N  N71  1  0.39980000  0.51741000  0.54620000  1.0 -0.2647888177
N  N72  1  0.88239000  0.39980000  0.04620000  1.0 -0.2647888177
N  N73  1  0.39980000  0.88239000  0.54620000  1.0 -0.2647888177
N  N74  1  0.11761000  0.51741000  0.54620000  1.0 -0.2647888177
N  N75  1  0.48259000  0.60020000  0.54620000  1.0 -0.2647888177
N  N76  1  0.88239000  0.48259000  0.04620000  1.0 -0.2647888177
N  N77  1  0.51741000  0.39980000  0.04620000  1.0 -0.2647888177
N  N78  1  0.88239000  0.39980000  0.45380000  1.0 -0.2647888177
N  N79  1  0.48259000  0.88239000  0.95380000  1.0 -0.2653460412
N  N80  1  0.39980000  0.51741000  0.95380000  1.0 -0.2647888177
N  N81  1  0.60020000  0.11761000  0.04620000  1.0 -0.2647888177
N  N82  1  0.51741000  0.11761000  0.45380000  1.0 -0.2647888177
N  N83  1  0.60020000  0.48259000  0.45380000  1.0 -0.2647888177
N  N84  1  0.11761000  0.60020000  0.95380000  1.0 -0.2647888177
N  N85  1  0.66040000  0.04231000  0.47164000  1.0 -0.2869016077
N  N86  1  0.95769000  0.61809000  0.47164000  1.0 -0.2869016077
N  N87  1  0.38191000  0.33960000  0.47164000  1.0 -0.2869016077
N  N88  1  0.04231000  0.38191000  0.97164000  1.0 -0.2869016077
N  N89  1  0.61809000  0.66040000  0.97164000  1.0 -0.2869016077
N  N90  1  0.04231000  0.66040000  0.52836000  1.0 -0.2869016077
N  N91  1  0.38191000  0.04231000  0.02836000  1.0 -0.2869016077
N  N92  1  0.66040000  0.61809000  0.02836000  1.0 -0.2869016077
N  N93  1  0.33960000  0.95769000  0.97164000  1.0 -0.2869016077
N  N94  1  0.61809000  0.95769000  0.52836000  1.0 -0.2869016077
N  N95  1  0.33960000  0.38191000  0.52836000  1.0 -0.2869016077
N  N96  1  0.95769000  0.33960000  0.02836000  1.0 -0.2869016077
N  N97  1  0.33960000  0.95769000  0.52836000  1.0 -0.2869016077
N  N98  1  0.04231000  0.38191000  0.52836000  1.0 -0.2869016077
N  N99  1  0.61809000  0.66040000  0.52836000  1.0 -0.2869016077
N  N100  1  0.95769000  0.61809000  0.02836000  1.0 -0.2869016077
N  N101  1  0.38191000  0.33960000  0.02836000  1.0 -0.2869016077
N  N102  1  0.95769000  0.33960000  0.47164000  1.0 -0.2869016077
N  N103  1  0.61809000  0.95769000  0.97164000  1.0 -0.2869016077
N  N104  1  0.33960000  0.38191000  0.97164000  1.0 -0.2869016077
N  N105  1  0.66040000  0.04231000  0.02836000  1.0 -0.2869016077
N  N106  1  0.38191000  0.04231000  0.47164000  1.0 -0.2869016077
N  N107  1  0.66040000  0.61809000  0.47164000  1.0 -0.2869016077
N  N108  1  0.04231000  0.66040000  0.97164000  1.0 -0.2869016077
N  N109  1  0.81040000  0.18960000  0.39120000  1.0 0.4107293006
N  N110  1  0.81040000  0.62080000  0.39120000  1.0 0.4107293006
N  N111  1  0.37920000  0.18960000  0.39120000  1.0 0.4107293006
N  N112  1  0.18960000  0.37920000  0.89120000  1.0 0.4107293006
N  N113  1  0.62080000  0.81040000  0.89120000  1.0 0.4107293006
N  N114  1  0.18960000  0.81040000  0.60880000  1.0 0.4107293006
N  N115  1  0.37920000  0.18960000  0.10880000  1.0 0.4107293006
N  N116  1  0.81040000  0.62080000  0.10880000  1.0 0.4107293006
N  N117  1  0.18960000  0.81040000  0.89120000  1.0 0.4107293006
N  N118  1  0.62080000  0.81040000  0.60880000  1.0 0.4107293006
N  N119  1  0.18960000  0.37920000  0.60880000  1.0 0.4107293006
N  N120  1  0.81040000  0.18960000  0.10880000  1.0 0.4107293006
N  N121  1  0.52515000  0.05030000  0.38060000  1.0 0.3381072001
N  N122  1  0.94970000  0.47485000  0.38060000  1.0 0.3381072001
N  N123  1  0.52515000  0.47485000  0.38060000  1.0 0.3381072001
N  N124  1  0.05030000  0.52515000  0.88060000  1.0 0.3381072001
N  N125  1  0.47485000  0.52515000  0.88060000  1.0 0.3381072001
N  N126  1  0.05030000  0.52515000  0.61940000  1.0 0.3381072001
N  N127  1  0.52515000  0.05030000  0.11940000  1.0 0.3381072001
N  N128  1  0.52515000  0.47485000  0.11940000  1.0 0.3381072001
N  N129  1  0.47485000  0.94970000  0.88060000  1.0 0.3381072001
N  N130  1  0.47485000  0.94970000  0.61940000  1.0 0.3381072001
N  N131  1  0.47485000  0.52515000  0.61940000  1.0 0.3381072001
N  N132  1  0.94970000  0.47485000  0.11940000  1.0 0.3381072001
O  O1  1  0.66788000  0.19062000  0.30965000  1.0 -0.3269596009
O  O2  1  0.80938000  0.47726000  0.30965000  1.0 -0.3269596009
O  O3  1  0.52274000  0.33212000  0.30965000  1.0 -0.3269596009
O  O4  1  0.19062000  0.52274000  0.80965000  1.0 -0.3269596009
O  O5  1  0.47726000  0.66788000  0.80965000  1.0 -0.3269596009
O  O6  1  0.19062000  0.66788000  0.69035000  1.0 -0.3269596009
O  O7  1  0.52274000  0.19062000  0.19035000  1.0 -0.3269596009
O  O8  1  0.66788000  0.47726000  0.19035000  1.0 -0.3269596009
O  O9  1  0.33212000  0.80938000  0.80965000  1.0 -0.3269596009
O  O10  1  0.47726000  0.80938000  0.69035000  1.0 -0.3269596009
O  O11  1  0.33212000  0.52274000  0.69035000  1.0 -0.3269596009
O  O12  1  0.80938000  0.33212000  0.19035000  1.0 -0.3269596009
O  O13  1  0.33212000  0.80938000  0.69035000  1.0 -0.3269596009
O  O14  1  0.19062000  0.52274000  0.69035000  1.0 -0.3269596009
O  O15  1  0.47726000  0.66788000  0.69035000  1.0 -0.3269596009
O  O16  1  0.80938000  0.47726000  0.19035000  1.0 -0.3269596009
O  O17  1  0.52274000  0.33212000  0.19035000  1.0 -0.3269596009
O  O18  1  0.80938000  0.33212000  0.30965000  1.0 -0.3269596009
O  O19  1  0.47726000  0.80938000  0.80965000  1.0 -0.3269596009
O  O20  1  0.33212000  0.52274000  0.80965000  1.0 -0.3269596009
O  O21  1  0.66788000  0.19062000  0.19035000  1.0 -0.3269596009
O  O22  1  0.52274000  0.19062000  0.30965000  1.0 -0.3269596009
O  O23  1  0.66788000  0.47726000  0.30965000  1.0 -0.3269596009
O  O24  1  0.19062000  0.66788000  0.80965000  1.0 -0.3269596009
O  O25  1  0.78080000  0.13810000  0.37840000  1.0 -0.3387713044
O  O26  1  0.86190000  0.64270000  0.37840000  1.0 -0.3387713044
O  O27  1  0.35730000  0.21920000  0.37840000  1.0 -0.3387713044
O  O28  1  0.13810000  0.35730000  0.87840000  1.0 -0.3387713044
O  O29  1  0.64270000  0.78080000  0.87840000  1.0 -0.3387713044
O  O30  1  0.13810000  0.78080000  0.62160000  1.0 -0.3387713044
O  O31  1  0.35730000  0.13810000  0.12160000  1.0 -0.3387713044
O  O32  1  0.78080000  0.64270000  0.12160000  1.0 -0.3387713044
O  O33  1  0.21920000  0.86190000  0.87840000  1.0 -0.3387713044
O  O34  1  0.64270000  0.86190000  0.62160000  1.0 -0.3387713044
O  O35  1  0.21920000  0.35730000  0.62160000  1.0 -0.3387713044
O  O36  1  0.86190000  0.21920000  0.12160000  1.0 -0.3387713044
O  O37  1  0.21920000  0.86190000  0.62160000  1.0 -0.3387713044
O  O38  1  0.13810000  0.35730000  0.62160000  1.0 -0.3387713044
O  O39  1  0.64270000  0.78080000  0.62160000  1.0 -0.3387713044
O  O40  1  0.86190000  0.64270000  0.12160000  1.0 -0.3387713044
O  O41  1  0.35730000  0.21920000  0.12160000  1.0 -0.3387713044
O  O42  1  0.86190000  0.21920000  0.37840000  1.0 -0.3387713044
O  O43  1  0.64270000  0.86190000  0.87840000  1.0 -0.3387713044
O  O44  1  0.21920000  0.35730000  0.87840000  1.0 -0.3387713044
O  O45  1  0.78080000  0.13810000  0.12160000  1.0 -0.3387713044
O  O46  1  0.35730000  0.13810000  0.37840000  1.0 -0.3387713044
O  O47  1  0.78080000  0.64270000  0.37840000  1.0 -0.3387713044
O  O48  1  0.13810000  0.78080000  0.87840000  1.0 -0.3387713044
O  O49  1  0.47420000  0.02970000  0.36310000  1.0 -0.3672415971
O  O50  1  0.97030000  0.44450000  0.36310000  1.0 -0.3672415971
O  O51  1  0.55550000  0.52580000  0.36310000  1.0 -0.3672415971
O  O52  1  0.02970000  0.55550000  0.86310000  1.0 -0.3672415971
O  O53  1  0.44450000  0.47420000  0.86310000  1.0 -0.3672415971
O  O54  1  0.02970000  0.47420000  0.63690000  1.0 -0.3672415971
O  O55  1  0.55550000  0.02970000  0.13690000  1.0 -0.3672415971
O  O56  1  0.47420000  0.44450000  0.13690000  1.0 -0.3672415971
O  O57  1  0.52580000  0.97030000  0.86310000  1.0 -0.3672415971
O  O58  1  0.44450000  0.97030000  0.63690000  1.0 -0.3672415971
O  O59  1  0.52580000  0.55550000  0.63690000  1.0 -0.3672415971
O  O60  1  0.97030000  0.52580000  0.13690000  1.0 -0.3672415971
O  O61  1  0.52580000  0.97030000  0.63690000  1.0 -0.3672415971
O  O62  1  0.02970000  0.55550000  0.63690000  1.0 -0.3672415971
O  O63  1  0.44450000  0.47420000  0.63690000  1.0 -0.3672415971
O  O64  1  0.97030000  0.44450000  0.13690000  1.0 -0.3672415971
O  O65  1  0.55550000  0.52580000  0.13690000  1.0 -0.3672415971
O  O66  1  0.97030000  0.52580000  0.36310000  1.0 -0.3672415971
O  O67  1  0.44450000  0.97030000  0.86310000  1.0 -0.3672415971
O  O68  1  0.52580000  0.55550000  0.86310000  1.0 -0.3672415971
O  O69  1  0.47420000  0.02970000  0.13690000  1.0 -0.3672415971
O  O70  1  0.55550000  0.02970000  0.36310000  1.0 -0.3672415971
O  O71  1  0.47420000  0.44450000  0.36310000  1.0 -0.3672415971
O  O72  1  0.02970000  0.47420000  0.86310000  1.0 -0.3672415971
