# DDEC6 charges by PACMAN v1.1 (https://github.com/mtap-research/PACMAN-charge/)
data_GITVIP_ASR_pacman
_symmetry_space_group_name_H-M   'P 1'
_cell_length_a   28.55390000
_cell_length_b   28.55390000
_cell_length_c   28.55390000
_cell_angle_alpha   90.00000000
_cell_angle_beta   90.00000000
_cell_angle_gamma   90.00000000
_symmetry_Int_Tables_number   1
_chemical_formula_structural   ZnH2C6N4Cl5
_chemical_formula_sum   'Zn48 H96 C288 N192 Cl240'
_cell_volume   23280.71437705
_cell_formula_units_Z   48
loop_
 _symmetry_equiv_pos_site_id
 _symmetry_equiv_pos_as_xyz
  1  'x, y, z'
loop_
 _atom_site_type_symbol
 _atom_site_label
 _atom_site_symmetry_multiplicity
 _atom_site_fract_x
 _atom_site_fract_y
 _atom_site_fract_z
 _atom_site_occupancy
 _atom_site_charge
Zn  Zn1  1  0.39539000  0.10407000  0.25185000  1.0 0.6497917707
Zn  Zn2  1  0.25185000  0.39539000  0.10407000  1.0 0.6497917707
Zn  Zn3  1  0.10407000  0.25185000  0.39539000  1.0 0.6497917707
Zn  Zn4  1  0.10407000  0.39539000  0.74815000  1.0 0.6497917707
Zn  Zn5  1  0.10407000  0.60461000  0.25185000  1.0 0.6497917707
Zn  Zn6  1  0.89593000  0.39539000  0.25185000  1.0 0.6497917707
Zn  Zn7  1  0.39539000  0.25185000  0.89593000  1.0 0.6497917707
Zn  Zn8  1  0.60461000  0.25185000  0.10407000  1.0 0.6497917707
Zn  Zn9  1  0.39539000  0.74815000  0.10407000  1.0 0.6497917707
Zn  Zn10  1  0.25185000  0.10407000  0.60461000  1.0 0.6497917707
Zn  Zn11  1  0.25185000  0.89593000  0.39539000  1.0 0.6497917707
Zn  Zn12  1  0.74815000  0.10407000  0.39539000  1.0 0.6497917707
Zn  Zn13  1  0.60461000  0.89593000  0.25185000  1.0 0.6497917707
Zn  Zn14  1  0.60461000  0.10407000  0.74815000  1.0 0.6497917707
Zn  Zn15  1  0.39539000  0.89593000  0.74815000  1.0 0.6497917707
Zn  Zn16  1  0.25185000  0.60461000  0.89593000  1.0 0.6497917707
Zn  Zn17  1  0.74815000  0.60461000  0.10407000  1.0 0.6497917707
Zn  Zn18  1  0.74815000  0.39539000  0.89593000  1.0 0.6497917707
Zn  Zn19  1  0.89593000  0.25185000  0.60461000  1.0 0.6497917707
Zn  Zn20  1  0.10407000  0.74815000  0.60461000  1.0 0.6497917707
Zn  Zn21  1  0.89593000  0.74815000  0.39539000  1.0 0.6497917707
Zn  Zn22  1  0.89593000  0.60461000  0.74815000  1.0 0.6497917707
Zn  Zn23  1  0.60461000  0.74815000  0.89593000  1.0 0.6497917707
Zn  Zn24  1  0.74815000  0.89593000  0.60461000  1.0 0.6497917707
Zn  Zn25  1  0.60461000  0.89593000  0.74815000  1.0 0.6497917707
Zn  Zn26  1  0.74815000  0.60461000  0.89593000  1.0 0.6497917707
Zn  Zn27  1  0.89593000  0.74815000  0.60461000  1.0 0.6497917707
Zn  Zn28  1  0.89593000  0.60461000  0.25185000  1.0 0.6497917707
Zn  Zn29  1  0.89593000  0.39539000  0.74815000  1.0 0.6497917707
Zn  Zn30  1  0.10407000  0.60461000  0.74815000  1.0 0.6497917707
Zn  Zn31  1  0.60461000  0.74815000  0.10407000  1.0 0.6497917707
Zn  Zn32  1  0.39539000  0.74815000  0.89593000  1.0 0.6497917707
Zn  Zn33  1  0.60461000  0.25185000  0.89593000  1.0 0.6497917707
Zn  Zn34  1  0.74815000  0.89593000  0.39539000  1.0 0.6497917707
Zn  Zn35  1  0.74815000  0.10407000  0.60461000  1.0 0.6497917707
Zn  Zn36  1  0.25185000  0.89593000  0.60461000  1.0 0.6497917707
Zn  Zn37  1  0.39539000  0.10407000  0.74815000  1.0 0.6497917707
Zn  Zn38  1  0.39539000  0.89593000  0.25185000  1.0 0.6497917707
Zn  Zn39  1  0.60461000  0.10407000  0.25185000  1.0 0.6497917707
Zn  Zn40  1  0.74815000  0.39539000  0.10407000  1.0 0.6497917707
Zn  Zn41  1  0.25185000  0.39539000  0.89593000  1.0 0.6497917707
Zn  Zn42  1  0.25185000  0.60461000  0.10407000  1.0 0.6497917707
Zn  Zn43  1  0.10407000  0.74815000  0.39539000  1.0 0.6497917707
Zn  Zn44  1  0.89593000  0.25185000  0.39539000  1.0 0.6497917707
Zn  Zn45  1  0.10407000  0.25185000  0.60461000  1.0 0.6497917707
Zn  Zn46  1  0.10407000  0.39539000  0.25185000  1.0 0.6497917707
Zn  Zn47  1  0.39539000  0.25185000  0.10407000  1.0 0.6497917707
Zn  Zn48  1  0.25185000  0.10407000  0.39539000  1.0 0.6497917707
H  H1  1  0.42100000  0.00000000  0.27330000  1.0 0.0796601221
H  H2  1  0.27330000  0.42100000  0.00000000  1.0 0.0796601221
H  H3  1  0.00000000  0.27330000  0.42100000  1.0 0.0796601221
H  H4  1  0.00000000  0.42100000  0.72670000  1.0 0.0796601221
H  H5  1  0.00000000  0.57900000  0.27330000  1.0 0.0796601221
H  H6  1  0.00000000  0.42100000  0.27330000  1.0 0.0796601221
H  H7  1  0.42100000  0.27330000  0.00000000  1.0 0.0796601221
H  H8  1  0.57900000  0.27330000  0.00000000  1.0 0.0796601221
H  H9  1  0.42100000  0.72670000  0.00000000  1.0 0.0796601221
H  H10  1  0.27330000  0.00000000  0.57900000  1.0 0.0796601221
H  H11  1  0.27330000  0.00000000  0.42100000  1.0 0.0796601221
H  H12  1  0.72670000  0.00000000  0.42100000  1.0 0.0796601221
H  H13  1  0.57900000  0.00000000  0.27330000  1.0 0.0796601221
H  H14  1  0.57900000  0.00000000  0.72670000  1.0 0.0796601221
H  H15  1  0.42100000  0.00000000  0.72670000  1.0 0.0796601221
H  H16  1  0.27330000  0.57900000  0.00000000  1.0 0.0796601221
H  H17  1  0.72670000  0.57900000  0.00000000  1.0 0.0796601221
H  H18  1  0.72670000  0.42100000  0.00000000  1.0 0.0796601221
H  H19  1  0.00000000  0.27330000  0.57900000  1.0 0.0796601221
H  H20  1  0.00000000  0.72670000  0.57900000  1.0 0.0796601221
H  H21  1  0.00000000  0.72670000  0.42100000  1.0 0.0796601221
H  H22  1  0.00000000  0.57900000  0.72670000  1.0 0.0796601221
H  H23  1  0.57900000  0.72670000  0.00000000  1.0 0.0796601221
H  H24  1  0.72670000  0.00000000  0.57900000  1.0 0.0796601221
H  H25  1  0.50000000  0.12190000  0.21630000  1.0 0.0935394755
H  H26  1  0.21630000  0.50000000  0.12190000  1.0 0.0935394755
H  H27  1  0.12190000  0.21630000  0.50000000  1.0 0.0935394755
H  H28  1  0.12190000  0.50000000  0.78370000  1.0 0.0935394755
H  H29  1  0.12190000  0.50000000  0.21630000  1.0 0.0935394755
H  H30  1  0.87810000  0.50000000  0.21630000  1.0 0.0935394755
H  H31  1  0.50000000  0.21630000  0.87810000  1.0 0.0935394755
H  H32  1  0.50000000  0.21630000  0.12190000  1.0 0.0935394755
H  H33  1  0.50000000  0.78370000  0.12190000  1.0 0.0935394755
H  H34  1  0.21630000  0.12190000  0.50000000  1.0 0.0935394755
H  H35  1  0.21630000  0.87810000  0.50000000  1.0 0.0935394755
H  H36  1  0.78370000  0.12190000  0.50000000  1.0 0.0935394755
H  H37  1  0.50000000  0.87810000  0.21630000  1.0 0.0935394755
H  H38  1  0.50000000  0.12190000  0.78370000  1.0 0.0935394755
H  H39  1  0.50000000  0.87810000  0.78370000  1.0 0.0935394755
H  H40  1  0.21630000  0.50000000  0.87810000  1.0 0.0935394755
H  H41  1  0.78370000  0.50000000  0.12190000  1.0 0.0935394755
H  H42  1  0.78370000  0.50000000  0.87810000  1.0 0.0935394755
H  H43  1  0.87810000  0.21630000  0.50000000  1.0 0.0935394755
H  H44  1  0.12190000  0.78370000  0.50000000  1.0 0.0935394755
H  H45  1  0.87810000  0.78370000  0.50000000  1.0 0.0935394755
H  H46  1  0.87810000  0.50000000  0.78370000  1.0 0.0935394755
H  H47  1  0.50000000  0.78370000  0.87810000  1.0 0.0935394755
H  H48  1  0.78370000  0.87810000  0.50000000  1.0 0.0935394755
H  H49  1  0.30580000  0.08050000  0.30580000  1.0 0.0935394755
H  H50  1  0.30580000  0.30580000  0.08050000  1.0 0.0935394755
H  H51  1  0.08050000  0.30580000  0.30580000  1.0 0.0935394755
H  H52  1  0.08050000  0.30580000  0.69420000  1.0 0.0935394755
H  H53  1  0.08050000  0.69420000  0.30580000  1.0 0.0935394755
H  H54  1  0.91950000  0.30580000  0.30580000  1.0 0.0935394755
H  H55  1  0.30580000  0.30580000  0.91950000  1.0 0.0935394755
H  H56  1  0.69420000  0.30580000  0.08050000  1.0 0.0935394755
H  H57  1  0.30580000  0.69420000  0.08050000  1.0 0.0935394755
H  H58  1  0.30580000  0.08050000  0.69420000  1.0 0.0935394755
H  H59  1  0.30580000  0.91950000  0.30580000  1.0 0.0935394755
H  H60  1  0.69420000  0.08050000  0.30580000  1.0 0.0935394755
H  H61  1  0.69420000  0.91950000  0.30580000  1.0 0.0935394755
H  H62  1  0.69420000  0.08050000  0.69420000  1.0 0.0935394755
H  H63  1  0.30580000  0.91950000  0.69420000  1.0 0.0935394755
H  H64  1  0.30580000  0.69420000  0.91950000  1.0 0.0935394755
H  H65  1  0.69420000  0.69420000  0.08050000  1.0 0.0935394755
H  H66  1  0.69420000  0.30580000  0.91950000  1.0 0.0935394755
H  H67  1  0.91950000  0.30580000  0.69420000  1.0 0.0935394755
H  H68  1  0.08050000  0.69420000  0.69420000  1.0 0.0935394755
H  H69  1  0.91950000  0.69420000  0.30580000  1.0 0.0935394755
H  H70  1  0.91950000  0.69420000  0.69420000  1.0 0.0935394755
H  H71  1  0.69420000  0.69420000  0.91950000  1.0 0.0935394755
H  H72  1  0.69420000  0.91950000  0.69420000  1.0 0.0935394755
H  H73  1  0.38340000  0.20030000  0.20030000  1.0 0.0796601221
H  H74  1  0.20030000  0.38340000  0.20030000  1.0 0.0796601221
H  H75  1  0.20030000  0.20030000  0.38340000  1.0 0.0796601221
H  H76  1  0.20030000  0.38340000  0.79970000  1.0 0.0796601221
H  H77  1  0.20030000  0.61660000  0.20030000  1.0 0.0796601221
H  H78  1  0.79970000  0.38340000  0.20030000  1.0 0.0796601221
H  H79  1  0.38340000  0.20030000  0.79970000  1.0 0.0796601221
H  H80  1  0.61660000  0.20030000  0.20030000  1.0 0.0796601221
H  H81  1  0.38340000  0.79970000  0.20030000  1.0 0.0796601221
H  H82  1  0.20030000  0.20030000  0.61660000  1.0 0.0796601221
H  H83  1  0.20030000  0.79970000  0.38340000  1.0 0.0796601221
H  H84  1  0.79970000  0.20030000  0.38340000  1.0 0.0796601221
H  H85  1  0.61660000  0.79970000  0.20030000  1.0 0.0796601221
H  H86  1  0.61660000  0.20030000  0.79970000  1.0 0.0796601221
H  H87  1  0.38340000  0.79970000  0.79970000  1.0 0.0796601221
H  H88  1  0.20030000  0.61660000  0.79970000  1.0 0.0796601221
H  H89  1  0.79970000  0.61660000  0.20030000  1.0 0.0796601221
H  H90  1  0.79970000  0.38340000  0.79970000  1.0 0.0796601221
H  H91  1  0.79970000  0.20030000  0.61660000  1.0 0.0796601221
H  H92  1  0.20030000  0.79970000  0.61660000  1.0 0.0796601221
H  H93  1  0.79970000  0.79970000  0.38340000  1.0 0.0796601221
H  H94  1  0.79970000  0.61660000  0.79970000  1.0 0.0796601221
H  H95  1  0.61660000  0.79970000  0.79970000  1.0 0.0796601221
H  H96  1  0.79970000  0.79970000  0.61660000  1.0 0.0796601221
C  C1  1  0.39240000  0.00000000  0.25630000  1.0 0.1032132324
C  C2  1  0.25630000  0.39240000  0.00000000  1.0 0.1032132324
C  C3  1  0.00000000  0.25630000  0.39240000  1.0 0.1032132324
C  C4  1  0.00000000  0.39240000  0.74370000  1.0 0.1032132324
C  C5  1  0.00000000  0.60760000  0.25630000  1.0 0.1032132324
C  C6  1  0.00000000  0.39240000  0.25630000  1.0 0.1032132324
C  C7  1  0.39240000  0.25630000  0.00000000  1.0 0.1032132324
C  C8  1  0.60760000  0.25630000  0.00000000  1.0 0.1032132324
C  C9  1  0.39240000  0.74370000  0.00000000  1.0 0.1032132324
C  C10  1  0.25630000  0.00000000  0.60760000  1.0 0.1032132324
C  C11  1  0.25630000  0.00000000  0.39240000  1.0 0.1032132324
C  C12  1  0.74370000  0.00000000  0.39240000  1.0 0.1032132324
C  C13  1  0.60760000  0.00000000  0.25630000  1.0 0.1032132324
C  C14  1  0.60760000  0.00000000  0.74370000  1.0 0.1032132324
C  C15  1  0.39240000  0.00000000  0.74370000  1.0 0.1032132324
C  C16  1  0.25630000  0.60760000  0.00000000  1.0 0.1032132324
C  C17  1  0.74370000  0.60760000  0.00000000  1.0 0.1032132324
C  C18  1  0.74370000  0.39240000  0.00000000  1.0 0.1032132324
C  C19  1  0.00000000  0.25630000  0.60760000  1.0 0.1032132324
C  C20  1  0.00000000  0.74370000  0.60760000  1.0 0.1032132324
C  C21  1  0.00000000  0.74370000  0.39240000  1.0 0.1032132324
C  C22  1  0.00000000  0.60760000  0.74370000  1.0 0.1032132324
C  C23  1  0.60760000  0.74370000  0.00000000  1.0 0.1032132324
C  C24  1  0.74370000  0.00000000  0.60760000  1.0 0.1032132324
C  C25  1  0.33333333  0.02330000  0.22090000  1.0 0.0796601221
C  C26  1  0.22090000  0.33333333  0.02330000  1.0 0.0796601221
C  C27  1  0.02330000  0.22090000  0.33333333  1.0 0.0796601221
C  C28  1  0.02330000  0.33333333  0.77910000  1.0 0.0796601221
C  C29  1  0.02330000  0.66666667  0.22090000  1.0 0.0796601221
C  C30  1  0.97670000  0.33333333  0.22090000  1.0 0.0796601221
C  C31  1  0.33333333  0.22090000  0.97670000  1.0 0.0796601221
C  C32  1  0.66666667  0.22090000  0.02330000  1.0 0.0796601221
C  C33  1  0.33333333  0.77910000  0.02330000  1.0 0.0796601221
C  C34  1  0.22090000  0.02330000  0.66666667  1.0 0.0796601221
C  C35  1  0.22090000  0.97670000  0.33333333  1.0 0.0796601221
C  C36  1  0.77910000  0.02330000  0.33333333  1.0 0.0796601221
C  C37  1  0.66666667  0.97670000  0.22090000  1.0 0.0796601221
C  C38  1  0.66666667  0.02330000  0.77910000  1.0 0.0796601221
C  C39  1  0.33333333  0.97670000  0.77910000  1.0 0.0796601221
C  C40  1  0.22090000  0.66666667  0.97670000  1.0 0.0796601221
C  C41  1  0.77910000  0.66666667  0.02330000  1.0 0.0796601221
C  C42  1  0.77910000  0.33333333  0.97670000  1.0 0.0796601221
C  C43  1  0.97670000  0.22090000  0.66666667  1.0 0.0796601221
C  C44  1  0.02330000  0.77910000  0.66666667  1.0 0.0796601221
C  C45  1  0.97670000  0.77910000  0.33333333  1.0 0.0796601221
C  C46  1  0.97670000  0.66666667  0.77910000  1.0 0.0796601221
C  C47  1  0.66666667  0.77910000  0.97670000  1.0 0.0796601221
C  C48  1  0.77910000  0.97670000  0.66666667  1.0 0.0796601221
C  C49  1  0.66666667  0.97670000  0.77910000  1.0 0.0796601221
C  C50  1  0.77910000  0.66666667  0.97670000  1.0 0.0796601221
C  C51  1  0.97670000  0.77910000  0.66666667  1.0 0.0796601221
C  C52  1  0.97670000  0.66666667  0.22090000  1.0 0.0796601221
C  C53  1  0.97670000  0.33333333  0.77910000  1.0 0.0796601221
C  C54  1  0.02330000  0.66666667  0.77910000  1.0 0.0796601221
C  C55  1  0.66666667  0.77910000  0.02330000  1.0 0.0796601221
C  C56  1  0.33333333  0.77910000  0.97670000  1.0 0.0796601221
C  C57  1  0.66666667  0.22090000  0.97670000  1.0 0.0796601221
C  C58  1  0.77910000  0.97670000  0.33333333  1.0 0.0796601221
C  C59  1  0.77910000  0.02330000  0.66666667  1.0 0.0796601221
C  C60  1  0.22090000  0.97670000  0.66666667  1.0 0.0796601221
C  C61  1  0.33333333  0.02330000  0.77910000  1.0 0.0796601221
C  C62  1  0.33333333  0.97670000  0.22090000  1.0 0.0796601221
C  C63  1  0.66666667  0.02330000  0.22090000  1.0 0.0796601221
C  C64  1  0.77910000  0.33333333  0.02330000  1.0 0.0796601221
C  C65  1  0.22090000  0.33333333  0.97670000  1.0 0.0796601221
C  C66  1  0.22090000  0.66666667  0.02330000  1.0 0.0796601221
C  C67  1  0.02330000  0.77910000  0.33333333  1.0 0.0796601221
C  C68  1  0.97670000  0.22090000  0.33333333  1.0 0.0796601221
C  C69  1  0.02330000  0.22090000  0.66666667  1.0 0.0796601221
C  C70  1  0.02330000  0.33333333  0.22090000  1.0 0.0796601221
C  C71  1  0.33333333  0.22090000  0.02330000  1.0 0.0796601221
C  C72  1  0.22090000  0.02330000  0.33333333  1.0 0.0796601221
C  C73  1  0.50000000  0.10990000  0.24740000  1.0 0.1547362119
C  C74  1  0.24740000  0.50000000  0.10990000  1.0 0.1547362119
C  C75  1  0.10990000  0.24740000  0.50000000  1.0 0.1547362119
C  C76  1  0.10990000  0.50000000  0.75260000  1.0 0.1547362119
C  C77  1  0.10990000  0.50000000  0.24740000  1.0 0.1547362119
C  C78  1  0.89010000  0.50000000  0.24740000  1.0 0.1547362119
C  C79  1  0.50000000  0.24740000  0.89010000  1.0 0.1547362119
C  C80  1  0.50000000  0.24740000  0.10990000  1.0 0.1547362119
C  C81  1  0.50000000  0.75260000  0.10990000  1.0 0.1547362119
C  C82  1  0.24740000  0.10990000  0.50000000  1.0 0.1547362119
C  C83  1  0.24740000  0.89010000  0.50000000  1.0 0.1547362119
C  C84  1  0.75260000  0.10990000  0.50000000  1.0 0.1547362119
C  C85  1  0.50000000  0.89010000  0.24740000  1.0 0.1547362119
C  C86  1  0.50000000  0.10990000  0.75260000  1.0 0.1547362119
C  C87  1  0.50000000  0.89010000  0.75260000  1.0 0.1547362119
C  C88  1  0.24740000  0.50000000  0.89010000  1.0 0.1547362119
C  C89  1  0.75260000  0.50000000  0.10990000  1.0 0.1547362119
C  C90  1  0.75260000  0.50000000  0.89010000  1.0 0.1547362119
C  C91  1  0.89010000  0.24740000  0.50000000  1.0 0.1547362119
C  C92  1  0.10990000  0.75260000  0.50000000  1.0 0.1547362119
C  C93  1  0.89010000  0.75260000  0.50000000  1.0 0.1547362119
C  C94  1  0.89010000  0.50000000  0.75260000  1.0 0.1547362119
C  C95  1  0.50000000  0.75260000  0.89010000  1.0 0.1547362119
C  C96  1  0.75260000  0.89010000  0.50000000  1.0 0.1547362119
C  C97  1  0.47650000  0.08380000  0.31620000  1.0 -0.0322480301
C  C98  1  0.31620000  0.47650000  0.08380000  1.0 -0.0322480301
C  C99  1  0.08380000  0.31620000  0.47650000  1.0 -0.0322480301
C  C100  1  0.08380000  0.47650000  0.68380000  1.0 -0.0322480301
C  C101  1  0.08380000  0.52350000  0.31620000  1.0 -0.0322480301
C  C102  1  0.91620000  0.47650000  0.31620000  1.0 -0.0322480301
C  C103  1  0.47650000  0.31620000  0.91620000  1.0 -0.0322480301
C  C104  1  0.52350000  0.31620000  0.08380000  1.0 -0.0322480301
C  C105  1  0.47650000  0.68380000  0.08380000  1.0 -0.0322480301
C  C106  1  0.31620000  0.08380000  0.52350000  1.0 -0.0322480301
C  C107  1  0.31620000  0.91620000  0.47650000  1.0 -0.0322480301
C  C108  1  0.68380000  0.08380000  0.47650000  1.0 -0.0322480301
C  C109  1  0.52350000  0.91620000  0.31620000  1.0 -0.0322480301
C  C110  1  0.52350000  0.08380000  0.68380000  1.0 -0.0322480301
C  C111  1  0.47650000  0.91620000  0.68380000  1.0 -0.0322480301
C  C112  1  0.31620000  0.52350000  0.91620000  1.0 -0.0322480301
C  C113  1  0.68380000  0.52350000  0.08380000  1.0 -0.0322480301
C  C114  1  0.68380000  0.47650000  0.91620000  1.0 -0.0322480301
C  C115  1  0.91620000  0.31620000  0.52350000  1.0 -0.0322480301
C  C116  1  0.08380000  0.68380000  0.52350000  1.0 -0.0322480301
C  C117  1  0.91620000  0.68380000  0.47650000  1.0 -0.0322480301
C  C118  1  0.91620000  0.52350000  0.68380000  1.0 -0.0322480301
C  C119  1  0.52350000  0.68380000  0.91620000  1.0 -0.0322480301
C  C120  1  0.68380000  0.91620000  0.52350000  1.0 -0.0322480301
C  C121  1  0.52350000  0.91620000  0.68380000  1.0 -0.0322480301
C  C122  1  0.68380000  0.52350000  0.91620000  1.0 -0.0322480301
C  C123  1  0.91620000  0.68380000  0.52350000  1.0 -0.0322480301
C  C124  1  0.91620000  0.52350000  0.31620000  1.0 -0.0322480301
C  C125  1  0.91620000  0.47650000  0.68380000  1.0 -0.0322480301
C  C126  1  0.08380000  0.52350000  0.68380000  1.0 -0.0322480301
C  C127  1  0.52350000  0.68380000  0.08380000  1.0 -0.0322480301
C  C128  1  0.47650000  0.68380000  0.91620000  1.0 -0.0322480301
C  C129  1  0.52350000  0.31620000  0.91620000  1.0 -0.0322480301
C  C130  1  0.68380000  0.91620000  0.47650000  1.0 -0.0322480301
C  C131  1  0.68380000  0.08380000  0.52350000  1.0 -0.0322480301
C  C132  1  0.31620000  0.91620000  0.52350000  1.0 -0.0322480301
C  C133  1  0.47650000  0.08380000  0.68380000  1.0 -0.0322480301
C  C134  1  0.47650000  0.91620000  0.31620000  1.0 -0.0322480301
C  C135  1  0.52350000  0.08380000  0.31620000  1.0 -0.0322480301
C  C136  1  0.68380000  0.47650000  0.08380000  1.0 -0.0322480301
C  C137  1  0.31620000  0.47650000  0.91620000  1.0 -0.0322480301
C  C138  1  0.31620000  0.52350000  0.08380000  1.0 -0.0322480301
C  C139  1  0.08380000  0.68380000  0.47650000  1.0 -0.0322480301
C  C140  1  0.91620000  0.31620000  0.47650000  1.0 -0.0322480301
C  C141  1  0.08380000  0.31620000  0.52350000  1.0 -0.0322480301
C  C142  1  0.08380000  0.47650000  0.31620000  1.0 -0.0322480301
C  C143  1  0.47650000  0.31620000  0.08380000  1.0 -0.0322480301
C  C144  1  0.31620000  0.08380000  0.47650000  1.0 -0.0322480301
C  C145  1  0.31650000  0.11020000  0.31650000  1.0 0.1157975889
C  C146  1  0.31650000  0.31650000  0.11020000  1.0 0.1157975889
C  C147  1  0.11020000  0.31650000  0.31650000  1.0 0.1157975889
C  C148  1  0.11020000  0.31650000  0.68350000  1.0 0.1157975889
C  C149  1  0.11020000  0.68350000  0.31650000  1.0 0.1157975889
C  C150  1  0.88980000  0.31650000  0.31650000  1.0 0.1157975889
C  C151  1  0.31650000  0.31650000  0.88980000  1.0 0.1157975889
C  C152  1  0.68350000  0.31650000  0.11020000  1.0 0.1157975889
C  C153  1  0.31650000  0.68350000  0.11020000  1.0 0.1157975889
C  C154  1  0.31650000  0.11020000  0.68350000  1.0 0.1157975889
C  C155  1  0.31650000  0.88980000  0.31650000  1.0 0.1157975889
C  C156  1  0.68350000  0.11020000  0.31650000  1.0 0.1157975889
C  C157  1  0.68350000  0.88980000  0.31650000  1.0 0.1157975889
C  C158  1  0.68350000  0.11020000  0.68350000  1.0 0.1157975889
C  C159  1  0.31650000  0.88980000  0.68350000  1.0 0.1157975889
C  C160  1  0.31650000  0.68350000  0.88980000  1.0 0.1157975889
C  C161  1  0.68350000  0.68350000  0.11020000  1.0 0.1157975889
C  C162  1  0.68350000  0.31650000  0.88980000  1.0 0.1157975889
C  C163  1  0.88980000  0.31650000  0.68350000  1.0 0.1157975889
C  C164  1  0.11020000  0.68350000  0.68350000  1.0 0.1157975889
C  C165  1  0.88980000  0.68350000  0.31650000  1.0 0.1157975889
C  C166  1  0.88980000  0.68350000  0.68350000  1.0 0.1157975889
C  C167  1  0.68350000  0.68350000  0.88980000  1.0 0.1157975889
C  C168  1  0.68350000  0.88980000  0.68350000  1.0 0.1157975889
C  C169  1  0.35570000  0.17230000  0.32180000  1.0 0.0935394755
C  C170  1  0.32180000  0.35570000  0.17230000  1.0 0.0935394755
C  C171  1  0.17230000  0.32180000  0.35570000  1.0 0.0935394755
C  C172  1  0.17230000  0.35570000  0.67820000  1.0 0.0935394755
C  C173  1  0.17230000  0.64430000  0.32180000  1.0 0.0935394755
C  C174  1  0.82770000  0.35570000  0.32180000  1.0 0.0935394755
C  C175  1  0.35570000  0.32180000  0.82770000  1.0 0.0935394755
C  C176  1  0.64430000  0.32180000  0.17230000  1.0 0.0935394755
C  C177  1  0.35570000  0.67820000  0.17230000  1.0 0.0935394755
C  C178  1  0.32180000  0.17230000  0.64430000  1.0 0.0935394755
C  C179  1  0.32180000  0.82770000  0.35570000  1.0 0.0935394755
C  C180  1  0.67820000  0.17230000  0.35570000  1.0 0.0935394755
C  C181  1  0.64430000  0.82770000  0.32180000  1.0 0.0935394755
C  C182  1  0.64430000  0.17230000  0.67820000  1.0 0.0935394755
C  C183  1  0.35570000  0.82770000  0.67820000  1.0 0.0935394755
C  C184  1  0.32180000  0.64430000  0.82770000  1.0 0.0935394755
C  C185  1  0.67820000  0.64430000  0.17230000  1.0 0.0935394755
C  C186  1  0.67820000  0.35570000  0.82770000  1.0 0.0935394755
C  C187  1  0.82770000  0.32180000  0.64430000  1.0 0.0935394755
C  C188  1  0.17230000  0.67820000  0.64430000  1.0 0.0935394755
C  C189  1  0.82770000  0.67820000  0.35570000  1.0 0.0935394755
C  C190  1  0.82770000  0.64430000  0.67820000  1.0 0.0935394755
C  C191  1  0.64430000  0.67820000  0.82770000  1.0 0.0935394755
C  C192  1  0.67820000  0.82770000  0.64430000  1.0 0.0935394755
C  C193  1  0.64430000  0.82770000  0.67820000  1.0 0.0935394755
C  C194  1  0.67820000  0.64430000  0.82770000  1.0 0.0935394755
C  C195  1  0.82770000  0.67820000  0.64430000  1.0 0.0935394755
C  C196  1  0.82770000  0.64430000  0.32180000  1.0 0.0935394755
C  C197  1  0.82770000  0.35570000  0.67820000  1.0 0.0935394755
C  C198  1  0.17230000  0.64430000  0.67820000  1.0 0.0935394755
C  C199  1  0.64430000  0.67820000  0.17230000  1.0 0.0935394755
C  C200  1  0.35570000  0.67820000  0.82770000  1.0 0.0935394755
C  C201  1  0.64430000  0.32180000  0.82770000  1.0 0.0935394755
C  C202  1  0.67820000  0.82770000  0.35570000  1.0 0.0935394755
C  C203  1  0.67820000  0.17230000  0.64430000  1.0 0.0935394755
C  C204  1  0.32180000  0.82770000  0.64430000  1.0 0.0935394755
C  C205  1  0.35570000  0.17230000  0.67820000  1.0 0.0935394755
C  C206  1  0.35570000  0.82770000  0.32180000  1.0 0.0935394755
C  C207  1  0.64430000  0.17230000  0.32180000  1.0 0.0935394755
C  C208  1  0.67820000  0.35570000  0.17230000  1.0 0.0935394755
C  C209  1  0.32180000  0.35570000  0.82770000  1.0 0.0935394755
C  C210  1  0.32180000  0.64430000  0.17230000  1.0 0.0935394755
C  C211  1  0.17230000  0.67820000  0.35570000  1.0 0.0935394755
C  C212  1  0.82770000  0.32180000  0.35570000  1.0 0.0935394755
C  C213  1  0.17230000  0.32180000  0.64430000  1.0 0.0935394755
C  C214  1  0.17230000  0.35570000  0.32180000  1.0 0.0935394755
C  C215  1  0.35570000  0.32180000  0.17230000  1.0 0.0935394755
C  C216  1  0.32180000  0.17230000  0.35570000  1.0 0.0935394755
C  C217  1  0.39410000  0.17800000  0.17800000  1.0 0.167143932
C  C218  1  0.17800000  0.39410000  0.17800000  1.0 0.167143932
C  C219  1  0.17800000  0.17800000  0.39410000  1.0 0.167143932
C  C220  1  0.17800000  0.39410000  0.82200000  1.0 0.167143932
C  C221  1  0.17800000  0.60590000  0.17800000  1.0 0.167143932
C  C222  1  0.82200000  0.39410000  0.17800000  1.0 0.167143932
C  C223  1  0.39410000  0.17800000  0.82200000  1.0 0.167143932
C  C224  1  0.60590000  0.17800000  0.17800000  1.0 0.167143932
C  C225  1  0.39410000  0.82200000  0.17800000  1.0 0.167143932
C  C226  1  0.17800000  0.17800000  0.60590000  1.0 0.167143932
C  C227  1  0.17800000  0.82200000  0.39410000  1.0 0.167143932
C  C228  1  0.82200000  0.17800000  0.39410000  1.0 0.167143932
C  C229  1  0.60590000  0.82200000  0.17800000  1.0 0.167143932
C  C230  1  0.60590000  0.17800000  0.82200000  1.0 0.167143932
C  C231  1  0.39410000  0.82200000  0.82200000  1.0 0.167143932
C  C232  1  0.17800000  0.60590000  0.82200000  1.0 0.167143932
C  C233  1  0.82200000  0.60590000  0.17800000  1.0 0.167143932
C  C234  1  0.82200000  0.39410000  0.82200000  1.0 0.167143932
C  C235  1  0.82200000  0.17800000  0.60590000  1.0 0.167143932
C  C236  1  0.17800000  0.82200000  0.60590000  1.0 0.167143932
C  C237  1  0.82200000  0.82200000  0.39410000  1.0 0.167143932
C  C238  1  0.82200000  0.60590000  0.82200000  1.0 0.167143932
C  C239  1  0.60590000  0.82200000  0.82200000  1.0 0.167143932
C  C240  1  0.82200000  0.82200000  0.60590000  1.0 0.167143932
C  C241  1  0.41710000  0.11700000  0.14860000  1.0 0.0669864885
C  C242  1  0.14860000  0.41710000  0.11700000  1.0 0.0669864885
C  C243  1  0.11700000  0.14860000  0.41710000  1.0 0.0669864885
C  C244  1  0.11700000  0.41710000  0.85140000  1.0 0.0669864885
C  C245  1  0.11700000  0.58290000  0.14860000  1.0 0.0669864885
C  C246  1  0.88300000  0.41710000  0.14860000  1.0 0.0669864885
C  C247  1  0.41710000  0.14860000  0.88300000  1.0 0.0669864885
C  C248  1  0.58290000  0.14860000  0.11700000  1.0 0.0669864885
C  C249  1  0.41710000  0.85140000  0.11700000  1.0 0.0669864885
C  C250  1  0.14860000  0.11700000  0.58290000  1.0 0.0669864885
C  C251  1  0.14860000  0.88300000  0.41710000  1.0 0.0669864885
C  C252  1  0.85140000  0.11700000  0.41710000  1.0 0.0669864885
C  C253  1  0.58290000  0.88300000  0.14860000  1.0 0.0669864885
C  C254  1  0.58290000  0.11700000  0.85140000  1.0 0.0669864885
C  C255  1  0.41710000  0.88300000  0.85140000  1.0 0.0669864885
C  C256  1  0.14860000  0.58290000  0.88300000  1.0 0.0669864885
C  C257  1  0.85140000  0.58290000  0.11700000  1.0 0.0669864885
C  C258  1  0.85140000  0.41710000  0.88300000  1.0 0.0669864885
C  C259  1  0.88300000  0.14860000  0.58290000  1.0 0.0669864885
C  C260  1  0.11700000  0.85140000  0.58290000  1.0 0.0669864885
C  C261  1  0.88300000  0.85140000  0.41710000  1.0 0.0669864885
C  C262  1  0.88300000  0.58290000  0.85140000  1.0 0.0669864885
C  C263  1  0.58290000  0.85140000  0.88300000  1.0 0.0669864885
C  C264  1  0.85140000  0.88300000  0.58290000  1.0 0.0669864885
C  C265  1  0.58290000  0.88300000  0.85140000  1.0 0.0669864885
C  C266  1  0.85140000  0.58290000  0.88300000  1.0 0.0669864885
C  C267  1  0.88300000  0.85140000  0.58290000  1.0 0.0669864885
C  C268  1  0.88300000  0.58290000  0.14860000  1.0 0.0669864885
C  C269  1  0.88300000  0.41710000  0.85140000  1.0 0.0669864885
C  C270  1  0.11700000  0.58290000  0.85140000  1.0 0.0669864885
C  C271  1  0.58290000  0.85140000  0.11700000  1.0 0.0669864885
C  C272  1  0.41710000  0.85140000  0.88300000  1.0 0.0669864885
C  C273  1  0.58290000  0.14860000  0.88300000  1.0 0.0669864885
C  C274  1  0.85140000  0.88300000  0.41710000  1.0 0.0669864885
C  C275  1  0.85140000  0.11700000  0.58290000  1.0 0.0669864885
C  C276  1  0.14860000  0.88300000  0.58290000  1.0 0.0669864885
C  C277  1  0.41710000  0.11700000  0.85140000  1.0 0.0669864885
C  C278  1  0.41710000  0.88300000  0.14860000  1.0 0.0669864885
C  C279  1  0.58290000  0.11700000  0.14860000  1.0 0.0669864885
C  C280  1  0.85140000  0.41710000  0.11700000  1.0 0.0669864885
C  C281  1  0.14860000  0.41710000  0.88300000  1.0 0.0669864885
C  C282  1  0.14860000  0.58290000  0.11700000  1.0 0.0669864885
C  C283  1  0.11700000  0.85140000  0.41710000  1.0 0.0669864885
C  C284  1  0.88300000  0.14860000  0.41710000  1.0 0.0669864885
C  C285  1  0.11700000  0.14860000  0.58290000  1.0 0.0669864885
C  C286  1  0.11700000  0.41710000  0.14860000  1.0 0.0669864885
C  C287  1  0.41710000  0.14860000  0.11700000  1.0 0.0669864885
C  C288  1  0.14860000  0.11700000  0.41710000  1.0 0.0669864885
N  N1  1  0.37140000  0.04000000  0.24390000  1.0 -0.3602144224
N  N2  1  0.24390000  0.37140000  0.04000000  1.0 -0.3602144224
N  N3  1  0.04000000  0.24390000  0.37140000  1.0 -0.3602144224
N  N4  1  0.04000000  0.37140000  0.75610000  1.0 -0.3602144224
N  N5  1  0.04000000  0.62860000  0.24390000  1.0 -0.3602144224
N  N6  1  0.96000000  0.37140000  0.24390000  1.0 -0.3602144224
N  N7  1  0.37140000  0.24390000  0.96000000  1.0 -0.3602144224
N  N8  1  0.62860000  0.24390000  0.04000000  1.0 -0.3602144224
N  N9  1  0.37140000  0.75610000  0.04000000  1.0 -0.3602144224
N  N10  1  0.24390000  0.04000000  0.62860000  1.0 -0.3602144224
N  N11  1  0.24390000  0.96000000  0.37140000  1.0 -0.3602144224
N  N12  1  0.75610000  0.04000000  0.37140000  1.0 -0.3602144224
N  N13  1  0.62860000  0.96000000  0.24390000  1.0 -0.3602144224
N  N14  1  0.62860000  0.04000000  0.75610000  1.0 -0.3602144224
N  N15  1  0.37140000  0.96000000  0.75610000  1.0 -0.3602144224
N  N16  1  0.24390000  0.62860000  0.96000000  1.0 -0.3602144224
N  N17  1  0.75610000  0.62860000  0.04000000  1.0 -0.3602144224
N  N18  1  0.75610000  0.37140000  0.96000000  1.0 -0.3602144224
N  N19  1  0.96000000  0.24390000  0.62860000  1.0 -0.3602144224
N  N20  1  0.04000000  0.75610000  0.62860000  1.0 -0.3602144224
N  N21  1  0.96000000  0.75610000  0.37140000  1.0 -0.3602144224
N  N22  1  0.96000000  0.62860000  0.75610000  1.0 -0.3602144224
N  N23  1  0.62860000  0.75610000  0.96000000  1.0 -0.3602144224
N  N24  1  0.75610000  0.96000000  0.62860000  1.0 -0.3602144224
N  N25  1  0.62860000  0.96000000  0.75610000  1.0 -0.3602144224
N  N26  1  0.75610000  0.62860000  0.96000000  1.0 -0.3602144224
N  N27  1  0.96000000  0.75610000  0.62860000  1.0 -0.3602144224
N  N28  1  0.96000000  0.62860000  0.24390000  1.0 -0.3602144224
N  N29  1  0.96000000  0.37140000  0.75610000  1.0 -0.3602144224
N  N30  1  0.04000000  0.62860000  0.75610000  1.0 -0.3602144224
N  N31  1  0.62860000  0.75610000  0.04000000  1.0 -0.3602144224
N  N32  1  0.37140000  0.75610000  0.96000000  1.0 -0.3602144224
N  N33  1  0.62860000  0.24390000  0.96000000  1.0 -0.3602144224
N  N34  1  0.75610000  0.96000000  0.37140000  1.0 -0.3602144224
N  N35  1  0.75610000  0.04000000  0.62860000  1.0 -0.3602144224
N  N36  1  0.24390000  0.96000000  0.62860000  1.0 -0.3602144224
N  N37  1  0.37140000  0.04000000  0.75610000  1.0 -0.3602144224
N  N38  1  0.37140000  0.96000000  0.24390000  1.0 -0.3602144224
N  N39  1  0.62860000  0.04000000  0.24390000  1.0 -0.3602144224
N  N40  1  0.75610000  0.37140000  0.04000000  1.0 -0.3602144224
N  N41  1  0.24390000  0.37140000  0.96000000  1.0 -0.3602144224
N  N42  1  0.24390000  0.62860000  0.04000000  1.0 -0.3602144224
N  N43  1  0.04000000  0.75610000  0.37140000  1.0 -0.3602144224
N  N44  1  0.96000000  0.24390000  0.37140000  1.0 -0.3602144224
N  N45  1  0.04000000  0.24390000  0.62860000  1.0 -0.3602144224
N  N46  1  0.04000000  0.37140000  0.24390000  1.0 -0.3602144224
N  N47  1  0.37140000  0.24390000  0.04000000  1.0 -0.3602144224
N  N48  1  0.24390000  0.04000000  0.37140000  1.0 -0.3602144224
N  N49  1  0.46190000  0.10010000  0.27300000  1.0 -0.3392123583
N  N50  1  0.27300000  0.46190000  0.10010000  1.0 -0.3392123583
N  N51  1  0.10010000  0.27300000  0.46190000  1.0 -0.3392123583
N  N52  1  0.10010000  0.46190000  0.72700000  1.0 -0.3392123583
N  N53  1  0.10010000  0.53810000  0.27300000  1.0 -0.3392123583
N  N54  1  0.89990000  0.46190000  0.27300000  1.0 -0.3392123583
N  N55  1  0.46190000  0.27300000  0.89990000  1.0 -0.3392123583
N  N56  1  0.53810000  0.27300000  0.10010000  1.0 -0.3392123583
N  N57  1  0.46190000  0.72700000  0.10010000  1.0 -0.3392123583
N  N58  1  0.27300000  0.10010000  0.53810000  1.0 -0.3392123583
N  N59  1  0.27300000  0.89990000  0.46190000  1.0 -0.3392123583
N  N60  1  0.72700000  0.10010000  0.46190000  1.0 -0.3392123583
N  N61  1  0.53810000  0.89990000  0.27300000  1.0 -0.3392123583
N  N62  1  0.53810000  0.10010000  0.72700000  1.0 -0.3392123583
N  N63  1  0.46190000  0.89990000  0.72700000  1.0 -0.3392123583
N  N64  1  0.27300000  0.53810000  0.89990000  1.0 -0.3392123583
N  N65  1  0.72700000  0.53810000  0.10010000  1.0 -0.3392123583
N  N66  1  0.72700000  0.46190000  0.89990000  1.0 -0.3392123583
N  N67  1  0.89990000  0.27300000  0.53810000  1.0 -0.3392123583
N  N68  1  0.10010000  0.72700000  0.53810000  1.0 -0.3392123583
N  N69  1  0.89990000  0.72700000  0.46190000  1.0 -0.3392123583
N  N70  1  0.89990000  0.53810000  0.72700000  1.0 -0.3392123583
N  N71  1  0.53810000  0.72700000  0.89990000  1.0 -0.3392123583
N  N72  1  0.72700000  0.89990000  0.53810000  1.0 -0.3392123583
N  N73  1  0.53810000  0.89990000  0.72700000  1.0 -0.3392123583
N  N74  1  0.72700000  0.53810000  0.89990000  1.0 -0.3392123583
N  N75  1  0.89990000  0.72700000  0.53810000  1.0 -0.3392123583
N  N76  1  0.89990000  0.53810000  0.27300000  1.0 -0.3392123583
N  N77  1  0.89990000  0.46190000  0.72700000  1.0 -0.3392123583
N  N78  1  0.10010000  0.53810000  0.72700000  1.0 -0.3392123583
N  N79  1  0.53810000  0.72700000  0.10010000  1.0 -0.3392123583
N  N80  1  0.46190000  0.72700000  0.89990000  1.0 -0.3392123583
N  N81  1  0.53810000  0.27300000  0.89990000  1.0 -0.3392123583
N  N82  1  0.72700000  0.89990000  0.46190000  1.0 -0.3392123583
N  N83  1  0.72700000  0.10010000  0.53810000  1.0 -0.3392123583
N  N84  1  0.27300000  0.89990000  0.53810000  1.0 -0.3392123583
N  N85  1  0.46190000  0.10010000  0.72700000  1.0 -0.3392123583
N  N86  1  0.46190000  0.89990000  0.27300000  1.0 -0.3392123583
N  N87  1  0.53810000  0.10010000  0.27300000  1.0 -0.3392123583
N  N88  1  0.72700000  0.46190000  0.10010000  1.0 -0.3392123583
N  N89  1  0.27300000  0.46190000  0.89990000  1.0 -0.3392123583
N  N90  1  0.27300000  0.53810000  0.10010000  1.0 -0.3392123583
N  N91  1  0.10010000  0.72700000  0.46190000  1.0 -0.3392123583
N  N92  1  0.89990000  0.27300000  0.46190000  1.0 -0.3392123583
N  N93  1  0.10010000  0.27300000  0.53810000  1.0 -0.3392123583
N  N94  1  0.10010000  0.46190000  0.27300000  1.0 -0.3392123583
N  N95  1  0.46190000  0.27300000  0.10010000  1.0 -0.3392123583
N  N96  1  0.27300000  0.10010000  0.46190000  1.0 -0.3392123583
N  N97  1  0.35280000  0.13350000  0.29710000  1.0 -0.3392123583
N  N98  1  0.29710000  0.35280000  0.13350000  1.0 -0.3392123583
N  N99  1  0.13350000  0.29710000  0.35280000  1.0 -0.3392123583
N  N100  1  0.13350000  0.35280000  0.70290000  1.0 -0.3392123583
N  N101  1  0.13350000  0.64720000  0.29710000  1.0 -0.3392123583
N  N102  1  0.86650000  0.35280000  0.29710000  1.0 -0.3392123583
N  N103  1  0.35280000  0.29710000  0.86650000  1.0 -0.3392123583
N  N104  1  0.64720000  0.29710000  0.13350000  1.0 -0.3392123583
N  N105  1  0.35280000  0.70290000  0.13350000  1.0 -0.3392123583
N  N106  1  0.29710000  0.13350000  0.64720000  1.0 -0.3392123583
N  N107  1  0.29710000  0.86650000  0.35280000  1.0 -0.3392123583
N  N108  1  0.70290000  0.13350000  0.35280000  1.0 -0.3392123583
N  N109  1  0.64720000  0.86650000  0.29710000  1.0 -0.3392123583
N  N110  1  0.64720000  0.13350000  0.70290000  1.0 -0.3392123583
N  N111  1  0.35280000  0.86650000  0.70290000  1.0 -0.3392123583
N  N112  1  0.29710000  0.64720000  0.86650000  1.0 -0.3392123583
N  N113  1  0.70290000  0.64720000  0.13350000  1.0 -0.3392123583
N  N114  1  0.70290000  0.35280000  0.86650000  1.0 -0.3392123583
N  N115  1  0.86650000  0.29710000  0.64720000  1.0 -0.3392123583
N  N116  1  0.13350000  0.70290000  0.64720000  1.0 -0.3392123583
N  N117  1  0.86650000  0.70290000  0.35280000  1.0 -0.3392123583
N  N118  1  0.86650000  0.64720000  0.70290000  1.0 -0.3392123583
N  N119  1  0.64720000  0.70290000  0.86650000  1.0 -0.3392123583
N  N120  1  0.70290000  0.86650000  0.64720000  1.0 -0.3392123583
N  N121  1  0.64720000  0.86650000  0.70290000  1.0 -0.3392123583
N  N122  1  0.70290000  0.64720000  0.86650000  1.0 -0.3392123583
N  N123  1  0.86650000  0.70290000  0.64720000  1.0 -0.3392123583
N  N124  1  0.86650000  0.64720000  0.29710000  1.0 -0.3392123583
N  N125  1  0.86650000  0.35280000  0.70290000  1.0 -0.3392123583
N  N126  1  0.13350000  0.64720000  0.70290000  1.0 -0.3392123583
N  N127  1  0.64720000  0.70290000  0.13350000  1.0 -0.3392123583
N  N128  1  0.35280000  0.70290000  0.86650000  1.0 -0.3392123583
N  N129  1  0.64720000  0.29710000  0.86650000  1.0 -0.3392123583
N  N130  1  0.70290000  0.86650000  0.35280000  1.0 -0.3392123583
N  N131  1  0.70290000  0.13350000  0.64720000  1.0 -0.3392123583
N  N132  1  0.29710000  0.86650000  0.64720000  1.0 -0.3392123583
N  N133  1  0.35280000  0.13350000  0.70290000  1.0 -0.3392123583
N  N134  1  0.35280000  0.86650000  0.29710000  1.0 -0.3392123583
N  N135  1  0.64720000  0.13350000  0.29710000  1.0 -0.3392123583
N  N136  1  0.70290000  0.35280000  0.13350000  1.0 -0.3392123583
N  N137  1  0.29710000  0.35280000  0.86650000  1.0 -0.3392123583
N  N138  1  0.29710000  0.64720000  0.13350000  1.0 -0.3392123583
N  N139  1  0.13350000  0.70290000  0.35280000  1.0 -0.3392123583
N  N140  1  0.86650000  0.29710000  0.35280000  1.0 -0.3392123583
N  N141  1  0.13350000  0.29710000  0.64720000  1.0 -0.3392123583
N  N142  1  0.13350000  0.35280000  0.29710000  1.0 -0.3392123583
N  N143  1  0.35280000  0.29710000  0.13350000  1.0 -0.3392123583
N  N144  1  0.29710000  0.13350000  0.35280000  1.0 -0.3392123583
N  N145  1  0.40150000  0.13510000  0.19040000  1.0 -0.3392123583
N  N146  1  0.19040000  0.40150000  0.13510000  1.0 -0.3392123583
N  N147  1  0.13510000  0.19040000  0.40150000  1.0 -0.3392123583
N  N148  1  0.13510000  0.40150000  0.80960000  1.0 -0.3392123583
N  N149  1  0.13510000  0.59850000  0.19040000  1.0 -0.3392123583
N  N150  1  0.86490000  0.40150000  0.19040000  1.0 -0.3392123583
N  N151  1  0.40150000  0.19040000  0.86490000  1.0 -0.3392123583
N  N152  1  0.59850000  0.19040000  0.13510000  1.0 -0.3392123583
N  N153  1  0.40150000  0.80960000  0.13510000  1.0 -0.3392123583
N  N154  1  0.19040000  0.13510000  0.59850000  1.0 -0.3392123583
N  N155  1  0.19040000  0.86490000  0.40150000  1.0 -0.3392123583
N  N156  1  0.80960000  0.13510000  0.40150000  1.0 -0.3392123583
N  N157  1  0.59850000  0.86490000  0.19040000  1.0 -0.3392123583
N  N158  1  0.59850000  0.13510000  0.80960000  1.0 -0.3392123583
N  N159  1  0.40150000  0.86490000  0.80960000  1.0 -0.3392123583
N  N160  1  0.19040000  0.59850000  0.86490000  1.0 -0.3392123583
N  N161  1  0.80960000  0.59850000  0.13510000  1.0 -0.3392123583
N  N162  1  0.80960000  0.40150000  0.86490000  1.0 -0.3392123583
N  N163  1  0.86490000  0.19040000  0.59850000  1.0 -0.3392123583
N  N164  1  0.13510000  0.80960000  0.59850000  1.0 -0.3392123583
N  N165  1  0.86490000  0.80960000  0.40150000  1.0 -0.3392123583
N  N166  1  0.86490000  0.59850000  0.80960000  1.0 -0.3392123583
N  N167  1  0.59850000  0.80960000  0.86490000  1.0 -0.3392123583
N  N168  1  0.80960000  0.86490000  0.59850000  1.0 -0.3392123583
N  N169  1  0.59850000  0.86490000  0.80960000  1.0 -0.3392123583
N  N170  1  0.80960000  0.59850000  0.86490000  1.0 -0.3392123583
N  N171  1  0.86490000  0.80960000  0.59850000  1.0 -0.3392123583
N  N172  1  0.86490000  0.59850000  0.19040000  1.0 -0.3392123583
N  N173  1  0.86490000  0.40150000  0.80960000  1.0 -0.3392123583
N  N174  1  0.13510000  0.59850000  0.80960000  1.0 -0.3392123583
N  N175  1  0.59850000  0.80960000  0.13510000  1.0 -0.3392123583
N  N176  1  0.40150000  0.80960000  0.86490000  1.0 -0.3392123583
N  N177  1  0.59850000  0.19040000  0.86490000  1.0 -0.3392123583
N  N178  1  0.80960000  0.86490000  0.40150000  1.0 -0.3392123583
N  N179  1  0.80960000  0.13510000  0.59850000  1.0 -0.3392123583
N  N180  1  0.19040000  0.86490000  0.59850000  1.0 -0.3392123583
N  N181  1  0.40150000  0.13510000  0.80960000  1.0 -0.3392123583
N  N182  1  0.40150000  0.86490000  0.19040000  1.0 -0.3392123583
N  N183  1  0.59850000  0.13510000  0.19040000  1.0 -0.3392123583
N  N184  1  0.80960000  0.40150000  0.13510000  1.0 -0.3392123583
N  N185  1  0.19040000  0.40150000  0.86490000  1.0 -0.3392123583
N  N186  1  0.19040000  0.59850000  0.13510000  1.0 -0.3392123583
N  N187  1  0.13510000  0.80960000  0.40150000  1.0 -0.3392123583
N  N188  1  0.86490000  0.19040000  0.40150000  1.0 -0.3392123583
N  N189  1  0.13510000  0.19040000  0.59850000  1.0 -0.3392123583
N  N190  1  0.13510000  0.40150000  0.19040000  1.0 -0.3392123583
N  N191  1  0.40150000  0.19040000  0.13510000  1.0 -0.3392123583
N  N192  1  0.19040000  0.13510000  0.40150000  1.0 -0.3392123583
Cl  Cl1  1  0.29524000  0.06132000  0.19575000  1.0 -0.0403682071
Cl  Cl2  1  0.19575000  0.29524000  0.06132000  1.0 -0.0403682071
Cl  Cl3  1  0.06132000  0.19575000  0.29524000  1.0 -0.0403682071
Cl  Cl4  1  0.06132000  0.29524000  0.80425000  1.0 -0.0403682071
Cl  Cl5  1  0.06132000  0.70476000  0.19575000  1.0 -0.0403682071
Cl  Cl6  1  0.93868000  0.29524000  0.19575000  1.0 -0.0403682071
Cl  Cl7  1  0.29524000  0.19575000  0.93868000  1.0 -0.0403682071
Cl  Cl8  1  0.70476000  0.19575000  0.06132000  1.0 -0.0403682071
Cl  Cl9  1  0.29524000  0.80425000  0.06132000  1.0 -0.0403682071
Cl  Cl10  1  0.19575000  0.06132000  0.70476000  1.0 -0.0403682071
Cl  Cl11  1  0.19575000  0.93868000  0.29524000  1.0 -0.0403682071
Cl  Cl12  1  0.80425000  0.06132000  0.29524000  1.0 -0.0403682071
Cl  Cl13  1  0.70476000  0.93868000  0.19575000  1.0 -0.0403682071
Cl  Cl14  1  0.70476000  0.06132000  0.80425000  1.0 -0.0403682071
Cl  Cl15  1  0.29524000  0.93868000  0.80425000  1.0 -0.0403682071
Cl  Cl16  1  0.19575000  0.70476000  0.93868000  1.0 -0.0403682071
Cl  Cl17  1  0.80425000  0.70476000  0.06132000  1.0 -0.0403682071
Cl  Cl18  1  0.80425000  0.29524000  0.93868000  1.0 -0.0403682071
Cl  Cl19  1  0.93868000  0.19575000  0.70476000  1.0 -0.0403682071
Cl  Cl20  1  0.06132000  0.80425000  0.70476000  1.0 -0.0403682071
Cl  Cl21  1  0.93868000  0.80425000  0.29524000  1.0 -0.0403682071
Cl  Cl22  1  0.93868000  0.70476000  0.80425000  1.0 -0.0403682071
Cl  Cl23  1  0.70476000  0.80425000  0.93868000  1.0 -0.0403682071
Cl  Cl24  1  0.80425000  0.93868000  0.70476000  1.0 -0.0403682071
Cl  Cl25  1  0.70476000  0.93868000  0.80425000  1.0 -0.0403682071
Cl  Cl26  1  0.80425000  0.70476000  0.93868000  1.0 -0.0403682071
Cl  Cl27  1  0.93868000  0.80425000  0.70476000  1.0 -0.0403682071
Cl  Cl28  1  0.93868000  0.70476000  0.19575000  1.0 -0.0403682071
Cl  Cl29  1  0.93868000  0.29524000  0.80425000  1.0 -0.0403682071
Cl  Cl30  1  0.06132000  0.70476000  0.80425000  1.0 -0.0403682071
Cl  Cl31  1  0.70476000  0.80425000  0.06132000  1.0 -0.0403682071
Cl  Cl32  1  0.29524000  0.80425000  0.93868000  1.0 -0.0403682071
Cl  Cl33  1  0.70476000  0.19575000  0.93868000  1.0 -0.0403682071
Cl  Cl34  1  0.80425000  0.93868000  0.29524000  1.0 -0.0403682071
Cl  Cl35  1  0.80425000  0.06132000  0.70476000  1.0 -0.0403682071
Cl  Cl36  1  0.19575000  0.93868000  0.70476000  1.0 -0.0403682071
Cl  Cl37  1  0.29524000  0.06132000  0.80425000  1.0 -0.0403682071
Cl  Cl38  1  0.29524000  0.93868000  0.19575000  1.0 -0.0403682071
Cl  Cl39  1  0.70476000  0.06132000  0.19575000  1.0 -0.0403682071
Cl  Cl40  1  0.80425000  0.29524000  0.06132000  1.0 -0.0403682071
Cl  Cl41  1  0.19575000  0.29524000  0.93868000  1.0 -0.0403682071
Cl  Cl42  1  0.19575000  0.70476000  0.06132000  1.0 -0.0403682071
Cl  Cl43  1  0.06132000  0.80425000  0.29524000  1.0 -0.0403682071
Cl  Cl44  1  0.93868000  0.19575000  0.29524000  1.0 -0.0403682071
Cl  Cl45  1  0.06132000  0.19575000  0.70476000  1.0 -0.0403682071
Cl  Cl46  1  0.06132000  0.29524000  0.19575000  1.0 -0.0403682071
Cl  Cl47  1  0.29524000  0.19575000  0.06132000  1.0 -0.0403682071
Cl  Cl48  1  0.19575000  0.06132000  0.29524000  1.0 -0.0403682071
Cl  Cl49  1  0.43960000  0.05150000  0.36270000  1.0 0.0334822037
Cl  Cl50  1  0.36270000  0.43960000  0.05150000  1.0 0.0334822037
Cl  Cl51  1  0.05150000  0.36270000  0.43960000  1.0 0.0334822037
Cl  Cl52  1  0.05150000  0.43960000  0.63730000  1.0 0.0334822037
Cl  Cl53  1  0.05150000  0.56040000  0.36270000  1.0 0.0334822037
Cl  Cl54  1  0.94850000  0.43960000  0.36270000  1.0 0.0334822037
Cl  Cl55  1  0.43960000  0.36270000  0.94850000  1.0 0.0334822037
Cl  Cl56  1  0.56040000  0.36270000  0.05150000  1.0 0.0334822037
Cl  Cl57  1  0.43960000  0.63730000  0.05150000  1.0 0.0334822037
Cl  Cl58  1  0.36270000  0.05150000  0.56040000  1.0 0.0334822037
Cl  Cl59  1  0.36270000  0.94850000  0.43960000  1.0 0.0334822037
Cl  Cl60  1  0.63730000  0.05150000  0.43960000  1.0 0.0334822037
Cl  Cl61  1  0.56040000  0.94850000  0.36270000  1.0 0.0334822037
Cl  Cl62  1  0.56040000  0.05150000  0.63730000  1.0 0.0334822037
Cl  Cl63  1  0.43960000  0.94850000  0.63730000  1.0 0.0334822037
Cl  Cl64  1  0.36270000  0.56040000  0.94850000  1.0 0.0334822037
Cl  Cl65  1  0.63730000  0.56040000  0.05150000  1.0 0.0334822037
Cl  Cl66  1  0.63730000  0.43960000  0.94850000  1.0 0.0334822037
Cl  Cl67  1  0.94850000  0.36270000  0.56040000  1.0 0.0334822037
Cl  Cl68  1  0.05150000  0.63730000  0.56040000  1.0 0.0334822037
Cl  Cl69  1  0.94850000  0.63730000  0.43960000  1.0 0.0334822037
Cl  Cl70  1  0.94850000  0.56040000  0.63730000  1.0 0.0334822037
Cl  Cl71  1  0.56040000  0.63730000  0.94850000  1.0 0.0334822037
Cl  Cl72  1  0.63730000  0.94850000  0.56040000  1.0 0.0334822037
Cl  Cl73  1  0.56040000  0.94850000  0.63730000  1.0 0.0334822037
Cl  Cl74  1  0.63730000  0.56040000  0.94850000  1.0 0.0334822037
Cl  Cl75  1  0.94850000  0.63730000  0.56040000  1.0 0.0334822037
Cl  Cl76  1  0.94850000  0.56040000  0.36270000  1.0 0.0334822037
Cl  Cl77  1  0.94850000  0.43960000  0.63730000  1.0 0.0334822037
Cl  Cl78  1  0.05150000  0.56040000  0.63730000  1.0 0.0334822037
Cl  Cl79  1  0.56040000  0.63730000  0.05150000  1.0 0.0334822037
Cl  Cl80  1  0.43960000  0.63730000  0.94850000  1.0 0.0334822037
Cl  Cl81  1  0.56040000  0.36270000  0.94850000  1.0 0.0334822037
Cl  Cl82  1  0.63730000  0.94850000  0.43960000  1.0 0.0334822037
Cl  Cl83  1  0.63730000  0.05150000  0.56040000  1.0 0.0334822037
Cl  Cl84  1  0.36270000  0.94850000  0.56040000  1.0 0.0334822037
Cl  Cl85  1  0.43960000  0.05150000  0.63730000  1.0 0.0334822037
Cl  Cl86  1  0.43960000  0.94850000  0.36270000  1.0 0.0334822037
Cl  Cl87  1  0.56040000  0.05150000  0.36270000  1.0 0.0334822037
Cl  Cl88  1  0.63730000  0.43960000  0.05150000  1.0 0.0334822037
Cl  Cl89  1  0.36270000  0.43960000  0.94850000  1.0 0.0334822037
Cl  Cl90  1  0.36270000  0.56040000  0.05150000  1.0 0.0334822037
Cl  Cl91  1  0.05150000  0.63730000  0.43960000  1.0 0.0334822037
Cl  Cl92  1  0.94850000  0.36270000  0.43960000  1.0 0.0334822037
Cl  Cl93  1  0.05150000  0.36270000  0.56040000  1.0 0.0334822037
Cl  Cl94  1  0.05150000  0.43960000  0.36270000  1.0 0.0334822037
Cl  Cl95  1  0.43960000  0.36270000  0.05150000  1.0 0.0334822037
Cl  Cl96  1  0.36270000  0.05150000  0.43960000  1.0 0.0334822037
Cl  Cl97  1  0.39725000  0.21499000  0.31110000  1.0 -0.0672007882
Cl  Cl98  1  0.31110000  0.39725000  0.21499000  1.0 -0.0672007882
Cl  Cl99  1  0.21499000  0.31110000  0.39725000  1.0 -0.0672007882
Cl  Cl100  1  0.21499000  0.39725000  0.68890000  1.0 -0.0644286141
Cl  Cl101  1  0.21499000  0.60275000  0.31110000  1.0 -0.0672007882
Cl  Cl102  1  0.78501000  0.39725000  0.31110000  1.0 -0.0672007882
Cl  Cl103  1  0.39725000  0.31110000  0.78501000  1.0 -0.0672007882
Cl  Cl104  1  0.60275000  0.31110000  0.21499000  1.0 -0.0672007882
Cl  Cl105  1  0.39725000  0.68890000  0.21499000  1.0 -0.0672007882
Cl  Cl106  1  0.31110000  0.21499000  0.60275000  1.0 -0.0672007882
Cl  Cl107  1  0.31110000  0.78501000  0.39725000  1.0 -0.0672007882
Cl  Cl108  1  0.68890000  0.21499000  0.39725000  1.0 -0.0672007882
Cl  Cl109  1  0.60275000  0.78501000  0.31110000  1.0 -0.0672007882
Cl  Cl110  1  0.60275000  0.21499000  0.68890000  1.0 -0.0672007882
Cl  Cl111  1  0.39725000  0.78501000  0.68890000  1.0 -0.0672007882
Cl  Cl112  1  0.31110000  0.60275000  0.78501000  1.0 -0.0672007882
Cl  Cl113  1  0.68890000  0.60275000  0.21499000  1.0 -0.0672007882
Cl  Cl114  1  0.68890000  0.39725000  0.78501000  1.0 -0.0672007882
Cl  Cl115  1  0.78501000  0.31110000  0.60275000  1.0 -0.0672007882
Cl  Cl116  1  0.21499000  0.68890000  0.60275000  1.0 -0.0672007882
Cl  Cl117  1  0.78501000  0.68890000  0.39725000  1.0 -0.0672007882
Cl  Cl118  1  0.78501000  0.60275000  0.68890000  1.0 -0.0672007882
Cl  Cl119  1  0.60275000  0.68890000  0.78501000  1.0 -0.0672007882
Cl  Cl120  1  0.68890000  0.78501000  0.60275000  1.0 -0.0672007882
Cl  Cl121  1  0.60275000  0.78501000  0.68890000  1.0 -0.0672007882
Cl  Cl122  1  0.68890000  0.60275000  0.78501000  1.0 -0.0672007882
Cl  Cl123  1  0.78501000  0.68890000  0.60275000  1.0 -0.0672007882
Cl  Cl124  1  0.78501000  0.60275000  0.31110000  1.0 -0.0672007882
Cl  Cl125  1  0.78501000  0.39725000  0.68890000  1.0 -0.0672007882
Cl  Cl126  1  0.21499000  0.60275000  0.68890000  1.0 -0.0672007882
Cl  Cl127  1  0.60275000  0.68890000  0.21499000  1.0 -0.0672007882
Cl  Cl128  1  0.39725000  0.68890000  0.78501000  1.0 -0.0672007882
Cl  Cl129  1  0.60275000  0.31110000  0.78501000  1.0 -0.0672007882
Cl  Cl130  1  0.68890000  0.78501000  0.39725000  1.0 -0.0672007882
Cl  Cl131  1  0.68890000  0.21499000  0.60275000  1.0 -0.0672007882
Cl  Cl132  1  0.31110000  0.78501000  0.60275000  1.0 -0.0672007882
Cl  Cl133  1  0.39725000  0.21499000  0.68890000  1.0 -0.0644286141
Cl  Cl134  1  0.39725000  0.78501000  0.31110000  1.0 -0.0672007882
Cl  Cl135  1  0.60275000  0.21499000  0.31110000  1.0 -0.0672007882
Cl  Cl136  1  0.68890000  0.39725000  0.21499000  1.0 -0.0672007882
Cl  Cl137  1  0.31110000  0.39725000  0.78501000  1.0 -0.0672007882
Cl  Cl138  1  0.31110000  0.60275000  0.21499000  1.0 -0.0672007882
Cl  Cl139  1  0.21499000  0.68890000  0.39725000  1.0 -0.0672007882
Cl  Cl140  1  0.78501000  0.31110000  0.39725000  1.0 -0.0672007882
Cl  Cl141  1  0.21499000  0.31110000  0.60275000  1.0 -0.0672007882
Cl  Cl142  1  0.21499000  0.39725000  0.31110000  1.0 -0.0672007882
Cl  Cl143  1  0.39725000  0.31110000  0.21499000  1.0 -0.0672007882
Cl  Cl144  1  0.31110000  0.21499000  0.39725000  1.0 -0.0672007882
Cl  Cl145  1  0.43312000  0.05950000  0.14446000  1.0 -0.0520500779
Cl  Cl146  1  0.14446000  0.43312000  0.05950000  1.0 -0.0520500779
Cl  Cl147  1  0.05950000  0.14446000  0.43312000  1.0 -0.0520500779
Cl  Cl148  1  0.05950000  0.43312000  0.85554000  1.0 -0.0520500779
Cl  Cl149  1  0.05950000  0.56688000  0.14446000  1.0 -0.0520500779
Cl  Cl150  1  0.94050000  0.43312000  0.14446000  1.0 -0.0520500779
Cl  Cl151  1  0.43312000  0.14446000  0.94050000  1.0 -0.0520500779
Cl  Cl152  1  0.56688000  0.14446000  0.05950000  1.0 -0.0520500779
Cl  Cl153  1  0.43312000  0.85554000  0.05950000  1.0 -0.0520500779
Cl  Cl154  1  0.14446000  0.05950000  0.56688000  1.0 -0.0520500779
Cl  Cl155  1  0.14446000  0.94050000  0.43312000  1.0 -0.0520500779
Cl  Cl156  1  0.85554000  0.05950000  0.43312000  1.0 -0.0520500779
Cl  Cl157  1  0.56688000  0.94050000  0.14446000  1.0 -0.0520500779
Cl  Cl158  1  0.56688000  0.05950000  0.85554000  1.0 -0.0520500779
Cl  Cl159  1  0.43312000  0.94050000  0.85554000  1.0 -0.0520500779
Cl  Cl160  1  0.14446000  0.56688000  0.94050000  1.0 -0.0520500779
Cl  Cl161  1  0.85554000  0.56688000  0.05950000  1.0 -0.0520500779
Cl  Cl162  1  0.85554000  0.43312000  0.94050000  1.0 -0.0520500779
Cl  Cl163  1  0.94050000  0.14446000  0.56688000  1.0 -0.0520500779
Cl  Cl164  1  0.05950000  0.85554000  0.56688000  1.0 -0.0520500779
Cl  Cl165  1  0.94050000  0.85554000  0.43312000  1.0 -0.0520500779
Cl  Cl166  1  0.94050000  0.56688000  0.85554000  1.0 -0.0520500779
Cl  Cl167  1  0.56688000  0.85554000  0.94050000  1.0 -0.0520500779
Cl  Cl168  1  0.85554000  0.94050000  0.56688000  1.0 -0.0520500779
Cl  Cl169  1  0.56688000  0.94050000  0.85554000  1.0 -0.0520500779
Cl  Cl170  1  0.85554000  0.56688000  0.94050000  1.0 -0.0520500779
Cl  Cl171  1  0.94050000  0.85554000  0.56688000  1.0 -0.0520500779
Cl  Cl172  1  0.94050000  0.56688000  0.14446000  1.0 -0.0520500779
Cl  Cl173  1  0.94050000  0.43312000  0.85554000  1.0 -0.0520500779
Cl  Cl174  1  0.05950000  0.56688000  0.85554000  1.0 -0.0520500779
Cl  Cl175  1  0.56688000  0.85554000  0.05950000  1.0 -0.0520500779
Cl  Cl176  1  0.43312000  0.85554000  0.94050000  1.0 -0.0520500779
Cl  Cl177  1  0.56688000  0.14446000  0.94050000  1.0 -0.0520500779
Cl  Cl178  1  0.85554000  0.94050000  0.43312000  1.0 -0.0520500779
Cl  Cl179  1  0.85554000  0.05950000  0.56688000  1.0 -0.0520500779
Cl  Cl180  1  0.14446000  0.94050000  0.56688000  1.0 -0.0520500779
Cl  Cl181  1  0.43312000  0.05950000  0.85554000  1.0 -0.0520500779
Cl  Cl182  1  0.43312000  0.94050000  0.14446000  1.0 -0.0520500779
Cl  Cl183  1  0.56688000  0.05950000  0.14446000  1.0 -0.0520500779
Cl  Cl184  1  0.85554000  0.43312000  0.05950000  1.0 -0.0520500779
Cl  Cl185  1  0.14446000  0.43312000  0.94050000  1.0 -0.0520500779
Cl  Cl186  1  0.14446000  0.56688000  0.05950000  1.0 -0.0520500779
Cl  Cl187  1  0.05950000  0.85554000  0.43312000  1.0 -0.0520500779
Cl  Cl188  1  0.94050000  0.14446000  0.43312000  1.0 -0.0520500779
Cl  Cl189  1  0.05950000  0.14446000  0.56688000  1.0 -0.0520500779
Cl  Cl190  1  0.05950000  0.43312000  0.14446000  1.0 -0.0520500779
Cl  Cl191  1  0.43312000  0.14446000  0.05950000  1.0 -0.0520500779
Cl  Cl192  1  0.14446000  0.05950000  0.43312000  1.0 -0.0520500779
Cl  Cl193  1  0.43980000  0.08840000  0.36110000  1.0 0.2024979527
Cl  Cl194  1  0.36110000  0.43980000  0.08840000  1.0 0.2024979527
Cl  Cl195  1  0.08840000  0.36110000  0.43980000  1.0 0.2024979527
Cl  Cl196  1  0.08840000  0.43980000  0.63890000  1.0 0.2024979527
Cl  Cl197  1  0.08840000  0.56020000  0.36110000  1.0 0.2024979527
Cl  Cl198  1  0.91160000  0.43980000  0.36110000  1.0 0.2024979527
Cl  Cl199  1  0.43980000  0.36110000  0.91160000  1.0 0.2024979527
Cl  Cl200  1  0.56020000  0.36110000  0.08840000  1.0 0.2024979527
Cl  Cl201  1  0.43980000  0.63890000  0.08840000  1.0 0.2024979527
Cl  Cl202  1  0.36110000  0.08840000  0.56020000  1.0 0.2024979527
Cl  Cl203  1  0.36110000  0.91160000  0.43980000  1.0 0.2024979527
Cl  Cl204  1  0.63890000  0.08840000  0.43980000  1.0 0.2024979527
Cl  Cl205  1  0.56020000  0.91160000  0.36110000  1.0 0.2024979527
Cl  Cl206  1  0.56020000  0.08840000  0.63890000  1.0 0.2024979527
Cl  Cl207  1  0.43980000  0.91160000  0.63890000  1.0 0.2024979527
Cl  Cl208  1  0.36110000  0.56020000  0.91160000  1.0 0.2024979527
Cl  Cl209  1  0.63890000  0.56020000  0.08840000  1.0 0.2024979527
Cl  Cl210  1  0.63890000  0.43980000  0.91160000  1.0 0.2024979527
Cl  Cl211  1  0.91160000  0.36110000  0.56020000  1.0 0.2024979527
Cl  Cl212  1  0.08840000  0.63890000  0.56020000  1.0 0.2024979527
Cl  Cl213  1  0.91160000  0.63890000  0.43980000  1.0 0.2024979527
Cl  Cl214  1  0.91160000  0.56020000  0.63890000  1.0 0.2024979527
Cl  Cl215  1  0.56020000  0.63890000  0.91160000  1.0 0.2024979527
Cl  Cl216  1  0.63890000  0.91160000  0.56020000  1.0 0.2024979527
Cl  Cl217  1  0.56020000  0.91160000  0.63890000  1.0 0.2024979527
Cl  Cl218  1  0.63890000  0.56020000  0.91160000  1.0 0.2024979527
Cl  Cl219  1  0.91160000  0.63890000  0.56020000  1.0 0.2024979527
Cl  Cl220  1  0.91160000  0.56020000  0.36110000  1.0 0.2024979527
Cl  Cl221  1  0.91160000  0.43980000  0.63890000  1.0 0.2024979527
Cl  Cl222  1  0.08840000  0.56020000  0.63890000  1.0 0.2024979527
Cl  Cl223  1  0.56020000  0.63890000  0.08840000  1.0 0.2024979527
Cl  Cl224  1  0.43980000  0.63890000  0.91160000  1.0 0.2024979527
Cl  Cl225  1  0.56020000  0.36110000  0.91160000  1.0 0.2024979527
Cl  Cl226  1  0.63890000  0.91160000  0.43980000  1.0 0.2024979527
Cl  Cl227  1  0.63890000  0.08840000  0.56020000  1.0 0.2024979527
Cl  Cl228  1  0.36110000  0.91160000  0.56020000  1.0 0.2024979527
Cl  Cl229  1  0.43980000  0.08840000  0.63890000  1.0 0.2024979527
Cl  Cl230  1  0.43980000  0.91160000  0.36110000  1.0 0.2024979527
Cl  Cl231  1  0.56020000  0.08840000  0.36110000  1.0 0.2024979527
Cl  Cl232  1  0.63890000  0.43980000  0.08840000  1.0 0.2024979527
Cl  Cl233  1  0.36110000  0.43980000  0.91160000  1.0 0.2024979527
Cl  Cl234  1  0.36110000  0.56020000  0.08840000  1.0 0.2024979527
Cl  Cl235  1  0.08840000  0.63890000  0.43980000  1.0 0.2024979527
Cl  Cl236  1  0.91160000  0.36110000  0.43980000  1.0 0.2024979527
Cl  Cl237  1  0.08840000  0.36110000  0.56020000  1.0 0.2024979527
Cl  Cl238  1  0.08840000  0.43980000  0.36110000  1.0 0.2024979527
Cl  Cl239  1  0.43980000  0.36110000  0.08840000  1.0 0.2024979527
Cl  Cl240  1  0.36110000  0.08840000  0.43980000  1.0 0.2024979527
