# DDEC6 charges by PACMAN v1.1 (https://github.com/mtap-research/PACMAN-charge/)
data_GITVEL_ASR_pacman
_symmetry_space_group_name_H-M   'P 1'
_cell_length_a   27.01110000
_cell_length_b   27.01110000
_cell_length_c   18.02080000
_cell_angle_alpha   90.00000000
_cell_angle_beta   90.00000000
_cell_angle_gamma   120.00000000
_symmetry_Int_Tables_number   1
_chemical_formula_structural   Zn2H15C16N11O6
_chemical_formula_sum   'Zn24 H180 C192 N132 O72'
_cell_volume   11386.47350621
_cell_formula_units_Z   12
loop_
 _symmetry_equiv_pos_site_id
 _symmetry_equiv_pos_as_xyz
  1  'x, y, z'
loop_
 _atom_site_type_symbol
 _atom_site_label
 _atom_site_symmetry_multiplicity
 _atom_site_fract_x
 _atom_site_fract_y
 _atom_site_fract_z
 _atom_site_occupancy
 _atom_site_charge
Zn  Zn1  1  0.66721000  0.11074000  0.42033000  1.0 0.6501402398
Zn  Zn2  1  0.88926000  0.55647000  0.42033000  1.0 0.6501402398
Zn  Zn3  1  0.44353000  0.33279000  0.42033000  1.0 0.6501402398
Zn  Zn4  1  0.11074000  0.44353000  0.92033000  1.0 0.6501402398
Zn  Zn5  1  0.55647000  0.66721000  0.92033000  1.0 0.6501402398
Zn  Zn6  1  0.11074000  0.66721000  0.57967000  1.0 0.6501402398
Zn  Zn7  1  0.44353000  0.11074000  0.07967000  1.0 0.6501402398
Zn  Zn8  1  0.66721000  0.55647000  0.07967000  1.0 0.6501402398
Zn  Zn9  1  0.33279000  0.88926000  0.92033000  1.0 0.6501402398
Zn  Zn10  1  0.55647000  0.88926000  0.57967000  1.0 0.6501402398
Zn  Zn11  1  0.33279000  0.44353000  0.57967000  1.0 0.6501402398
Zn  Zn12  1  0.88926000  0.33279000  0.07967000  1.0 0.6501402398
Zn  Zn13  1  0.33279000  0.88926000  0.57967000  1.0 0.6501402398
Zn  Zn14  1  0.11074000  0.44353000  0.57967000  1.0 0.6501402398
Zn  Zn15  1  0.55647000  0.66721000  0.57967000  1.0 0.6501402398
Zn  Zn16  1  0.88926000  0.55647000  0.07967000  1.0 0.6501402398
Zn  Zn17  1  0.44353000  0.33279000  0.07967000  1.0 0.6501402398
Zn  Zn18  1  0.88926000  0.33279000  0.42033000  1.0 0.6501402398
Zn  Zn19  1  0.55647000  0.88926000  0.92033000  1.0 0.6501402398
Zn  Zn20  1  0.33279000  0.44353000  0.92033000  1.0 0.6501402398
Zn  Zn21  1  0.66721000  0.11074000  0.07967000  1.0 0.6501402398
Zn  Zn22  1  0.44353000  0.11074000  0.42033000  1.0 0.6501402398
Zn  Zn23  1  0.66721000  0.55647000  0.42033000  1.0 0.6501402398
Zn  Zn24  1  0.11074000  0.66721000  0.92033000  1.0 0.6501402398
H  H1  1  0.75570000  0.15500000  0.55460000  1.0 0.1291093734
H  H2  1  0.84500000  0.60070000  0.55460000  1.0 0.1291093734
H  H3  1  0.39930000  0.24430000  0.55460000  1.0 0.1291093734
H  H4  1  0.15500000  0.39930000  0.05460000  1.0 0.1291093734
H  H5  1  0.60070000  0.75570000  0.05460000  1.0 0.1291093734
H  H6  1  0.15500000  0.75570000  0.44540000  1.0 0.1291093734
H  H7  1  0.39930000  0.15500000  0.94540000  1.0 0.1291093734
H  H8  1  0.75570000  0.60070000  0.94540000  1.0 0.1291093734
H  H9  1  0.24430000  0.84500000  0.05460000  1.0 0.1291093734
H  H10  1  0.60070000  0.84500000  0.44540000  1.0 0.1291093734
H  H11  1  0.24430000  0.39930000  0.44540000  1.0 0.1291093734
H  H12  1  0.84500000  0.24430000  0.94540000  1.0 0.1291093734
H  H13  1  0.24430000  0.84500000  0.44540000  1.0 0.1291093734
H  H14  1  0.15500000  0.39930000  0.44540000  1.0 0.1291093734
H  H15  1  0.60070000  0.75570000  0.44540000  1.0 0.1291093734
H  H16  1  0.84500000  0.60070000  0.94540000  1.0 0.1291093734
H  H17  1  0.39930000  0.24430000  0.94540000  1.0 0.1291093734
H  H18  1  0.84500000  0.24430000  0.55460000  1.0 0.1291093734
H  H19  1  0.60070000  0.84500000  0.05460000  1.0 0.1291093734
H  H20  1  0.24430000  0.39930000  0.05460000  1.0 0.1291093734
H  H21  1  0.75570000  0.15500000  0.94540000  1.0 0.1291093734
H  H22  1  0.39930000  0.15500000  0.55460000  1.0 0.1291093734
H  H23  1  0.75570000  0.60070000  0.55460000  1.0 0.1291093734
H  H24  1  0.15500000  0.75570000  0.05460000  1.0 0.1291093734
H  H25  1  0.77770000  0.22230000  0.37120000  1.0 0.1291093734
H  H26  1  0.77770000  0.55540000  0.37120000  1.0 0.1291093734
H  H27  1  0.44460000  0.22230000  0.37120000  1.0 0.1291093734
H  H28  1  0.22230000  0.44460000  0.87120000  1.0 0.1291093734
H  H29  1  0.55540000  0.77770000  0.87120000  1.0 0.1291093734
H  H30  1  0.22230000  0.77770000  0.62880000  1.0 0.1291093734
H  H31  1  0.44460000  0.22230000  0.12880000  1.0 0.1291093734
H  H32  1  0.77770000  0.55540000  0.12880000  1.0 0.1291093734
H  H33  1  0.22230000  0.77770000  0.87120000  1.0 0.1291093734
H  H34  1  0.55540000  0.77770000  0.62880000  1.0 0.1291093734
H  H35  1  0.22230000  0.44460000  0.62880000  1.0 0.1291093734
H  H36  1  0.77770000  0.22230000  0.12880000  1.0 0.1291093734
H  H37  1  0.67060000  0.01630000  0.31720000  1.0 0.1291093734
H  H38  1  0.98370000  0.65430000  0.31720000  1.0 0.1291093734
H  H39  1  0.34570000  0.32940000  0.31720000  1.0 0.1291093734
H  H40  1  0.01630000  0.34570000  0.81720000  1.0 0.1291093734
H  H41  1  0.65430000  0.67060000  0.81720000  1.0 0.1291093734
H  H42  1  0.01630000  0.67060000  0.68280000  1.0 0.1291093734
H  H43  1  0.34570000  0.01630000  0.18280000  1.0 0.1291093734
H  H44  1  0.67060000  0.65430000  0.18280000  1.0 0.1291093734
H  H45  1  0.32940000  0.98370000  0.81720000  1.0 0.1291093734
H  H46  1  0.65430000  0.98370000  0.68280000  1.0 0.1291093734
H  H47  1  0.32940000  0.34570000  0.68280000  1.0 0.1291093734
H  H48  1  0.98370000  0.32940000  0.18280000  1.0 0.1291093734
H  H49  1  0.32940000  0.98370000  0.68280000  1.0 0.1291093734
H  H50  1  0.01630000  0.34570000  0.68280000  1.0 0.1291093734
H  H51  1  0.65430000  0.67060000  0.68280000  1.0 0.1291093734
H  H52  1  0.98370000  0.65430000  0.18280000  1.0 0.1291093734
H  H53  1  0.34570000  0.32940000  0.18280000  1.0 0.1291093734
H  H54  1  0.98370000  0.32940000  0.31720000  1.0 0.1291093734
H  H55  1  0.65430000  0.98370000  0.81720000  1.0 0.1291093734
H  H56  1  0.32940000  0.34570000  0.81720000  1.0 0.1291093734
H  H57  1  0.67060000  0.01630000  0.18280000  1.0 0.1291093734
H  H58  1  0.34570000  0.01630000  0.31720000  1.0 0.1291093734
H  H59  1  0.67060000  0.65430000  0.31720000  1.0 0.1291093734
H  H60  1  0.01630000  0.67060000  0.81720000  1.0 0.1291093734
H  H61  1  0.54640000  0.09280000  0.37300000  1.0 0.1686279987
H  H62  1  0.90720000  0.45360000  0.37300000  1.0 0.1686279987
H  H63  1  0.54640000  0.45360000  0.37300000  1.0 0.1686279987
H  H64  1  0.09280000  0.54640000  0.87300000  1.0 0.1686279987
H  H65  1  0.45360000  0.54640000  0.87300000  1.0 0.1686279987
H  H66  1  0.09280000  0.54640000  0.62700000  1.0 0.1686279987
H  H67  1  0.54640000  0.09280000  0.12700000  1.0 0.1686279987
H  H68  1  0.54640000  0.45360000  0.12700000  1.0 0.1686279987
H  H69  1  0.45360000  0.90720000  0.87300000  1.0 0.1686279987
H  H70  1  0.45360000  0.90720000  0.62700000  1.0 0.1686279987
H  H71  1  0.45360000  0.54640000  0.62700000  1.0 0.1686279987
H  H72  1  0.90720000  0.45360000  0.12700000  1.0 0.1686279987
H  H73  1  0.59880000  0.10990000  0.56830000  1.0 0.1198896072
H  H74  1  0.89010000  0.48890000  0.56830000  1.0 0.1198896072
H  H75  1  0.51110000  0.40120000  0.56830000  1.0 0.1198896072
H  H76  1  0.10990000  0.51110000  0.06830000  1.0 0.1198896072
H  H77  1  0.48890000  0.59880000  0.06830000  1.0 0.1198896072
H  H78  1  0.10990000  0.59880000  0.43170000  1.0 0.1198896072
H  H79  1  0.51110000  0.10990000  0.93170000  1.0 0.1198896072
H  H80  1  0.59880000  0.48890000  0.93170000  1.0 0.1198896072
H  H81  1  0.40120000  0.89010000  0.06830000  1.0 0.1198896072
H  H82  1  0.48890000  0.89010000  0.43170000  1.0 0.1198896072
H  H83  1  0.40120000  0.51110000  0.43170000  1.0 0.1198896072
H  H84  1  0.89010000  0.40120000  0.93170000  1.0 0.1198896072
H  H85  1  0.40120000  0.89010000  0.43170000  1.0 0.1198896072
H  H86  1  0.10990000  0.51110000  0.43170000  1.0 0.1198896072
H  H87  1  0.48890000  0.59880000  0.43170000  1.0 0.1198896072
H  H88  1  0.89010000  0.48890000  0.93170000  1.0 0.1198896072
H  H89  1  0.51110000  0.40120000  0.93170000  1.0 0.1198896072
H  H90  1  0.89010000  0.40120000  0.56830000  1.0 0.1198896072
H  H91  1  0.48890000  0.89010000  0.06830000  1.0 0.1198896072
H  H92  1  0.40120000  0.51110000  0.06830000  1.0 0.1198896072
H  H93  1  0.59880000  0.10990000  0.93170000  1.0 0.1198896072
H  H94  1  0.51110000  0.10990000  0.56830000  1.0 0.1198896072
H  H95  1  0.59880000  0.48890000  0.56830000  1.0 0.1198896072
H  H96  1  0.10990000  0.59880000  0.06830000  1.0 0.1198896072
H  H97  1  0.73750000  0.04560000  0.46770000  1.0 0.1198896072
H  H98  1  0.95440000  0.69190000  0.46770000  1.0 0.1198896072
H  H99  1  0.30810000  0.26250000  0.46770000  1.0 0.1198896072
H  H100  1  0.04560000  0.30810000  0.96770000  1.0 0.1198896072
H  H101  1  0.69190000  0.73750000  0.96770000  1.0 0.1198896072
H  H102  1  0.04560000  0.73750000  0.53230000  1.0 0.1198896072
H  H103  1  0.30810000  0.04560000  0.03230000  1.0 0.1198896072
H  H104  1  0.73750000  0.69190000  0.03230000  1.0 0.1198896072
H  H105  1  0.26250000  0.95440000  0.96770000  1.0 0.1198896072
H  H106  1  0.69190000  0.95440000  0.53230000  1.0 0.1198896072
H  H107  1  0.26250000  0.30810000  0.53230000  1.0 0.1198896072
H  H108  1  0.95440000  0.26250000  0.03230000  1.0 0.1198896072
H  H109  1  0.26250000  0.95440000  0.53230000  1.0 0.1198896072
H  H110  1  0.04560000  0.30810000  0.53230000  1.0 0.1198896072
H  H111  1  0.69190000  0.73750000  0.53230000  1.0 0.1198896072
H  H112  1  0.95440000  0.69190000  0.03230000  1.0 0.1198896072
H  H113  1  0.30810000  0.26250000  0.03230000  1.0 0.1198896072
H  H114  1  0.95440000  0.26250000  0.46770000  1.0 0.1198896072
H  H115  1  0.69190000  0.95440000  0.96770000  1.0 0.1198896072
H  H116  1  0.26250000  0.30810000  0.96770000  1.0 0.1198896072
H  H117  1  0.73750000  0.04560000  0.03230000  1.0 0.1198896072
H  H118  1  0.30810000  0.04560000  0.46770000  1.0 0.1198896072
H  H119  1  0.73750000  0.69190000  0.46770000  1.0 0.1198896072
H  H120  1  0.04560000  0.73750000  0.96770000  1.0 0.1198896072
H  H121  1  0.57800000  0.00000000  0.50000000  1.0 0.0999091569
H  H122  1  0.00000000  0.57800000  0.50000000  1.0 0.0999091569
H  H123  1  0.42200000  0.42200000  0.50000000  1.0 0.0999091569
H  H124  1  0.00000000  0.42200000  0.00000000  1.0 0.0999091569
H  H125  1  0.57800000  0.57800000  0.00000000  1.0 0.0999091569
H  H126  1  0.42200000  0.00000000  0.00000000  1.0 0.0999091569
H  H127  1  0.42200000  0.00000000  0.50000000  1.0 0.0999091569
H  H128  1  0.00000000  0.42200000  0.50000000  1.0 0.0999091569
H  H129  1  0.57800000  0.57800000  0.50000000  1.0 0.0999091569
H  H130  1  0.00000000  0.57800000  0.00000000  1.0 0.0999091569
H  H131  1  0.42200000  0.42200000  0.00000000  1.0 0.0999091569
H  H132  1  0.57800000  0.00000000  0.00000000  1.0 0.0999091569
H  H133  1  0.68780000  0.21980000  0.50970000  1.0 0.093364832
H  H134  1  0.78020000  0.46800000  0.50970000  1.0 0.093364832
H  H135  1  0.53200000  0.31220000  0.50970000  1.0 0.093364832
H  H136  1  0.21980000  0.53200000  0.00970000  1.0 0.093364832
H  H137  1  0.46800000  0.68780000  0.00970000  1.0 0.093364832
H  H138  1  0.21980000  0.68780000  0.49030000  1.0 0.093364832
H  H139  1  0.53200000  0.21980000  0.99030000  1.0 0.093364832
H  H140  1  0.68780000  0.46800000  0.99030000  1.0 0.093364832
H  H141  1  0.31220000  0.78020000  0.00970000  1.0 0.093364832
H  H142  1  0.46800000  0.78020000  0.49030000  1.0 0.093364832
H  H143  1  0.31220000  0.53200000  0.49030000  1.0 0.093364832
H  H144  1  0.78020000  0.31220000  0.99030000  1.0 0.093364832
H  H145  1  0.31220000  0.78020000  0.49030000  1.0 0.093364832
H  H146  1  0.21980000  0.53200000  0.49030000  1.0 0.093364832
H  H147  1  0.46800000  0.68780000  0.49030000  1.0 0.093364832
H  H148  1  0.78020000  0.46800000  0.99030000  1.0 0.093364832
H  H149  1  0.53200000  0.31220000  0.99030000  1.0 0.093364832
H  H150  1  0.78020000  0.31220000  0.50970000  1.0 0.093364832
H  H151  1  0.46800000  0.78020000  0.00970000  1.0 0.093364832
H  H152  1  0.31220000  0.53200000  0.00970000  1.0 0.093364832
H  H153  1  0.68780000  0.21980000  0.99030000  1.0 0.093364832
H  H154  1  0.53200000  0.21980000  0.50970000  1.0 0.093364832
H  H155  1  0.68780000  0.46800000  0.50970000  1.0 0.093364832
H  H156  1  0.21980000  0.68780000  0.00970000  1.0 0.093364832
H  H157  1  0.64140000  0.19200000  0.51960000  1.0 0.0747301718
H  H158  1  0.80800000  0.44940000  0.51960000  1.0 0.0747301718
H  H159  1  0.55060000  0.35860000  0.51960000  1.0 0.0747301718
H  H160  1  0.19200000  0.55060000  0.01960000  1.0 0.0747301718
H  H161  1  0.44940000  0.64140000  0.01960000  1.0 0.0747301718
H  H162  1  0.19200000  0.64140000  0.48040000  1.0 0.0747301718
H  H163  1  0.55060000  0.19200000  0.98040000  1.0 0.0747301718
H  H164  1  0.64140000  0.44940000  0.98040000  1.0 0.0747301718
H  H165  1  0.35860000  0.80800000  0.01960000  1.0 0.0747301718
H  H166  1  0.44940000  0.80800000  0.48040000  1.0 0.0747301718
H  H167  1  0.35860000  0.55060000  0.48040000  1.0 0.0747301718
H  H168  1  0.80800000  0.35860000  0.98040000  1.0 0.0747301718
H  H169  1  0.35860000  0.80800000  0.48040000  1.0 0.0747301718
H  H170  1  0.19200000  0.55060000  0.48040000  1.0 0.0747301718
H  H171  1  0.44940000  0.64140000  0.48040000  1.0 0.0747301718
H  H172  1  0.80800000  0.44940000  0.98040000  1.0 0.0747301718
H  H173  1  0.55060000  0.35860000  0.98040000  1.0 0.0747301718
H  H174  1  0.80800000  0.35860000  0.51960000  1.0 0.0747301718
H  H175  1  0.44940000  0.80800000  0.01960000  1.0 0.0747301718
H  H176  1  0.35860000  0.55060000  0.01960000  1.0 0.0747301718
H  H177  1  0.64140000  0.19200000  0.98040000  1.0 0.0747301718
H  H178  1  0.55060000  0.19200000  0.51960000  1.0 0.0747301718
H  H179  1  0.64140000  0.44940000  0.51960000  1.0 0.0747301718
H  H180  1  0.19200000  0.64140000  0.01960000  1.0 0.0747301718
C  C1  1  0.76780000  0.18280000  0.51770000  1.0 -0.0596536977
C  C2  1  0.81720000  0.58500000  0.51770000  1.0 -0.0596536977
C  C3  1  0.41500000  0.23220000  0.51770000  1.0 -0.0596536977
C  C4  1  0.18280000  0.41500000  0.01770000  1.0 -0.0596536977
C  C5  1  0.58500000  0.76780000  0.01770000  1.0 -0.0596536977
C  C6  1  0.18280000  0.76780000  0.48230000  1.0 -0.0596536977
C  C7  1  0.41500000  0.18280000  0.98230000  1.0 -0.0596536977
C  C8  1  0.76780000  0.58500000  0.98230000  1.0 -0.0596536977
C  C9  1  0.23220000  0.81720000  0.01770000  1.0 -0.0596536977
C  C10  1  0.58500000  0.81720000  0.48230000  1.0 -0.0596536977
C  C11  1  0.23220000  0.41500000  0.48230000  1.0 -0.0596536977
C  C12  1  0.81720000  0.23220000  0.98230000  1.0 -0.0596536977
C  C13  1  0.23220000  0.81720000  0.48230000  1.0 -0.0596536977
C  C14  1  0.18280000  0.41500000  0.48230000  1.0 -0.0596536977
C  C15  1  0.58500000  0.76780000  0.48230000  1.0 -0.0596536977
C  C16  1  0.81720000  0.58500000  0.98230000  1.0 -0.0596536977
C  C17  1  0.41500000  0.23220000  0.98230000  1.0 -0.0596536977
C  C18  1  0.81720000  0.23220000  0.51770000  1.0 -0.0596536977
C  C19  1  0.58500000  0.81720000  0.01770000  1.0 -0.0596536977
C  C20  1  0.23220000  0.41500000  0.01770000  1.0 -0.0596536977
C  C21  1  0.76780000  0.18280000  0.98230000  1.0 -0.0596536977
C  C22  1  0.41500000  0.18280000  0.51770000  1.0 -0.0596536977
C  C23  1  0.76780000  0.58500000  0.51770000  1.0 -0.0596536977
C  C24  1  0.18280000  0.76780000  0.01770000  1.0 -0.0596536977
C  C25  1  0.77850000  0.22150000  0.42270000  1.0 0.176876246
C  C26  1  0.77850000  0.55700000  0.42270000  1.0 0.176876246
C  C27  1  0.44300000  0.22150000  0.42270000  1.0 0.176876246
C  C28  1  0.22150000  0.44300000  0.92270000  1.0 0.176876246
C  C29  1  0.55700000  0.77850000  0.92270000  1.0 0.176876246
C  C30  1  0.22150000  0.77850000  0.57730000  1.0 0.176876246
C  C31  1  0.44300000  0.22150000  0.07730000  1.0 0.176876246
C  C32  1  0.77850000  0.55700000  0.07730000  1.0 0.176876246
C  C33  1  0.22150000  0.77850000  0.92270000  1.0 0.176876246
C  C34  1  0.55700000  0.77850000  0.57730000  1.0 0.176876246
C  C35  1  0.22150000  0.44300000  0.57730000  1.0 0.176876246
C  C36  1  0.77850000  0.22150000  0.07730000  1.0 0.176876246
C  C37  1  0.66990000  0.04400000  0.28730000  1.0 0.0020052951
C  C38  1  0.95600000  0.62590000  0.28730000  1.0 0.0020052951
C  C39  1  0.37410000  0.33010000  0.28730000  1.0 0.0020052951
C  C40  1  0.04400000  0.37410000  0.78730000  1.0 0.0020052951
C  C41  1  0.62590000  0.66990000  0.78730000  1.0 0.0020052951
C  C42  1  0.04400000  0.66990000  0.71270000  1.0 0.0020052951
C  C43  1  0.37410000  0.04400000  0.21270000  1.0 0.0020052951
C  C44  1  0.66990000  0.62590000  0.21270000  1.0 0.0020052951
C  C45  1  0.33010000  0.95600000  0.78730000  1.0 0.0020052951
C  C46  1  0.62590000  0.95600000  0.71270000  1.0 0.0020052951
C  C47  1  0.33010000  0.37410000  0.71270000  1.0 0.0020052951
C  C48  1  0.95600000  0.33010000  0.21270000  1.0 0.0020052951
C  C49  1  0.33010000  0.95600000  0.71270000  1.0 0.0020052951
C  C50  1  0.04400000  0.37410000  0.71270000  1.0 0.0020052951
C  C51  1  0.62590000  0.66990000  0.71270000  1.0 0.0020052951
C  C52  1  0.95600000  0.62590000  0.21270000  1.0 0.0020052951
C  C53  1  0.37410000  0.33010000  0.21270000  1.0 0.0020052951
C  C54  1  0.95600000  0.33010000  0.28730000  1.0 0.0020052951
C  C55  1  0.62590000  0.95600000  0.78730000  1.0 0.0020052951
C  C56  1  0.33010000  0.37410000  0.78730000  1.0 0.0020052951
C  C57  1  0.66990000  0.04400000  0.21270000  1.0 0.0020052951
C  C58  1  0.37410000  0.04400000  0.28730000  1.0 0.0020052951
C  C59  1  0.66990000  0.62590000  0.28730000  1.0 0.0020052951
C  C60  1  0.04400000  0.66990000  0.78730000  1.0 0.0020052951
C  C61  1  0.66860000  0.11580000  0.25000000  1.0 0.2925848057
C  C62  1  0.88420000  0.55280000  0.25000000  1.0 0.2925848057
C  C63  1  0.44720000  0.33140000  0.25000000  1.0 0.2925848057
C  C64  1  0.11580000  0.44720000  0.75000000  1.0 0.2925848057
C  C65  1  0.55280000  0.66860000  0.75000000  1.0 0.2925848057
C  C66  1  0.11580000  0.66860000  0.75000000  1.0 0.2925848057
C  C67  1  0.44720000  0.11580000  0.25000000  1.0 0.2925848057
C  C68  1  0.66860000  0.55280000  0.25000000  1.0 0.2925848057
C  C69  1  0.33140000  0.88420000  0.75000000  1.0 0.2925848057
C  C70  1  0.55280000  0.88420000  0.75000000  1.0 0.2925848057
C  C71  1  0.33140000  0.44720000  0.75000000  1.0 0.2925848057
C  C72  1  0.88420000  0.33140000  0.25000000  1.0 0.2925848057
C  C73  1  0.55376000  0.10750000  0.42090000  1.0 0.1291093734
C  C74  1  0.89250000  0.44626000  0.42090000  1.0 0.1291093734
C  C75  1  0.55374000  0.44624000  0.42090000  1.0 0.1291093734
C  C76  1  0.10750000  0.55374000  0.92090000  1.0 0.1291093734
C  C77  1  0.44626000  0.55376000  0.92090000  1.0 0.1291093734
C  C78  1  0.10750000  0.55374000  0.57910000  1.0 0.1291093734
C  C79  1  0.55376000  0.10750000  0.07910000  1.0 0.1291093734
C  C80  1  0.55374000  0.44624000  0.07910000  1.0 0.1291093734
C  C81  1  0.44624000  0.89250000  0.92090000  1.0 0.1291093734
C  C82  1  0.44624000  0.89250000  0.57910000  1.0 0.1291093734
C  C83  1  0.44626000  0.55376000  0.57910000  1.0 0.1291093734
C  C84  1  0.89250000  0.44626000  0.07910000  1.0 0.1291093734
C  C85  1  0.58040000  0.11270000  0.52620000  1.0 -0.0540343761
C  C86  1  0.88730000  0.46770000  0.52620000  1.0 -0.0540343761
C  C87  1  0.53230000  0.41960000  0.52620000  1.0 -0.0540343761
C  C88  1  0.11270000  0.53230000  0.02620000  1.0 -0.0540343761
C  C89  1  0.46770000  0.58040000  0.02620000  1.0 -0.0540343761
C  C90  1  0.11270000  0.58040000  0.47380000  1.0 -0.0540343761
C  C91  1  0.53230000  0.11270000  0.97380000  1.0 -0.0540343761
C  C92  1  0.58040000  0.46770000  0.97380000  1.0 -0.0540343761
C  C93  1  0.41960000  0.88730000  0.02620000  1.0 -0.0540343761
C  C94  1  0.46770000  0.88730000  0.47380000  1.0 -0.0540343761
C  C95  1  0.41960000  0.53230000  0.47380000  1.0 -0.0540343761
C  C96  1  0.88730000  0.41960000  0.97380000  1.0 -0.0540343761
C  C97  1  0.41960000  0.88730000  0.47380000  1.0 -0.0540343761
C  C98  1  0.11270000  0.53230000  0.47380000  1.0 -0.0540343761
C  C99  1  0.46770000  0.58040000  0.47380000  1.0 -0.0540343761
C  C100  1  0.88730000  0.46770000  0.97380000  1.0 -0.0540343761
C  C101  1  0.53230000  0.41960000  0.97380000  1.0 -0.0540343761
C  C102  1  0.88730000  0.41960000  0.52620000  1.0 -0.0540343761
C  C103  1  0.46770000  0.88730000  0.02620000  1.0 -0.0540343761
C  C104  1  0.41960000  0.53230000  0.02620000  1.0 -0.0540343761
C  C105  1  0.58040000  0.11270000  0.97380000  1.0 -0.0540343761
C  C106  1  0.53230000  0.11270000  0.52620000  1.0 -0.0540343761
C  C107  1  0.58040000  0.46770000  0.52620000  1.0 -0.0540343761
C  C108  1  0.11270000  0.58040000  0.02620000  1.0 -0.0540343761
C  C109  1  0.69940000  0.02540000  0.48240000  1.0 -0.0596536977
C  C110  1  0.97460000  0.67400000  0.48240000  1.0 -0.0596536977
C  C111  1  0.32600000  0.30060000  0.48240000  1.0 -0.0596536977
C  C112  1  0.02540000  0.32600000  0.98240000  1.0 -0.0596536977
C  C113  1  0.67400000  0.69940000  0.98240000  1.0 -0.0596536977
C  C114  1  0.02540000  0.69940000  0.51760000  1.0 -0.0596536977
C  C115  1  0.32600000  0.02540000  0.01760000  1.0 -0.0596536977
C  C116  1  0.69940000  0.67400000  0.01760000  1.0 -0.0596536977
C  C117  1  0.30060000  0.97460000  0.98240000  1.0 -0.0596536977
C  C118  1  0.67400000  0.97460000  0.51760000  1.0 -0.0596536977
C  C119  1  0.30060000  0.32600000  0.51760000  1.0 -0.0596536977
C  C120  1  0.97460000  0.30060000  0.01760000  1.0 -0.0596536977
C  C121  1  0.30060000  0.97460000  0.51760000  1.0 -0.0596536977
C  C122  1  0.02540000  0.32600000  0.51760000  1.0 -0.0596536977
C  C123  1  0.67400000  0.69940000  0.51760000  1.0 -0.0596536977
C  C124  1  0.97460000  0.67400000  0.01760000  1.0 -0.0596536977
C  C125  1  0.32600000  0.30060000  0.01760000  1.0 -0.0596536977
C  C126  1  0.97460000  0.30060000  0.48240000  1.0 -0.0596536977
C  C127  1  0.67400000  0.97460000  0.98240000  1.0 -0.0596536977
C  C128  1  0.30060000  0.32600000  0.98240000  1.0 -0.0596536977
C  C129  1  0.69940000  0.02540000  0.01760000  1.0 -0.0596536977
C  C130  1  0.32600000  0.02540000  0.48240000  1.0 -0.0596536977
C  C131  1  0.69940000  0.67400000  0.48240000  1.0 -0.0596536977
C  C132  1  0.02540000  0.69940000  0.98240000  1.0 -0.0596536977
C  C133  1  0.61240000  0.00000000  0.50000000  1.0 0.1371862134
C  C134  1  0.00000000  0.61240000  0.50000000  1.0 0.1371862134
C  C135  1  0.38760000  0.38760000  0.50000000  1.0 0.1371862134
C  C136  1  0.00000000  0.38760000  0.00000000  1.0 0.1371862134
C  C137  1  0.61240000  0.61240000  0.00000000  1.0 0.1371862134
C  C138  1  0.38760000  0.00000000  0.00000000  1.0 0.1371862134
C  C139  1  0.38760000  0.00000000  0.50000000  1.0 0.1371862134
C  C140  1  0.00000000  0.38760000  0.50000000  1.0 0.1371862134
C  C141  1  0.61240000  0.61240000  0.50000000  1.0 0.1371862134
C  C142  1  0.00000000  0.61240000  0.00000000  1.0 0.1371862134
C  C143  1  0.38760000  0.38760000  0.00000000  1.0 0.1371862134
C  C144  1  0.61240000  0.00000000  0.00000000  1.0 0.1371862134
C  C145  1  0.72300000  0.22640000  0.49220000  1.0 -0.159668819
C  C146  1  0.77360000  0.49660000  0.49220000  1.0 -0.159668819
C  C147  1  0.50340000  0.27700000  0.49220000  1.0 -0.159668819
C  C148  1  0.22640000  0.50340000  0.99220000  1.0 -0.159668819
C  C149  1  0.49660000  0.72300000  0.99220000  1.0 -0.159668819
C  C150  1  0.22640000  0.72300000  0.50780000  1.0 -0.159668819
C  C151  1  0.50340000  0.22640000  0.00780000  1.0 -0.159668819
C  C152  1  0.72300000  0.49660000  0.00780000  1.0 -0.159668819
C  C153  1  0.27700000  0.77360000  0.99220000  1.0 -0.159668819
C  C154  1  0.49660000  0.77360000  0.50780000  1.0 -0.159668819
C  C155  1  0.27700000  0.50340000  0.50780000  1.0 -0.159668819
C  C156  1  0.77360000  0.27700000  0.00780000  1.0 -0.159668819
C  C157  1  0.27700000  0.77360000  0.50780000  1.0 -0.159668819
C  C158  1  0.22640000  0.50340000  0.50780000  1.0 -0.159668819
C  C159  1  0.49660000  0.72300000  0.50780000  1.0 -0.159668819
C  C160  1  0.77360000  0.49660000  0.00780000  1.0 -0.159668819
C  C161  1  0.50340000  0.27700000  0.00780000  1.0 -0.159668819
C  C162  1  0.77360000  0.27700000  0.49220000  1.0 -0.159668819
C  C163  1  0.49660000  0.77360000  0.99220000  1.0 -0.159668819
C  C164  1  0.27700000  0.50340000  0.99220000  1.0 -0.159668819
C  C165  1  0.72300000  0.22640000  0.00780000  1.0 -0.159668819
C  C166  1  0.50340000  0.22640000  0.49220000  1.0 -0.159668819
C  C167  1  0.72300000  0.49660000  0.49220000  1.0 -0.159668819
C  C168  1  0.22640000  0.72300000  0.99220000  1.0 -0.159668819
C  C169  1  0.60790000  0.16540000  0.49600000  1.0 -0.0244449582
C  C170  1  0.83460000  0.44250000  0.49600000  1.0 -0.0244449582
C  C171  1  0.55750000  0.39210000  0.49600000  1.0 -0.0244449582
C  C172  1  0.16540000  0.55750000  0.99600000  1.0 -0.0244449582
C  C173  1  0.44250000  0.60790000  0.99600000  1.0 -0.0244449582
C  C174  1  0.16540000  0.60790000  0.50400000  1.0 -0.0244449582
C  C175  1  0.55750000  0.16540000  0.00400000  1.0 -0.0244449582
C  C176  1  0.60790000  0.44250000  0.00400000  1.0 -0.0244449582
C  C177  1  0.39210000  0.83460000  0.99600000  1.0 -0.0244449582
C  C178  1  0.44250000  0.83460000  0.50400000  1.0 -0.0244449582
C  C179  1  0.39210000  0.55750000  0.50400000  1.0 -0.0244449582
C  C180  1  0.83460000  0.39210000  0.00400000  1.0 -0.0244449582
C  C181  1  0.39210000  0.83460000  0.50400000  1.0 -0.0244449582
C  C182  1  0.16540000  0.55750000  0.50400000  1.0 -0.0244449582
C  C183  1  0.44250000  0.60790000  0.50400000  1.0 -0.0244449582
C  C184  1  0.83460000  0.44250000  0.00400000  1.0 -0.0244449582
C  C185  1  0.55750000  0.39210000  0.00400000  1.0 -0.0244449582
C  C186  1  0.83460000  0.39210000  0.49600000  1.0 -0.0244449582
C  C187  1  0.44250000  0.83460000  0.99600000  1.0 -0.0244449582
C  C188  1  0.39210000  0.55750000  0.99600000  1.0 -0.0244449582
C  C189  1  0.60790000  0.16540000  0.00400000  1.0 -0.0244449582
C  C190  1  0.55750000  0.16540000  0.49600000  1.0 -0.0244449582
C  C191  1  0.60790000  0.44250000  0.49600000  1.0 -0.0244449582
C  C192  1  0.16540000  0.60790000  0.99600000  1.0 -0.0244449582
N  N1  1  0.73768000  0.17962000  0.45440000  1.0 -0.1693134535
N  N2  1  0.82038000  0.55806000  0.45440000  1.0 -0.1693134535
N  N3  1  0.44194000  0.26232000  0.45440000  1.0 -0.1693134535
N  N4  1  0.17962000  0.44194000  0.95440000  1.0 -0.1693134535
N  N5  1  0.55806000  0.73768000  0.95440000  1.0 -0.1693134535
N  N6  1  0.17962000  0.73768000  0.54560000  1.0 -0.1693134535
N  N7  1  0.44194000  0.17962000  0.04560000  1.0 -0.1693134535
N  N8  1  0.73768000  0.55806000  0.04560000  1.0 -0.1693134535
N  N9  1  0.26232000  0.82038000  0.95440000  1.0 -0.1693134535
N  N10  1  0.55806000  0.82038000  0.54560000  1.0 -0.1693134535
N  N11  1  0.26232000  0.44194000  0.54560000  1.0 -0.1693134535
N  N12  1  0.82038000  0.26232000  0.04560000  1.0 -0.1693134535
N  N13  1  0.26232000  0.82038000  0.54560000  1.0 -0.1693134535
N  N14  1  0.17962000  0.44194000  0.54560000  1.0 -0.1693134535
N  N15  1  0.55806000  0.73768000  0.54560000  1.0 -0.1693134535
N  N16  1  0.82038000  0.55806000  0.04560000  1.0 -0.1693134535
N  N17  1  0.44194000  0.26232000  0.04560000  1.0 -0.1693134535
N  N18  1  0.82038000  0.26232000  0.45440000  1.0 -0.1693134535
N  N19  1  0.55806000  0.82038000  0.95440000  1.0 -0.1693134535
N  N20  1  0.26232000  0.44194000  0.95440000  1.0 -0.1693134535
N  N21  1  0.73768000  0.17962000  0.04560000  1.0 -0.1693134535
N  N22  1  0.44194000  0.17962000  0.45440000  1.0 -0.1693134535
N  N23  1  0.73768000  0.55806000  0.45440000  1.0 -0.1693134535
N  N24  1  0.17962000  0.73768000  0.95440000  1.0 -0.1693134535
N  N25  1  0.66870000  0.09100000  0.31210000  1.0 -0.3207392528
N  N26  1  0.90900000  0.57770000  0.31210000  1.0 -0.3207392528
N  N27  1  0.42230000  0.33130000  0.31210000  1.0 -0.3207392528
N  N28  1  0.09100000  0.42230000  0.81210000  1.0 -0.3207392528
N  N29  1  0.57770000  0.66870000  0.81210000  1.0 -0.3207392528
N  N30  1  0.09100000  0.66870000  0.68790000  1.0 -0.3207392528
N  N31  1  0.42230000  0.09100000  0.18790000  1.0 -0.3207392528
N  N32  1  0.66870000  0.57770000  0.18790000  1.0 -0.3207392528
N  N33  1  0.33130000  0.90900000  0.81210000  1.0 -0.3207392528
N  N34  1  0.57770000  0.90900000  0.68790000  1.0 -0.3207392528
N  N35  1  0.33130000  0.42230000  0.68790000  1.0 -0.3207392528
N  N36  1  0.90900000  0.33130000  0.18790000  1.0 -0.3207392528
N  N37  1  0.33130000  0.90900000  0.68790000  1.0 -0.3207392528
N  N38  1  0.09100000  0.42230000  0.68790000  1.0 -0.3207392528
N  N39  1  0.57770000  0.66870000  0.68790000  1.0 -0.3207392528
N  N40  1  0.90900000  0.57770000  0.18790000  1.0 -0.3207392528
N  N41  1  0.42230000  0.33130000  0.18790000  1.0 -0.3207392528
N  N42  1  0.90900000  0.33130000  0.31210000  1.0 -0.3207392528
N  N43  1  0.57770000  0.90900000  0.81210000  1.0 -0.3207392528
N  N44  1  0.33130000  0.42230000  0.81210000  1.0 -0.3207392528
N  N45  1  0.66870000  0.09100000  0.18790000  1.0 -0.3207392528
N  N46  1  0.42230000  0.09100000  0.31210000  1.0 -0.3207392528
N  N47  1  0.66870000  0.57770000  0.31210000  1.0 -0.3207392528
N  N48  1  0.09100000  0.66870000  0.81210000  1.0 -0.3207392528
N  N49  1  0.66820000  0.16940000  0.25000000  1.0 0.3021553336
N  N50  1  0.83060000  0.49880000  0.25000000  1.0 0.3090641042
N  N51  1  0.50120000  0.33180000  0.25000000  1.0 0.3021553336
N  N52  1  0.16940000  0.50120000  0.75000000  1.0 0.3021553336
N  N53  1  0.49880000  0.66820000  0.75000000  1.0 0.3021553336
N  N54  1  0.16940000  0.66820000  0.75000000  1.0 0.3021553336
N  N55  1  0.50120000  0.16940000  0.25000000  1.0 0.3021553336
N  N56  1  0.66820000  0.49880000  0.25000000  1.0 0.3090641042
N  N57  1  0.33180000  0.83060000  0.75000000  1.0 0.3090641042
N  N58  1  0.49880000  0.83060000  0.75000000  1.0 0.3090641042
N  N59  1  0.33180000  0.50120000  0.75000000  1.0 0.3021553336
N  N60  1  0.83060000  0.33180000  0.25000000  1.0 0.3021553336
N  N61  1  0.60027000  0.11764000  0.45370000  1.0 -0.2493857279
N  N62  1  0.88236000  0.48263000  0.45370000  1.0 -0.2493857279
N  N63  1  0.51737000  0.39973000  0.45370000  1.0 -0.2493857279
N  N64  1  0.11764000  0.51737000  0.95370000  1.0 -0.2493857279
N  N65  1  0.48263000  0.60027000  0.95370000  1.0 -0.2493857279
N  N66  1  0.11764000  0.60027000  0.54630000  1.0 -0.2493857279
N  N67  1  0.51737000  0.11764000  0.04630000  1.0 -0.2493857279
N  N68  1  0.60027000  0.48263000  0.04630000  1.0 -0.2493857279
N  N69  1  0.39973000  0.88236000  0.95370000  1.0 -0.2493857279
N  N70  1  0.48263000  0.88236000  0.54630000  1.0 -0.2493857279
N  N71  1  0.39973000  0.51737000  0.54630000  1.0 -0.2493857279
N  N72  1  0.88236000  0.39973000  0.04630000  1.0 -0.2493857279
N  N73  1  0.39973000  0.88236000  0.54630000  1.0 -0.2493857279
N  N74  1  0.11764000  0.51737000  0.54630000  1.0 -0.2493857279
N  N75  1  0.48263000  0.60027000  0.54630000  1.0 -0.2493857279
N  N76  1  0.88236000  0.48263000  0.04630000  1.0 -0.2493857279
N  N77  1  0.51737000  0.39973000  0.04630000  1.0 -0.2493857279
N  N78  1  0.88236000  0.39973000  0.45370000  1.0 -0.2493857279
N  N79  1  0.48263000  0.88236000  0.95370000  1.0 -0.2493857279
N  N80  1  0.39973000  0.51737000  0.95370000  1.0 -0.2493857279
N  N81  1  0.60027000  0.11764000  0.04630000  1.0 -0.2493857279
N  N82  1  0.51737000  0.11764000  0.45370000  1.0 -0.2493857279
N  N83  1  0.60027000  0.48263000  0.45370000  1.0 -0.2493857279
N  N84  1  0.11764000  0.60027000  0.95370000  1.0 -0.2493857279
N  N85  1  0.66047000  0.04234000  0.47210000  1.0 -0.2860169204
N  N86  1  0.95766000  0.61813000  0.47210000  1.0 -0.2842187891
N  N87  1  0.38187000  0.33953000  0.47210000  1.0 -0.2860169204
N  N88  1  0.04234000  0.38187000  0.97210000  1.0 -0.2860169204
N  N89  1  0.61813000  0.66047000  0.97210000  1.0 -0.2860169204
N  N90  1  0.04234000  0.66047000  0.52790000  1.0 -0.2860169204
N  N91  1  0.38187000  0.04234000  0.02790000  1.0 -0.2860169204
N  N92  1  0.66047000  0.61813000  0.02790000  1.0 -0.2860169204
N  N93  1  0.33953000  0.95766000  0.97210000  1.0 -0.2860169204
N  N94  1  0.61813000  0.95766000  0.52790000  1.0 -0.2860169204
N  N95  1  0.33953000  0.38187000  0.52790000  1.0 -0.2860169204
N  N96  1  0.95766000  0.33953000  0.02790000  1.0 -0.2860169204
N  N97  1  0.33953000  0.95766000  0.52790000  1.0 -0.2860169204
N  N98  1  0.04234000  0.38187000  0.52790000  1.0 -0.2860169204
N  N99  1  0.61813000  0.66047000  0.52790000  1.0 -0.2860169204
N  N100  1  0.95766000  0.61813000  0.02790000  1.0 -0.2842187891
N  N101  1  0.38187000  0.33953000  0.02790000  1.0 -0.2860169204
N  N102  1  0.95766000  0.33953000  0.47210000  1.0 -0.2860169204
N  N103  1  0.61813000  0.95766000  0.97210000  1.0 -0.2860169204
N  N104  1  0.33953000  0.38187000  0.97210000  1.0 -0.2860169204
N  N105  1  0.66047000  0.04234000  0.02790000  1.0 -0.2860169204
N  N106  1  0.38187000  0.04234000  0.47210000  1.0 -0.2860169204
N  N107  1  0.66047000  0.61813000  0.47210000  1.0 -0.2860169204
N  N108  1  0.04234000  0.66047000  0.97210000  1.0 -0.2860169204
N  N109  1  0.81020000  0.18980000  0.39350000  1.0 0.412466013
N  N110  1  0.81020000  0.62040000  0.39350000  1.0 0.412466013
N  N111  1  0.37960000  0.18980000  0.39350000  1.0 0.4173836997
N  N112  1  0.18980000  0.37960000  0.89350000  1.0 0.412466013
N  N113  1  0.62040000  0.81020000  0.89350000  1.0 0.412466013
N  N114  1  0.18980000  0.81020000  0.60650000  1.0 0.412466013
N  N115  1  0.37960000  0.18980000  0.10650000  1.0 0.412466013
N  N116  1  0.81020000  0.62040000  0.10650000  1.0 0.412466013
N  N117  1  0.18980000  0.81020000  0.89350000  1.0 0.412466013
N  N118  1  0.62040000  0.81020000  0.60650000  1.0 0.412466013
N  N119  1  0.18980000  0.37960000  0.60650000  1.0 0.412466013
N  N120  1  0.81020000  0.18980000  0.10650000  1.0 0.412466013
N  N121  1  0.52450000  0.04900000  0.37960000  1.0 0.3333286745
N  N122  1  0.95100000  0.47550000  0.37960000  1.0 0.3333286745
N  N123  1  0.52450000  0.47550000  0.37960000  1.0 0.3333286745
N  N124  1  0.04900000  0.52450000  0.87960000  1.0 0.3379036923
N  N125  1  0.47550000  0.52450000  0.87960000  1.0 0.3379036923
N  N126  1  0.04900000  0.52450000  0.62040000  1.0 0.3379036923
N  N127  1  0.52450000  0.04900000  0.12040000  1.0 0.3333286745
N  N128  1  0.52450000  0.47550000  0.12040000  1.0 0.3333286745
N  N129  1  0.47550000  0.95100000  0.87960000  1.0 0.3333286745
N  N130  1  0.47550000  0.95100000  0.62040000  1.0 0.3333286745
N  N131  1  0.47550000  0.52450000  0.62040000  1.0 0.3379036923
N  N132  1  0.95100000  0.47550000  0.12040000  1.0 0.3333286745
O  O1  1  0.66790000  0.19040000  0.30970000  1.0 -0.3313246118
O  O2  1  0.80960000  0.47750000  0.30970000  1.0 -0.3313246118
O  O3  1  0.52250000  0.33210000  0.30970000  1.0 -0.3313246118
O  O4  1  0.19040000  0.52250000  0.80970000  1.0 -0.3313246118
O  O5  1  0.47750000  0.66790000  0.80970000  1.0 -0.3313246118
O  O6  1  0.19040000  0.66790000  0.69030000  1.0 -0.3313246118
O  O7  1  0.52250000  0.19040000  0.19030000  1.0 -0.3313246118
O  O8  1  0.66790000  0.47750000  0.19030000  1.0 -0.3313246118
O  O9  1  0.33210000  0.80960000  0.80970000  1.0 -0.3313246118
O  O10  1  0.47750000  0.80960000  0.69030000  1.0 -0.3313246118
O  O11  1  0.33210000  0.52250000  0.69030000  1.0 -0.3313246118
O  O12  1  0.80960000  0.33210000  0.19030000  1.0 -0.3313246118
O  O13  1  0.33210000  0.80960000  0.69030000  1.0 -0.3313246118
O  O14  1  0.19040000  0.52250000  0.69030000  1.0 -0.3313246118
O  O15  1  0.47750000  0.66790000  0.69030000  1.0 -0.3313246118
O  O16  1  0.80960000  0.47750000  0.19030000  1.0 -0.3313246118
O  O17  1  0.52250000  0.33210000  0.19030000  1.0 -0.3313246118
O  O18  1  0.80960000  0.33210000  0.30970000  1.0 -0.3313246118
O  O19  1  0.47750000  0.80960000  0.80970000  1.0 -0.3313246118
O  O20  1  0.33210000  0.52250000  0.80970000  1.0 -0.3313246118
O  O21  1  0.66790000  0.19040000  0.19030000  1.0 -0.3313246118
O  O22  1  0.52250000  0.19040000  0.30970000  1.0 -0.3313246118
O  O23  1  0.66790000  0.47750000  0.30970000  1.0 -0.3313246118
O  O24  1  0.19040000  0.66790000  0.80970000  1.0 -0.3313246118
O  O25  1  0.78030000  0.13780000  0.37840000  1.0 -0.3656236799
O  O26  1  0.86220000  0.64250000  0.37840000  1.0 -0.3656236799
O  O27  1  0.35750000  0.21970000  0.37840000  1.0 -0.3656236799
O  O28  1  0.13780000  0.35750000  0.87840000  1.0 -0.3656236799
O  O29  1  0.64250000  0.78030000  0.87840000  1.0 -0.3656236799
O  O30  1  0.13780000  0.78030000  0.62160000  1.0 -0.3656236799
O  O31  1  0.35750000  0.13780000  0.12160000  1.0 -0.3656236799
O  O32  1  0.78030000  0.64250000  0.12160000  1.0 -0.3656236799
O  O33  1  0.21970000  0.86220000  0.87840000  1.0 -0.3656236799
O  O34  1  0.64250000  0.86220000  0.62160000  1.0 -0.3656236799
O  O35  1  0.21970000  0.35750000  0.62160000  1.0 -0.3656236799
O  O36  1  0.86220000  0.21970000  0.12160000  1.0 -0.3656236799
O  O37  1  0.21970000  0.86220000  0.62160000  1.0 -0.3656236799
O  O38  1  0.13780000  0.35750000  0.62160000  1.0 -0.3656236799
O  O39  1  0.64250000  0.78030000  0.62160000  1.0 -0.3656236799
O  O40  1  0.86220000  0.64250000  0.12160000  1.0 -0.3656236799
O  O41  1  0.35750000  0.21970000  0.12160000  1.0 -0.3656236799
O  O42  1  0.86220000  0.21970000  0.37840000  1.0 -0.3656236799
O  O43  1  0.64250000  0.86220000  0.87840000  1.0 -0.3656236799
O  O44  1  0.21970000  0.35750000  0.87840000  1.0 -0.3656236799
O  O45  1  0.78030000  0.13780000  0.12160000  1.0 -0.3656236799
O  O46  1  0.35750000  0.13780000  0.37840000  1.0 -0.3656236799
O  O47  1  0.78030000  0.64250000  0.37840000  1.0 -0.3656236799
O  O48  1  0.13780000  0.78030000  0.87840000  1.0 -0.3656236799
O  O49  1  0.47460000  0.02920000  0.36220000  1.0 -0.3313246118
O  O50  1  0.97080000  0.44540000  0.36220000  1.0 -0.3313246118
O  O51  1  0.55460000  0.52540000  0.36220000  1.0 -0.3313246118
O  O52  1  0.02920000  0.55460000  0.86220000  1.0 -0.3313246118
O  O53  1  0.44540000  0.47460000  0.86220000  1.0 -0.3313246118
O  O54  1  0.02920000  0.47460000  0.63780000  1.0 -0.3313246118
O  O55  1  0.55460000  0.02920000  0.13780000  1.0 -0.3313246118
O  O56  1  0.47460000  0.44540000  0.13780000  1.0 -0.3313246118
O  O57  1  0.52540000  0.97080000  0.86220000  1.0 -0.3313246118
O  O58  1  0.44540000  0.97080000  0.63780000  1.0 -0.3313246118
O  O59  1  0.52540000  0.55460000  0.63780000  1.0 -0.3313246118
O  O60  1  0.97080000  0.52540000  0.13780000  1.0 -0.3313246118
O  O61  1  0.52540000  0.97080000  0.63780000  1.0 -0.3313246118
O  O62  1  0.02920000  0.55460000  0.63780000  1.0 -0.3313246118
O  O63  1  0.44540000  0.47460000  0.63780000  1.0 -0.3313246118
O  O64  1  0.97080000  0.44540000  0.13780000  1.0 -0.3313246118
O  O65  1  0.55460000  0.52540000  0.13780000  1.0 -0.3313246118
O  O66  1  0.97080000  0.52540000  0.36220000  1.0 -0.3313246118
O  O67  1  0.44540000  0.97080000  0.86220000  1.0 -0.3313246118
O  O68  1  0.52540000  0.55460000  0.86220000  1.0 -0.3313246118
O  O69  1  0.47460000  0.02920000  0.13780000  1.0 -0.3313246118
O  O70  1  0.55460000  0.02920000  0.36220000  1.0 -0.3313246118
O  O71  1  0.47460000  0.44540000  0.36220000  1.0 -0.3313246118
O  O72  1  0.02920000  0.47460000  0.86220000  1.0 -0.3313246118
