# DDEC6 charges by PACMAN v1.1 (https://github.com/mtap-research/PACMAN-charge/)
data_GITVAH01_ASR_pacman
_symmetry_space_group_name_H-M   'P 1'
_cell_length_a   26.08400000
_cell_length_b   26.08400000
_cell_length_c   19.40820000
_cell_angle_alpha   90.00000000
_cell_angle_beta   90.00000000
_cell_angle_gamma   120.00000000
_symmetry_Int_Tables_number   1
_chemical_formula_structural   Zn2H16C22N13(Cl2O3)2
_chemical_formula_sum   'Zn24 H192 C264 N156 Cl48 O72'
_cell_volume   11435.74002346
_cell_formula_units_Z   12
loop_
 _symmetry_equiv_pos_site_id
 _symmetry_equiv_pos_as_xyz
  1  'x, y, z'
loop_
 _atom_site_type_symbol
 _atom_site_label
 _atom_site_symmetry_multiplicity
 _atom_site_fract_x
 _atom_site_fract_y
 _atom_site_fract_z
 _atom_site_occupancy
 _atom_site_charge
Zn  Zn1  1  0.43520000  0.33202000  0.40427000  1.0 0.5706776914
Zn  Zn2  1  0.66798000  0.10318000  0.40427000  1.0 0.5706776914
Zn  Zn3  1  0.89682000  0.56480000  0.40427000  1.0 0.5706776914
Zn  Zn4  1  0.33202000  0.89682000  0.90427000  1.0 0.5706776914
Zn  Zn5  1  0.10318000  0.43520000  0.90427000  1.0 0.5706776914
Zn  Zn6  1  0.33202000  0.43520000  0.59573000  1.0 0.5706776914
Zn  Zn7  1  0.89682000  0.33202000  0.09573000  1.0 0.5706776914
Zn  Zn8  1  0.43520000  0.10318000  0.09573000  1.0 0.5706776914
Zn  Zn9  1  0.56480000  0.66798000  0.90427000  1.0 0.5706776914
Zn  Zn10  1  0.10318000  0.66798000  0.59573000  1.0 0.5706776914
Zn  Zn11  1  0.56480000  0.89682000  0.59573000  1.0 0.5706776914
Zn  Zn12  1  0.66798000  0.56480000  0.09573000  1.0 0.5706776914
Zn  Zn13  1  0.56480000  0.66798000  0.59573000  1.0 0.5706776914
Zn  Zn14  1  0.33202000  0.89682000  0.59573000  1.0 0.5706776914
Zn  Zn15  1  0.10318000  0.43520000  0.59573000  1.0 0.5706776914
Zn  Zn16  1  0.66798000  0.10318000  0.09573000  1.0 0.5706776914
Zn  Zn17  1  0.89682000  0.56480000  0.09573000  1.0 0.5706776914
Zn  Zn18  1  0.66798000  0.56480000  0.40427000  1.0 0.5706776914
Zn  Zn19  1  0.10318000  0.66798000  0.90427000  1.0 0.5706776914
Zn  Zn20  1  0.56480000  0.89682000  0.90427000  1.0 0.5706776914
Zn  Zn21  1  0.43520000  0.33202000  0.09573000  1.0 0.5706776914
Zn  Zn22  1  0.89682000  0.33202000  0.40427000  1.0 0.5706776914
Zn  Zn23  1  0.43520000  0.10318000  0.40427000  1.0 0.5706776914
Zn  Zn24  1  0.33202000  0.43520000  0.90427000  1.0 0.5706776914
H  H1  1  0.41990000  0.41990000  0.50000000  1.0 0.047825216
H  H2  1  0.58010000  0.00000000  0.50000000  1.0 0.047825216
H  H3  1  0.00000000  0.58010000  0.50000000  1.0 0.047825216
H  H4  1  0.41990000  0.00000000  0.00000000  1.0 0.047825216
H  H5  1  0.00000000  0.41990000  0.00000000  1.0 0.047825216
H  H6  1  0.58010000  0.58010000  0.00000000  1.0 0.047825216
H  H7  1  0.58010000  0.58010000  0.50000000  1.0 0.047825216
H  H8  1  0.41990000  0.00000000  0.50000000  1.0 0.047825216
H  H9  1  0.00000000  0.41990000  0.50000000  1.0 0.047825216
H  H10  1  0.58010000  0.00000000  0.00000000  1.0 0.047825216
H  H11  1  0.00000000  0.58010000  0.00000000  1.0 0.047825216
H  H12  1  0.41990000  0.41990000  0.00000000  1.0 0.047825216
H  H13  1  0.20480000  0.16600000  0.46050000  1.0 0.1646468074
H  H14  1  0.83400000  0.03880000  0.46050000  1.0 0.1646468074
H  H15  1  0.96120000  0.79520000  0.46050000  1.0 0.1646468074
H  H16  1  0.16600000  0.96120000  0.96050000  1.0 0.1646468074
H  H17  1  0.03880000  0.20480000  0.96050000  1.0 0.1646468074
H  H18  1  0.16600000  0.20480000  0.53950000  1.0 0.1646468074
H  H19  1  0.96120000  0.16600000  0.03950000  1.0 0.1646468074
H  H20  1  0.20480000  0.03880000  0.03950000  1.0 0.1646468074
H  H21  1  0.79520000  0.83400000  0.96050000  1.0 0.1646468074
H  H22  1  0.03880000  0.83400000  0.53950000  1.0 0.1646468074
H  H23  1  0.79520000  0.96120000  0.53950000  1.0 0.1646468074
H  H24  1  0.83400000  0.79520000  0.03950000  1.0 0.1646468074
H  H25  1  0.79520000  0.83400000  0.53950000  1.0 0.1646468074
H  H26  1  0.16600000  0.96120000  0.53950000  1.0 0.1646468074
H  H27  1  0.03880000  0.20480000  0.53950000  1.0 0.1646468074
H  H28  1  0.83400000  0.03880000  0.03950000  1.0 0.1646468074
H  H29  1  0.96120000  0.79520000  0.03950000  1.0 0.1646468074
H  H30  1  0.83400000  0.79520000  0.46050000  1.0 0.1646468074
H  H31  1  0.03880000  0.83400000  0.96050000  1.0 0.1646468074
H  H32  1  0.79520000  0.96120000  0.96050000  1.0 0.1646468074
H  H33  1  0.20480000  0.16600000  0.03950000  1.0 0.1646468074
H  H34  1  0.96120000  0.16600000  0.46050000  1.0 0.1646468074
H  H35  1  0.20480000  0.03880000  0.46050000  1.0 0.1646468074
H  H36  1  0.16600000  0.20480000  0.96050000  1.0 0.1646468074
H  H37  1  0.30010000  0.22380000  0.41710000  1.0 0.1390015619
H  H38  1  0.77620000  0.07630000  0.41710000  1.0 0.1390015619
H  H39  1  0.92370000  0.69990000  0.41710000  1.0 0.1390015619
H  H40  1  0.22380000  0.92370000  0.91710000  1.0 0.1390015619
H  H41  1  0.07630000  0.30010000  0.91710000  1.0 0.1390015619
H  H42  1  0.22380000  0.30010000  0.58290000  1.0 0.1390015619
H  H43  1  0.92370000  0.22380000  0.08290000  1.0 0.1390015619
H  H44  1  0.30010000  0.07630000  0.08290000  1.0 0.1390015619
H  H45  1  0.69990000  0.77620000  0.91710000  1.0 0.1390015619
H  H46  1  0.07630000  0.77620000  0.58290000  1.0 0.1390015619
H  H47  1  0.69990000  0.92370000  0.58290000  1.0 0.1390015619
H  H48  1  0.77620000  0.69990000  0.08290000  1.0 0.1390015619
H  H49  1  0.69990000  0.77620000  0.58290000  1.0 0.1390015619
H  H50  1  0.22380000  0.92370000  0.58290000  1.0 0.1390015619
H  H51  1  0.07630000  0.30010000  0.58290000  1.0 0.1390015619
H  H52  1  0.77620000  0.07630000  0.08290000  1.0 0.1390015619
H  H53  1  0.92370000  0.69990000  0.08290000  1.0 0.1390015619
H  H54  1  0.77620000  0.69990000  0.41710000  1.0 0.1390015619
H  H55  1  0.07630000  0.77620000  0.91710000  1.0 0.1390015619
H  H56  1  0.69990000  0.92370000  0.91710000  1.0 0.1390015619
H  H57  1  0.30010000  0.22380000  0.08290000  1.0 0.1390015619
H  H58  1  0.92370000  0.22380000  0.41710000  1.0 0.1390015619
H  H59  1  0.30010000  0.07630000  0.41710000  1.0 0.1390015619
H  H60  1  0.22380000  0.30010000  0.91710000  1.0 0.1390015619
H  H61  1  0.55550000  0.35010000  0.47770000  1.0 0.1019408392
H  H62  1  0.64990000  0.20540000  0.47770000  1.0 0.1019408392
H  H63  1  0.79460000  0.44450000  0.47770000  1.0 0.1019408392
H  H64  1  0.35010000  0.79460000  0.97770000  1.0 0.1019408392
H  H65  1  0.20540000  0.55550000  0.97770000  1.0 0.1019408392
H  H66  1  0.35010000  0.55550000  0.52230000  1.0 0.1019408392
H  H67  1  0.79460000  0.35010000  0.02230000  1.0 0.1019408392
H  H68  1  0.55550000  0.20540000  0.02230000  1.0 0.1019408392
H  H69  1  0.44450000  0.64990000  0.97770000  1.0 0.1019408392
H  H70  1  0.20540000  0.64990000  0.52230000  1.0 0.1019408392
H  H71  1  0.44450000  0.79460000  0.52230000  1.0 0.1019408392
H  H72  1  0.64990000  0.44450000  0.02230000  1.0 0.1019408392
H  H73  1  0.44450000  0.64990000  0.52230000  1.0 0.1019408392
H  H74  1  0.35010000  0.79460000  0.52230000  1.0 0.1019408392
H  H75  1  0.20540000  0.55550000  0.52230000  1.0 0.1019408392
H  H76  1  0.64990000  0.20540000  0.02230000  1.0 0.1019408392
H  H77  1  0.79460000  0.44450000  0.02230000  1.0 0.1019408392
H  H78  1  0.64990000  0.44450000  0.47770000  1.0 0.1019408392
H  H79  1  0.20540000  0.64990000  0.97770000  1.0 0.1019408392
H  H80  1  0.44450000  0.79460000  0.97770000  1.0 0.1019408392
H  H81  1  0.55550000  0.35010000  0.02230000  1.0 0.1019408392
H  H82  1  0.79460000  0.35010000  0.47770000  1.0 0.1019408392
H  H83  1  0.55550000  0.20540000  0.47770000  1.0 0.1019408392
H  H84  1  0.35010000  0.55550000  0.97770000  1.0 0.1019408392
H  H85  1  0.32650000  0.32040000  0.31480000  1.0 0.1128163536
H  H86  1  0.67960000  0.00610000  0.31480000  1.0 0.1128163536
H  H87  1  0.99390000  0.67350000  0.31480000  1.0 0.1128163536
H  H88  1  0.32040000  0.99390000  0.81480000  1.0 0.1128163536
H  H89  1  0.00610000  0.32650000  0.81480000  1.0 0.1128163536
H  H90  1  0.32040000  0.32650000  0.68520000  1.0 0.1128163536
H  H91  1  0.99390000  0.32040000  0.18520000  1.0 0.1128163536
H  H92  1  0.32650000  0.00610000  0.18520000  1.0 0.1128163536
H  H93  1  0.67350000  0.67960000  0.81480000  1.0 0.1128163536
H  H94  1  0.00610000  0.67960000  0.68520000  1.0 0.1128163536
H  H95  1  0.67350000  0.99390000  0.68520000  1.0 0.1128163536
H  H96  1  0.67960000  0.67350000  0.18520000  1.0 0.1128163536
H  H97  1  0.67350000  0.67960000  0.68520000  1.0 0.1128163536
H  H98  1  0.32040000  0.99390000  0.68520000  1.0 0.1128163536
H  H99  1  0.00610000  0.32650000  0.68520000  1.0 0.1128163536
H  H100  1  0.67960000  0.00610000  0.18520000  1.0 0.1128163536
H  H101  1  0.99390000  0.67350000  0.18520000  1.0 0.1128163536
H  H102  1  0.67960000  0.67350000  0.31480000  1.0 0.1128163536
H  H103  1  0.00610000  0.67960000  0.81480000  1.0 0.1128163536
H  H104  1  0.67350000  0.99390000  0.81480000  1.0 0.1128163536
H  H105  1  0.32650000  0.32040000  0.18520000  1.0 0.1128163536
H  H106  1  0.99390000  0.32040000  0.31480000  1.0 0.1128163536
H  H107  1  0.32650000  0.00610000  0.31480000  1.0 0.1128163536
H  H108  1  0.32040000  0.32650000  0.81480000  1.0 0.1128163536
H  H109  1  0.43980000  0.21990000  0.35520000  1.0 0.1128163536
H  H110  1  0.78010000  0.21990000  0.35520000  1.0 0.1128163536
H  H111  1  0.78010000  0.56020000  0.35520000  1.0 0.1128163536
H  H112  1  0.21990000  0.78010000  0.85520000  1.0 0.1128163536
H  H113  1  0.21990000  0.43980000  0.85520000  1.0 0.1128163536
H  H114  1  0.21990000  0.43980000  0.64480000  1.0 0.1128163536
H  H115  1  0.78010000  0.21990000  0.14480000  1.0 0.1128163536
H  H116  1  0.43980000  0.21990000  0.14480000  1.0 0.1128163536
H  H117  1  0.56020000  0.78010000  0.85520000  1.0 0.1128163536
H  H118  1  0.21990000  0.78010000  0.64480000  1.0 0.1128163536
H  H119  1  0.56020000  0.78010000  0.64480000  1.0 0.1128163536
H  H120  1  0.78010000  0.56020000  0.14480000  1.0 0.1128163536
H  H121  1  0.41840000  0.30120000  0.56680000  1.0 0.1128163536
H  H122  1  0.69880000  0.11720000  0.56680000  1.0 0.1128163536
H  H123  1  0.88280000  0.58160000  0.56680000  1.0 0.1128163536
H  H124  1  0.30120000  0.88280000  0.06680000  1.0 0.1128163536
H  H125  1  0.11720000  0.41840000  0.06680000  1.0 0.1128163536
H  H126  1  0.30120000  0.41840000  0.43320000  1.0 0.1128163536
H  H127  1  0.88280000  0.30120000  0.93320000  1.0 0.1128163536
H  H128  1  0.41840000  0.11720000  0.93320000  1.0 0.1128163536
H  H129  1  0.58160000  0.69880000  0.06680000  1.0 0.1128163536
H  H130  1  0.11720000  0.69880000  0.43320000  1.0 0.1128163536
H  H131  1  0.58160000  0.88280000  0.43320000  1.0 0.1128163536
H  H132  1  0.69880000  0.58160000  0.93320000  1.0 0.1128163536
H  H133  1  0.58160000  0.69880000  0.43320000  1.0 0.1128163536
H  H134  1  0.30120000  0.88280000  0.43320000  1.0 0.1128163536
H  H135  1  0.11720000  0.41840000  0.43320000  1.0 0.1128163536
H  H136  1  0.69880000  0.11720000  0.93320000  1.0 0.1128163536
H  H137  1  0.88280000  0.58160000  0.93320000  1.0 0.1128163536
H  H138  1  0.69880000  0.58160000  0.56680000  1.0 0.1128163536
H  H139  1  0.11720000  0.69880000  0.06680000  1.0 0.1128163536
H  H140  1  0.58160000  0.88280000  0.06680000  1.0 0.1128163536
H  H141  1  0.41840000  0.30120000  0.93320000  1.0 0.1128163536
H  H142  1  0.88280000  0.30120000  0.56680000  1.0 0.1128163536
H  H143  1  0.41840000  0.11720000  0.56680000  1.0 0.1128163536
H  H144  1  0.30120000  0.41840000  0.06680000  1.0 0.1128163536
H  H145  1  0.53100000  0.37130000  0.51540000  1.0 0.0781248927
H  H146  1  0.62870000  0.15970000  0.51540000  1.0 0.0781248927
H  H147  1  0.84030000  0.46900000  0.51540000  1.0 0.0781248927
H  H148  1  0.37130000  0.84030000  0.01540000  1.0 0.0781248927
H  H149  1  0.15970000  0.53100000  0.01540000  1.0 0.0781248927
H  H150  1  0.37130000  0.53100000  0.48460000  1.0 0.0781248927
H  H151  1  0.84030000  0.37130000  0.98460000  1.0 0.0781248927
H  H152  1  0.53100000  0.15970000  0.98460000  1.0 0.0781248927
H  H153  1  0.46900000  0.62870000  0.01540000  1.0 0.0781248927
H  H154  1  0.15970000  0.62870000  0.48460000  1.0 0.0781248927
H  H155  1  0.46900000  0.84030000  0.48460000  1.0 0.0781248927
H  H156  1  0.62870000  0.46900000  0.98460000  1.0 0.0781248927
H  H157  1  0.46900000  0.62870000  0.48460000  1.0 0.0781248927
H  H158  1  0.37130000  0.84030000  0.48460000  1.0 0.0781248927
H  H159  1  0.15970000  0.53100000  0.48460000  1.0 0.0781248927
H  H160  1  0.62870000  0.15970000  0.98460000  1.0 0.0781248927
H  H161  1  0.84030000  0.46900000  0.98460000  1.0 0.0781248927
H  H162  1  0.62870000  0.46900000  0.51540000  1.0 0.0781248927
H  H163  1  0.15970000  0.62870000  0.01540000  1.0 0.0781248927
H  H164  1  0.46900000  0.84030000  0.01540000  1.0 0.0781248927
H  H165  1  0.53100000  0.37130000  0.98460000  1.0 0.0781248927
H  H166  1  0.84030000  0.37130000  0.51540000  1.0 0.0781248927
H  H167  1  0.53100000  0.15970000  0.51540000  1.0 0.0781248927
H  H168  1  0.37130000  0.53100000  0.01540000  1.0 0.0781248927
H  H169  1  0.41230000  0.24950000  0.66810000  1.0 0.174826278
H  H170  1  0.75050000  0.16280000  0.66810000  1.0 0.174826278
H  H171  1  0.83720000  0.58770000  0.66810000  1.0 0.174826278
H  H172  1  0.24950000  0.83720000  0.16810000  1.0 0.174826278
H  H173  1  0.16280000  0.41230000  0.16810000  1.0 0.174826278
H  H174  1  0.24950000  0.41230000  0.33190000  1.0 0.174826278
H  H175  1  0.83720000  0.24950000  0.83190000  1.0 0.174826278
H  H176  1  0.41230000  0.16280000  0.83190000  1.0 0.174826278
H  H177  1  0.58770000  0.75050000  0.16810000  1.0 0.174826278
H  H178  1  0.16280000  0.75050000  0.33190000  1.0 0.174826278
H  H179  1  0.58770000  0.83720000  0.33190000  1.0 0.174826278
H  H180  1  0.75050000  0.58770000  0.83190000  1.0 0.174826278
H  H181  1  0.58770000  0.75050000  0.33190000  1.0 0.174826278
H  H182  1  0.24950000  0.83720000  0.33190000  1.0 0.174826278
H  H183  1  0.16280000  0.41230000  0.33190000  1.0 0.174826278
H  H184  1  0.75050000  0.16280000  0.83190000  1.0 0.174826278
H  H185  1  0.83720000  0.58770000  0.83190000  1.0 0.174826278
H  H186  1  0.75050000  0.58770000  0.66810000  1.0 0.174826278
H  H187  1  0.16280000  0.75050000  0.16810000  1.0 0.174826278
H  H188  1  0.58770000  0.83720000  0.16810000  1.0 0.174826278
H  H189  1  0.41230000  0.24950000  0.83190000  1.0 0.174826278
H  H190  1  0.83720000  0.24950000  0.66810000  1.0 0.174826278
H  H191  1  0.41230000  0.16280000  0.66810000  1.0 0.174826278
H  H192  1  0.24950000  0.41230000  0.16810000  1.0 0.174826278
C  C1  1  0.38350000  0.38350000  0.50000000  1.0 0.1128163536
C  C2  1  0.61650000  0.00000000  0.50000000  1.0 0.1128163536
C  C3  1  0.00000000  0.61650000  0.50000000  1.0 0.1128163536
C  C4  1  0.38350000  0.00000000  0.00000000  1.0 0.1128163536
C  C5  1  0.00000000  0.38350000  0.00000000  1.0 0.1128163536
C  C6  1  0.61650000  0.61650000  0.00000000  1.0 0.1128163536
C  C7  1  0.61650000  0.61650000  0.50000000  1.0 0.1128163536
C  C8  1  0.38350000  0.00000000  0.50000000  1.0 0.1128163536
C  C9  1  0.00000000  0.38350000  0.50000000  1.0 0.1128163536
C  C10  1  0.61650000  0.00000000  0.00000000  1.0 0.1128163536
C  C11  1  0.00000000  0.61650000  0.00000000  1.0 0.1128163536
C  C12  1  0.38350000  0.38350000  0.00000000  1.0 0.1128163536
C  C13  1  0.31820000  0.29570000  0.47440000  1.0 0.1288853424
C  C14  1  0.70430000  0.02250000  0.47440000  1.0 0.1288853424
C  C15  1  0.97750000  0.68180000  0.47440000  1.0 0.1288853424
C  C16  1  0.29570000  0.97750000  0.97440000  1.0 0.1288853424
C  C17  1  0.02250000  0.31820000  0.97440000  1.0 0.1288853424
C  C18  1  0.29570000  0.31820000  0.52560000  1.0 0.1288853424
C  C19  1  0.97750000  0.29570000  0.02560000  1.0 0.1288853424
C  C20  1  0.31820000  0.02250000  0.02560000  1.0 0.1288853424
C  C21  1  0.68180000  0.70430000  0.97440000  1.0 0.1288853424
C  C22  1  0.02250000  0.70430000  0.52560000  1.0 0.1288853424
C  C23  1  0.68180000  0.97750000  0.52560000  1.0 0.1288853424
C  C24  1  0.70430000  0.68180000  0.02560000  1.0 0.1288853424
C  C25  1  0.68180000  0.70430000  0.52560000  1.0 0.1288853424
C  C26  1  0.29570000  0.97750000  0.52560000  1.0 0.1288853424
C  C27  1  0.02250000  0.31820000  0.52560000  1.0 0.1288853424
C  C28  1  0.70430000  0.02250000  0.02560000  1.0 0.1288853424
C  C29  1  0.97750000  0.68180000  0.02560000  1.0 0.1288853424
C  C30  1  0.70430000  0.68180000  0.47440000  1.0 0.1288853424
C  C31  1  0.02250000  0.70430000  0.97440000  1.0 0.1288853424
C  C32  1  0.68180000  0.97750000  0.97440000  1.0 0.1288853424
C  C33  1  0.31820000  0.29570000  0.02560000  1.0 0.1288853424
C  C34  1  0.97750000  0.29570000  0.47440000  1.0 0.1288853424
C  C35  1  0.31820000  0.02250000  0.47440000  1.0 0.1288853424
C  C36  1  0.29570000  0.31820000  0.97440000  1.0 0.1288853424
C  C37  1  0.22860000  0.20570000  0.47590000  1.0 -0.0293266155
C  C38  1  0.79430000  0.02290000  0.47590000  1.0 -0.0293266155
C  C39  1  0.97710000  0.77140000  0.47590000  1.0 -0.0293266155
C  C40  1  0.20570000  0.97710000  0.97590000  1.0 -0.0293266155
C  C41  1  0.02290000  0.22860000  0.97590000  1.0 -0.0293266155
C  C42  1  0.20570000  0.22860000  0.52410000  1.0 -0.0293266155
C  C43  1  0.97710000  0.20570000  0.02410000  1.0 -0.0293266155
C  C44  1  0.22860000  0.02290000  0.02410000  1.0 -0.0293266155
C  C45  1  0.77140000  0.79430000  0.97590000  1.0 -0.0293266155
C  C46  1  0.02290000  0.79430000  0.52410000  1.0 -0.0293266155
C  C47  1  0.77140000  0.97710000  0.52410000  1.0 -0.0293266155
C  C48  1  0.79430000  0.77140000  0.02410000  1.0 -0.0293266155
C  C49  1  0.77140000  0.79430000  0.52410000  1.0 -0.0293266155
C  C50  1  0.20570000  0.97710000  0.52410000  1.0 -0.0293266155
C  C51  1  0.02290000  0.22860000  0.52410000  1.0 -0.0293266155
C  C52  1  0.79430000  0.02290000  0.02410000  1.0 -0.0293266155
C  C53  1  0.97710000  0.77140000  0.02410000  1.0 -0.0293266155
C  C54  1  0.79430000  0.77140000  0.47590000  1.0 -0.0293266155
C  C55  1  0.02290000  0.79430000  0.97590000  1.0 -0.0293266155
C  C56  1  0.77140000  0.97710000  0.97590000  1.0 -0.0293266155
C  C57  1  0.22860000  0.20570000  0.02410000  1.0 -0.0293266155
C  C58  1  0.97710000  0.20570000  0.47590000  1.0 -0.0293266155
C  C59  1  0.22860000  0.02290000  0.47590000  1.0 -0.0293266155
C  C60  1  0.20570000  0.22860000  0.97590000  1.0 -0.0293266155
C  C61  1  0.28480000  0.23930000  0.45050000  1.0 -0.2497409893
C  C62  1  0.76070000  0.04550000  0.45050000  1.0 -0.2497409893
C  C63  1  0.95450000  0.71520000  0.45050000  1.0 -0.2497409893
C  C64  1  0.23930000  0.95450000  0.95050000  1.0 -0.2497409893
C  C65  1  0.04550000  0.28480000  0.95050000  1.0 -0.2497409893
C  C66  1  0.23930000  0.28480000  0.54950000  1.0 -0.2497409893
C  C67  1  0.95450000  0.23930000  0.04950000  1.0 -0.2497409893
C  C68  1  0.28480000  0.04550000  0.04950000  1.0 -0.2497409893
C  C69  1  0.71520000  0.76070000  0.95050000  1.0 -0.2497409893
C  C70  1  0.04550000  0.76070000  0.54950000  1.0 -0.2497409893
C  C71  1  0.71520000  0.95450000  0.54950000  1.0 -0.2497409893
C  C72  1  0.76070000  0.71520000  0.04950000  1.0 -0.2497409893
C  C73  1  0.71520000  0.76070000  0.54950000  1.0 -0.2497409893
C  C74  1  0.23930000  0.95450000  0.54950000  1.0 -0.2497409893
C  C75  1  0.04550000  0.28480000  0.54950000  1.0 -0.2497409893
C  C76  1  0.76070000  0.04550000  0.04950000  1.0 -0.2497409893
C  C77  1  0.95450000  0.71520000  0.04950000  1.0 -0.2497409893
C  C78  1  0.76070000  0.71520000  0.45050000  1.0 -0.2497409893
C  C79  1  0.04550000  0.76070000  0.95050000  1.0 -0.2497409893
C  C80  1  0.71520000  0.95450000  0.95050000  1.0 -0.2497409893
C  C81  1  0.28480000  0.23930000  0.04950000  1.0 -0.2497409893
C  C82  1  0.95450000  0.23930000  0.45050000  1.0 -0.2497409893
C  C83  1  0.28480000  0.04550000  0.45050000  1.0 -0.2497409893
C  C84  1  0.23930000  0.28480000  0.95050000  1.0 -0.2497409893
C  C85  1  0.54780000  0.45220000  0.40830000  1.0 0.0781248927
C  C86  1  0.54780000  0.09560000  0.40830000  1.0 0.0781248927
C  C87  1  0.90440000  0.45220000  0.40830000  1.0 0.0781248927
C  C88  1  0.45220000  0.90440000  0.90830000  1.0 0.0781248927
C  C89  1  0.09560000  0.54780000  0.90830000  1.0 0.0781248927
C  C90  1  0.45220000  0.54780000  0.59170000  1.0 0.0781248927
C  C91  1  0.90440000  0.45220000  0.09170000  1.0 0.0781248927
C  C92  1  0.54780000  0.09560000  0.09170000  1.0 0.0781248927
C  C93  1  0.45220000  0.54780000  0.90830000  1.0 0.0781248927
C  C94  1  0.09560000  0.54780000  0.59170000  1.0 0.0781248927
C  C95  1  0.45220000  0.90440000  0.59170000  1.0 0.0781248927
C  C96  1  0.54780000  0.45220000  0.09170000  1.0 0.0781248927
C  C97  1  0.56190000  0.38710000  0.46090000  1.0 -0.0293266155
C  C98  1  0.61290000  0.17480000  0.46090000  1.0 -0.0293266155
C  C99  1  0.82520000  0.43810000  0.46090000  1.0 -0.0293266155
C  C100  1  0.38710000  0.82520000  0.96090000  1.0 -0.0293266155
C  C101  1  0.17480000  0.56190000  0.96090000  1.0 -0.0293266155
C  C102  1  0.38710000  0.56190000  0.53910000  1.0 -0.0293266155
C  C103  1  0.82520000  0.38710000  0.03910000  1.0 -0.0293266155
C  C104  1  0.56190000  0.17480000  0.03910000  1.0 -0.0293266155
C  C105  1  0.43810000  0.61290000  0.96090000  1.0 -0.0293266155
C  C106  1  0.17480000  0.61290000  0.53910000  1.0 -0.0293266155
C  C107  1  0.43810000  0.82520000  0.53910000  1.0 -0.0293266155
C  C108  1  0.61290000  0.43810000  0.03910000  1.0 -0.0293266155
C  C109  1  0.43810000  0.61290000  0.53910000  1.0 -0.0293266155
C  C110  1  0.38710000  0.82520000  0.53910000  1.0 -0.0293266155
C  C111  1  0.17480000  0.56190000  0.53910000  1.0 -0.0293266155
C  C112  1  0.61290000  0.17480000  0.03910000  1.0 -0.0293266155
C  C113  1  0.82520000  0.43810000  0.03910000  1.0 -0.0293266155
C  C114  1  0.61290000  0.43810000  0.46090000  1.0 -0.0293266155
C  C115  1  0.17480000  0.61290000  0.96090000  1.0 -0.0293266155
C  C116  1  0.43810000  0.82520000  0.96090000  1.0 -0.0293266155
C  C117  1  0.56190000  0.38710000  0.03910000  1.0 -0.0293266155
C  C118  1  0.82520000  0.38710000  0.46090000  1.0 -0.0293266155
C  C119  1  0.56190000  0.17480000  0.46090000  1.0 -0.0293266155
C  C120  1  0.38710000  0.56190000  0.96090000  1.0 -0.0293266155
C  C121  1  0.43210000  0.32290000  0.25000000  1.0 0.2398931967
C  C122  1  0.67710000  0.10920000  0.25000000  1.0 0.2398931967
C  C123  1  0.89080000  0.56790000  0.25000000  1.0 0.2398931967
C  C124  1  0.32290000  0.89080000  0.75000000  1.0 0.2398931967
C  C125  1  0.10920000  0.43210000  0.75000000  1.0 0.2398931967
C  C126  1  0.32290000  0.43210000  0.75000000  1.0 0.2398931967
C  C127  1  0.89080000  0.32290000  0.25000000  1.0 0.2398931967
C  C128  1  0.43210000  0.10920000  0.25000000  1.0 0.2398931967
C  C129  1  0.56790000  0.67710000  0.75000000  1.0 0.2398931967
C  C130  1  0.10920000  0.67710000  0.75000000  1.0 0.2398931967
C  C131  1  0.56790000  0.89080000  0.75000000  1.0 0.2398931967
C  C132  1  0.67710000  0.56790000  0.25000000  1.0 0.2398931967
C  C133  1  0.35640000  0.32110000  0.28630000  1.0 -0.0293266155
C  C134  1  0.67890000  0.03530000  0.28630000  1.0 -0.0293266155
C  C135  1  0.96470000  0.64360000  0.28630000  1.0 -0.0293266155
C  C136  1  0.32110000  0.96470000  0.78630000  1.0 -0.0293266155
C  C137  1  0.03530000  0.35640000  0.78630000  1.0 -0.0293266155
C  C138  1  0.32110000  0.35640000  0.71370000  1.0 -0.0293266155
C  C139  1  0.96470000  0.32110000  0.21370000  1.0 -0.0293266155
C  C140  1  0.35640000  0.03530000  0.21370000  1.0 -0.0293266155
C  C141  1  0.64360000  0.67890000  0.78630000  1.0 -0.0293266155
C  C142  1  0.03530000  0.67890000  0.71370000  1.0 -0.0293266155
C  C143  1  0.64360000  0.96470000  0.71370000  1.0 -0.0293266155
C  C144  1  0.67890000  0.64360000  0.21370000  1.0 -0.0293266155
C  C145  1  0.64360000  0.67890000  0.71370000  1.0 -0.0293266155
C  C146  1  0.32110000  0.96470000  0.71370000  1.0 -0.0293266155
C  C147  1  0.03530000  0.35640000  0.71370000  1.0 -0.0293266155
C  C148  1  0.67890000  0.03530000  0.21370000  1.0 -0.0293266155
C  C149  1  0.96470000  0.64360000  0.21370000  1.0 -0.0293266155
C  C150  1  0.67890000  0.64360000  0.28630000  1.0 -0.0293266155
C  C151  1  0.03530000  0.67890000  0.78630000  1.0 -0.0293266155
C  C152  1  0.64360000  0.96470000  0.78630000  1.0 -0.0293266155
C  C153  1  0.35640000  0.32110000  0.21370000  1.0 -0.0293266155
C  C154  1  0.96470000  0.32110000  0.28630000  1.0 -0.0293266155
C  C155  1  0.35640000  0.03530000  0.28630000  1.0 -0.0293266155
C  C156  1  0.32110000  0.35640000  0.78630000  1.0 -0.0293266155
C  C157  1  0.43500000  0.21750000  0.40380000  1.0 0.151972531
C  C158  1  0.78250000  0.21750000  0.40380000  1.0 0.151972531
C  C159  1  0.78250000  0.56500000  0.40380000  1.0 0.151972531
C  C160  1  0.21750000  0.78250000  0.90380000  1.0 0.151972531
C  C161  1  0.21750000  0.43500000  0.90380000  1.0 0.151972531
C  C162  1  0.21750000  0.43500000  0.59620000  1.0 0.151972531
C  C163  1  0.78250000  0.21750000  0.09620000  1.0 0.151972531
C  C164  1  0.43500000  0.21750000  0.09620000  1.0 0.151972531
C  C165  1  0.56500000  0.78250000  0.90380000  1.0 0.151972531
C  C166  1  0.21750000  0.78250000  0.59620000  1.0 0.151972531
C  C167  1  0.56500000  0.78250000  0.59620000  1.0 0.151972531
C  C168  1  0.78250000  0.56500000  0.09620000  1.0 0.151972531
C  C169  1  0.42550000  0.23900000  0.50580000  1.0 0.1288853424
C  C170  1  0.76100000  0.18650000  0.50580000  1.0 0.1288853424
C  C171  1  0.81350000  0.57450000  0.50580000  1.0 0.1288853424
C  C172  1  0.23900000  0.81350000  0.00580000  1.0 0.1288853424
C  C173  1  0.18650000  0.42550000  0.00580000  1.0 0.1288853424
C  C174  1  0.23900000  0.42550000  0.49420000  1.0 0.1288853424
C  C175  1  0.81350000  0.23900000  0.99420000  1.0 0.1288853424
C  C176  1  0.42550000  0.18650000  0.99420000  1.0 0.1288853424
C  C177  1  0.57450000  0.76100000  0.00580000  1.0 0.1288853424
C  C178  1  0.18650000  0.76100000  0.49420000  1.0 0.1288853424
C  C179  1  0.57450000  0.81350000  0.49420000  1.0 0.1288853424
C  C180  1  0.76100000  0.57450000  0.99420000  1.0 0.1288853424
C  C181  1  0.57450000  0.76100000  0.49420000  1.0 0.1288853424
C  C182  1  0.23900000  0.81350000  0.49420000  1.0 0.1288853424
C  C183  1  0.18650000  0.42550000  0.49420000  1.0 0.1288853424
C  C184  1  0.76100000  0.18650000  0.99420000  1.0 0.1288853424
C  C185  1  0.81350000  0.57450000  0.99420000  1.0 0.1288853424
C  C186  1  0.76100000  0.57450000  0.50580000  1.0 0.1288853424
C  C187  1  0.18650000  0.76100000  0.00580000  1.0 0.1288853424
C  C188  1  0.57450000  0.81350000  0.00580000  1.0 0.1288853424
C  C189  1  0.42550000  0.23900000  0.99420000  1.0 0.1288853424
C  C190  1  0.81350000  0.23900000  0.50580000  1.0 0.1288853424
C  C191  1  0.42550000  0.18650000  0.50580000  1.0 0.1288853424
C  C192  1  0.23900000  0.42550000  0.00580000  1.0 0.1288853424
C  C193  1  0.41530000  0.23390000  0.62510000  1.0 -0.0985163019
C  C194  1  0.76610000  0.18140000  0.62510000  1.0 -0.0985163019
C  C195  1  0.81860000  0.58470000  0.62510000  1.0 -0.0985163019
C  C196  1  0.23390000  0.81860000  0.12510000  1.0 -0.0985163019
C  C197  1  0.18140000  0.41530000  0.12510000  1.0 -0.0985163019
C  C198  1  0.23390000  0.41530000  0.37490000  1.0 -0.0985163019
C  C199  1  0.81860000  0.23390000  0.87490000  1.0 -0.0985163019
C  C200  1  0.41530000  0.18140000  0.87490000  1.0 -0.0985163019
C  C201  1  0.58470000  0.76610000  0.12510000  1.0 -0.0985163019
C  C202  1  0.18140000  0.76610000  0.37490000  1.0 -0.0985163019
C  C203  1  0.58470000  0.81860000  0.37490000  1.0 -0.0985163019
C  C204  1  0.76610000  0.58470000  0.87490000  1.0 -0.0985163019
C  C205  1  0.58470000  0.76610000  0.37490000  1.0 -0.0985163019
C  C206  1  0.23390000  0.81860000  0.37490000  1.0 -0.0985163019
C  C207  1  0.18140000  0.41530000  0.37490000  1.0 -0.0985163019
C  C208  1  0.76610000  0.18140000  0.87490000  1.0 -0.0985163019
C  C209  1  0.81860000  0.58470000  0.87490000  1.0 -0.0985163019
C  C210  1  0.76610000  0.58470000  0.62510000  1.0 -0.0985163019
C  C211  1  0.18140000  0.76610000  0.12510000  1.0 -0.0985163019
C  C212  1  0.58470000  0.81860000  0.12510000  1.0 -0.0985163019
C  C213  1  0.41530000  0.23390000  0.87490000  1.0 -0.0985163019
C  C214  1  0.81860000  0.23390000  0.62510000  1.0 -0.0985163019
C  C215  1  0.41530000  0.18140000  0.62510000  1.0 -0.0985163019
C  C216  1  0.23390000  0.41530000  0.12510000  1.0 -0.0985163019
C  C217  1  0.41950000  0.26540000  0.56650000  1.0 -0.2991595083
C  C218  1  0.73460000  0.15410000  0.56650000  1.0 -0.2991595083
C  C219  1  0.84590000  0.58050000  0.56650000  1.0 -0.2991595083
C  C220  1  0.26540000  0.84590000  0.06650000  1.0 -0.2991595083
C  C221  1  0.15410000  0.41950000  0.06650000  1.0 -0.2991595083
C  C222  1  0.26540000  0.41950000  0.43350000  1.0 -0.2991595083
C  C223  1  0.84590000  0.26540000  0.93350000  1.0 -0.2991595083
C  C224  1  0.41950000  0.15410000  0.93350000  1.0 -0.2991595083
C  C225  1  0.58050000  0.73460000  0.06650000  1.0 -0.2991595083
C  C226  1  0.15410000  0.73460000  0.43350000  1.0 -0.2991595083
C  C227  1  0.58050000  0.84590000  0.43350000  1.0 -0.2991595083
C  C228  1  0.73460000  0.58050000  0.93350000  1.0 -0.2991595083
C  C229  1  0.58050000  0.73460000  0.43350000  1.0 -0.2991595083
C  C230  1  0.26540000  0.84590000  0.43350000  1.0 -0.2991595083
C  C231  1  0.15410000  0.41950000  0.43350000  1.0 -0.2991595083
C  C232  1  0.73460000  0.15410000  0.93350000  1.0 -0.2991595083
C  C233  1  0.84590000  0.58050000  0.93350000  1.0 -0.2991595083
C  C234  1  0.73460000  0.58050000  0.56650000  1.0 -0.2991595083
C  C235  1  0.15410000  0.73460000  0.06650000  1.0 -0.2991595083
C  C236  1  0.58050000  0.84590000  0.06650000  1.0 -0.2991595083
C  C237  1  0.41950000  0.26540000  0.93350000  1.0 -0.2991595083
C  C238  1  0.84590000  0.26540000  0.56650000  1.0 -0.2991595083
C  C239  1  0.41950000  0.15410000  0.56650000  1.0 -0.2991595083
C  C240  1  0.26540000  0.41950000  0.06650000  1.0 -0.2991595083
C  C241  1  0.54370000  0.40120000  0.48110000  1.0 0.047825216
C  C242  1  0.59880000  0.14250000  0.48110000  1.0 0.047825216
C  C243  1  0.85750000  0.45630000  0.48110000  1.0 0.047825216
C  C244  1  0.40120000  0.85750000  0.98110000  1.0 0.047825216
C  C245  1  0.14250000  0.54370000  0.98110000  1.0 0.047825216
C  C246  1  0.40120000  0.54370000  0.51890000  1.0 0.047825216
C  C247  1  0.85750000  0.40120000  0.01890000  1.0 0.047825216
C  C248  1  0.54370000  0.14250000  0.01890000  1.0 0.047825216
C  C249  1  0.45630000  0.59880000  0.98110000  1.0 0.047825216
C  C250  1  0.14250000  0.59880000  0.51890000  1.0 0.047825216
C  C251  1  0.45630000  0.85750000  0.51890000  1.0 0.047825216
C  C252  1  0.59880000  0.45630000  0.01890000  1.0 0.047825216
C  C253  1  0.45630000  0.59880000  0.51890000  1.0 0.047825216
C  C254  1  0.40120000  0.85750000  0.51890000  1.0 0.047825216
C  C255  1  0.14250000  0.54370000  0.51890000  1.0 0.047825216
C  C256  1  0.59880000  0.14250000  0.01890000  1.0 0.047825216
C  C257  1  0.85750000  0.45630000  0.01890000  1.0 0.047825216
C  C258  1  0.59880000  0.45630000  0.48110000  1.0 0.047825216
C  C259  1  0.14250000  0.59880000  0.98110000  1.0 0.047825216
C  C260  1  0.45630000  0.85750000  0.98110000  1.0 0.047825216
C  C261  1  0.54370000  0.40120000  0.01890000  1.0 0.047825216
C  C262  1  0.85750000  0.40120000  0.48110000  1.0 0.047825216
C  C263  1  0.54370000  0.14250000  0.48110000  1.0 0.047825216
C  C264  1  0.40120000  0.54370000  0.98110000  1.0 0.047825216
N  N1  1  0.37220000  0.34110000  0.44980000  1.0 -0.0667764278
N  N2  1  0.65890000  0.03110000  0.44980000  1.0 -0.0667764278
N  N3  1  0.96890000  0.62780000  0.44980000  1.0 -0.0667764278
N  N4  1  0.34110000  0.96890000  0.94980000  1.0 -0.0667764278
N  N5  1  0.03110000  0.37220000  0.94980000  1.0 -0.0667764278
N  N6  1  0.34110000  0.37220000  0.55020000  1.0 -0.0667764278
N  N7  1  0.96890000  0.34110000  0.05020000  1.0 -0.0667764278
N  N8  1  0.37220000  0.03110000  0.05020000  1.0 -0.0667764278
N  N9  1  0.62780000  0.65890000  0.94980000  1.0 -0.0667764278
N  N10  1  0.03110000  0.65890000  0.55020000  1.0 -0.0667764278
N  N11  1  0.62780000  0.96890000  0.55020000  1.0 -0.0667764278
N  N12  1  0.65890000  0.62780000  0.05020000  1.0 -0.0667764278
N  N13  1  0.62780000  0.65890000  0.55020000  1.0 -0.0667764278
N  N14  1  0.34110000  0.96890000  0.55020000  1.0 -0.0667764278
N  N15  1  0.03110000  0.37220000  0.55020000  1.0 -0.0667764278
N  N16  1  0.65890000  0.03110000  0.05020000  1.0 -0.0667764278
N  N17  1  0.96890000  0.62780000  0.05020000  1.0 -0.0667764278
N  N18  1  0.65890000  0.62780000  0.44980000  1.0 -0.0667764278
N  N19  1  0.03110000  0.65890000  0.94980000  1.0 -0.0667764278
N  N20  1  0.62780000  0.96890000  0.94980000  1.0 -0.0667764278
N  N21  1  0.37220000  0.34110000  0.05020000  1.0 -0.0667764278
N  N22  1  0.96890000  0.34110000  0.44980000  1.0 -0.0667764278
N  N23  1  0.37220000  0.03110000  0.44980000  1.0 -0.0667764278
N  N24  1  0.34110000  0.37220000  0.94980000  1.0 -0.0667764278
N  N25  1  0.51580000  0.39930000  0.42880000  1.0 -0.2589502497
N  N26  1  0.60070000  0.11650000  0.42880000  1.0 -0.2589502497
N  N27  1  0.88350000  0.48420000  0.42880000  1.0 -0.2589502497
N  N28  1  0.39930000  0.88350000  0.92880000  1.0 -0.2589502497
N  N29  1  0.11650000  0.51580000  0.92880000  1.0 -0.2589502497
N  N30  1  0.39930000  0.51580000  0.57120000  1.0 -0.2589502497
N  N31  1  0.88350000  0.39930000  0.07120000  1.0 -0.2589502497
N  N32  1  0.51580000  0.11650000  0.07120000  1.0 -0.2589502497
N  N33  1  0.48420000  0.60070000  0.92880000  1.0 -0.2589502497
N  N34  1  0.11650000  0.60070000  0.57120000  1.0 -0.2589502497
N  N35  1  0.48420000  0.88350000  0.57120000  1.0 -0.2589502497
N  N36  1  0.60070000  0.48420000  0.07120000  1.0 -0.2589502497
N  N37  1  0.48420000  0.60070000  0.57120000  1.0 -0.2589502497
N  N38  1  0.39930000  0.88350000  0.57120000  1.0 -0.2589502497
N  N39  1  0.11650000  0.51580000  0.57120000  1.0 -0.2589502497
N  N40  1  0.60070000  0.11650000  0.07120000  1.0 -0.2589502497
N  N41  1  0.88350000  0.48420000  0.07120000  1.0 -0.2589502497
N  N42  1  0.60070000  0.48420000  0.42880000  1.0 -0.2589502497
N  N43  1  0.11650000  0.60070000  0.92880000  1.0 -0.2589502497
N  N44  1  0.48420000  0.88350000  0.92880000  1.0 -0.2589502497
N  N45  1  0.51580000  0.39930000  0.07120000  1.0 -0.2589502497
N  N46  1  0.88350000  0.39930000  0.42880000  1.0 -0.2589502497
N  N47  1  0.51580000  0.11650000  0.42880000  1.0 -0.2589502497
N  N48  1  0.39930000  0.51580000  0.92880000  1.0 -0.2589502497
N  N49  1  0.51890000  0.48110000  0.38100000  1.0 0.3135950354
N  N50  1  0.51890000  0.03780000  0.38100000  1.0 0.3135950354
N  N51  1  0.96220000  0.48110000  0.38100000  1.0 0.3135950354
N  N52  1  0.48110000  0.96220000  0.88100000  1.0 0.3135950354
N  N53  1  0.03780000  0.51890000  0.88100000  1.0 0.3135950354
N  N54  1  0.48110000  0.51890000  0.61900000  1.0 0.3135950354
N  N55  1  0.96220000  0.48110000  0.11900000  1.0 0.3135950354
N  N56  1  0.51890000  0.03780000  0.11900000  1.0 0.3135950354
N  N57  1  0.48110000  0.51890000  0.88100000  1.0 0.3135950354
N  N58  1  0.03780000  0.51890000  0.61900000  1.0 0.3135950354
N  N59  1  0.48110000  0.96220000  0.61900000  1.0 0.3135950354
N  N60  1  0.51890000  0.48110000  0.11900000  1.0 0.3135950354
N  N61  1  0.40540000  0.32230000  0.30830000  1.0 -0.3612328669
N  N62  1  0.67770000  0.08310000  0.30830000  1.0 -0.3612328669
N  N63  1  0.91690000  0.59460000  0.30830000  1.0 -0.3612328669
N  N64  1  0.32230000  0.91690000  0.80830000  1.0 -0.3612328669
N  N65  1  0.08310000  0.40540000  0.80830000  1.0 -0.3612328669
N  N66  1  0.32230000  0.40540000  0.69170000  1.0 -0.3612328669
N  N67  1  0.91690000  0.32230000  0.19170000  1.0 -0.3612328669
N  N68  1  0.40540000  0.08310000  0.19170000  1.0 -0.3612328669
N  N69  1  0.59460000  0.67770000  0.80830000  1.0 -0.3612328669
N  N70  1  0.08310000  0.67770000  0.69170000  1.0 -0.3612328669
N  N71  1  0.59460000  0.91690000  0.69170000  1.0 -0.3612328669
N  N72  1  0.67770000  0.59460000  0.19170000  1.0 -0.3612328669
N  N73  1  0.59460000  0.67770000  0.69170000  1.0 -0.3612328669
N  N74  1  0.32230000  0.91690000  0.69170000  1.0 -0.3612328669
N  N75  1  0.08310000  0.40540000  0.69170000  1.0 -0.3612328669
N  N76  1  0.67770000  0.08310000  0.19170000  1.0 -0.3612328669
N  N77  1  0.91690000  0.59460000  0.19170000  1.0 -0.3612328669
N  N78  1  0.67770000  0.59460000  0.30830000  1.0 -0.3612328669
N  N79  1  0.08310000  0.67770000  0.80830000  1.0 -0.3612328669
N  N80  1  0.59460000  0.91690000  0.80830000  1.0 -0.3612328669
N  N81  1  0.40540000  0.32230000  0.19170000  1.0 -0.3612328669
N  N82  1  0.91690000  0.32230000  0.30830000  1.0 -0.3612328669
N  N83  1  0.40540000  0.08310000  0.30830000  1.0 -0.3612328669
N  N84  1  0.32230000  0.40540000  0.80830000  1.0 -0.3612328669
N  N85  1  0.48740000  0.32400000  0.25000000  1.0 0.3535398779
N  N86  1  0.67600000  0.16340000  0.25000000  1.0 0.3535398779
N  N87  1  0.83660000  0.51260000  0.25000000  1.0 0.3535398779
N  N88  1  0.32400000  0.83660000  0.75000000  1.0 0.3535398779
N  N89  1  0.16340000  0.48740000  0.75000000  1.0 0.3535398779
N  N90  1  0.32400000  0.48740000  0.75000000  1.0 0.3535398779
N  N91  1  0.83660000  0.32400000  0.25000000  1.0 0.3535398779
N  N92  1  0.48740000  0.16340000  0.25000000  1.0 0.3535398779
N  N93  1  0.51260000  0.67600000  0.75000000  1.0 0.3535398779
N  N94  1  0.16340000  0.67600000  0.75000000  1.0 0.3535398779
N  N95  1  0.51260000  0.83660000  0.75000000  1.0 0.3535398779
N  N96  1  0.67600000  0.51260000  0.25000000  1.0 0.3535398779
N  N97  1  0.43140000  0.25870000  0.43940000  1.0 -0.3699011517
N  N98  1  0.74130000  0.17270000  0.43940000  1.0 -0.3699011517
N  N99  1  0.82730000  0.56860000  0.43940000  1.0 -0.3699011517
N  N100  1  0.25870000  0.82730000  0.93940000  1.0 -0.3699011517
N  N101  1  0.17270000  0.43140000  0.93940000  1.0 -0.3699011517
N  N102  1  0.25870000  0.43140000  0.56060000  1.0 -0.3699011517
N  N103  1  0.82730000  0.25870000  0.06060000  1.0 -0.3699011517
N  N104  1  0.43140000  0.17270000  0.06060000  1.0 -0.3699011517
N  N105  1  0.56860000  0.74130000  0.93940000  1.0 -0.3699011517
N  N106  1  0.17270000  0.74130000  0.56060000  1.0 -0.3699011517
N  N107  1  0.56860000  0.82730000  0.56060000  1.0 -0.3699011517
N  N108  1  0.74130000  0.56860000  0.06060000  1.0 -0.3699011517
N  N109  1  0.56860000  0.74130000  0.56060000  1.0 -0.3699011517
N  N110  1  0.25870000  0.82730000  0.56060000  1.0 -0.3699011517
N  N111  1  0.17270000  0.43140000  0.56060000  1.0 -0.3699011517
N  N112  1  0.74130000  0.17270000  0.06060000  1.0 -0.3699011517
N  N113  1  0.82730000  0.56860000  0.06060000  1.0 -0.3699011517
N  N114  1  0.74130000  0.56860000  0.43940000  1.0 -0.3699011517
N  N115  1  0.17270000  0.74130000  0.93940000  1.0 -0.3699011517
N  N116  1  0.56860000  0.82730000  0.93940000  1.0 -0.3699011517
N  N117  1  0.43140000  0.25870000  0.06060000  1.0 -0.3699011517
N  N118  1  0.82730000  0.25870000  0.43940000  1.0 -0.3699011517
N  N119  1  0.43140000  0.17270000  0.43940000  1.0 -0.3699011517
N  N120  1  0.25870000  0.43140000  0.93940000  1.0 -0.3699011517
N  N121  1  0.37930000  0.33480000  0.47480000  1.0 -0.048654805
N  N122  1  0.66520000  0.04450000  0.47480000  1.0 -0.048654805
N  N123  1  0.95550000  0.62070000  0.47480000  1.0 -0.048654805
N  N124  1  0.33480000  0.95550000  0.97480000  1.0 -0.048654805
N  N125  1  0.04450000  0.37930000  0.97480000  1.0 -0.048654805
N  N126  1  0.33480000  0.37930000  0.52520000  1.0 -0.048654805
N  N127  1  0.95550000  0.33480000  0.02520000  1.0 -0.048654805
N  N128  1  0.37930000  0.04450000  0.02520000  1.0 -0.048654805
N  N129  1  0.62070000  0.66520000  0.97480000  1.0 -0.048654805
N  N130  1  0.04450000  0.66520000  0.52520000  1.0 -0.048654805
N  N131  1  0.62070000  0.95550000  0.52520000  1.0 -0.048654805
N  N132  1  0.66520000  0.62070000  0.02520000  1.0 -0.048654805
N  N133  1  0.62070000  0.66520000  0.52520000  1.0 -0.048654805
N  N134  1  0.33480000  0.95550000  0.52520000  1.0 -0.048654805
N  N135  1  0.04450000  0.37930000  0.52520000  1.0 -0.048654805
N  N136  1  0.66520000  0.04450000  0.02520000  1.0 -0.048654805
N  N137  1  0.95550000  0.62070000  0.02520000  1.0 -0.048654805
N  N138  1  0.66520000  0.62070000  0.47480000  1.0 -0.048654805
N  N139  1  0.04450000  0.66520000  0.97480000  1.0 -0.048654805
N  N140  1  0.62070000  0.95550000  0.97480000  1.0 -0.048654805
N  N141  1  0.37930000  0.33480000  0.02520000  1.0 -0.048654805
N  N142  1  0.95550000  0.33480000  0.47480000  1.0 -0.048654805
N  N143  1  0.37930000  0.04450000  0.47480000  1.0 -0.048654805
N  N144  1  0.33480000  0.37930000  0.97480000  1.0 -0.048654805
N  N145  1  0.52880000  0.47120000  0.33300000  1.0 0.2280357952
N  N146  1  0.52880000  0.05760000  0.33300000  1.0 0.2280357952
N  N147  1  0.94240000  0.47120000  0.33300000  1.0 0.2280357952
N  N148  1  0.47120000  0.94240000  0.83300000  1.0 0.2280357952
N  N149  1  0.05760000  0.52880000  0.83300000  1.0 0.2280357952
N  N150  1  0.47120000  0.52880000  0.66700000  1.0 0.2280357952
N  N151  1  0.94240000  0.47120000  0.16700000  1.0 0.2280357952
N  N152  1  0.52880000  0.05760000  0.16700000  1.0 0.2280357952
N  N153  1  0.47120000  0.52880000  0.83300000  1.0 0.2280357952
N  N154  1  0.05760000  0.52880000  0.66700000  1.0 0.2280357952
N  N155  1  0.47120000  0.94240000  0.66700000  1.0 0.2280357952
N  N156  1  0.52880000  0.47120000  0.16700000  1.0 0.2280357952
Cl  Cl1  1  0.40740000  0.28000000  0.69750000  1.0 -0.1305747455
Cl  Cl2  1  0.72000000  0.12740000  0.69750000  1.0 -0.1305747455
Cl  Cl3  1  0.87260000  0.59260000  0.69750000  1.0 -0.1305747455
Cl  Cl4  1  0.28000000  0.87260000  0.19750000  1.0 -0.1305747455
Cl  Cl5  1  0.12740000  0.40740000  0.19750000  1.0 -0.1305747455
Cl  Cl6  1  0.28000000  0.40740000  0.30250000  1.0 -0.1305747455
Cl  Cl7  1  0.87260000  0.28000000  0.80250000  1.0 -0.1305747455
Cl  Cl8  1  0.40740000  0.12740000  0.80250000  1.0 -0.1305747455
Cl  Cl9  1  0.59260000  0.72000000  0.19750000  1.0 -0.1305747455
Cl  Cl10  1  0.12740000  0.72000000  0.30250000  1.0 -0.1305747455
Cl  Cl11  1  0.59260000  0.87260000  0.30250000  1.0 -0.1305747455
Cl  Cl12  1  0.72000000  0.59260000  0.80250000  1.0 -0.1305747455
Cl  Cl13  1  0.59260000  0.72000000  0.30250000  1.0 -0.1305747455
Cl  Cl14  1  0.28000000  0.87260000  0.30250000  1.0 -0.1305747455
Cl  Cl15  1  0.12740000  0.40740000  0.30250000  1.0 -0.1305747455
Cl  Cl16  1  0.72000000  0.12740000  0.80250000  1.0 -0.1305747455
Cl  Cl17  1  0.87260000  0.59260000  0.80250000  1.0 -0.1305747455
Cl  Cl18  1  0.72000000  0.59260000  0.69750000  1.0 -0.1305747455
Cl  Cl19  1  0.12740000  0.72000000  0.19750000  1.0 -0.1305747455
Cl  Cl20  1  0.59260000  0.87260000  0.19750000  1.0 -0.1305747455
Cl  Cl21  1  0.40740000  0.28000000  0.80250000  1.0 -0.1305747455
Cl  Cl22  1  0.87260000  0.28000000  0.69750000  1.0 -0.1305747455
Cl  Cl23  1  0.40740000  0.12740000  0.69750000  1.0 -0.1305747455
Cl  Cl24  1  0.28000000  0.40740000  0.19750000  1.0 -0.1305747455
Cl  Cl25  1  0.17780000  0.13600000  0.45300000  1.0 -0.1414567158
Cl  Cl26  1  0.86400000  0.04180000  0.45300000  1.0 -0.1414567158
Cl  Cl27  1  0.95820000  0.82220000  0.45300000  1.0 -0.1414567158
Cl  Cl28  1  0.13600000  0.95820000  0.95300000  1.0 -0.1414567158
Cl  Cl29  1  0.04180000  0.17780000  0.95300000  1.0 -0.1414567158
Cl  Cl30  1  0.13600000  0.17780000  0.54700000  1.0 -0.1414567158
Cl  Cl31  1  0.95820000  0.13600000  0.04700000  1.0 -0.1414567158
Cl  Cl32  1  0.17780000  0.04180000  0.04700000  1.0 -0.1414567158
Cl  Cl33  1  0.82220000  0.86400000  0.95300000  1.0 -0.1414567158
Cl  Cl34  1  0.04180000  0.86400000  0.54700000  1.0 -0.1414567158
Cl  Cl35  1  0.82220000  0.95820000  0.54700000  1.0 -0.1414567158
Cl  Cl36  1  0.86400000  0.82220000  0.04700000  1.0 -0.1414567158
Cl  Cl37  1  0.82220000  0.86400000  0.54700000  1.0 -0.1414567158
Cl  Cl38  1  0.13600000  0.95820000  0.54700000  1.0 -0.1414567158
Cl  Cl39  1  0.04180000  0.17780000  0.54700000  1.0 -0.1414567158
Cl  Cl40  1  0.86400000  0.04180000  0.04700000  1.0 -0.1414567158
Cl  Cl41  1  0.95820000  0.82220000  0.04700000  1.0 -0.1414567158
Cl  Cl42  1  0.86400000  0.82220000  0.45300000  1.0 -0.1414567158
Cl  Cl43  1  0.04180000  0.86400000  0.95300000  1.0 -0.1414567158
Cl  Cl44  1  0.82220000  0.95820000  0.95300000  1.0 -0.1414567158
Cl  Cl45  1  0.17780000  0.13600000  0.04700000  1.0 -0.1414567158
Cl  Cl46  1  0.95820000  0.13600000  0.45300000  1.0 -0.1414567158
Cl  Cl47  1  0.17780000  0.04180000  0.45300000  1.0 -0.1414567158
Cl  Cl48  1  0.13600000  0.17780000  0.95300000  1.0 -0.1414567158
O  O1  1  0.46660000  0.45250000  0.37740000  1.0 -0.0985163019
O  O2  1  0.54750000  0.01410000  0.37740000  1.0 -0.0985163019
O  O3  1  0.98590000  0.53340000  0.37740000  1.0 -0.0985163019
O  O4  1  0.45250000  0.98590000  0.87740000  1.0 -0.0985163019
O  O5  1  0.01410000  0.46660000  0.87740000  1.0 -0.0985163019
O  O6  1  0.45250000  0.46660000  0.62260000  1.0 -0.0985163019
O  O7  1  0.98590000  0.45250000  0.12260000  1.0 -0.0985163019
O  O8  1  0.46660000  0.01410000  0.12260000  1.0 -0.0985163019
O  O9  1  0.53340000  0.54750000  0.87740000  1.0 -0.0985163019
O  O10  1  0.01410000  0.54750000  0.62260000  1.0 -0.0985163019
O  O11  1  0.53340000  0.98590000  0.62260000  1.0 -0.0985163019
O  O12  1  0.54750000  0.53340000  0.12260000  1.0 -0.0985163019
O  O13  1  0.53340000  0.54750000  0.62260000  1.0 -0.0985163019
O  O14  1  0.45250000  0.98590000  0.62260000  1.0 -0.0985163019
O  O15  1  0.01410000  0.46660000  0.62260000  1.0 -0.0985163019
O  O16  1  0.54750000  0.01410000  0.12260000  1.0 -0.0985163019
O  O17  1  0.98590000  0.53340000  0.12260000  1.0 -0.0985163019
O  O18  1  0.54750000  0.53340000  0.37740000  1.0 -0.0985163019
O  O19  1  0.01410000  0.54750000  0.87740000  1.0 -0.0985163019
O  O20  1  0.53340000  0.98590000  0.87740000  1.0 -0.0985163019
O  O21  1  0.46660000  0.45250000  0.12260000  1.0 -0.0985163019
O  O22  1  0.98590000  0.45250000  0.37740000  1.0 -0.0985163019
O  O23  1  0.46660000  0.01410000  0.37740000  1.0 -0.0985163019
O  O24  1  0.45250000  0.46660000  0.87740000  1.0 -0.0985163019
O  O25  1  0.51020000  0.32490000  0.30470000  1.0 -0.3299233777
O  O26  1  0.67510000  0.18530000  0.30470000  1.0 -0.3299233777
O  O27  1  0.81470000  0.48980000  0.30470000  1.0 -0.3299233777
O  O28  1  0.32490000  0.81470000  0.80470000  1.0 -0.3299233777
O  O29  1  0.18530000  0.51020000  0.80470000  1.0 -0.3299233777
O  O30  1  0.32490000  0.51020000  0.69530000  1.0 -0.3299233777
O  O31  1  0.81470000  0.32490000  0.19530000  1.0 -0.3299233777
O  O32  1  0.51020000  0.18530000  0.19530000  1.0 -0.3299233777
O  O33  1  0.48980000  0.67510000  0.80470000  1.0 -0.3299233777
O  O34  1  0.18530000  0.67510000  0.69530000  1.0 -0.3299233777
O  O35  1  0.48980000  0.81470000  0.69530000  1.0 -0.3299233777
O  O36  1  0.67510000  0.48980000  0.19530000  1.0 -0.3299233777
O  O37  1  0.48980000  0.67510000  0.69530000  1.0 -0.3299233777
O  O38  1  0.32490000  0.81470000  0.69530000  1.0 -0.3299233777
O  O39  1  0.18530000  0.51020000  0.69530000  1.0 -0.3299233777
O  O40  1  0.67510000  0.18530000  0.19530000  1.0 -0.3299233777
O  O41  1  0.81470000  0.48980000  0.19530000  1.0 -0.3299233777
O  O42  1  0.67510000  0.48980000  0.30470000  1.0 -0.3299233777
O  O43  1  0.18530000  0.67510000  0.80470000  1.0 -0.3299233777
O  O44  1  0.48980000  0.81470000  0.80470000  1.0 -0.3299233777
O  O45  1  0.51020000  0.32490000  0.19530000  1.0 -0.3299233777
O  O46  1  0.81470000  0.32490000  0.30470000  1.0 -0.3299233777
O  O47  1  0.51020000  0.18530000  0.30470000  1.0 -0.3299233777
O  O48  1  0.32490000  0.51020000  0.80470000  1.0 -0.3299233777
O  O49  1  0.47560000  0.44280000  0.32200000  1.0 -0.0383730162
O  O50  1  0.55720000  0.03280000  0.32200000  1.0 -0.0383730162
O  O51  1  0.96720000  0.52440000  0.32200000  1.0 -0.0383730162
O  O52  1  0.44280000  0.96720000  0.82200000  1.0 -0.0383730162
O  O53  1  0.03280000  0.47560000  0.82200000  1.0 -0.0383730162
O  O54  1  0.44280000  0.47560000  0.67800000  1.0 -0.0383730162
O  O55  1  0.96720000  0.44280000  0.17800000  1.0 -0.0383730162
O  O56  1  0.47560000  0.03280000  0.17800000  1.0 -0.0383730162
O  O57  1  0.52440000  0.55720000  0.82200000  1.0 -0.0383730162
O  O58  1  0.03280000  0.55720000  0.67800000  1.0 -0.0383730162
O  O59  1  0.52440000  0.96720000  0.67800000  1.0 -0.0383730162
O  O60  1  0.55720000  0.52440000  0.17800000  1.0 -0.0383730162
O  O61  1  0.52440000  0.55720000  0.67800000  1.0 -0.0383730162
O  O62  1  0.44280000  0.96720000  0.67800000  1.0 -0.0383730162
O  O63  1  0.03280000  0.47560000  0.67800000  1.0 -0.0383730162
O  O64  1  0.55720000  0.03280000  0.17800000  1.0 -0.0383730162
O  O65  1  0.96720000  0.52440000  0.17800000  1.0 -0.0383730162
O  O66  1  0.55720000  0.52440000  0.32200000  1.0 -0.0383730162
O  O67  1  0.03280000  0.55720000  0.82200000  1.0 -0.0383730162
O  O68  1  0.52440000  0.96720000  0.82200000  1.0 -0.0383730162
O  O69  1  0.47560000  0.44280000  0.17800000  1.0 -0.0383730162
O  O70  1  0.96720000  0.44280000  0.32200000  1.0 -0.0383730162
O  O71  1  0.47560000  0.03280000  0.32200000  1.0 -0.0383730162
O  O72  1  0.44280000  0.47560000  0.82200000  1.0 -0.0383730162
