# DDEC6 charges by PACMAN v1.1 (https://github.com/mtap-research/PACMAN-charge/)
data_GITVAH_ASR_pacman
_symmetry_space_group_name_H-M   'P 1'
_cell_length_a   26.08400000
_cell_length_b   26.08400000
_cell_length_c   19.40820000
_cell_angle_alpha   90.00000000
_cell_angle_beta   90.00000000
_cell_angle_gamma   120.00000000
_symmetry_Int_Tables_number   1
_chemical_formula_structural   Zn2H16C22N13(ClO)6
_chemical_formula_sum   'Zn24 H192 C264 N156 Cl72 O72'
_cell_volume   11435.74002346
_cell_formula_units_Z   12
loop_
 _symmetry_equiv_pos_site_id
 _symmetry_equiv_pos_as_xyz
  1  'x, y, z'
loop_
 _atom_site_type_symbol
 _atom_site_label
 _atom_site_symmetry_multiplicity
 _atom_site_fract_x
 _atom_site_fract_y
 _atom_site_fract_z
 _atom_site_occupancy
 _atom_site_charge
Zn  Zn1  1  0.43519000  0.33203000  0.40422000  1.0 0.5937072004
Zn  Zn2  1  0.66797000  0.10316000  0.40422000  1.0 0.5937072004
Zn  Zn3  1  0.89684000  0.56481000  0.40422000  1.0 0.5937072004
Zn  Zn4  1  0.33203000  0.89684000  0.90422000  1.0 0.5937072004
Zn  Zn5  1  0.10316000  0.43519000  0.90422000  1.0 0.5937072004
Zn  Zn6  1  0.33203000  0.43519000  0.59578000  1.0 0.5937072004
Zn  Zn7  1  0.89684000  0.33203000  0.09578000  1.0 0.5937072004
Zn  Zn8  1  0.43519000  0.10316000  0.09578000  1.0 0.5937072004
Zn  Zn9  1  0.56481000  0.66797000  0.90422000  1.0 0.5937072004
Zn  Zn10  1  0.10316000  0.66797000  0.59578000  1.0 0.5937072004
Zn  Zn11  1  0.56481000  0.89684000  0.59578000  1.0 0.5937072004
Zn  Zn12  1  0.66797000  0.56481000  0.09578000  1.0 0.5937072004
Zn  Zn13  1  0.56481000  0.66797000  0.59578000  1.0 0.5937072004
Zn  Zn14  1  0.33203000  0.89684000  0.59578000  1.0 0.5937072004
Zn  Zn15  1  0.10316000  0.43519000  0.59578000  1.0 0.5937072004
Zn  Zn16  1  0.66797000  0.10316000  0.09578000  1.0 0.5937072004
Zn  Zn17  1  0.89684000  0.56481000  0.09578000  1.0 0.5937072004
Zn  Zn18  1  0.66797000  0.56481000  0.40422000  1.0 0.5937072004
Zn  Zn19  1  0.10316000  0.66797000  0.90422000  1.0 0.5937072004
Zn  Zn20  1  0.56481000  0.89684000  0.90422000  1.0 0.5937072004
Zn  Zn21  1  0.43519000  0.33203000  0.09578000  1.0 0.5937072004
Zn  Zn22  1  0.89684000  0.33203000  0.40422000  1.0 0.5937072004
Zn  Zn23  1  0.43519000  0.10316000  0.40422000  1.0 0.5937072004
Zn  Zn24  1  0.33203000  0.43519000  0.90422000  1.0 0.5937072004
H  H1  1  0.41990000  0.41990000  0.50000000  1.0 0.0601532865
H  H2  1  0.58010000  0.00000000  0.50000000  1.0 0.0601532865
H  H3  1  0.00000000  0.58010000  0.50000000  1.0 0.0601532865
H  H4  1  0.41990000  0.00000000  0.00000000  1.0 0.0601532865
H  H5  1  0.00000000  0.41990000  0.00000000  1.0 0.0601532865
H  H6  1  0.58010000  0.58010000  0.00000000  1.0 0.0601532865
H  H7  1  0.58010000  0.58010000  0.50000000  1.0 0.0601532865
H  H8  1  0.41990000  0.00000000  0.50000000  1.0 0.0601532865
H  H9  1  0.00000000  0.41990000  0.50000000  1.0 0.0601532865
H  H10  1  0.58010000  0.00000000  0.00000000  1.0 0.0601532865
H  H11  1  0.00000000  0.58010000  0.00000000  1.0 0.0601532865
H  H12  1  0.41990000  0.41990000  0.00000000  1.0 0.0601532865
H  H13  1  0.30080000  0.22420000  0.41890000  1.0 0.1380783241
H  H14  1  0.77580000  0.07660000  0.41890000  1.0 0.1380783241
H  H15  1  0.92340000  0.69920000  0.41890000  1.0 0.1380783241
H  H16  1  0.22420000  0.92340000  0.91890000  1.0 0.1380783241
H  H17  1  0.07660000  0.30080000  0.91890000  1.0 0.1380783241
H  H18  1  0.22420000  0.30080000  0.58110000  1.0 0.1380783241
H  H19  1  0.92340000  0.22420000  0.08110000  1.0 0.1380783241
H  H20  1  0.30080000  0.07660000  0.08110000  1.0 0.1380783241
H  H21  1  0.69920000  0.77580000  0.91890000  1.0 0.1380783241
H  H22  1  0.07660000  0.77580000  0.58110000  1.0 0.1380783241
H  H23  1  0.69920000  0.92340000  0.58110000  1.0 0.1380783241
H  H24  1  0.77580000  0.69920000  0.08110000  1.0 0.1380783241
H  H25  1  0.69920000  0.77580000  0.58110000  1.0 0.1380783241
H  H26  1  0.22420000  0.92340000  0.58110000  1.0 0.1380783241
H  H27  1  0.07660000  0.30080000  0.58110000  1.0 0.1380783241
H  H28  1  0.77580000  0.07660000  0.08110000  1.0 0.1380783241
H  H29  1  0.92340000  0.69920000  0.08110000  1.0 0.1380783241
H  H30  1  0.77580000  0.69920000  0.41890000  1.0 0.1380783241
H  H31  1  0.07660000  0.77580000  0.91890000  1.0 0.1380783241
H  H32  1  0.69920000  0.92340000  0.91890000  1.0 0.1380783241
H  H33  1  0.30080000  0.22420000  0.08110000  1.0 0.1380783241
H  H34  1  0.92340000  0.22420000  0.41890000  1.0 0.1380783241
H  H35  1  0.30080000  0.07660000  0.41890000  1.0 0.1380783241
H  H36  1  0.22420000  0.30080000  0.91890000  1.0 0.1380783241
H  H37  1  0.54900000  0.35240000  0.48780000  1.0 0.1253566682
H  H38  1  0.64760000  0.19660000  0.48780000  1.0 0.1253566682
H  H39  1  0.80340000  0.45100000  0.48780000  1.0 0.1253566682
H  H40  1  0.35240000  0.80340000  0.98780000  1.0 0.1253566682
H  H41  1  0.19660000  0.54900000  0.98780000  1.0 0.1253566682
H  H42  1  0.35240000  0.54900000  0.51220000  1.0 0.1253566682
H  H43  1  0.80340000  0.35240000  0.01220000  1.0 0.1253566682
H  H44  1  0.54900000  0.19660000  0.01220000  1.0 0.1253566682
H  H45  1  0.45100000  0.64760000  0.98780000  1.0 0.1253566682
H  H46  1  0.19660000  0.64760000  0.51220000  1.0 0.1253566682
H  H47  1  0.45100000  0.80340000  0.51220000  1.0 0.1253566682
H  H48  1  0.64760000  0.45100000  0.01220000  1.0 0.1253566682
H  H49  1  0.45100000  0.64760000  0.51220000  1.0 0.1253566682
H  H50  1  0.35240000  0.80340000  0.51220000  1.0 0.1253566682
H  H51  1  0.19660000  0.54900000  0.51220000  1.0 0.1253566682
H  H52  1  0.64760000  0.19660000  0.01220000  1.0 0.1253566682
H  H53  1  0.80340000  0.45100000  0.01220000  1.0 0.1253566682
H  H54  1  0.64760000  0.45100000  0.48780000  1.0 0.1253566682
H  H55  1  0.19660000  0.64760000  0.98780000  1.0 0.1253566682
H  H56  1  0.45100000  0.80340000  0.98780000  1.0 0.1253566682
H  H57  1  0.54900000  0.35240000  0.01220000  1.0 0.1253566682
H  H58  1  0.80340000  0.35240000  0.48780000  1.0 0.1253566682
H  H59  1  0.54900000  0.19660000  0.48780000  1.0 0.1253566682
H  H60  1  0.35240000  0.54900000  0.98780000  1.0 0.1253566682
H  H61  1  0.32670000  0.32150000  0.31510000  1.0 0.1110516205
H  H62  1  0.67850000  0.00520000  0.31510000  1.0 0.1110516205
H  H63  1  0.99480000  0.67330000  0.31510000  1.0 0.1110516205
H  H64  1  0.32150000  0.99480000  0.81510000  1.0 0.1110516205
H  H65  1  0.00520000  0.32670000  0.81510000  1.0 0.1110516205
H  H66  1  0.32150000  0.32670000  0.68490000  1.0 0.1110516205
H  H67  1  0.99480000  0.32150000  0.18490000  1.0 0.1110516205
H  H68  1  0.32670000  0.00520000  0.18490000  1.0 0.1110516205
H  H69  1  0.67330000  0.67850000  0.81510000  1.0 0.1110516205
H  H70  1  0.00520000  0.67850000  0.68490000  1.0 0.1110516205
H  H71  1  0.67330000  0.99480000  0.68490000  1.0 0.1110516205
H  H72  1  0.67850000  0.67330000  0.18490000  1.0 0.1110516205
H  H73  1  0.67330000  0.67850000  0.68490000  1.0 0.1110516205
H  H74  1  0.32150000  0.99480000  0.68490000  1.0 0.1110516205
H  H75  1  0.00520000  0.32670000  0.68490000  1.0 0.1110516205
H  H76  1  0.67850000  0.00520000  0.18490000  1.0 0.1110516205
H  H77  1  0.99480000  0.67330000  0.18490000  1.0 0.1110516205
H  H78  1  0.67850000  0.67330000  0.31510000  1.0 0.1110516205
H  H79  1  0.00520000  0.67850000  0.81510000  1.0 0.1110516205
H  H80  1  0.67330000  0.99480000  0.81510000  1.0 0.1110516205
H  H81  1  0.32670000  0.32150000  0.18490000  1.0 0.1110516205
H  H82  1  0.99480000  0.32150000  0.31510000  1.0 0.1110516205
H  H83  1  0.32670000  0.00520000  0.31510000  1.0 0.1110516205
H  H84  1  0.32150000  0.32670000  0.81510000  1.0 0.1110516205
H  H85  1  0.44210000  0.22110000  0.35600000  1.0 0.1031366477
H  H86  1  0.77890000  0.22100000  0.35600000  1.0 0.1031366477
H  H87  1  0.77900000  0.55790000  0.35600000  1.0 0.1031366477
H  H88  1  0.22110000  0.77900000  0.85600000  1.0 0.1031366477
H  H89  1  0.22100000  0.44210000  0.85600000  1.0 0.1031366477
H  H90  1  0.22110000  0.44210000  0.64400000  1.0 0.1031366477
H  H91  1  0.77900000  0.22110000  0.14400000  1.0 0.1031366477
H  H92  1  0.44210000  0.22100000  0.14400000  1.0 0.1031366477
H  H93  1  0.55790000  0.77890000  0.85600000  1.0 0.1031366477
H  H94  1  0.22100000  0.77890000  0.64400000  1.0 0.1031366477
H  H95  1  0.55790000  0.77900000  0.64400000  1.0 0.1031366477
H  H96  1  0.77890000  0.55790000  0.14400000  1.0 0.1031366477
H  H97  1  0.41250000  0.29980000  0.56510000  1.0 0.1110516205
H  H98  1  0.70020000  0.11270000  0.56510000  1.0 0.1110516205
H  H99  1  0.88730000  0.58750000  0.56510000  1.0 0.1110516205
H  H100  1  0.29980000  0.88730000  0.06510000  1.0 0.1110516205
H  H101  1  0.11270000  0.41250000  0.06510000  1.0 0.1110516205
H  H102  1  0.29980000  0.41250000  0.43490000  1.0 0.1110516205
H  H103  1  0.88730000  0.29980000  0.93490000  1.0 0.1110516205
H  H104  1  0.41250000  0.11270000  0.93490000  1.0 0.1110516205
H  H105  1  0.58750000  0.70020000  0.06510000  1.0 0.1110516205
H  H106  1  0.11270000  0.70020000  0.43490000  1.0 0.1110516205
H  H107  1  0.58750000  0.88730000  0.43490000  1.0 0.1110516205
H  H108  1  0.70020000  0.58750000  0.93490000  1.0 0.1110516205
H  H109  1  0.58750000  0.70020000  0.43490000  1.0 0.1110516205
H  H110  1  0.29980000  0.88730000  0.43490000  1.0 0.1110516205
H  H111  1  0.11270000  0.41250000  0.43490000  1.0 0.1110516205
H  H112  1  0.70020000  0.11270000  0.93490000  1.0 0.1110516205
H  H113  1  0.88730000  0.58750000  0.93490000  1.0 0.1110516205
H  H114  1  0.70020000  0.58750000  0.56510000  1.0 0.1110516205
H  H115  1  0.11270000  0.70020000  0.06510000  1.0 0.1110516205
H  H116  1  0.58750000  0.88730000  0.06510000  1.0 0.1110516205
H  H117  1  0.41250000  0.29980000  0.93490000  1.0 0.1110516205
H  H118  1  0.88730000  0.29980000  0.56510000  1.0 0.1110516205
H  H119  1  0.41250000  0.11270000  0.56510000  1.0 0.1110516205
H  H120  1  0.29980000  0.41250000  0.06510000  1.0 0.1110516205
H  H121  1  0.20480000  0.16580000  0.45750000  1.0 0.1561961152
H  H122  1  0.83420000  0.03900000  0.45750000  1.0 0.1561961152
H  H123  1  0.96100000  0.79520000  0.45750000  1.0 0.1561961152
H  H124  1  0.16580000  0.96100000  0.95750000  1.0 0.1561961152
H  H125  1  0.03900000  0.20480000  0.95750000  1.0 0.1561961152
H  H126  1  0.16580000  0.20480000  0.54250000  1.0 0.1561961152
H  H127  1  0.96100000  0.16580000  0.04250000  1.0 0.1561961152
H  H128  1  0.20480000  0.03900000  0.04250000  1.0 0.1561961152
H  H129  1  0.79520000  0.83420000  0.95750000  1.0 0.1561961152
H  H130  1  0.03900000  0.83420000  0.54250000  1.0 0.1561961152
H  H131  1  0.79520000  0.96100000  0.54250000  1.0 0.1561961152
H  H132  1  0.83420000  0.79520000  0.04250000  1.0 0.1561961152
H  H133  1  0.79520000  0.83420000  0.54250000  1.0 0.1561961152
H  H134  1  0.16580000  0.96100000  0.54250000  1.0 0.1561961152
H  H135  1  0.03900000  0.20480000  0.54250000  1.0 0.1561961152
H  H136  1  0.83420000  0.03900000  0.04250000  1.0 0.1561961152
H  H137  1  0.96100000  0.79520000  0.04250000  1.0 0.1561961152
H  H138  1  0.83420000  0.79520000  0.45750000  1.0 0.1561961152
H  H139  1  0.03900000  0.83420000  0.95750000  1.0 0.1561961152
H  H140  1  0.79520000  0.96100000  0.95750000  1.0 0.1561961152
H  H141  1  0.20480000  0.16580000  0.04250000  1.0 0.1561961152
H  H142  1  0.96100000  0.16580000  0.45750000  1.0 0.1561961152
H  H143  1  0.20480000  0.03900000  0.45750000  1.0 0.1561961152
H  H144  1  0.16580000  0.20480000  0.95750000  1.0 0.1561961152
H  H145  1  0.50800000  0.38130000  0.54570000  1.0 0.1031366477
H  H146  1  0.61870000  0.12670000  0.54570000  1.0 0.1031366477
H  H147  1  0.87330000  0.49200000  0.54570000  1.0 0.1031366477
H  H148  1  0.38130000  0.87330000  0.04570000  1.0 0.1031366477
H  H149  1  0.12670000  0.50800000  0.04570000  1.0 0.1031366477
H  H150  1  0.38130000  0.50800000  0.45430000  1.0 0.1031366477
H  H151  1  0.87330000  0.38130000  0.95430000  1.0 0.1031366477
H  H152  1  0.50800000  0.12670000  0.95430000  1.0 0.1031366477
H  H153  1  0.49200000  0.61870000  0.04570000  1.0 0.1031366477
H  H154  1  0.12670000  0.61870000  0.45430000  1.0 0.1031366477
H  H155  1  0.49200000  0.87330000  0.45430000  1.0 0.1031366477
H  H156  1  0.61870000  0.49200000  0.95430000  1.0 0.1031366477
H  H157  1  0.49200000  0.61870000  0.45430000  1.0 0.1031366477
H  H158  1  0.38130000  0.87330000  0.45430000  1.0 0.1031366477
H  H159  1  0.12670000  0.50800000  0.45430000  1.0 0.1031366477
H  H160  1  0.61870000  0.12670000  0.95430000  1.0 0.1031366477
H  H161  1  0.87330000  0.49200000  0.95430000  1.0 0.1031366477
H  H162  1  0.61870000  0.49200000  0.54570000  1.0 0.1031366477
H  H163  1  0.12670000  0.61870000  0.04570000  1.0 0.1031366477
H  H164  1  0.49200000  0.87330000  0.04570000  1.0 0.1031366477
H  H165  1  0.50800000  0.38130000  0.95430000  1.0 0.1031366477
H  H166  1  0.87330000  0.38130000  0.54570000  1.0 0.1031366477
H  H167  1  0.50800000  0.12670000  0.54570000  1.0 0.1031366477
H  H168  1  0.38130000  0.50800000  0.04570000  1.0 0.1031366477
H  H169  1  0.42430000  0.25300000  0.66940000  1.0 0.1561961152
H  H170  1  0.74700000  0.17130000  0.66940000  1.0 0.1561961152
H  H171  1  0.82870000  0.57570000  0.66940000  1.0 0.1561961152
H  H172  1  0.25300000  0.82870000  0.16940000  1.0 0.1561961152
H  H173  1  0.17130000  0.42430000  0.16940000  1.0 0.1561961152
H  H174  1  0.25300000  0.42430000  0.33060000  1.0 0.1561961152
H  H175  1  0.82870000  0.25300000  0.83060000  1.0 0.1561961152
H  H176  1  0.42430000  0.17130000  0.83060000  1.0 0.1561961152
H  H177  1  0.57570000  0.74700000  0.16940000  1.0 0.1561961152
H  H178  1  0.17130000  0.74700000  0.33060000  1.0 0.1561961152
H  H179  1  0.57570000  0.82870000  0.33060000  1.0 0.1561961152
H  H180  1  0.74700000  0.57570000  0.83060000  1.0 0.1561961152
H  H181  1  0.57570000  0.74700000  0.33060000  1.0 0.1561961152
H  H182  1  0.25300000  0.82870000  0.33060000  1.0 0.1561961152
H  H183  1  0.17130000  0.42430000  0.33060000  1.0 0.1561961152
H  H184  1  0.74700000  0.17130000  0.83060000  1.0 0.1561961152
H  H185  1  0.82870000  0.57570000  0.83060000  1.0 0.1561961152
H  H186  1  0.74700000  0.57570000  0.66940000  1.0 0.1561961152
H  H187  1  0.17130000  0.74700000  0.16940000  1.0 0.1561961152
H  H188  1  0.57570000  0.82870000  0.16940000  1.0 0.1561961152
H  H189  1  0.42430000  0.25300000  0.83060000  1.0 0.1561961152
H  H190  1  0.82870000  0.25300000  0.66940000  1.0 0.1561961152
H  H191  1  0.42430000  0.17130000  0.66940000  1.0 0.1561961152
H  H192  1  0.25300000  0.42430000  0.16940000  1.0 0.1561961152
C  C1  1  0.38350000  0.38350000  0.50000000  1.0 0.1535993717
C  C2  1  0.61650000  0.00000000  0.50000000  1.0 0.1535993717
C  C3  1  0.00000000  0.61650000  0.50000000  1.0 0.1535993717
C  C4  1  0.38350000  0.00000000  0.00000000  1.0 0.1535993717
C  C5  1  0.00000000  0.38350000  0.00000000  1.0 0.1535993717
C  C6  1  0.61650000  0.61650000  0.00000000  1.0 0.1535993717
C  C7  1  0.61650000  0.61650000  0.50000000  1.0 0.1535993717
C  C8  1  0.38350000  0.00000000  0.50000000  1.0 0.1535993717
C  C9  1  0.00000000  0.38350000  0.50000000  1.0 0.1535993717
C  C10  1  0.61650000  0.00000000  0.00000000  1.0 0.1535993717
C  C11  1  0.00000000  0.61650000  0.00000000  1.0 0.1535993717
C  C12  1  0.38350000  0.38350000  0.00000000  1.0 0.1535993717
C  C13  1  0.31760000  0.29530000  0.47590000  1.0 0.1179040536
C  C14  1  0.70470000  0.02230000  0.47590000  1.0 0.1179040536
C  C15  1  0.97770000  0.68240000  0.47590000  1.0 0.1179040536
C  C16  1  0.29530000  0.97770000  0.97590000  1.0 0.1179040536
C  C17  1  0.02230000  0.31760000  0.97590000  1.0 0.1179040536
C  C18  1  0.29530000  0.31760000  0.52410000  1.0 0.1179040536
C  C19  1  0.97770000  0.29530000  0.02410000  1.0 0.1179040536
C  C20  1  0.31760000  0.02230000  0.02410000  1.0 0.1179040536
C  C21  1  0.68240000  0.70470000  0.97590000  1.0 0.1179040536
C  C22  1  0.02230000  0.70470000  0.52410000  1.0 0.1179040536
C  C23  1  0.68240000  0.97770000  0.52410000  1.0 0.1179040536
C  C24  1  0.70470000  0.68240000  0.02410000  1.0 0.1179040536
C  C25  1  0.68240000  0.70470000  0.52410000  1.0 0.1179040536
C  C26  1  0.29530000  0.97770000  0.52410000  1.0 0.1179040536
C  C27  1  0.02230000  0.31760000  0.52410000  1.0 0.1179040536
C  C28  1  0.70470000  0.02230000  0.02410000  1.0 0.1179040536
C  C29  1  0.97770000  0.68240000  0.02410000  1.0 0.1179040536
C  C30  1  0.70470000  0.68240000  0.47590000  1.0 0.1179040536
C  C31  1  0.02230000  0.70470000  0.97590000  1.0 0.1179040536
C  C32  1  0.68240000  0.97770000  0.97590000  1.0 0.1179040536
C  C33  1  0.31760000  0.29530000  0.02410000  1.0 0.1179040536
C  C34  1  0.97770000  0.29530000  0.47590000  1.0 0.1179040536
C  C35  1  0.31760000  0.02230000  0.47590000  1.0 0.1179040536
C  C36  1  0.29530000  0.31760000  0.97590000  1.0 0.1179040536
C  C37  1  0.22860000  0.20500000  0.47450000  1.0 -0.0895731893
C  C38  1  0.79500000  0.02360000  0.47450000  1.0 -0.0895731893
C  C39  1  0.97640000  0.77140000  0.47450000  1.0 -0.0895731893
C  C40  1  0.20500000  0.97640000  0.97450000  1.0 -0.0895731893
C  C41  1  0.02360000  0.22860000  0.97450000  1.0 -0.0895731893
C  C42  1  0.20500000  0.22860000  0.52550000  1.0 -0.0895731893
C  C43  1  0.97640000  0.20500000  0.02550000  1.0 -0.0895731893
C  C44  1  0.22860000  0.02360000  0.02550000  1.0 -0.0895731893
C  C45  1  0.77140000  0.79500000  0.97450000  1.0 -0.0895731893
C  C46  1  0.02360000  0.79500000  0.52550000  1.0 -0.0895731893
C  C47  1  0.77140000  0.97640000  0.52550000  1.0 -0.0895731893
C  C48  1  0.79500000  0.77140000  0.02550000  1.0 -0.0895731893
C  C49  1  0.77140000  0.79500000  0.52550000  1.0 -0.0895731893
C  C50  1  0.20500000  0.97640000  0.52550000  1.0 -0.0895731893
C  C51  1  0.02360000  0.22860000  0.52550000  1.0 -0.0895731893
C  C52  1  0.79500000  0.02360000  0.02550000  1.0 -0.0895731893
C  C53  1  0.97640000  0.77140000  0.02550000  1.0 -0.0895731893
C  C54  1  0.79500000  0.77140000  0.47450000  1.0 -0.0895731893
C  C55  1  0.02360000  0.79500000  0.97450000  1.0 -0.0895731893
C  C56  1  0.77140000  0.97640000  0.97450000  1.0 -0.0895731893
C  C57  1  0.22860000  0.20500000  0.02550000  1.0 -0.0895731893
C  C58  1  0.97640000  0.20500000  0.47450000  1.0 -0.0895731893
C  C59  1  0.22860000  0.02360000  0.47450000  1.0 -0.0895731893
C  C60  1  0.20500000  0.22860000  0.97450000  1.0 -0.0895731893
C  C61  1  0.28460000  0.23920000  0.45160000  1.0 -0.2564475832
C  C62  1  0.76080000  0.04540000  0.45160000  1.0 -0.2564475832
C  C63  1  0.95460000  0.71540000  0.45160000  1.0 -0.2564475832
C  C64  1  0.23920000  0.95460000  0.95160000  1.0 -0.2564475832
C  C65  1  0.04540000  0.28460000  0.95160000  1.0 -0.2564475832
C  C66  1  0.23920000  0.28460000  0.54840000  1.0 -0.2564475832
C  C67  1  0.95460000  0.23920000  0.04840000  1.0 -0.2564475832
C  C68  1  0.28460000  0.04540000  0.04840000  1.0 -0.2564475832
C  C69  1  0.71540000  0.76080000  0.95160000  1.0 -0.2564475832
C  C70  1  0.04540000  0.76080000  0.54840000  1.0 -0.2564475832
C  C71  1  0.71540000  0.95460000  0.54840000  1.0 -0.2564475832
C  C72  1  0.76080000  0.71540000  0.04840000  1.0 -0.2564475832
C  C73  1  0.71540000  0.76080000  0.54840000  1.0 -0.2564475832
C  C74  1  0.23920000  0.95460000  0.54840000  1.0 -0.2564475832
C  C75  1  0.04540000  0.28460000  0.54840000  1.0 -0.2564475832
C  C76  1  0.76080000  0.04540000  0.04840000  1.0 -0.2564475832
C  C77  1  0.95460000  0.71540000  0.04840000  1.0 -0.2564475832
C  C78  1  0.76080000  0.71540000  0.45160000  1.0 -0.2564475832
C  C79  1  0.04540000  0.76080000  0.95160000  1.0 -0.2564475832
C  C80  1  0.71540000  0.95460000  0.95160000  1.0 -0.2564475832
C  C81  1  0.28460000  0.23920000  0.04840000  1.0 -0.2564475832
C  C82  1  0.95460000  0.23920000  0.45160000  1.0 -0.2564475832
C  C83  1  0.28460000  0.04540000  0.45160000  1.0 -0.2564475832
C  C84  1  0.23920000  0.28460000  0.95160000  1.0 -0.2564475832
C  C85  1  0.54800000  0.45200000  0.40870000  1.0 0.0142196407
C  C86  1  0.54800000  0.09600000  0.40870000  1.0 0.0142196407
C  C87  1  0.90400000  0.45200000  0.40870000  1.0 0.0157137491
C  C88  1  0.45200000  0.90400000  0.90870000  1.0 0.0142196407
C  C89  1  0.09600000  0.54800000  0.90870000  1.0 0.0142196407
C  C90  1  0.45200000  0.54800000  0.59130000  1.0 0.0142196407
C  C91  1  0.90400000  0.45200000  0.09130000  1.0 0.0157137491
C  C92  1  0.54800000  0.09600000  0.09130000  1.0 0.0142196407
C  C93  1  0.45200000  0.54800000  0.90870000  1.0 0.0142196407
C  C94  1  0.09600000  0.54800000  0.59130000  1.0 0.0142196407
C  C95  1  0.45200000  0.90400000  0.59130000  1.0 0.0142196407
C  C96  1  0.54800000  0.45200000  0.09130000  1.0 0.0142196407
C  C97  1  0.55650000  0.38840000  0.46690000  1.0 -0.0255945876
C  C98  1  0.61160000  0.16810000  0.46690000  1.0 -0.0255945876
C  C99  1  0.83190000  0.44350000  0.46690000  1.0 -0.0255945876
C  C100  1  0.38840000  0.83190000  0.96690000  1.0 -0.0255945876
C  C101  1  0.16810000  0.55650000  0.96690000  1.0 -0.0255945876
C  C102  1  0.38840000  0.55650000  0.53310000  1.0 -0.0255945876
C  C103  1  0.83190000  0.38840000  0.03310000  1.0 -0.0255945876
C  C104  1  0.55650000  0.16810000  0.03310000  1.0 -0.0255945876
C  C105  1  0.44350000  0.61160000  0.96690000  1.0 -0.0255945876
C  C106  1  0.16810000  0.61160000  0.53310000  1.0 -0.0255945876
C  C107  1  0.44350000  0.83190000  0.53310000  1.0 -0.0255945876
C  C108  1  0.61160000  0.44350000  0.03310000  1.0 -0.0255945876
C  C109  1  0.44350000  0.61160000  0.53310000  1.0 -0.0255945876
C  C110  1  0.38840000  0.83190000  0.53310000  1.0 -0.0255945876
C  C111  1  0.16810000  0.55650000  0.53310000  1.0 -0.0255945876
C  C112  1  0.61160000  0.16810000  0.03310000  1.0 -0.0255945876
C  C113  1  0.83190000  0.44350000  0.03310000  1.0 -0.0255945876
C  C114  1  0.61160000  0.44350000  0.46690000  1.0 -0.0255945876
C  C115  1  0.16810000  0.61160000  0.96690000  1.0 -0.0255945876
C  C116  1  0.44350000  0.83190000  0.96690000  1.0 -0.0255945876
C  C117  1  0.55650000  0.38840000  0.03310000  1.0 -0.0255945876
C  C118  1  0.83190000  0.38840000  0.46690000  1.0 -0.0255945876
C  C119  1  0.55650000  0.16810000  0.46690000  1.0 -0.0255945876
C  C120  1  0.38840000  0.55650000  0.96690000  1.0 -0.0255945876
C  C121  1  0.43190000  0.32230000  0.25000000  1.0 0.2376979169
C  C122  1  0.67770000  0.10960000  0.25000000  1.0 0.2376979169
C  C123  1  0.89040000  0.56810000  0.25000000  1.0 0.2376979169
C  C124  1  0.32230000  0.89040000  0.75000000  1.0 0.2376979169
C  C125  1  0.10960000  0.43190000  0.75000000  1.0 0.2376979169
C  C126  1  0.32230000  0.43190000  0.75000000  1.0 0.2376979169
C  C127  1  0.89040000  0.32230000  0.25000000  1.0 0.2376979169
C  C128  1  0.43190000  0.10960000  0.25000000  1.0 0.2376979169
C  C129  1  0.56810000  0.67770000  0.75000000  1.0 0.2376979169
C  C130  1  0.10960000  0.67770000  0.75000000  1.0 0.2376979169
C  C131  1  0.56810000  0.89040000  0.75000000  1.0 0.2376979169
C  C132  1  0.67770000  0.56810000  0.25000000  1.0 0.2376979169
C  C133  1  0.35640000  0.32180000  0.28660000  1.0 -0.0381012769
C  C134  1  0.67820000  0.03460000  0.28660000  1.0 -0.0381012769
C  C135  1  0.96540000  0.64360000  0.28660000  1.0 -0.0381012769
C  C136  1  0.32180000  0.96540000  0.78660000  1.0 -0.0381012769
C  C137  1  0.03460000  0.35640000  0.78660000  1.0 -0.0381012769
C  C138  1  0.32180000  0.35640000  0.71340000  1.0 -0.0381012769
C  C139  1  0.96540000  0.32180000  0.21340000  1.0 -0.0381012769
C  C140  1  0.35640000  0.03460000  0.21340000  1.0 -0.0381012769
C  C141  1  0.64360000  0.67820000  0.78660000  1.0 -0.0381012769
C  C142  1  0.03460000  0.67820000  0.71340000  1.0 -0.0381012769
C  C143  1  0.64360000  0.96540000  0.71340000  1.0 -0.0381012769
C  C144  1  0.67820000  0.64360000  0.21340000  1.0 -0.0381012769
C  C145  1  0.64360000  0.67820000  0.71340000  1.0 -0.0381012769
C  C146  1  0.32180000  0.96540000  0.71340000  1.0 -0.0381012769
C  C147  1  0.03460000  0.35640000  0.71340000  1.0 -0.0381012769
C  C148  1  0.67820000  0.03460000  0.21340000  1.0 -0.0381012769
C  C149  1  0.96540000  0.64360000  0.21340000  1.0 -0.0381012769
C  C150  1  0.67820000  0.64360000  0.28660000  1.0 -0.0381012769
C  C151  1  0.03460000  0.67820000  0.78660000  1.0 -0.0381012769
C  C152  1  0.64360000  0.96540000  0.78660000  1.0 -0.0381012769
C  C153  1  0.35640000  0.32180000  0.21340000  1.0 -0.0381012769
C  C154  1  0.96540000  0.32180000  0.28660000  1.0 -0.0381012769
C  C155  1  0.35640000  0.03460000  0.28660000  1.0 -0.0381012769
C  C156  1  0.32180000  0.35640000  0.78660000  1.0 -0.0381012769
C  C157  1  0.43590000  0.21790000  0.40440000  1.0 0.1744415328
C  C158  1  0.78210000  0.21800000  0.40440000  1.0 0.1744415328
C  C159  1  0.78200000  0.56410000  0.40440000  1.0 0.1744415328
C  C160  1  0.21790000  0.78200000  0.90440000  1.0 0.1744415328
C  C161  1  0.21800000  0.43590000  0.90440000  1.0 0.1744415328
C  C162  1  0.21790000  0.43590000  0.59560000  1.0 0.1744415328
C  C163  1  0.78200000  0.21790000  0.09560000  1.0 0.1744415328
C  C164  1  0.43590000  0.21800000  0.09560000  1.0 0.1744415328
C  C165  1  0.56410000  0.78210000  0.90440000  1.0 0.1744415328
C  C166  1  0.21800000  0.78210000  0.59560000  1.0 0.1744415328
C  C167  1  0.56410000  0.78200000  0.59560000  1.0 0.1744415328
C  C168  1  0.78210000  0.56410000  0.09560000  1.0 0.1744415328
C  C169  1  0.42520000  0.23930000  0.50590000  1.0 0.1380783241
C  C170  1  0.76070000  0.18590000  0.50590000  1.0 0.1380783241
C  C171  1  0.81410000  0.57480000  0.50590000  1.0 0.1380783241
C  C172  1  0.23930000  0.81410000  0.00590000  1.0 0.1380783241
C  C173  1  0.18590000  0.42520000  0.00590000  1.0 0.1380783241
C  C174  1  0.23930000  0.42520000  0.49410000  1.0 0.1380783241
C  C175  1  0.81410000  0.23930000  0.99410000  1.0 0.1380783241
C  C176  1  0.42520000  0.18590000  0.99410000  1.0 0.1380783241
C  C177  1  0.57480000  0.76070000  0.00590000  1.0 0.1380783241
C  C178  1  0.18590000  0.76070000  0.49410000  1.0 0.1380783241
C  C179  1  0.57480000  0.81410000  0.49410000  1.0 0.1380783241
C  C180  1  0.76070000  0.57480000  0.99410000  1.0 0.1380783241
C  C181  1  0.57480000  0.76070000  0.49410000  1.0 0.1380783241
C  C182  1  0.23930000  0.81410000  0.49410000  1.0 0.1380783241
C  C183  1  0.18590000  0.42520000  0.49410000  1.0 0.1380783241
C  C184  1  0.76070000  0.18590000  0.99410000  1.0 0.1380783241
C  C185  1  0.81410000  0.57480000  0.99410000  1.0 0.1380783241
C  C186  1  0.76070000  0.57480000  0.50590000  1.0 0.1380783241
C  C187  1  0.18590000  0.76070000  0.00590000  1.0 0.1380783241
C  C188  1  0.57480000  0.81410000  0.00590000  1.0 0.1380783241
C  C189  1  0.42520000  0.23930000  0.99410000  1.0 0.1380783241
C  C190  1  0.81410000  0.23930000  0.50590000  1.0 0.1380783241
C  C191  1  0.42520000  0.18590000  0.50590000  1.0 0.1380783241
C  C192  1  0.23930000  0.42520000  0.00590000  1.0 0.1380783241
C  C193  1  0.42180000  0.23530000  0.62580000  1.0 -0.0895731893
C  C194  1  0.76470000  0.18650000  0.62580000  1.0 -0.0895731893
C  C195  1  0.81350000  0.57820000  0.62580000  1.0 -0.0895731893
C  C196  1  0.23530000  0.81350000  0.12580000  1.0 -0.0895731893
C  C197  1  0.18650000  0.42180000  0.12580000  1.0 -0.0895731893
C  C198  1  0.23530000  0.42180000  0.37420000  1.0 -0.0895731893
C  C199  1  0.81350000  0.23530000  0.87420000  1.0 -0.0895731893
C  C200  1  0.42180000  0.18650000  0.87420000  1.0 -0.0895731893
C  C201  1  0.57820000  0.76470000  0.12580000  1.0 -0.0895731893
C  C202  1  0.18650000  0.76470000  0.37420000  1.0 -0.0895731893
C  C203  1  0.57820000  0.81350000  0.37420000  1.0 -0.0895731893
C  C204  1  0.76470000  0.57820000  0.87420000  1.0 -0.0895731893
C  C205  1  0.57820000  0.76470000  0.37420000  1.0 -0.0895731893
C  C206  1  0.23530000  0.81350000  0.37420000  1.0 -0.0895731893
C  C207  1  0.18650000  0.42180000  0.37420000  1.0 -0.0895731893
C  C208  1  0.76470000  0.18650000  0.87420000  1.0 -0.0895731893
C  C209  1  0.81350000  0.57820000  0.87420000  1.0 -0.0895731893
C  C210  1  0.76470000  0.57820000  0.62580000  1.0 -0.0895731893
C  C211  1  0.18650000  0.76470000  0.12580000  1.0 -0.0895731893
C  C212  1  0.57820000  0.81350000  0.12580000  1.0 -0.0895731893
C  C213  1  0.42180000  0.23530000  0.87420000  1.0 -0.0895731893
C  C214  1  0.81350000  0.23530000  0.62580000  1.0 -0.0895731893
C  C215  1  0.42180000  0.18650000  0.62580000  1.0 -0.0895731893
C  C216  1  0.23530000  0.42180000  0.12580000  1.0 -0.0895731893
C  C217  1  0.41830000  0.26660000  0.56490000  1.0 -0.3413667453
C  C218  1  0.73340000  0.15170000  0.56490000  1.0 -0.3413667453
C  C219  1  0.84830000  0.58170000  0.56490000  1.0 -0.3413667453
C  C220  1  0.26660000  0.84830000  0.06490000  1.0 -0.3413667453
C  C221  1  0.15170000  0.41830000  0.06490000  1.0 -0.3413667453
C  C222  1  0.26660000  0.41830000  0.43510000  1.0 -0.3413667453
C  C223  1  0.84830000  0.26660000  0.93510000  1.0 -0.3413667453
C  C224  1  0.41830000  0.15170000  0.93510000  1.0 -0.3413667453
C  C225  1  0.58170000  0.73340000  0.06490000  1.0 -0.3413667453
C  C226  1  0.15170000  0.73340000  0.43510000  1.0 -0.3413667453
C  C227  1  0.58170000  0.84830000  0.43510000  1.0 -0.3413667453
C  C228  1  0.73340000  0.58170000  0.93510000  1.0 -0.3413667453
C  C229  1  0.58170000  0.73340000  0.43510000  1.0 -0.3413667453
C  C230  1  0.26660000  0.84830000  0.43510000  1.0 -0.3413667453
C  C231  1  0.15170000  0.41830000  0.43510000  1.0 -0.3413667453
C  C232  1  0.73340000  0.15170000  0.93510000  1.0 -0.3413667453
C  C233  1  0.84830000  0.58170000  0.93510000  1.0 -0.3413667453
C  C234  1  0.73340000  0.58170000  0.56490000  1.0 -0.3413667453
C  C235  1  0.15170000  0.73340000  0.06490000  1.0 -0.3413667453
C  C236  1  0.58170000  0.84830000  0.06490000  1.0 -0.3413667453
C  C237  1  0.41830000  0.26660000  0.93510000  1.0 -0.3413667453
C  C238  1  0.84830000  0.26660000  0.56490000  1.0 -0.3413667453
C  C239  1  0.41830000  0.15170000  0.56490000  1.0 -0.3413667453
C  C240  1  0.26660000  0.41830000  0.06490000  1.0 -0.3413667453
C  C241  1  0.53000000  0.40600000  0.50800000  1.0 -0.0819943351
C  C242  1  0.59400000  0.12400000  0.50800000  1.0 -0.0819943351
C  C243  1  0.87600000  0.47000000  0.50800000  1.0 -0.0819943351
C  C244  1  0.40600000  0.87600000  0.00800000  1.0 -0.0819943351
C  C245  1  0.12400000  0.53000000  0.00800000  1.0 -0.0819943351
C  C246  1  0.40600000  0.53000000  0.49200000  1.0 -0.0819943351
C  C247  1  0.87600000  0.40600000  0.99200000  1.0 -0.0819943351
C  C248  1  0.53000000  0.12400000  0.99200000  1.0 -0.0819943351
C  C249  1  0.47000000  0.59400000  0.00800000  1.0 -0.0819943351
C  C250  1  0.12400000  0.59400000  0.49200000  1.0 -0.0819943351
C  C251  1  0.47000000  0.87600000  0.49200000  1.0 -0.0819943351
C  C252  1  0.59400000  0.47000000  0.99200000  1.0 -0.0819943351
C  C253  1  0.47000000  0.59400000  0.49200000  1.0 -0.0819943351
C  C254  1  0.40600000  0.87600000  0.49200000  1.0 -0.0819943351
C  C255  1  0.12400000  0.53000000  0.49200000  1.0 -0.0819943351
C  C256  1  0.59400000  0.12400000  0.99200000  1.0 -0.0819943351
C  C257  1  0.87600000  0.47000000  0.99200000  1.0 -0.0819943351
C  C258  1  0.59400000  0.47000000  0.50800000  1.0 -0.0819943351
C  C259  1  0.12400000  0.59400000  0.00800000  1.0 -0.0819943351
C  C260  1  0.47000000  0.87600000  0.00800000  1.0 -0.0819943351
C  C261  1  0.53000000  0.40600000  0.99200000  1.0 -0.0819943351
C  C262  1  0.87600000  0.40600000  0.50800000  1.0 -0.0819943351
C  C263  1  0.53000000  0.12400000  0.50800000  1.0 -0.0819943351
C  C264  1  0.40600000  0.53000000  0.00800000  1.0 -0.0819943351
N  N1  1  0.37310000  0.34170000  0.45080000  1.0 -0.0658138728
N  N2  1  0.65830000  0.03140000  0.45080000  1.0 -0.0658138728
N  N3  1  0.96860000  0.62690000  0.45080000  1.0 -0.0658138728
N  N4  1  0.34170000  0.96860000  0.95080000  1.0 -0.0658138728
N  N5  1  0.03140000  0.37310000  0.95080000  1.0 -0.0658138728
N  N6  1  0.34170000  0.37310000  0.54920000  1.0 -0.0658138728
N  N7  1  0.96860000  0.34170000  0.04920000  1.0 -0.0658138728
N  N8  1  0.37310000  0.03140000  0.04920000  1.0 -0.0658138728
N  N9  1  0.62690000  0.65830000  0.95080000  1.0 -0.0658138728
N  N10  1  0.03140000  0.65830000  0.54920000  1.0 -0.0658138728
N  N11  1  0.62690000  0.96860000  0.54920000  1.0 -0.0658138728
N  N12  1  0.65830000  0.62690000  0.04920000  1.0 -0.0658138728
N  N13  1  0.62690000  0.65830000  0.54920000  1.0 -0.0658138728
N  N14  1  0.34170000  0.96860000  0.54920000  1.0 -0.0658138728
N  N15  1  0.03140000  0.37310000  0.54920000  1.0 -0.0658138728
N  N16  1  0.65830000  0.03140000  0.04920000  1.0 -0.0658138728
N  N17  1  0.96860000  0.62690000  0.04920000  1.0 -0.0658138728
N  N18  1  0.65830000  0.62690000  0.45080000  1.0 -0.0658138728
N  N19  1  0.03140000  0.65830000  0.95080000  1.0 -0.0658138728
N  N20  1  0.62690000  0.96860000  0.95080000  1.0 -0.0658138728
N  N21  1  0.37310000  0.34170000  0.04920000  1.0 -0.0658138728
N  N22  1  0.96860000  0.34170000  0.45080000  1.0 -0.0658138728
N  N23  1  0.37310000  0.03140000  0.45080000  1.0 -0.0658138728
N  N24  1  0.34170000  0.37310000  0.95080000  1.0 -0.0658138728
N  N25  1  0.51560000  0.39830000  0.42970000  1.0 -0.2693507856
N  N26  1  0.60170000  0.11730000  0.42970000  1.0 -0.2693507856
N  N27  1  0.88270000  0.48440000  0.42970000  1.0 -0.2693507856
N  N28  1  0.39830000  0.88270000  0.92970000  1.0 -0.2693507856
N  N29  1  0.11730000  0.51560000  0.92970000  1.0 -0.2693507856
N  N30  1  0.39830000  0.51560000  0.57030000  1.0 -0.2693507856
N  N31  1  0.88270000  0.39830000  0.07030000  1.0 -0.2693507856
N  N32  1  0.51560000  0.11730000  0.07030000  1.0 -0.2693507856
N  N33  1  0.48440000  0.60170000  0.92970000  1.0 -0.2693507856
N  N34  1  0.11730000  0.60170000  0.57030000  1.0 -0.2693507856
N  N35  1  0.48440000  0.88270000  0.57030000  1.0 -0.2693507856
N  N36  1  0.60170000  0.48440000  0.07030000  1.0 -0.2693507856
N  N37  1  0.48440000  0.60170000  0.57030000  1.0 -0.2693507856
N  N38  1  0.39830000  0.88270000  0.57030000  1.0 -0.2693507856
N  N39  1  0.11730000  0.51560000  0.57030000  1.0 -0.2693507856
N  N40  1  0.60170000  0.11730000  0.07030000  1.0 -0.2693507856
N  N41  1  0.88270000  0.48440000  0.07030000  1.0 -0.2693507856
N  N42  1  0.60170000  0.48440000  0.42970000  1.0 -0.2693507856
N  N43  1  0.11730000  0.60170000  0.92970000  1.0 -0.2693507856
N  N44  1  0.48440000  0.88270000  0.92970000  1.0 -0.2693507856
N  N45  1  0.51560000  0.39830000  0.07030000  1.0 -0.2693507856
N  N46  1  0.88270000  0.39830000  0.42970000  1.0 -0.2693507856
N  N47  1  0.51560000  0.11730000  0.42970000  1.0 -0.2693507856
N  N48  1  0.39830000  0.51560000  0.92970000  1.0 -0.2693507856
N  N49  1  0.51920000  0.48080000  0.38100000  1.0 0.3352702052
N  N50  1  0.51920000  0.03840000  0.38100000  1.0 0.3352702052
N  N51  1  0.96160000  0.48080000  0.38100000  1.0 0.3352702052
N  N52  1  0.48080000  0.96160000  0.88100000  1.0 0.3352702052
N  N53  1  0.03840000  0.51920000  0.88100000  1.0 0.3352702052
N  N54  1  0.48080000  0.51920000  0.61900000  1.0 0.3352702052
N  N55  1  0.96160000  0.48080000  0.11900000  1.0 0.3352702052
N  N56  1  0.51920000  0.03840000  0.11900000  1.0 0.3352702052
N  N57  1  0.48080000  0.51920000  0.88100000  1.0 0.3352702052
N  N58  1  0.03840000  0.51920000  0.61900000  1.0 0.3352702052
N  N59  1  0.48080000  0.96160000  0.61900000  1.0 0.3352702052
N  N60  1  0.51920000  0.48080000  0.11900000  1.0 0.3352702052
N  N61  1  0.40560000  0.32230000  0.30900000  1.0 -0.3854348135
N  N62  1  0.67770000  0.08330000  0.30900000  1.0 -0.3854348135
N  N63  1  0.91670000  0.59440000  0.30900000  1.0 -0.3854348135
N  N64  1  0.32230000  0.91670000  0.80900000  1.0 -0.3854348135
N  N65  1  0.08330000  0.40560000  0.80900000  1.0 -0.3854348135
N  N66  1  0.32230000  0.40560000  0.69100000  1.0 -0.3854348135
N  N67  1  0.91670000  0.32230000  0.19100000  1.0 -0.3854348135
N  N68  1  0.40560000  0.08330000  0.19100000  1.0 -0.3854348135
N  N69  1  0.59440000  0.67770000  0.80900000  1.0 -0.3854348135
N  N70  1  0.08330000  0.67770000  0.69100000  1.0 -0.3854348135
N  N71  1  0.59440000  0.91670000  0.69100000  1.0 -0.3854348135
N  N72  1  0.67770000  0.59440000  0.19100000  1.0 -0.3854348135
N  N73  1  0.59440000  0.67770000  0.69100000  1.0 -0.3854348135
N  N74  1  0.32230000  0.91670000  0.69100000  1.0 -0.3854348135
N  N75  1  0.08330000  0.40560000  0.69100000  1.0 -0.3854348135
N  N76  1  0.67770000  0.08330000  0.19100000  1.0 -0.3854348135
N  N77  1  0.91670000  0.59440000  0.19100000  1.0 -0.3854348135
N  N78  1  0.67770000  0.59440000  0.30900000  1.0 -0.3854348135
N  N79  1  0.08330000  0.67770000  0.80900000  1.0 -0.3854348135
N  N80  1  0.59440000  0.91670000  0.80900000  1.0 -0.3854348135
N  N81  1  0.40560000  0.32230000  0.19100000  1.0 -0.3854348135
N  N82  1  0.91670000  0.32230000  0.30900000  1.0 -0.3854348135
N  N83  1  0.40560000  0.08330000  0.30900000  1.0 -0.3854348135
N  N84  1  0.32230000  0.40560000  0.80900000  1.0 -0.3854348135
N  N85  1  0.48840000  0.32470000  0.25000000  1.0 0.4360517055
N  N86  1  0.67530000  0.16370000  0.25000000  1.0 0.4360517055
N  N87  1  0.83630000  0.51160000  0.25000000  1.0 0.4360517055
N  N88  1  0.32470000  0.83630000  0.75000000  1.0 0.4360517055
N  N89  1  0.16370000  0.48840000  0.75000000  1.0 0.4360517055
N  N90  1  0.32470000  0.48840000  0.75000000  1.0 0.4360517055
N  N91  1  0.83630000  0.32470000  0.25000000  1.0 0.4360517055
N  N92  1  0.48840000  0.16370000  0.25000000  1.0 0.4360517055
N  N93  1  0.51160000  0.67530000  0.75000000  1.0 0.4360517055
N  N94  1  0.16370000  0.67530000  0.75000000  1.0 0.4360517055
N  N95  1  0.51160000  0.83630000  0.75000000  1.0 0.4360517055
N  N96  1  0.67530000  0.51160000  0.25000000  1.0 0.4360517055
N  N97  1  0.43130000  0.25890000  0.43960000  1.0 -0.3600607388
N  N98  1  0.74110000  0.17240000  0.43960000  1.0 -0.3600607388
N  N99  1  0.82760000  0.56870000  0.43960000  1.0 -0.3600607388
N  N100  1  0.25890000  0.82760000  0.93960000  1.0 -0.3600607388
N  N101  1  0.17240000  0.43130000  0.93960000  1.0 -0.3600607388
N  N102  1  0.25890000  0.43130000  0.56040000  1.0 -0.3600607388
N  N103  1  0.82760000  0.25890000  0.06040000  1.0 -0.3600607388
N  N104  1  0.43130000  0.17240000  0.06040000  1.0 -0.3600607388
N  N105  1  0.56870000  0.74110000  0.93960000  1.0 -0.3600607388
N  N106  1  0.17240000  0.74110000  0.56040000  1.0 -0.3600607388
N  N107  1  0.56870000  0.82760000  0.56040000  1.0 -0.3600607388
N  N108  1  0.74110000  0.56870000  0.06040000  1.0 -0.3600607388
N  N109  1  0.56870000  0.74110000  0.56040000  1.0 -0.3600607388
N  N110  1  0.25890000  0.82760000  0.56040000  1.0 -0.3600607388
N  N111  1  0.17240000  0.43130000  0.56040000  1.0 -0.3600607388
N  N112  1  0.74110000  0.17240000  0.06040000  1.0 -0.3600607388
N  N113  1  0.82760000  0.56870000  0.06040000  1.0 -0.3600607388
N  N114  1  0.74110000  0.56870000  0.43960000  1.0 -0.3600607388
N  N115  1  0.17240000  0.74110000  0.93960000  1.0 -0.3600607388
N  N116  1  0.56870000  0.82760000  0.93960000  1.0 -0.3600607388
N  N117  1  0.43130000  0.25890000  0.06040000  1.0 -0.3600607388
N  N118  1  0.82760000  0.25890000  0.43960000  1.0 -0.3600607388
N  N119  1  0.43130000  0.17240000  0.43960000  1.0 -0.3600607388
N  N120  1  0.25890000  0.43130000  0.93960000  1.0 -0.3600607388
N  N121  1  0.37840000  0.33490000  0.47690000  1.0 0.0142196407
N  N122  1  0.66510000  0.04350000  0.47690000  1.0 0.0142196407
N  N123  1  0.95650000  0.62160000  0.47690000  1.0 0.0142196407
N  N124  1  0.33490000  0.95650000  0.97690000  1.0 0.0142196407
N  N125  1  0.04350000  0.37840000  0.97690000  1.0 0.0142196407
N  N126  1  0.33490000  0.37840000  0.52310000  1.0 0.0142196407
N  N127  1  0.95650000  0.33490000  0.02310000  1.0 0.0142196407
N  N128  1  0.37840000  0.04350000  0.02310000  1.0 0.0142196407
N  N129  1  0.62160000  0.66510000  0.97690000  1.0 0.0142196407
N  N130  1  0.04350000  0.66510000  0.52310000  1.0 0.0142196407
N  N131  1  0.62160000  0.95650000  0.52310000  1.0 0.0142196407
N  N132  1  0.66510000  0.62160000  0.02310000  1.0 0.0142196407
N  N133  1  0.62160000  0.66510000  0.52310000  1.0 0.0142196407
N  N134  1  0.33490000  0.95650000  0.52310000  1.0 0.0142196407
N  N135  1  0.04350000  0.37840000  0.52310000  1.0 0.0142196407
N  N136  1  0.66510000  0.04350000  0.02310000  1.0 0.0142196407
N  N137  1  0.95650000  0.62160000  0.02310000  1.0 0.0142196407
N  N138  1  0.66510000  0.62160000  0.47690000  1.0 0.0142196407
N  N139  1  0.04350000  0.66510000  0.97690000  1.0 0.0142196407
N  N140  1  0.62160000  0.95650000  0.97690000  1.0 0.0142196407
N  N141  1  0.37840000  0.33490000  0.02310000  1.0 0.0142196407
N  N142  1  0.95650000  0.33490000  0.47690000  1.0 0.0142196407
N  N143  1  0.37840000  0.04350000  0.47690000  1.0 0.0142196407
N  N144  1  0.33490000  0.37840000  0.97690000  1.0 0.0142196407
N  N145  1  0.52550000  0.47450000  0.33100000  1.0 0.3602356454
N  N146  1  0.52550000  0.05100000  0.33100000  1.0 0.3602356454
N  N147  1  0.94900000  0.47450000  0.33100000  1.0 0.3602356454
N  N148  1  0.47450000  0.94900000  0.83100000  1.0 0.3602356454
N  N149  1  0.05100000  0.52550000  0.83100000  1.0 0.3602356454
N  N150  1  0.47450000  0.52550000  0.66900000  1.0 0.3602356454
N  N151  1  0.94900000  0.47450000  0.16900000  1.0 0.3602356454
N  N152  1  0.52550000  0.05100000  0.16900000  1.0 0.3602356454
N  N153  1  0.47450000  0.52550000  0.83100000  1.0 0.3602356454
N  N154  1  0.05100000  0.52550000  0.66900000  1.0 0.3602356454
N  N155  1  0.47450000  0.94900000  0.66900000  1.0 0.3602356454
N  N156  1  0.52550000  0.47450000  0.16900000  1.0 0.3602356454
Cl  Cl1  1  0.17840000  0.13480000  0.45600000  1.0 -0.0136453184
Cl  Cl2  1  0.86520000  0.04360000  0.45600000  1.0 -0.0136453184
Cl  Cl3  1  0.95640000  0.82160000  0.45600000  1.0 -0.0136453184
Cl  Cl4  1  0.13480000  0.95640000  0.95600000  1.0 -0.0136453184
Cl  Cl5  1  0.04360000  0.17840000  0.95600000  1.0 -0.0136453184
Cl  Cl6  1  0.13480000  0.17840000  0.54400000  1.0 -0.0136453184
Cl  Cl7  1  0.95640000  0.13480000  0.04400000  1.0 -0.0136453184
Cl  Cl8  1  0.17840000  0.04360000  0.04400000  1.0 -0.0136453184
Cl  Cl9  1  0.82160000  0.86520000  0.95600000  1.0 -0.0136453184
Cl  Cl10  1  0.04360000  0.86520000  0.54400000  1.0 -0.0136453184
Cl  Cl11  1  0.82160000  0.95640000  0.54400000  1.0 -0.0136453184
Cl  Cl12  1  0.86520000  0.82160000  0.04400000  1.0 -0.0136453184
Cl  Cl13  1  0.82160000  0.86520000  0.54400000  1.0 -0.0136453184
Cl  Cl14  1  0.13480000  0.95640000  0.54400000  1.0 -0.0136453184
Cl  Cl15  1  0.04360000  0.17840000  0.54400000  1.0 -0.0136453184
Cl  Cl16  1  0.86520000  0.04360000  0.04400000  1.0 -0.0136453184
Cl  Cl17  1  0.95640000  0.82160000  0.04400000  1.0 -0.0136453184
Cl  Cl18  1  0.86520000  0.82160000  0.45600000  1.0 -0.0136453184
Cl  Cl19  1  0.04360000  0.86520000  0.95600000  1.0 -0.0136453184
Cl  Cl20  1  0.82160000  0.95640000  0.95600000  1.0 -0.0136453184
Cl  Cl21  1  0.17840000  0.13480000  0.04400000  1.0 -0.0136453184
Cl  Cl22  1  0.95640000  0.13480000  0.45600000  1.0 -0.0136453184
Cl  Cl23  1  0.17840000  0.04360000  0.45600000  1.0 -0.0136453184
Cl  Cl24  1  0.13480000  0.17840000  0.95600000  1.0 -0.0136453184
Cl  Cl25  1  0.40550000  0.27930000  0.69760000  1.0 -0.1252570436
Cl  Cl26  1  0.72070000  0.12620000  0.69760000  1.0 -0.1252570436
Cl  Cl27  1  0.87380000  0.59450000  0.69760000  1.0 -0.1252570436
Cl  Cl28  1  0.27930000  0.87380000  0.19760000  1.0 -0.1252570436
Cl  Cl29  1  0.12620000  0.40550000  0.19760000  1.0 -0.1252570436
Cl  Cl30  1  0.27930000  0.40550000  0.30240000  1.0 -0.1252570436
Cl  Cl31  1  0.87380000  0.27930000  0.80240000  1.0 -0.1252570436
Cl  Cl32  1  0.40550000  0.12620000  0.80240000  1.0 -0.1252570436
Cl  Cl33  1  0.59450000  0.72070000  0.19760000  1.0 -0.1252570436
Cl  Cl34  1  0.12620000  0.72070000  0.30240000  1.0 -0.1252570436
Cl  Cl35  1  0.59450000  0.87380000  0.30240000  1.0 -0.1252570436
Cl  Cl36  1  0.72070000  0.59450000  0.80240000  1.0 -0.1252570436
Cl  Cl37  1  0.59450000  0.72070000  0.30240000  1.0 -0.1252570436
Cl  Cl38  1  0.27930000  0.87380000  0.30240000  1.0 -0.1252570436
Cl  Cl39  1  0.12620000  0.40550000  0.30240000  1.0 -0.1252570436
Cl  Cl40  1  0.72070000  0.12620000  0.80240000  1.0 -0.1252570436
Cl  Cl41  1  0.87380000  0.59450000  0.80240000  1.0 -0.1252570436
Cl  Cl42  1  0.72070000  0.59450000  0.69760000  1.0 -0.1252570436
Cl  Cl43  1  0.12620000  0.72070000  0.19760000  1.0 -0.1252570436
Cl  Cl44  1  0.59450000  0.87380000  0.19760000  1.0 -0.1252570436
Cl  Cl45  1  0.40550000  0.27930000  0.80240000  1.0 -0.1252570436
Cl  Cl46  1  0.87380000  0.27930000  0.69760000  1.0 -0.1252570436
Cl  Cl47  1  0.40550000  0.12620000  0.69760000  1.0 -0.1252570436
Cl  Cl48  1  0.27930000  0.40550000  0.19760000  1.0 -0.1252570436
Cl  Cl49  1  0.16060000  0.16140000  0.39700000  1.0 -0.0963547355
Cl  Cl50  1  0.83860000  0.99920000  0.39700000  1.0 -0.0963547355
Cl  Cl51  1  0.00080000  0.83940000  0.39700000  1.0 -0.0963547355
Cl  Cl52  1  0.16140000  0.00080000  0.89700000  1.0 -0.0963547355
Cl  Cl53  1  0.99920000  0.16060000  0.89700000  1.0 -0.0963547355
Cl  Cl54  1  0.16140000  0.16060000  0.60300000  1.0 -0.0963547355
Cl  Cl55  1  0.00080000  0.16140000  0.10300000  1.0 -0.0963547355
Cl  Cl56  1  0.16060000  0.99920000  0.10300000  1.0 -0.0963547355
Cl  Cl57  1  0.83940000  0.83860000  0.89700000  1.0 -0.0963547355
Cl  Cl58  1  0.99920000  0.83860000  0.60300000  1.0 -0.0963547355
Cl  Cl59  1  0.83940000  0.00080000  0.60300000  1.0 -0.0963547355
Cl  Cl60  1  0.83860000  0.83940000  0.10300000  1.0 -0.0963547355
Cl  Cl61  1  0.83940000  0.83860000  0.60300000  1.0 -0.0963547355
Cl  Cl62  1  0.16140000  0.00080000  0.60300000  1.0 -0.0963547355
Cl  Cl63  1  0.99920000  0.16060000  0.60300000  1.0 -0.0963547355
Cl  Cl64  1  0.83860000  0.99920000  0.10300000  1.0 -0.0963547355
Cl  Cl65  1  0.00080000  0.83940000  0.10300000  1.0 -0.0963547355
Cl  Cl66  1  0.83860000  0.83940000  0.39700000  1.0 -0.0963547355
Cl  Cl67  1  0.99920000  0.83860000  0.89700000  1.0 -0.0963547355
Cl  Cl68  1  0.83940000  0.00080000  0.89700000  1.0 -0.0963547355
Cl  Cl69  1  0.16060000  0.16140000  0.10300000  1.0 -0.0963547355
Cl  Cl70  1  0.00080000  0.16140000  0.39700000  1.0 -0.0963547355
Cl  Cl71  1  0.16060000  0.99920000  0.39700000  1.0 -0.0963547355
Cl  Cl72  1  0.16140000  0.16060000  0.89700000  1.0 -0.0963547355
O  O1  1  0.46720000  0.45230000  0.37700000  1.0 -0.0819943351
O  O2  1  0.54770000  0.01490000  0.37700000  1.0 -0.0819943351
O  O3  1  0.98510000  0.53280000  0.37700000  1.0 -0.0819943351
O  O4  1  0.45230000  0.98510000  0.87700000  1.0 -0.0819943351
O  O5  1  0.01490000  0.46720000  0.87700000  1.0 -0.0819943351
O  O6  1  0.45230000  0.46720000  0.62300000  1.0 -0.0819943351
O  O7  1  0.98510000  0.45230000  0.12300000  1.0 -0.0819943351
O  O8  1  0.46720000  0.01490000  0.12300000  1.0 -0.0819943351
O  O9  1  0.53280000  0.54770000  0.87700000  1.0 -0.0819943351
O  O10  1  0.01490000  0.54770000  0.62300000  1.0 -0.0819943351
O  O11  1  0.53280000  0.98510000  0.62300000  1.0 -0.0819943351
O  O12  1  0.54770000  0.53280000  0.12300000  1.0 -0.0819943351
O  O13  1  0.53280000  0.54770000  0.62300000  1.0 -0.0819943351
O  O14  1  0.45230000  0.98510000  0.62300000  1.0 -0.0819943351
O  O15  1  0.01490000  0.46720000  0.62300000  1.0 -0.0819943351
O  O16  1  0.54770000  0.01490000  0.12300000  1.0 -0.0819943351
O  O17  1  0.98510000  0.53280000  0.12300000  1.0 -0.0819943351
O  O18  1  0.54770000  0.53280000  0.37700000  1.0 -0.0819943351
O  O19  1  0.01490000  0.54770000  0.87700000  1.0 -0.0819943351
O  O20  1  0.53280000  0.98510000  0.87700000  1.0 -0.0819943351
O  O21  1  0.46720000  0.45230000  0.12300000  1.0 -0.0819943351
O  O22  1  0.98510000  0.45230000  0.37700000  1.0 -0.0819943351
O  O23  1  0.46720000  0.01490000  0.37700000  1.0 -0.0819943351
O  O24  1  0.45230000  0.46720000  0.87700000  1.0 -0.0819943351
O  O25  1  0.50990000  0.32500000  0.30520000  1.0 -0.3191730291
O  O26  1  0.67500000  0.18490000  0.30520000  1.0 -0.3191730291
O  O27  1  0.81510000  0.49010000  0.30520000  1.0 -0.3191730291
O  O28  1  0.32500000  0.81510000  0.80520000  1.0 -0.3191730291
O  O29  1  0.18490000  0.50990000  0.80520000  1.0 -0.3191730291
O  O30  1  0.32500000  0.50990000  0.69480000  1.0 -0.3191730291
O  O31  1  0.81510000  0.32500000  0.19480000  1.0 -0.3191730291
O  O32  1  0.50990000  0.18490000  0.19480000  1.0 -0.3191730291
O  O33  1  0.49010000  0.67500000  0.80520000  1.0 -0.3191730291
O  O34  1  0.18490000  0.67500000  0.69480000  1.0 -0.3191730291
O  O35  1  0.49010000  0.81510000  0.69480000  1.0 -0.3191730291
O  O36  1  0.67500000  0.49010000  0.19480000  1.0 -0.3191730291
O  O37  1  0.49010000  0.67500000  0.69480000  1.0 -0.3191730291
O  O38  1  0.32500000  0.81510000  0.69480000  1.0 -0.3191730291
O  O39  1  0.18490000  0.50990000  0.69480000  1.0 -0.3191730291
O  O40  1  0.67500000  0.18490000  0.19480000  1.0 -0.3191730291
O  O41  1  0.81510000  0.49010000  0.19480000  1.0 -0.3191730291
O  O42  1  0.67500000  0.49010000  0.30520000  1.0 -0.3191730291
O  O43  1  0.18490000  0.67500000  0.80520000  1.0 -0.3191730291
O  O44  1  0.49010000  0.81510000  0.80520000  1.0 -0.3191730291
O  O45  1  0.50990000  0.32500000  0.19480000  1.0 -0.3191730291
O  O46  1  0.81510000  0.32500000  0.30520000  1.0 -0.3191730291
O  O47  1  0.50990000  0.18490000  0.30520000  1.0 -0.3191730291
O  O48  1  0.32500000  0.50990000  0.80520000  1.0 -0.3191730291
O  O49  1  0.47550000  0.44190000  0.31600000  1.0 -0.0627682364
O  O50  1  0.55810000  0.03360000  0.31600000  1.0 -0.0627682364
O  O51  1  0.96640000  0.52450000  0.31600000  1.0 -0.0627682364
O  O52  1  0.44190000  0.96640000  0.81600000  1.0 -0.0627682364
O  O53  1  0.03360000  0.47550000  0.81600000  1.0 -0.0627682364
O  O54  1  0.44190000  0.47550000  0.68400000  1.0 -0.0627682364
O  O55  1  0.96640000  0.44190000  0.18400000  1.0 -0.0627682364
O  O56  1  0.47550000  0.03360000  0.18400000  1.0 -0.0627682364
O  O57  1  0.52450000  0.55810000  0.81600000  1.0 -0.0627682364
O  O58  1  0.03360000  0.55810000  0.68400000  1.0 -0.0627682364
O  O59  1  0.52450000  0.96640000  0.68400000  1.0 -0.0627682364
O  O60  1  0.55810000  0.52450000  0.18400000  1.0 -0.0627682364
O  O61  1  0.52450000  0.55810000  0.68400000  1.0 -0.0627682364
O  O62  1  0.44190000  0.96640000  0.68400000  1.0 -0.0627682364
O  O63  1  0.03360000  0.47550000  0.68400000  1.0 -0.0627682364
O  O64  1  0.55810000  0.03360000  0.18400000  1.0 -0.0627682364
O  O65  1  0.96640000  0.52450000  0.18400000  1.0 -0.0627682364
O  O66  1  0.55810000  0.52450000  0.31600000  1.0 -0.0627682364
O  O67  1  0.03360000  0.55810000  0.81600000  1.0 -0.0627682364
O  O68  1  0.52450000  0.96640000  0.81600000  1.0 -0.0627682364
O  O69  1  0.47550000  0.44190000  0.18400000  1.0 -0.0627682364
O  O70  1  0.96640000  0.44190000  0.31600000  1.0 -0.0627682364
O  O71  1  0.47550000  0.03360000  0.31600000  1.0 -0.0627682364
O  O72  1  0.44190000  0.47550000  0.81600000  1.0 -0.0627682364
