# DDEC6 charges by PACMAN v1.1 (https://github.com/mtap-research/PACMAN-charge/)
data_GIWBOE_ASR_pacman
_symmetry_space_group_name_H-M   'P 1'
_cell_length_a   12.56300000
_cell_length_b   27.17200000
_cell_length_c   33.70000000
_cell_angle_alpha   90.00000000
_cell_angle_beta   90.00000000
_cell_angle_gamma   90.00000000
_symmetry_Int_Tables_number   1
_chemical_formula_structural   GaAgH30(C14N3)3
_chemical_formula_sum   'Ga8 Ag8 H240 C336 N72'
_cell_volume   11503.89387320
_cell_formula_units_Z   8
loop_
 _symmetry_equiv_pos_site_id
 _symmetry_equiv_pos_as_xyz
  1  'x, y, z'
loop_
 _atom_site_type_symbol
 _atom_site_label
 _atom_site_symmetry_multiplicity
 _atom_site_fract_x
 _atom_site_fract_y
 _atom_site_fract_z
 _atom_site_occupancy
 _atom_site_charge
Ga  Ga1  1  0.48820000  0.93365000  0.11510000  1.0 1.0034900015
Ga  Ga2  1  0.01180000  0.43365000  0.88490000  1.0 1.0034900015
Ga  Ga3  1  0.98820000  0.43365000  0.38490000  1.0 1.0034900015
Ga  Ga4  1  0.51180000  0.93365000  0.61510000  1.0 1.0034900015
Ga  Ga5  1  0.01180000  0.56635000  0.61510000  1.0 1.0034900015
Ga  Ga6  1  0.48820000  0.06635000  0.38490000  1.0 1.0034900015
Ga  Ga7  1  0.51180000  0.06635000  0.88490000  1.0 1.0034900015
Ga  Ga8  1  0.98820000  0.56635000  0.11510000  1.0 1.0034900015
Ag  Ag1  1  0.23809000  0.78031000  0.86327000  1.0 0.2058223045
Ag  Ag2  1  0.26191000  0.28031000  0.13673000  1.0 0.2058223045
Ag  Ag3  1  0.73809000  0.28031000  0.63673000  1.0 0.2058223045
Ag  Ag4  1  0.76191000  0.78031000  0.36327000  1.0 0.2058223045
Ag  Ag5  1  0.26191000  0.71969000  0.36327000  1.0 0.2058223045
Ag  Ag6  1  0.23809000  0.21969000  0.63673000  1.0 0.2058223045
Ag  Ag7  1  0.76191000  0.21969000  0.13673000  1.0 0.2058223045
Ag  Ag8  1  0.73809000  0.71969000  0.86327000  1.0 0.2058223045
H  H1  1  0.64710000  0.99260000  0.05770000  1.0 0.1008305103
H  H2  1  0.85290000  0.49260000  0.94230000  1.0 0.1008305103
H  H3  1  0.14710000  0.49260000  0.44230000  1.0 0.1008305103
H  H4  1  0.35290000  0.99260000  0.55770000  1.0 0.1008305103
H  H5  1  0.65990000  0.98320000  0.98370000  1.0 0.1193146482
H  H6  1  0.84010000  0.48320000  0.01630000  1.0 0.1193146482
H  H7  1  0.15990000  0.48320000  0.51630000  1.0 0.1193146482
H  H8  1  0.34010000  0.98320000  0.48370000  1.0 0.1193146482
H  H9  1  0.52990000  0.91900000  0.96320000  1.0 0.1114331783
H  H10  1  0.97010000  0.41900000  0.03680000  1.0 0.1114331783
H  H11  1  0.02990000  0.41900000  0.53680000  1.0 0.1114331783
H  H12  1  0.47010000  0.91900000  0.46320000  1.0 0.1114331783
H  H13  1  0.26850000  0.79950000  0.04550000  1.0 0.1193146482
H  H14  1  0.23150000  0.29950000  0.95450000  1.0 0.1193146482
H  H15  1  0.76850000  0.29950000  0.45450000  1.0 0.1193146482
H  H16  1  0.73150000  0.79950000  0.54550000  1.0 0.1193146482
H  H17  1  0.24640000  0.78360000  0.11740000  1.0 0.1193146482
H  H18  1  0.25360000  0.28360000  0.88260000  1.0 0.1193146482
H  H19  1  0.74640000  0.28360000  0.38260000  1.0 0.1193146482
H  H20  1  0.75360000  0.78360000  0.61740000  1.0 0.1193146482
H  H21  1  0.34550000  0.85000000  0.15400000  1.0 0.1008305103
H  H22  1  0.15450000  0.35000000  0.84600000  1.0 0.1008305103
H  H23  1  0.84550000  0.35000000  0.34600000  1.0 0.1008305103
H  H24  1  0.65450000  0.85000000  0.65400000  1.0 0.1008305103
H  H25  1  0.44450000  0.78630000  0.99600000  1.0 0.1347088522
H  H26  1  0.05550000  0.28630000  0.00400000  1.0 0.1347088522
H  H27  1  0.94450000  0.28630000  0.50400000  1.0 0.1347088522
H  H28  1  0.55550000  0.78630000  0.49600000  1.0 0.1347088522
H  H29  1  0.37850000  0.75410000  0.93750000  1.0 0.0929720983
H  H30  1  0.12150000  0.25410000  0.06250000  1.0 0.0929720983
H  H31  1  0.87850000  0.25410000  0.56250000  1.0 0.0929720983
H  H32  1  0.62150000  0.75410000  0.43750000  1.0 0.0929720983
H  H33  1  0.22410000  0.87650000  0.91360000  1.0 0.1008305103
H  H34  1  0.27590000  0.37650000  0.08640000  1.0 0.1008305103
H  H35  1  0.72410000  0.37650000  0.58640000  1.0 0.1008305103
H  H36  1  0.77590000  0.87650000  0.41360000  1.0 0.1008305103
H  H37  1  0.29390000  0.91450000  0.96960000  1.0 0.1405624895
H  H38  1  0.20610000  0.41450000  0.03040000  1.0 0.1405624895
H  H39  1  0.79390000  0.41450000  0.53040000  1.0 0.1405624895
H  H40  1  0.70610000  0.91450000  0.46960000  1.0 0.1405624895
H  H41  1  0.69270000  0.96860000  0.67650000  1.0 0.1008305103
H  H42  1  0.80730000  0.46860000  0.32350000  1.0 0.1008305103
H  H43  1  0.19270000  0.46860000  0.82350000  1.0 0.1008305103
H  H44  1  0.30730000  0.96860000  0.17650000  1.0 0.1008305103
H  H45  1  0.69970000  0.95080000  0.74920000  1.0 0.1114331783
H  H46  1  0.80030000  0.45080000  0.25080000  1.0 0.1114331783
H  H47  1  0.19970000  0.45080000  0.75080000  1.0 0.1114331783
H  H48  1  0.30030000  0.95080000  0.24920000  1.0 0.1114331783
H  H49  1  0.54400000  0.89870000  0.76510000  1.0 0.1114331783
H  H50  1  0.95600000  0.39870000  0.23490000  1.0 0.1114331783
H  H51  1  0.04400000  0.39870000  0.73490000  1.0 0.1114331783
H  H52  1  0.45600000  0.89870000  0.26510000  1.0 0.1114331783
H  H53  1  0.23640000  0.81660000  0.67670000  1.0 0.1193146482
H  H54  1  0.26360000  0.31660000  0.32330000  1.0 0.1193146482
H  H55  1  0.73640000  0.31660000  0.82330000  1.0 0.1193146482
H  H56  1  0.76360000  0.81660000  0.17670000  1.0 0.1193146482
H  H57  1  0.18570000  0.82300000  0.60480000  1.0 0.1193146482
H  H58  1  0.31430000  0.32300000  0.39520000  1.0 0.1193146482
H  H59  1  0.68570000  0.32300000  0.89520000  1.0 0.1193146482
H  H60  1  0.81430000  0.82300000  0.10480000  1.0 0.1193146482
H  H61  1  0.31440000  0.88140000  0.57390000  1.0 0.1114331783
H  H62  1  0.18560000  0.38140000  0.42610000  1.0 0.1114331783
H  H63  1  0.81440000  0.38140000  0.92610000  1.0 0.1114331783
H  H64  1  0.68560000  0.88140000  0.07390000  1.0 0.1114331783
H  H65  1  0.23270000  0.88500000  0.73570000  1.0 0.1405624895
H  H66  1  0.26730000  0.38500000  0.26430000  1.0 0.1405624895
H  H67  1  0.73270000  0.38500000  0.76430000  1.0 0.1405624895
H  H68  1  0.76730000  0.88500000  0.23570000  1.0 0.1405624895
H  H69  1  0.17140000  0.84730000  0.79410000  1.0 0.0929720983
H  H70  1  0.32860000  0.34730000  0.20590000  1.0 0.0929720983
H  H71  1  0.67140000  0.34730000  0.70590000  1.0 0.0929720983
H  H72  1  0.82860000  0.84730000  0.29410000  1.0 0.0929720983
H  H73  1  0.43450000  0.77070000  0.80380000  1.0 0.0929720983
H  H74  1  0.06550000  0.27070000  0.19620000  1.0 0.0929720983
H  H75  1  0.93450000  0.27070000  0.69620000  1.0 0.0929720983
H  H76  1  0.56550000  0.77070000  0.30380000  1.0 0.0929720983
H  H77  1  0.50390000  0.80520000  0.74510000  1.0 0.1405624895
H  H78  1  0.99610000  0.30520000  0.25490000  1.0 0.1405624895
H  H79  1  0.00390000  0.30520000  0.75490000  1.0 0.1405624895
H  H80  1  0.49610000  0.80520000  0.24510000  1.0 0.1405624895
H  H81  1  0.77720000  0.46710000  0.85740000  1.0 0.1008305103
H  H82  1  0.72280000  0.96710000  0.14260000  1.0 0.1008305103
H  H83  1  0.27720000  0.96710000  0.64260000  1.0 0.1008305103
H  H84  1  0.22280000  0.46710000  0.35740000  1.0 0.1008305103
H  H85  1  0.72170000  0.55180000  0.83630000  1.0 0.1008305103
H  H86  1  0.77830000  0.05180000  0.16370000  1.0 0.1008305103
H  H87  1  0.22170000  0.05180000  0.66370000  1.0 0.1008305103
H  H88  1  0.27830000  0.55180000  0.33630000  1.0 0.1008305103
H  H89  1  0.88230000  0.60610000  0.84350000  1.0 0.1008305103
H  H90  1  0.61770000  0.10610000  0.15650000  1.0 0.1008305103
H  H91  1  0.38230000  0.10610000  0.65650000  1.0 0.1008305103
H  H92  1  0.11770000  0.60610000  0.34350000  1.0 0.1008305103
H  H93  1  0.27770000  0.57740000  0.89860000  1.0 0.1193146482
H  H94  1  0.22230000  0.07740000  0.10140000  1.0 0.1193146482
H  H95  1  0.77770000  0.07740000  0.60140000  1.0 0.1193146482
H  H96  1  0.72230000  0.57740000  0.39860000  1.0 0.1193146482
H  H97  1  0.37490000  0.50400000  0.92300000  1.0 0.1193146482
H  H98  1  0.12510000  0.00400000  0.07700000  1.0 0.1193146482
H  H99  1  0.87490000  0.00400000  0.57700000  1.0 0.1193146482
H  H100  1  0.62510000  0.50400000  0.42300000  1.0 0.1193146482
H  H101  1  0.25200000  0.43210000  0.91800000  1.0 0.1008305103
H  H102  1  0.24800000  0.93210000  0.08200000  1.0 0.1008305103
H  H103  1  0.75200000  0.93210000  0.58200000  1.0 0.1008305103
H  H104  1  0.74800000  0.43210000  0.41800000  1.0 0.1008305103
H  H105  1  0.19700000  0.59950000  0.82130000  1.0 0.1405624895
H  H106  1  0.30300000  0.09950000  0.17870000  1.0 0.1405624895
H  H107  1  0.69700000  0.09950000  0.67870000  1.0 0.1405624895
H  H108  1  0.80300000  0.59950000  0.32130000  1.0 0.1405624895
H  H109  1  0.24020000  0.68200000  0.81310000  1.0 0.1008305103
H  H110  1  0.25980000  0.18200000  0.18690000  1.0 0.1008305103
H  H111  1  0.74020000  0.18200000  0.68690000  1.0 0.1008305103
H  H112  1  0.75980000  0.68200000  0.31310000  1.0 0.1008305103
H  H113  1  0.04580000  0.72060000  0.89840000  1.0 0.0929720983
H  H114  1  0.45420000  0.22060000  0.10160000  1.0 0.0929720983
H  H115  1  0.54580000  0.22060000  0.60160000  1.0 0.0929720983
H  H116  1  0.95420000  0.72060000  0.39840000  1.0 0.0929720983
H  H117  1  0.99530000  0.63900000  0.90920000  1.0 0.1193146482
H  H118  1  0.50470000  0.13900000  0.09080000  1.0 0.1193146482
H  H119  1  0.49530000  0.13900000  0.59080000  1.0 0.1193146482
H  H120  1  0.00470000  0.63900000  0.40920000  1.0 0.1193146482
H  H121  1  0.85290000  0.50740000  0.55770000  1.0 0.1008305103
H  H122  1  0.64710000  0.00740000  0.44230000  1.0 0.1008305103
H  H123  1  0.35290000  0.00740000  0.94230000  1.0 0.1008305103
H  H124  1  0.14710000  0.50740000  0.05770000  1.0 0.1008305103
H  H125  1  0.84010000  0.51680000  0.48370000  1.0 0.1193146482
H  H126  1  0.65990000  0.01680000  0.51630000  1.0 0.1193146482
H  H127  1  0.34010000  0.01680000  0.01630000  1.0 0.1193146482
H  H128  1  0.15990000  0.51680000  0.98370000  1.0 0.1193146482
H  H129  1  0.97010000  0.58100000  0.46320000  1.0 0.1114331783
H  H130  1  0.52990000  0.08100000  0.53680000  1.0 0.1114331783
H  H131  1  0.47010000  0.08100000  0.03680000  1.0 0.1114331783
H  H132  1  0.02990000  0.58100000  0.96320000  1.0 0.1114331783
H  H133  1  0.23150000  0.70050000  0.54550000  1.0 0.1193146482
H  H134  1  0.26850000  0.20050000  0.45450000  1.0 0.1193146482
H  H135  1  0.73150000  0.20050000  0.95450000  1.0 0.1193146482
H  H136  1  0.76850000  0.70050000  0.04550000  1.0 0.1193146482
H  H137  1  0.25360000  0.71640000  0.61740000  1.0 0.1193146482
H  H138  1  0.24640000  0.21640000  0.38260000  1.0 0.1193146482
H  H139  1  0.75360000  0.21640000  0.88260000  1.0 0.1193146482
H  H140  1  0.74640000  0.71640000  0.11740000  1.0 0.1193146482
H  H141  1  0.15450000  0.65000000  0.65400000  1.0 0.1008305103
H  H142  1  0.34550000  0.15000000  0.34600000  1.0 0.1008305103
H  H143  1  0.65450000  0.15000000  0.84600000  1.0 0.1008305103
H  H144  1  0.84550000  0.65000000  0.15400000  1.0 0.1008305103
H  H145  1  0.05550000  0.71370000  0.49600000  1.0 0.1347088522
H  H146  1  0.44450000  0.21370000  0.50400000  1.0 0.1347088522
H  H147  1  0.55550000  0.21370000  0.00400000  1.0 0.1347088522
H  H148  1  0.94450000  0.71370000  0.99600000  1.0 0.1347088522
H  H149  1  0.12150000  0.74590000  0.43750000  1.0 0.0929720983
H  H150  1  0.37850000  0.24590000  0.56250000  1.0 0.0929720983
H  H151  1  0.62150000  0.24590000  0.06250000  1.0 0.0929720983
H  H152  1  0.87850000  0.74590000  0.93750000  1.0 0.0929720983
H  H153  1  0.27590000  0.62350000  0.41360000  1.0 0.1008305103
H  H154  1  0.22410000  0.12350000  0.58640000  1.0 0.1008305103
H  H155  1  0.77590000  0.12350000  0.08640000  1.0 0.1008305103
H  H156  1  0.72410000  0.62350000  0.91360000  1.0 0.1008305103
H  H157  1  0.20610000  0.58550000  0.46960000  1.0 0.1405624895
H  H158  1  0.29390000  0.08550000  0.53040000  1.0 0.1405624895
H  H159  1  0.70610000  0.08550000  0.03040000  1.0 0.1405624895
H  H160  1  0.79390000  0.58550000  0.96960000  1.0 0.1405624895
H  H161  1  0.80730000  0.53140000  0.17650000  1.0 0.1008305103
H  H162  1  0.69270000  0.03140000  0.82350000  1.0 0.1008305103
H  H163  1  0.30730000  0.03140000  0.32350000  1.0 0.1008305103
H  H164  1  0.19270000  0.53140000  0.67650000  1.0 0.1008305103
H  H165  1  0.80030000  0.54920000  0.24920000  1.0 0.1114331783
H  H166  1  0.69970000  0.04920000  0.75080000  1.0 0.1114331783
H  H167  1  0.30030000  0.04920000  0.25080000  1.0 0.1114331783
H  H168  1  0.19970000  0.54920000  0.74920000  1.0 0.1114331783
H  H169  1  0.95600000  0.60130000  0.26510000  1.0 0.1114331783
H  H170  1  0.54400000  0.10130000  0.73490000  1.0 0.1114331783
H  H171  1  0.45600000  0.10130000  0.23490000  1.0 0.1114331783
H  H172  1  0.04400000  0.60130000  0.76510000  1.0 0.1114331783
H  H173  1  0.26360000  0.68340000  0.17670000  1.0 0.1193146482
H  H174  1  0.23640000  0.18340000  0.82330000  1.0 0.1193146482
H  H175  1  0.76360000  0.18340000  0.32330000  1.0 0.1193146482
H  H176  1  0.73640000  0.68340000  0.67670000  1.0 0.1193146482
H  H177  1  0.31430000  0.67700000  0.10480000  1.0 0.1193146482
H  H178  1  0.18570000  0.17700000  0.89520000  1.0 0.1193146482
H  H179  1  0.81430000  0.17700000  0.39520000  1.0 0.1193146482
H  H180  1  0.68570000  0.67700000  0.60480000  1.0 0.1193146482
H  H181  1  0.18560000  0.61860000  0.07390000  1.0 0.1114331783
H  H182  1  0.31440000  0.11860000  0.92610000  1.0 0.1114331783
H  H183  1  0.68560000  0.11860000  0.42610000  1.0 0.1114331783
H  H184  1  0.81440000  0.61860000  0.57390000  1.0 0.1114331783
H  H185  1  0.26730000  0.61500000  0.23570000  1.0 0.1405624895
H  H186  1  0.23270000  0.11500000  0.76430000  1.0 0.1405624895
H  H187  1  0.76730000  0.11500000  0.26430000  1.0 0.1405624895
H  H188  1  0.73270000  0.61500000  0.73570000  1.0 0.1405624895
H  H189  1  0.32860000  0.65270000  0.29410000  1.0 0.0929720983
H  H190  1  0.17140000  0.15270000  0.70590000  1.0 0.0929720983
H  H191  1  0.82860000  0.15270000  0.20590000  1.0 0.0929720983
H  H192  1  0.67140000  0.65270000  0.79410000  1.0 0.0929720983
H  H193  1  0.06550000  0.72930000  0.30380000  1.0 0.0929720983
H  H194  1  0.43450000  0.22930000  0.69620000  1.0 0.0929720983
H  H195  1  0.56550000  0.22930000  0.19620000  1.0 0.0929720983
H  H196  1  0.93450000  0.72930000  0.80380000  1.0 0.0929720983
H  H197  1  0.99610000  0.69480000  0.24510000  1.0 0.1405624895
H  H198  1  0.50390000  0.19480000  0.75490000  1.0 0.1405624895
H  H199  1  0.49610000  0.19480000  0.25490000  1.0 0.1405624895
H  H200  1  0.00390000  0.69480000  0.74510000  1.0 0.1405624895
H  H201  1  0.72280000  0.03290000  0.35740000  1.0 0.1008305103
H  H202  1  0.77720000  0.53290000  0.64260000  1.0 0.1008305103
H  H203  1  0.22280000  0.53290000  0.14260000  1.0 0.1008305103
H  H204  1  0.27720000  0.03290000  0.85740000  1.0 0.1008305103
H  H205  1  0.77830000  0.94820000  0.33630000  1.0 0.1008305103
H  H206  1  0.72170000  0.44820000  0.66370000  1.0 0.1008305103
H  H207  1  0.27830000  0.44820000  0.16370000  1.0 0.1008305103
H  H208  1  0.22170000  0.94820000  0.83630000  1.0 0.1008305103
H  H209  1  0.61770000  0.89390000  0.34350000  1.0 0.1008305103
H  H210  1  0.88230000  0.39390000  0.65650000  1.0 0.1008305103
H  H211  1  0.11770000  0.39390000  0.15650000  1.0 0.1008305103
H  H212  1  0.38230000  0.89390000  0.84350000  1.0 0.1008305103
H  H213  1  0.22230000  0.92260000  0.39860000  1.0 0.1193146482
H  H214  1  0.27770000  0.42260000  0.60140000  1.0 0.1193146482
H  H215  1  0.72230000  0.42260000  0.10140000  1.0 0.1193146482
H  H216  1  0.77770000  0.92260000  0.89860000  1.0 0.1193146482
H  H217  1  0.12510000  0.99600000  0.42300000  1.0 0.1193146482
H  H218  1  0.37490000  0.49600000  0.57700000  1.0 0.1193146482
H  H219  1  0.62510000  0.49600000  0.07700000  1.0 0.1193146482
H  H220  1  0.87490000  0.99600000  0.92300000  1.0 0.1193146482
H  H221  1  0.24800000  0.06790000  0.41800000  1.0 0.1008305103
H  H222  1  0.25200000  0.56790000  0.58200000  1.0 0.1008305103
H  H223  1  0.74800000  0.56790000  0.08200000  1.0 0.1008305103
H  H224  1  0.75200000  0.06790000  0.91800000  1.0 0.1008305103
H  H225  1  0.30300000  0.90050000  0.32130000  1.0 0.1405624895
H  H226  1  0.19700000  0.40050000  0.67870000  1.0 0.1405624895
H  H227  1  0.80300000  0.40050000  0.17870000  1.0 0.1405624895
H  H228  1  0.69700000  0.90050000  0.82130000  1.0 0.1405624895
H  H229  1  0.25980000  0.81800000  0.31310000  1.0 0.1008305103
H  H230  1  0.24020000  0.31800000  0.68690000  1.0 0.1008305103
H  H231  1  0.75980000  0.31800000  0.18690000  1.0 0.1008305103
H  H232  1  0.74020000  0.81800000  0.81310000  1.0 0.1008305103
H  H233  1  0.45420000  0.77940000  0.39840000  1.0 0.0929720983
H  H234  1  0.04580000  0.27940000  0.60160000  1.0 0.0929720983
H  H235  1  0.95420000  0.27940000  0.10160000  1.0 0.0929720983
H  H236  1  0.54580000  0.77940000  0.89840000  1.0 0.0929720983
H  H237  1  0.50470000  0.86100000  0.40920000  1.0 0.1193146482
H  H238  1  0.99530000  0.36100000  0.59080000  1.0 0.1193146482
H  H239  1  0.00470000  0.36100000  0.09080000  1.0 0.1193146482
H  H240  1  0.49530000  0.86100000  0.90920000  1.0 0.1193146482
C  C1  1  0.60580000  0.97050000  0.04225000  1.0 0.0433669409
C  C2  1  0.89420000  0.47050000  0.95775000  1.0 0.0433669409
C  C3  1  0.10580000  0.47050000  0.45775000  1.0 0.0433669409
C  C4  1  0.39420000  0.97050000  0.54225000  1.0 0.0433669409
C  C5  1  0.61350000  0.96536000  0.00075000  1.0 -0.1425937706
C  C6  1  0.88650000  0.46536000  0.99925000  1.0 -0.1425937706
C  C7  1  0.11350000  0.46536000  0.49925000  1.0 -0.1425937706
C  C8  1  0.38650000  0.96536000  0.50075000  1.0 -0.1425937706
C  C9  1  0.54230000  0.93030000  0.98943000  1.0 -0.2196170682
C  C10  1  0.95770000  0.43030000  0.01057000  1.0 -0.2196170682
C  C11  1  0.04230000  0.43030000  0.51057000  1.0 -0.2196170682
C  C12  1  0.45770000  0.93030000  0.48943000  1.0 -0.2196170682
C  C13  1  0.49030000  0.91386000  0.02430000  1.0 0.1405624895
C  C14  1  0.00970000  0.41386000  0.97570000  1.0 0.1405624895
C  C15  1  0.99030000  0.41386000  0.47570000  1.0 0.1405624895
C  C16  1  0.50970000  0.91386000  0.52430000  1.0 0.1405624895
C  C17  1  0.41520000  0.87588000  0.02736000  1.0 -0.0477320122
C  C18  1  0.08480000  0.37588000  0.97264000  1.0 -0.0477320122
C  C19  1  0.91520000  0.37588000  0.47264000  1.0 -0.0477320122
C  C20  1  0.58480000  0.87588000  0.52736000  1.0 -0.0477320122
C  C21  1  0.37380000  0.85583000  0.06276000  1.0 0.1347088522
C  C22  1  0.12620000  0.35583000  0.93724000  1.0 0.1347088522
C  C23  1  0.87380000  0.35583000  0.43724000  1.0 0.1347088522
C  C24  1  0.62620000  0.85583000  0.56276000  1.0 0.1347088522
C  C25  1  0.30160000  0.81700000  0.06660000  1.0 -0.2196170682
C  C26  1  0.19840000  0.31700000  0.93340000  1.0 -0.2196170682
C  C27  1  0.80160000  0.31700000  0.43340000  1.0 -0.2196170682
C  C28  1  0.69840000  0.81700000  0.56660000  1.0 -0.2196170682
C  C29  1  0.28760000  0.80900000  0.10570000  1.0 -0.1633890862
C  C30  1  0.21240000  0.30900000  0.89430000  1.0 -0.1633890862
C  C31  1  0.78760000  0.30900000  0.39430000  1.0 -0.1633890862
C  C32  1  0.71240000  0.80900000  0.60570000  1.0 -0.1633890862
C  C33  1  0.34550000  0.84560000  0.12603000  1.0 0.0561123552
C  C34  1  0.15450000  0.34560000  0.87397000  1.0 0.0561123552
C  C35  1  0.84550000  0.34560000  0.37397000  1.0 0.0561123552
C  C36  1  0.65450000  0.84560000  0.62603000  1.0 0.0561123552
C  C37  1  0.37540000  0.85477000  0.99020000  1.0 0.1193146482
C  C38  1  0.12460000  0.35477000  0.00980000  1.0 0.1193146482
C  C39  1  0.87540000  0.35477000  0.50980000  1.0 0.1193146482
C  C40  1  0.62460000  0.85477000  0.49020000  1.0 0.1193146482
C  C41  1  0.40030000  0.80587000  0.97942000  1.0 -0.1993989864
C  C42  1  0.09970000  0.30587000  0.02058000  1.0 -0.1993989864
C  C43  1  0.90030000  0.30587000  0.52058000  1.0 -0.1993989864
C  C44  1  0.59970000  0.80587000  0.47942000  1.0 -0.1993989864
C  C45  1  0.36000000  0.78680000  0.94474000  1.0 0.0187695761
C  C46  1  0.14000000  0.28680000  0.05526000  1.0 0.0187695761
C  C47  1  0.86000000  0.28680000  0.55526000  1.0 0.0187695761
C  C48  1  0.64000000  0.78680000  0.44474000  1.0 0.0187695761
C  C49  1  0.27070000  0.85830000  0.93030000  1.0 0.0760035763
C  C50  1  0.22930000  0.35830000  0.06970000  1.0 0.0760035763
C  C51  1  0.77070000  0.35830000  0.56970000  1.0 0.0760035763
C  C52  1  0.72930000  0.85830000  0.43030000  1.0 0.0760035763
C  C53  1  0.31070000  0.88100000  0.96419000  1.0 -0.1993989864
C  C54  1  0.18930000  0.38100000  0.03581000  1.0 -0.1993989864
C  C55  1  0.81070000  0.38100000  0.53581000  1.0 -0.1993989864
C  C56  1  0.68930000  0.88100000  0.46419000  1.0 -0.1993989864
C  C57  1  0.64250000  0.94910000  0.69050000  1.0 0.0482849482
C  C58  1  0.85750000  0.44910000  0.30950000  1.0 0.0482849482
C  C59  1  0.14250000  0.44910000  0.80950000  1.0 0.0482849482
C  C60  1  0.35750000  0.94910000  0.19050000  1.0 0.0482849482
C  C61  1  0.64720000  0.93940000  0.73114000  1.0 -0.1633890862
C  C62  1  0.85280000  0.43940000  0.26886000  1.0 -0.1633890862
C  C63  1  0.14720000  0.43940000  0.76886000  1.0 -0.1633890862
C  C64  1  0.35280000  0.93940000  0.23114000  1.0 -0.1633890862
C  C65  1  0.56280000  0.91080000  0.73962000  1.0 -0.2264569769
C  C66  1  0.93720000  0.41080000  0.26038000  1.0 -0.2264569769
C  C67  1  0.06280000  0.41080000  0.76038000  1.0 -0.2264569769
C  C68  1  0.43720000  0.91080000  0.23962000  1.0 -0.2264569769
C  C69  1  0.50690000  0.90206000  0.70370000  1.0 0.1472159742
C  C70  1  0.99310000  0.40206000  0.29630000  1.0 0.1472159742
C  C71  1  0.00690000  0.40206000  0.79630000  1.0 0.1472159742
C  C72  1  0.49310000  0.90206000  0.20370000  1.0 0.1472159742
C  C73  1  0.41550000  0.87480000  0.69829000  1.0 -0.0477320122
C  C74  1  0.08450000  0.37480000  0.30171000  1.0 -0.0477320122
C  C75  1  0.91550000  0.37480000  0.80171000  1.0 -0.0477320122
C  C76  1  0.58450000  0.87480000  0.19829000  1.0 -0.0477320122
C  C77  1  0.35900000  0.86697000  0.66280000  1.0 0.1405624895
C  C78  1  0.14100000  0.36697000  0.33720000  1.0 0.1405624895
C  C79  1  0.85900000  0.36697000  0.83720000  1.0 0.1405624895
C  C80  1  0.64100000  0.86697000  0.16280000  1.0 0.1405624895
C  C81  1  0.27050000  0.83610000  0.65700000  1.0 -0.2264569769
C  C82  1  0.22950000  0.33610000  0.34300000  1.0 -0.2264569769
C  C83  1  0.77050000  0.33610000  0.84300000  1.0 -0.2264569769
C  C84  1  0.72950000  0.83610000  0.15700000  1.0 -0.2264569769
C  C85  1  0.24250000  0.83950000  0.61780000  1.0 -0.1796647434
C  C86  1  0.25750000  0.33950000  0.38220000  1.0 -0.1796647434
C  C87  1  0.74250000  0.33950000  0.88220000  1.0 -0.1796647434
C  C88  1  0.75750000  0.83950000  0.11780000  1.0 -0.1796647434
C  C89  1  0.31470000  0.87220000  0.60108000  1.0 0.0433669409
C  C90  1  0.18530000  0.37220000  0.39892000  1.0 0.0433669409
C  C91  1  0.81470000  0.37220000  0.89892000  1.0 0.0482849482
C  C92  1  0.68530000  0.87220000  0.10108000  1.0 0.0433669409
C  C93  1  0.37350000  0.84950000  0.73473000  1.0 0.1193146482
C  C94  1  0.12650000  0.34950000  0.26527000  1.0 0.1193146482
C  C95  1  0.87350000  0.34950000  0.76527000  1.0 0.1193146482
C  C96  1  0.62650000  0.84950000  0.23473000  1.0 0.1193146482
C  C97  1  0.27590000  0.86170000  0.74910000  1.0 -0.1921304955
C  C98  1  0.22410000  0.36170000  0.25090000  1.0 -0.1921304955
C  C99  1  0.77590000  0.36170000  0.75090000  1.0 -0.1921304955
C  C100  1  0.72410000  0.86170000  0.24910000  1.0 -0.1921304955
C  C101  1  0.24000000  0.83900000  0.78430000  1.0 0.0685953653
C  C102  1  0.26000000  0.33900000  0.21570000  1.0 0.0685953653
C  C103  1  0.74000000  0.33900000  0.71570000  1.0 0.0685953653
C  C104  1  0.76000000  0.83900000  0.28430000  1.0 0.0685953653
C  C105  1  0.39340000  0.79430000  0.78978000  1.0 0.0482849482
C  C106  1  0.10660000  0.29430000  0.21022000  1.0 0.0433669409
C  C107  1  0.89340000  0.29430000  0.71022000  1.0 0.0482849482
C  C108  1  0.60660000  0.79430000  0.28978000  1.0 0.0433669409
C  C109  1  0.43580000  0.81470000  0.75473000  1.0 -0.2076684375
C  C110  1  0.06420000  0.31470000  0.24527000  1.0 -0.2076684375
C  C111  1  0.93580000  0.31470000  0.74527000  1.0 -0.2076684375
C  C112  1  0.56420000  0.81470000  0.25473000  1.0 -0.2076684375
C  C113  1  0.82210000  0.49530000  0.85762000  1.0 0.0482849482
C  C114  1  0.67790000  0.99530000  0.14238000  1.0 0.0482849482
C  C115  1  0.32210000  0.99530000  0.64238000  1.0 0.0482849482
C  C116  1  0.17790000  0.49530000  0.35762000  1.0 0.0482849482
C  C117  1  0.79020000  0.54230000  0.84551000  1.0 -0.1921304955
C  C118  1  0.70980000  0.04230000  0.15449000  1.0 -0.1921304955
C  C119  1  0.29020000  0.04230000  0.65449000  1.0 -0.1921304955
C  C120  1  0.20980000  0.54230000  0.34551000  1.0 -0.1921304955
C  C121  1  0.87840000  0.57200000  0.84962000  1.0 -0.2428073505
C  C122  1  0.62160000  0.07200000  0.15038000  1.0 -0.2428073505
C  C123  1  0.37840000  0.07200000  0.65038000  1.0 -0.2428073505
C  C124  1  0.12160000  0.57200000  0.34962000  1.0 -0.2428073505
C  C125  1  0.96160000  0.54271000  0.86445000  1.0 0.1405624895
C  C126  1  0.53840000  0.04271000  0.13555000  1.0 0.1405624895
C  C127  1  0.46160000  0.04271000  0.63555000  1.0 0.1405624895
C  C128  1  0.03840000  0.54271000  0.36445000  1.0 0.1405624895
C  C129  1  0.06690000  0.55825000  0.87357000  1.0 -0.0667608114
C  C130  1  0.43310000  0.05825000  0.12643000  1.0 -0.0667608114
C  C131  1  0.56690000  0.05825000  0.62643000  1.0 -0.0667608114
C  C132  1  0.93310000  0.55825000  0.37357000  1.0 -0.0667608114
C  C133  1  0.14850000  0.52896000  0.88913000  1.0 0.1405624895
C  C134  1  0.35150000  0.02896000  0.11087000  1.0 0.1405624895
C  C135  1  0.64850000  0.02896000  0.61087000  1.0 0.1405624895
C  C136  1  0.85150000  0.52896000  0.38913000  1.0 0.1405624895
C  C137  1  0.25090000  0.54480000  0.90021000  1.0 -0.2076684375
C  C138  1  0.24910000  0.04480000  0.09979000  1.0 -0.2076684375
C  C139  1  0.75090000  0.04480000  0.59979000  1.0 -0.2076684375
C  C140  1  0.74910000  0.54480000  0.40021000  1.0 -0.2076684375
C  C141  1  0.30380000  0.50480000  0.91349000  1.0 -0.173680696
C  C142  1  0.19620000  0.00480000  0.08651000  1.0 -0.173680696
C  C143  1  0.80380000  0.00480000  0.58651000  1.0 -0.173680696
C  C144  1  0.69620000  0.50480000  0.41349000  1.0 -0.173680696
C  C145  1  0.23430000  0.46480000  0.91055000  1.0 0.0482849482
C  C146  1  0.26570000  0.96480000  0.08945000  1.0 0.0482849482
C  C147  1  0.73430000  0.96480000  0.58945000  1.0 0.0482849482
C  C148  1  0.76570000  0.46480000  0.41055000  1.0 0.0482849482
C  C149  1  0.09240000  0.61020000  0.86655000  1.0 0.1193146482
C  C150  1  0.40760000  0.11020000  0.13345000  1.0 0.1193146482
C  C151  1  0.59240000  0.11020000  0.63345000  1.0 0.1193146482
C  C152  1  0.90760000  0.61020000  0.36655000  1.0 0.1193146482
C  C153  1  0.16520000  0.62366000  0.83781000  1.0 -0.1993989864
C  C154  1  0.33480000  0.12366000  0.16219000  1.0 -0.1993989864
C  C155  1  0.66520000  0.12366000  0.66219000  1.0 -0.1993989864
C  C156  1  0.83480000  0.62366000  0.33781000  1.0 -0.1993989864
C  C157  1  0.19130000  0.67320000  0.83333000  1.0 0.0482849482
C  C158  1  0.30870000  0.17320000  0.16667000  1.0 0.0482849482
C  C159  1  0.69130000  0.17320000  0.66666667  1.0 0.0482849482
C  C160  1  0.80870000  0.67320000  0.33333333  1.0 0.0482849482
C  C161  1  0.07810000  0.69550000  0.88289000  1.0 0.0482849482
C  C162  1  0.42190000  0.19550000  0.11711000  1.0 0.0433669409
C  C163  1  0.57810000  0.19550000  0.61711000  1.0 0.0482849482
C  C164  1  0.92190000  0.69550000  0.38289000  1.0 0.0482849482
C  C165  1  0.04670000  0.64673000  0.88950000  1.0 -0.1921304955
C  C166  1  0.45330000  0.14673000  0.11050000  1.0 -0.1921304955
C  C167  1  0.54670000  0.14673000  0.61050000  1.0 -0.1921304955
C  C168  1  0.95330000  0.64673000  0.38950000  1.0 -0.1921304955
C  C169  1  0.89420000  0.52950000  0.54225000  1.0 0.0433669409
C  C170  1  0.60580000  0.02950000  0.45775000  1.0 0.0433669409
C  C171  1  0.39420000  0.02950000  0.95775000  1.0 0.0433669409
C  C172  1  0.10580000  0.52950000  0.04225000  1.0 0.0433669409
C  C173  1  0.88650000  0.53464000  0.50075000  1.0 -0.1425937706
C  C174  1  0.61350000  0.03464000  0.49925000  1.0 -0.1425937706
C  C175  1  0.38650000  0.03464000  0.99925000  1.0 -0.1425937706
C  C176  1  0.11350000  0.53464000  0.00075000  1.0 -0.1425937706
C  C177  1  0.95770000  0.56970000  0.48943000  1.0 -0.2196170682
C  C178  1  0.54230000  0.06970000  0.51057000  1.0 -0.2196170682
C  C179  1  0.45770000  0.06970000  0.01057000  1.0 -0.2196170682
C  C180  1  0.04230000  0.56970000  0.98943000  1.0 -0.2196170682
C  C181  1  0.00970000  0.58614000  0.52430000  1.0 0.1405624895
C  C182  1  0.49030000  0.08614000  0.47570000  1.0 0.1405624895
C  C183  1  0.50970000  0.08614000  0.97570000  1.0 0.1405624895
C  C184  1  0.99030000  0.58614000  0.02430000  1.0 0.1405624895
C  C185  1  0.08480000  0.62412000  0.52736000  1.0 -0.0477320122
C  C186  1  0.41520000  0.12412000  0.47264000  1.0 -0.0477320122
C  C187  1  0.58480000  0.12412000  0.97264000  1.0 -0.0477320122
C  C188  1  0.91520000  0.62412000  0.02736000  1.0 -0.0477320122
C  C189  1  0.12620000  0.64417000  0.56276000  1.0 0.1347088522
C  C190  1  0.37380000  0.14417000  0.43724000  1.0 0.1347088522
C  C191  1  0.62620000  0.14417000  0.93724000  1.0 0.1347088522
C  C192  1  0.87380000  0.64417000  0.06276000  1.0 0.1347088522
C  C193  1  0.19840000  0.68300000  0.56660000  1.0 -0.2196170682
C  C194  1  0.30160000  0.18300000  0.43340000  1.0 -0.2196170682
C  C195  1  0.69840000  0.18300000  0.93340000  1.0 -0.2196170682
C  C196  1  0.80160000  0.68300000  0.06660000  1.0 -0.2196170682
C  C197  1  0.21240000  0.69100000  0.60570000  1.0 -0.1633890862
C  C198  1  0.28760000  0.19100000  0.39430000  1.0 -0.1633890862
C  C199  1  0.71240000  0.19100000  0.89430000  1.0 -0.1633890862
C  C200  1  0.78760000  0.69100000  0.10570000  1.0 -0.1633890862
C  C201  1  0.15450000  0.65440000  0.62603000  1.0 0.0561123552
C  C202  1  0.34550000  0.15440000  0.37397000  1.0 0.0561123552
C  C203  1  0.65450000  0.15440000  0.87397000  1.0 0.0561123552
C  C204  1  0.84550000  0.65440000  0.12603000  1.0 0.0561123552
C  C205  1  0.12460000  0.64523000  0.49020000  1.0 0.1193146482
C  C206  1  0.37540000  0.14523000  0.50980000  1.0 0.1193146482
C  C207  1  0.62460000  0.14523000  0.00980000  1.0 0.1193146482
C  C208  1  0.87540000  0.64523000  0.99020000  1.0 0.1193146482
C  C209  1  0.09970000  0.69413000  0.47942000  1.0 -0.1993989864
C  C210  1  0.40030000  0.19413000  0.52058000  1.0 -0.1993989864
C  C211  1  0.59970000  0.19413000  0.02058000  1.0 -0.1993989864
C  C212  1  0.90030000  0.69413000  0.97942000  1.0 -0.1993989864
C  C213  1  0.14000000  0.71320000  0.44474000  1.0 0.0187695761
C  C214  1  0.36000000  0.21320000  0.55526000  1.0 0.0187695761
C  C215  1  0.64000000  0.21320000  0.05526000  1.0 0.0187695761
C  C216  1  0.86000000  0.71320000  0.94474000  1.0 0.0187695761
C  C217  1  0.22930000  0.64170000  0.43030000  1.0 0.0760035763
C  C218  1  0.27070000  0.14170000  0.56970000  1.0 0.0760035763
C  C219  1  0.72930000  0.14170000  0.06970000  1.0 0.0760035763
C  C220  1  0.77070000  0.64170000  0.93030000  1.0 0.0760035763
C  C221  1  0.18930000  0.61900000  0.46419000  1.0 -0.1993989864
C  C222  1  0.31070000  0.11900000  0.53581000  1.0 -0.1993989864
C  C223  1  0.68930000  0.11900000  0.03581000  1.0 -0.1993989864
C  C224  1  0.81070000  0.61900000  0.96419000  1.0 -0.1993989864
C  C225  1  0.85750000  0.55090000  0.19050000  1.0 0.0482849482
C  C226  1  0.64250000  0.05090000  0.80950000  1.0 0.0482849482
C  C227  1  0.35750000  0.05090000  0.30950000  1.0 0.0482849482
C  C228  1  0.14250000  0.55090000  0.69050000  1.0 0.0482849482
C  C229  1  0.85280000  0.56060000  0.23114000  1.0 -0.1633890862
C  C230  1  0.64720000  0.06060000  0.76886000  1.0 -0.1633890862
C  C231  1  0.35280000  0.06060000  0.26886000  1.0 -0.1633890862
C  C232  1  0.14720000  0.56060000  0.73114000  1.0 -0.1633890862
C  C233  1  0.93720000  0.58920000  0.23962000  1.0 -0.2264569769
C  C234  1  0.56280000  0.08920000  0.76038000  1.0 -0.2264569769
C  C235  1  0.43720000  0.08920000  0.26038000  1.0 -0.2264569769
C  C236  1  0.06280000  0.58920000  0.73962000  1.0 -0.2264569769
C  C237  1  0.99310000  0.59794000  0.20370000  1.0 0.1472159742
C  C238  1  0.50690000  0.09794000  0.79630000  1.0 0.1472159742
C  C239  1  0.49310000  0.09794000  0.29630000  1.0 0.1472159742
C  C240  1  0.00690000  0.59794000  0.70370000  1.0 0.1472159742
C  C241  1  0.08450000  0.62520000  0.19829000  1.0 -0.0477320122
C  C242  1  0.41550000  0.12520000  0.80171000  1.0 -0.0477320122
C  C243  1  0.58450000  0.12520000  0.30171000  1.0 -0.0477320122
C  C244  1  0.91550000  0.62520000  0.69829000  1.0 -0.0477320122
C  C245  1  0.14100000  0.63303000  0.16280000  1.0 0.1405624895
C  C246  1  0.35900000  0.13303000  0.83720000  1.0 0.1405624895
C  C247  1  0.64100000  0.13303000  0.33720000  1.0 0.1405624895
C  C248  1  0.85900000  0.63303000  0.66280000  1.0 0.1405624895
C  C249  1  0.22950000  0.66390000  0.15700000  1.0 -0.2264569769
C  C250  1  0.27050000  0.16390000  0.84300000  1.0 -0.2264569769
C  C251  1  0.72950000  0.16390000  0.34300000  1.0 -0.2264569769
C  C252  1  0.77050000  0.66390000  0.65700000  1.0 -0.2264569769
C  C253  1  0.25750000  0.66050000  0.11780000  1.0 -0.1796647434
C  C254  1  0.24250000  0.16050000  0.88220000  1.0 -0.1796647434
C  C255  1  0.75750000  0.16050000  0.38220000  1.0 -0.1796647434
C  C256  1  0.74250000  0.66050000  0.61780000  1.0 -0.1796647434
C  C257  1  0.18530000  0.62780000  0.10108000  1.0 0.0433669409
C  C258  1  0.31470000  0.12780000  0.89892000  1.0 0.0433669409
C  C259  1  0.68530000  0.12780000  0.39892000  1.0 0.0482849482
C  C260  1  0.81470000  0.62780000  0.60108000  1.0 0.0433669409
C  C261  1  0.12650000  0.65050000  0.23473000  1.0 0.1193146482
C  C262  1  0.37350000  0.15050000  0.76527000  1.0 0.1193146482
C  C263  1  0.62650000  0.15050000  0.26527000  1.0 0.1193146482
C  C264  1  0.87350000  0.65050000  0.73473000  1.0 0.1193146482
C  C265  1  0.22410000  0.63830000  0.24910000  1.0 -0.1921304955
C  C266  1  0.27590000  0.13830000  0.75090000  1.0 -0.1921304955
C  C267  1  0.72410000  0.13830000  0.25090000  1.0 -0.1921304955
C  C268  1  0.77590000  0.63830000  0.74910000  1.0 -0.1921304955
C  C269  1  0.26000000  0.66100000  0.28430000  1.0 0.0685953653
C  C270  1  0.24000000  0.16100000  0.71570000  1.0 0.0685953653
C  C271  1  0.76000000  0.16100000  0.21570000  1.0 0.0685953653
C  C272  1  0.74000000  0.66100000  0.78430000  1.0 0.0685953653
C  C273  1  0.10660000  0.70570000  0.28978000  1.0 0.0433669409
C  C274  1  0.39340000  0.20570000  0.71022000  1.0 0.0433669409
C  C275  1  0.60660000  0.20570000  0.21022000  1.0 0.0433669409
C  C276  1  0.89340000  0.70570000  0.78978000  1.0 0.0482849482
C  C277  1  0.06420000  0.68530000  0.25473000  1.0 -0.2076684375
C  C278  1  0.43580000  0.18530000  0.74527000  1.0 -0.2076684375
C  C279  1  0.56420000  0.18530000  0.24527000  1.0 -0.2076684375
C  C280  1  0.93580000  0.68530000  0.75473000  1.0 -0.2076684375
C  C281  1  0.67790000  0.00470000  0.35762000  1.0 0.0482849482
C  C282  1  0.82210000  0.50470000  0.64238000  1.0 0.0482849482
C  C283  1  0.17790000  0.50470000  0.14238000  1.0 0.0482849482
C  C284  1  0.32210000  0.00470000  0.85762000  1.0 0.0482849482
C  C285  1  0.70980000  0.95770000  0.34551000  1.0 -0.1921304955
C  C286  1  0.79020000  0.45770000  0.65449000  1.0 -0.1921304955
C  C287  1  0.20980000  0.45770000  0.15449000  1.0 -0.1921304955
C  C288  1  0.29020000  0.95770000  0.84551000  1.0 -0.1921304955
C  C289  1  0.62160000  0.92800000  0.34962000  1.0 -0.2428073505
C  C290  1  0.87840000  0.42800000  0.65038000  1.0 -0.2428073505
C  C291  1  0.12160000  0.42800000  0.15038000  1.0 -0.2428073505
C  C292  1  0.37840000  0.92800000  0.84962000  1.0 -0.2428073505
C  C293  1  0.53840000  0.95729000  0.36445000  1.0 0.1405624895
C  C294  1  0.96160000  0.45729000  0.63555000  1.0 0.1405624895
C  C295  1  0.03840000  0.45729000  0.13555000  1.0 0.1405624895
C  C296  1  0.46160000  0.95729000  0.86445000  1.0 0.1405624895
C  C297  1  0.43310000  0.94175000  0.37357000  1.0 -0.0667608114
C  C298  1  0.06690000  0.44175000  0.62643000  1.0 -0.0667608114
C  C299  1  0.93310000  0.44175000  0.12643000  1.0 -0.0667608114
C  C300  1  0.56690000  0.94175000  0.87357000  1.0 -0.0667608114
C  C301  1  0.35150000  0.97104000  0.38913000  1.0 0.1405624895
C  C302  1  0.14850000  0.47104000  0.61087000  1.0 0.1405624895
C  C303  1  0.85150000  0.47104000  0.11087000  1.0 0.1405624895
C  C304  1  0.64850000  0.97104000  0.88913000  1.0 0.1405624895
C  C305  1  0.24910000  0.95520000  0.40021000  1.0 -0.2076684375
C  C306  1  0.25090000  0.45520000  0.59979000  1.0 -0.2076684375
C  C307  1  0.74910000  0.45520000  0.09979000  1.0 -0.2076684375
C  C308  1  0.75090000  0.95520000  0.90021000  1.0 -0.2076684375
C  C309  1  0.19620000  0.99520000  0.41349000  1.0 -0.173680696
C  C310  1  0.30380000  0.49520000  0.58651000  1.0 -0.173680696
C  C311  1  0.69620000  0.49520000  0.08651000  1.0 -0.173680696
C  C312  1  0.80380000  0.99520000  0.91349000  1.0 -0.173680696
C  C313  1  0.26570000  0.03520000  0.41055000  1.0 0.0482849482
C  C314  1  0.23430000  0.53520000  0.58945000  1.0 0.0482849482
C  C315  1  0.76570000  0.53520000  0.08945000  1.0 0.0482849482
C  C316  1  0.73430000  0.03520000  0.91055000  1.0 0.0482849482
C  C317  1  0.40760000  0.88980000  0.36655000  1.0 0.1193146482
C  C318  1  0.09240000  0.38980000  0.63345000  1.0 0.1193146482
C  C319  1  0.90760000  0.38980000  0.13345000  1.0 0.1193146482
C  C320  1  0.59240000  0.88980000  0.86655000  1.0 0.1193146482
C  C321  1  0.33480000  0.87634000  0.33781000  1.0 -0.1993989864
C  C322  1  0.16520000  0.37634000  0.66219000  1.0 -0.1993989864
C  C323  1  0.83480000  0.37634000  0.16219000  1.0 -0.1993989864
C  C324  1  0.66520000  0.87634000  0.83781000  1.0 -0.1993989864
C  C325  1  0.30870000  0.82680000  0.33333333  1.0 0.0482849482
C  C326  1  0.19130000  0.32680000  0.66666667  1.0 0.0482849482
C  C327  1  0.80870000  0.32680000  0.16667000  1.0 0.0482849482
C  C328  1  0.69130000  0.82680000  0.83333000  1.0 0.0482849482
C  C329  1  0.42190000  0.80450000  0.38289000  1.0 0.0482849482
C  C330  1  0.07810000  0.30450000  0.61711000  1.0 0.0482849482
C  C331  1  0.92190000  0.30450000  0.11711000  1.0 0.0482849482
C  C332  1  0.57810000  0.80450000  0.88289000  1.0 0.0482849482
C  C333  1  0.45330000  0.85327000  0.38950000  1.0 -0.1921304955
C  C334  1  0.04670000  0.35327000  0.61050000  1.0 -0.1921304955
C  C335  1  0.95330000  0.35327000  0.11050000  1.0 -0.1921304955
C  C336  1  0.54670000  0.85327000  0.88950000  1.0 -0.1921304955
N  N1  1  0.53200000  0.93972000  0.05682000  1.0 -0.3599411876
N  N2  1  0.96800000  0.43972000  0.94318000  1.0 -0.3599411876
N  N3  1  0.03200000  0.43972000  0.44318000  1.0 -0.3599411876
N  N4  1  0.46800000  0.93972000  0.55682000  1.0 -0.3599411876
N  N5  1  0.39960000  0.87264000  0.10069000  1.0 -0.3296650344
N  N6  1  0.10040000  0.37264000  0.89931000  1.0 -0.3296650344
N  N7  1  0.89960000  0.37264000  0.39931000  1.0 -0.3296650344
N  N8  1  0.60040000  0.87264000  0.60069000  1.0 -0.3296650344
N  N9  1  0.29460000  0.81288000  0.92041000  1.0 -0.2076684375
N  N10  1  0.20540000  0.31288000  0.07959000  1.0 -0.2076684375
N  N11  1  0.79460000  0.31288000  0.57959000  1.0 -0.2076684375
N  N12  1  0.70540000  0.81288000  0.42041000  1.0 -0.2076684375
N  N13  1  0.55820000  0.92726000  0.67378000  1.0 -0.3479980076
N  N14  1  0.94180000  0.42726000  0.32622000  1.0 -0.3479980076
N  N15  1  0.05820000  0.42726000  0.82622000  1.0 -0.3479980076
N  N16  1  0.44180000  0.92726000  0.17378000  1.0 -0.3479980076
N  N17  1  0.38380000  0.88884000  0.62724000  1.0 -0.3296650344
N  N18  1  0.11620000  0.38884000  0.37276000  1.0 -0.3296650344
N  N19  1  0.88380000  0.38884000  0.87276000  1.0 -0.3296650344
N  N20  1  0.61620000  0.88884000  0.12724000  1.0 -0.3296650344
N  N21  1  0.29770000  0.80670000  0.80422000  1.0 -0.2076684375
N  N22  1  0.20230000  0.30670000  0.19578000  1.0 -0.2076684375
N  N23  1  0.79770000  0.30670000  0.69578000  1.0 -0.2076684375
N  N24  1  0.70230000  0.80670000  0.30422000  1.0 -0.2076684375
N  N25  1  0.92330000  0.49489000  0.86955000  1.0 -0.3479980076
N  N26  1  0.57670000  0.99489000  0.13045000  1.0 -0.3479980076
N  N27  1  0.42330000  0.99489000  0.63045000  1.0 -0.3479980076
N  N28  1  0.07670000  0.49489000  0.36955000  1.0 -0.3479980076
N  N29  1  0.14110000  0.47817000  0.89607000  1.0 -0.3416420588
N  N30  1  0.35890000  0.97817000  0.10393000  1.0 -0.3416420588
N  N31  1  0.64110000  0.97817000  0.60393000  1.0 -0.3416420588
N  N32  1  0.85890000  0.47817000  0.39607000  1.0 -0.3416420588
N  N33  1  0.15090000  0.70888000  0.85607000  1.0 -0.1993989864
N  N34  1  0.34910000  0.20888000  0.14393000  1.0 -0.1993989864
N  N35  1  0.65090000  0.20888000  0.64393000  1.0 -0.1993989864
N  N36  1  0.84910000  0.70888000  0.35607000  1.0 -0.1993989864
N  N37  1  0.96800000  0.56028000  0.55682000  1.0 -0.3599411876
N  N38  1  0.53200000  0.06028000  0.44318000  1.0 -0.3599411876
N  N39  1  0.46800000  0.06028000  0.94318000  1.0 -0.3599411876
N  N40  1  0.03200000  0.56028000  0.05682000  1.0 -0.3599411876
N  N41  1  0.10040000  0.62736000  0.60069000  1.0 -0.3296650344
N  N42  1  0.39960000  0.12736000  0.39931000  1.0 -0.3296650344
N  N43  1  0.60040000  0.12736000  0.89931000  1.0 -0.3296650344
N  N44  1  0.89960000  0.62736000  0.10069000  1.0 -0.3296650344
N  N45  1  0.20540000  0.68712000  0.42041000  1.0 -0.2076684375
N  N46  1  0.29460000  0.18712000  0.57959000  1.0 -0.2076684375
N  N47  1  0.70540000  0.18712000  0.07959000  1.0 -0.2076684375
N  N48  1  0.79460000  0.68712000  0.92041000  1.0 -0.2076684375
N  N49  1  0.94180000  0.57274000  0.17378000  1.0 -0.3479980076
N  N50  1  0.55820000  0.07274000  0.82622000  1.0 -0.3479980076
N  N51  1  0.44180000  0.07274000  0.32622000  1.0 -0.3479980076
N  N52  1  0.05820000  0.57274000  0.67378000  1.0 -0.3479980076
N  N53  1  0.11620000  0.61116000  0.12724000  1.0 -0.3296650344
N  N54  1  0.38380000  0.11116000  0.87276000  1.0 -0.3296650344
N  N55  1  0.61620000  0.11116000  0.37276000  1.0 -0.3296650344
N  N56  1  0.88380000  0.61116000  0.62724000  1.0 -0.3296650344
N  N57  1  0.20230000  0.69330000  0.30422000  1.0 -0.2076684375
N  N58  1  0.29770000  0.19330000  0.69578000  1.0 -0.2076684375
N  N59  1  0.70230000  0.19330000  0.19578000  1.0 -0.2076684375
N  N60  1  0.79770000  0.69330000  0.80422000  1.0 -0.2076684375
N  N61  1  0.57670000  0.00511000  0.36955000  1.0 -0.3479980076
N  N62  1  0.92330000  0.50511000  0.63045000  1.0 -0.3479980076
N  N63  1  0.07670000  0.50511000  0.13045000  1.0 -0.3479980076
N  N64  1  0.42330000  0.00511000  0.86955000  1.0 -0.3479980076
N  N65  1  0.35890000  0.02183000  0.39607000  1.0 -0.3416420588
N  N66  1  0.14110000  0.52183000  0.60393000  1.0 -0.3416420588
N  N67  1  0.85890000  0.52183000  0.10393000  1.0 -0.3416420588
N  N68  1  0.64110000  0.02183000  0.89607000  1.0 -0.3416420588
N  N69  1  0.34910000  0.79112000  0.35607000  1.0 -0.1993989864
N  N70  1  0.15090000  0.29112000  0.64393000  1.0 -0.1993989864
N  N71  1  0.84910000  0.29112000  0.14393000  1.0 -0.1993989864
N  N72  1  0.65090000  0.79112000  0.85607000  1.0 -0.1993989864
