# DDEC6 charges by PACMAN v1.1 (https://github.com/mtap-research/PACMAN-charge/)
data_GIXVOB_ASR_pacman
_symmetry_space_group_name_H-M   'P 1'
_cell_length_a   17.25360000
_cell_length_b   17.25360000
_cell_length_c   28.61020000
_cell_angle_alpha   63.90960000
_cell_angle_beta   116.09000000
_cell_angle_gamma   127.97900000
_symmetry_Int_Tables_number   1
_chemical_formula_structural   Eu2H36(C23O6)3
_chemical_formula_sum   'Eu4 H72 C138 O36'
_cell_volume   5854.59493280
_cell_formula_units_Z   2
loop_
 _symmetry_equiv_pos_site_id
 _symmetry_equiv_pos_as_xyz
  1  'x, y, z'
loop_
 _atom_site_type_symbol
 _atom_site_label
 _atom_site_symmetry_multiplicity
 _atom_site_fract_x
 _atom_site_fract_y
 _atom_site_fract_z
 _atom_site_occupancy
 _atom_site_charge
Eu  Eu1  1  0.14702000  0.60902000  0.48919000  1.0 2.096886676
Eu  Eu2  1  0.60902000  0.14702000  0.01081000  1.0 2.096886676
Eu  Eu3  1  0.85298000  0.39098000  0.51081000  1.0 2.0923327619
Eu  Eu4  1  0.39098000  0.85298000  0.98919000  1.0 2.0923327619
H  H1  1  0.78900000  0.30280000  0.39550000  1.0 0.3572807574
H  H2  1  0.63040000  0.38840000  0.07550000  1.0 0.1292259344
H  H3  1  0.62230000  0.50450000  0.09880000  1.0 0.1204546975
H  H4  1  0.64070000  0.56530000  0.16230000  1.0 0.1292259344
H  H5  1  0.68800000  0.49640000  0.25320000  1.0 0.1204546975
H  H6  1  0.71890000  0.36910000  0.28090000  1.0 0.1204546975
H  H7  1  0.73710000  0.17030000  0.28250000  1.0 0.1204546975
H  H8  1  0.69290000  0.20830000  0.29910000  1.0 0.1204546975
H  H9  1  0.87020000  0.26440000  0.23590000  1.0 0.1292259344
H  H10  1  0.01650000  0.32490000  0.21600000  1.0 0.1292259344
H  H11  1  0.17160000  0.43360000  0.26100000  1.0 0.1292259344
H  H12  1  0.18400000  0.47960000  0.32850000  1.0 0.1204546975
H  H13  1  0.10370000  0.46310000  0.38890000  1.0 0.1292259344
H  H14  1  0.79000000  0.78960000  0.17620000  1.0 0.1204546975
H  H15  1  0.92280000  0.88380000  0.13690000  1.0 0.1204546975
H  H16  1  0.08180000  0.90620000  0.18810000  1.0 0.1204546975
H  H17  1  0.10420000  0.83100000  0.27790000  1.0 0.1292259344
H  H18  1  0.03300000  0.70880000  0.35540000  1.0 0.1449612343
H  H19  1  0.30280000  0.78900000  0.10450000  1.0 0.3572807574
H  H20  1  0.38840000  0.63040000  0.42450000  1.0 0.1292259344
H  H21  1  0.50450000  0.62230000  0.40120000  1.0 0.1204546975
H  H22  1  0.56530000  0.64070000  0.33770000  1.0 0.1292259344
H  H23  1  0.49640000  0.68800000  0.24680000  1.0 0.1204546975
H  H24  1  0.36910000  0.71890000  0.21910000  1.0 0.1204546975
H  H25  1  0.17030000  0.73710000  0.21750000  1.0 0.1204546975
H  H26  1  0.20830000  0.69290000  0.20090000  1.0 0.1204546975
H  H27  1  0.26440000  0.87020000  0.26410000  1.0 0.1292259344
H  H28  1  0.32490000  0.01650000  0.28400000  1.0 0.1292259344
H  H29  1  0.43360000  0.17160000  0.23900000  1.0 0.1292259344
H  H30  1  0.47960000  0.18400000  0.17150000  1.0 0.1204546975
H  H31  1  0.46310000  0.10370000  0.11110000  1.0 0.1292259344
H  H32  1  0.78960000  0.79000000  0.32380000  1.0 0.1204546975
H  H33  1  0.88380000  0.92280000  0.36310000  1.0 0.1204546975
H  H34  1  0.90620000  0.08180000  0.31190000  1.0 0.1204546975
H  H35  1  0.83100000  0.10420000  0.22210000  1.0 0.1292259344
H  H36  1  0.70880000  0.03300000  0.14460000  1.0 0.1449612343
H  H37  1  0.21100000  0.69720000  0.60450000  1.0 0.3572807574
H  H38  1  0.36960000  0.61160000  0.92450000  1.0 0.1292259344
H  H39  1  0.37770000  0.49550000  0.90120000  1.0 0.1204546975
H  H40  1  0.35930000  0.43470000  0.83770000  1.0 0.1292259344
H  H41  1  0.31200000  0.50360000  0.74680000  1.0 0.1204546975
H  H42  1  0.28110000  0.63090000  0.71910000  1.0 0.1204546975
H  H43  1  0.26290000  0.82970000  0.71750000  1.0 0.1204546975
H  H44  1  0.30710000  0.79170000  0.70090000  1.0 0.1204546975
H  H45  1  0.12980000  0.73560000  0.76410000  1.0 0.1292259344
H  H46  1  0.98350000  0.67510000  0.78400000  1.0 0.1292259344
H  H47  1  0.82840000  0.56640000  0.73900000  1.0 0.1292259344
H  H48  1  0.81600000  0.52040000  0.67150000  1.0 0.1204546975
H  H49  1  0.89630000  0.53690000  0.61110000  1.0 0.1292259344
H  H50  1  0.21000000  0.21040000  0.82380000  1.0 0.1204546975
H  H51  1  0.07720000  0.11620000  0.86310000  1.0 0.1204546975
H  H52  1  0.91820000  0.09380000  0.81190000  1.0 0.1204546975
H  H53  1  0.89580000  0.16900000  0.72210000  1.0 0.1292259344
H  H54  1  0.96700000  0.29120000  0.64460000  1.0 0.1449612343
H  H55  1  0.69720000  0.21100000  0.89550000  1.0 0.3572807574
H  H56  1  0.61160000  0.36960000  0.57550000  1.0 0.1292259344
H  H57  1  0.49550000  0.37770000  0.59880000  1.0 0.1204546975
H  H58  1  0.43470000  0.35930000  0.66230000  1.0 0.1292259344
H  H59  1  0.50360000  0.31200000  0.75320000  1.0 0.1204546975
H  H60  1  0.63090000  0.28110000  0.78090000  1.0 0.1204546975
H  H61  1  0.82970000  0.26290000  0.78250000  1.0 0.1204546975
H  H62  1  0.79170000  0.30710000  0.79910000  1.0 0.1204546975
H  H63  1  0.73560000  0.12980000  0.73590000  1.0 0.1292259344
H  H64  1  0.67510000  0.98350000  0.71600000  1.0 0.1292259344
H  H65  1  0.56640000  0.82840000  0.76100000  1.0 0.1292259344
H  H66  1  0.52040000  0.81600000  0.82850000  1.0 0.1204546975
H  H67  1  0.53690000  0.89630000  0.88890000  1.0 0.1292259344
H  H68  1  0.21040000  0.21000000  0.67620000  1.0 0.1204546975
H  H69  1  0.11620000  0.07720000  0.63690000  1.0 0.1204546975
H  H70  1  0.09380000  0.91820000  0.68810000  1.0 0.1204546975
H  H71  1  0.16900000  0.89580000  0.77790000  1.0 0.1292259344
H  H72  1  0.29120000  0.96700000  0.85540000  1.0 0.1449612343
C  C1  1  0.70894000  0.27726000  0.22194000  1.0 -0.0190248069
C  C2  1  0.69134000  0.23926000  0.18230000  1.0 0.2325751597
C  C3  1  0.66325000  0.28235000  0.12656000  1.0 -0.0986877113
C  C4  1  0.64826000  0.36014000  0.11165000  1.0 -0.1479613779
C  C5  1  0.65977000  0.39803000  0.15076000  1.0 0.0494033598
C  C6  1  0.64160000  0.47720000  0.13500000  1.0 -0.1374048254
C  C7  1  0.65240000  0.51340000  0.17270000  1.0 -0.0922202399
C  C8  1  0.68130000  0.47170000  0.22780000  1.0 -0.0830975644
C  C9  1  0.69990000  0.39550000  0.24450000  1.0 -0.1374048254
C  C10  1  0.69006000  0.35674000  0.20583000  1.0 0.0317790175
C  C11  1  0.74121000  0.23019000  0.28065000  1.0 -0.2541991508
C  C12  1  0.84646000  0.29754000  0.31073000  1.0 -0.0190248069
C  C13  1  0.93549000  0.33333333  0.29684000  1.0 0.0494033598
C  C14  1  0.93230000  0.30710000  0.25527000  1.0 -0.117633473
C  C15  1  0.02040000  0.34400000  0.24310000  1.0 -0.0986877113
C  C16  1  0.11330000  0.40850000  0.27030000  1.0 -0.0922202399
C  C17  1  0.12050000  0.43570000  0.31050000  1.0 -0.1287865581
C  C18  1  0.03315000  0.39825000  0.32565000  1.0 0.0620966835
C  C19  1  0.04038000  0.42122000  0.36975000  1.0 -0.1087375039
C  C20  1  0.95510000  0.38250000  0.38469000  1.0 -0.1479613779
C  C21  1  0.85769000  0.32071000  0.35500000  1.0 0.224550035
C  C22  1  0.96910000  0.40930000  0.43236000  1.0 0.6797408277
C  C23  1  0.65222000  0.24438000  0.08494000  1.0 0.6026478374
C  C24  1  0.89050000  0.64010000  0.35988000  1.0 -0.1287865581
C  C25  1  0.79694000  0.63446000  0.33051000  1.0 0.2595466191
C  C26  1  0.78306000  0.68854000  0.27798000  1.0 -0.0986877113
C  C27  1  0.86386000  0.74674000  0.25246000  1.0 0.0620966835
C  C28  1  0.85233000  0.79627000  0.19671000  1.0 -0.1374048254
C  C29  1  0.93180000  0.85320000  0.17340000  1.0 -0.0830975644
C  C30  1  0.02770000  0.86630000  0.20420000  1.0 -0.0922202399
C  C31  1  0.04050000  0.82010000  0.25750000  1.0 -0.117633473
C  C32  1  0.95848000  0.75632000  0.28200000  1.0 0.0661801623
C  C33  1  0.97046000  0.70234000  0.33584000  1.0 -0.1087375039
C  C34  1  0.90310000  0.57770000  0.41536000  1.0 0.6645188147
C  C35  1  0.27726000  0.70894000  0.27806000  1.0 -0.0190248069
C  C36  1  0.23926000  0.69134000  0.31770000  1.0 0.2325751597
C  C37  1  0.28235000  0.66325000  0.37344000  1.0 -0.0986877113
C  C38  1  0.36014000  0.64826000  0.38835000  1.0 -0.1479613779
C  C39  1  0.39803000  0.65977000  0.34924000  1.0 0.0494033598
C  C40  1  0.47720000  0.64160000  0.36500000  1.0 -0.1374048254
C  C41  1  0.51340000  0.65240000  0.32730000  1.0 -0.0922202399
C  C42  1  0.47170000  0.68130000  0.27220000  1.0 -0.0830975644
C  C43  1  0.39550000  0.69990000  0.25550000  1.0 -0.1374048254
C  C44  1  0.35674000  0.69006000  0.29417000  1.0 0.0317790175
C  C45  1  0.23019000  0.74121000  0.21935000  1.0 -0.2541991508
C  C46  1  0.29754000  0.84646000  0.18927000  1.0 -0.0190248069
C  C47  1  0.33333333  0.93549000  0.20316000  1.0 0.0494033598
C  C48  1  0.30710000  0.93230000  0.24473000  1.0 -0.117633473
C  C49  1  0.34400000  0.02040000  0.25690000  1.0 -0.0986877113
C  C50  1  0.40850000  0.11330000  0.22970000  1.0 -0.0830975644
C  C51  1  0.43570000  0.12050000  0.18950000  1.0 -0.1287865581
C  C52  1  0.39825000  0.03315000  0.17435000  1.0 0.0620966835
C  C53  1  0.42122000  0.04038000  0.13025000  1.0 -0.1087375039
C  C54  1  0.38250000  0.95510000  0.11531000  1.0 -0.1479613779
C  C55  1  0.32071000  0.85769000  0.14500000  1.0 0.224550035
C  C56  1  0.40930000  0.96910000  0.06764000  1.0 0.6797408277
C  C57  1  0.24438000  0.65222000  0.41506000  1.0 0.6026478374
C  C58  1  0.64010000  0.89050000  0.14012000  1.0 -0.1287865581
C  C59  1  0.63446000  0.79694000  0.16949000  1.0 0.2595466191
C  C60  1  0.68854000  0.78306000  0.22202000  1.0 -0.0986877113
C  C61  1  0.74674000  0.86386000  0.24754000  1.0 0.0620966835
C  C62  1  0.79627000  0.85233000  0.30329000  1.0 -0.1374048254
C  C63  1  0.85320000  0.93180000  0.32660000  1.0 -0.0830975644
C  C64  1  0.86630000  0.02770000  0.29580000  1.0 -0.0922202399
C  C65  1  0.82010000  0.04050000  0.24250000  1.0 -0.117633473
C  C66  1  0.75632000  0.95848000  0.21800000  1.0 0.0661801623
C  C67  1  0.70234000  0.97046000  0.16416000  1.0 -0.1087375039
C  C68  1  0.57770000  0.90310000  0.08464000  1.0 0.6645188147
C  C69  1  0.29106000  0.72274000  0.77806000  1.0 -0.0190248069
C  C70  1  0.30866000  0.76074000  0.81770000  1.0 0.2325751597
C  C71  1  0.33675000  0.71765000  0.87344000  1.0 -0.0986877113
C  C72  1  0.35174000  0.63986000  0.88835000  1.0 -0.1479613779
C  C73  1  0.34023000  0.60197000  0.84924000  1.0 0.0494033598
C  C74  1  0.35840000  0.52280000  0.86500000  1.0 -0.1374048254
C  C75  1  0.34760000  0.48660000  0.82730000  1.0 -0.0922202399
C  C76  1  0.31870000  0.52830000  0.77220000  1.0 -0.0830975644
C  C77  1  0.30010000  0.60450000  0.75550000  1.0 -0.1374048254
C  C78  1  0.30994000  0.64326000  0.79417000  1.0 0.0317790175
C  C79  1  0.25879000  0.76981000  0.71935000  1.0 -0.2541991508
C  C80  1  0.15354000  0.70246000  0.68927000  1.0 -0.0190248069
C  C81  1  0.06451000  0.66666667  0.70316000  1.0 0.0494033598
C  C82  1  0.06770000  0.69290000  0.74473000  1.0 -0.117633473
C  C83  1  0.97960000  0.65600000  0.75690000  1.0 -0.0986877113
C  C84  1  0.88670000  0.59150000  0.72970000  1.0 -0.0830975644
C  C85  1  0.87950000  0.56430000  0.68950000  1.0 -0.1287865581
C  C86  1  0.96685000  0.60175000  0.67435000  1.0 0.0620966835
C  C87  1  0.95962000  0.57878000  0.63025000  1.0 -0.1087375039
C  C88  1  0.04490000  0.61750000  0.61531000  1.0 -0.1479613779
C  C89  1  0.14231000  0.67929000  0.64500000  1.0 0.224550035
C  C90  1  0.03090000  0.59070000  0.56764000  1.0 0.6797408277
C  C91  1  0.34778000  0.75562000  0.91506000  1.0 0.6026478374
C  C92  1  0.10950000  0.35990000  0.64012000  1.0 -0.1287865581
C  C93  1  0.20306000  0.36554000  0.66949000  1.0 0.2595466191
C  C94  1  0.21694000  0.31146000  0.72202000  1.0 -0.0986877113
C  C95  1  0.13614000  0.25326000  0.74754000  1.0 0.0620966835
C  C96  1  0.14767000  0.20373000  0.80329000  1.0 -0.1374048254
C  C97  1  0.06820000  0.14680000  0.82660000  1.0 -0.0830975644
C  C98  1  0.97230000  0.13370000  0.79580000  1.0 -0.0922202399
C  C99  1  0.95950000  0.17990000  0.74250000  1.0 -0.117633473
C  C100  1  0.04152000  0.24368000  0.71800000  1.0 0.0661801623
C  C101  1  0.02954000  0.29766000  0.66416000  1.0 -0.1087375039
C  C102  1  0.09690000  0.42230000  0.58464000  1.0 0.6654695684
C  C103  1  0.72274000  0.29106000  0.72194000  1.0 -0.0190248069
C  C104  1  0.76074000  0.30866000  0.68230000  1.0 0.2325751597
C  C105  1  0.71765000  0.33675000  0.62656000  1.0 -0.0986877113
C  C106  1  0.63986000  0.35174000  0.61165000  1.0 -0.1479613779
C  C107  1  0.60197000  0.34023000  0.65076000  1.0 0.0494033598
C  C108  1  0.52280000  0.35840000  0.63500000  1.0 -0.1374048254
C  C109  1  0.48660000  0.34760000  0.67270000  1.0 -0.0922202399
C  C110  1  0.52830000  0.31870000  0.72780000  1.0 -0.0830975644
C  C111  1  0.60450000  0.30010000  0.74450000  1.0 -0.1374048254
C  C112  1  0.64326000  0.30994000  0.70583000  1.0 0.0317790175
C  C113  1  0.76981000  0.25879000  0.78065000  1.0 -0.2541991508
C  C114  1  0.70246000  0.15354000  0.81073000  1.0 -0.0190248069
C  C115  1  0.66666667  0.06451000  0.79684000  1.0 0.0494033598
C  C116  1  0.69290000  0.06770000  0.75527000  1.0 -0.117633473
C  C117  1  0.65600000  0.97960000  0.74310000  1.0 -0.0986877113
C  C118  1  0.59150000  0.88670000  0.77030000  1.0 -0.0830975644
C  C119  1  0.56430000  0.87950000  0.81050000  1.0 -0.1287865581
C  C120  1  0.60175000  0.96685000  0.82565000  1.0 0.0620966835
C  C121  1  0.57878000  0.95962000  0.86975000  1.0 -0.1087375039
C  C122  1  0.61750000  0.04490000  0.88469000  1.0 -0.1479613779
C  C123  1  0.67929000  0.14231000  0.85500000  1.0 0.224550035
C  C124  1  0.59070000  0.03090000  0.93236000  1.0 0.6797408277
C  C125  1  0.75562000  0.34778000  0.58494000  1.0 0.6026478374
C  C126  1  0.35990000  0.10950000  0.85988000  1.0 -0.1287865581
C  C127  1  0.36554000  0.20306000  0.83051000  1.0 0.2595466191
C  C128  1  0.31146000  0.21694000  0.77798000  1.0 -0.0922202399
C  C129  1  0.25326000  0.13614000  0.75246000  1.0 0.0620966835
C  C130  1  0.20373000  0.14767000  0.69671000  1.0 -0.1374048254
C  C131  1  0.14680000  0.06820000  0.67340000  1.0 -0.0830975644
C  C132  1  0.13370000  0.97230000  0.70420000  1.0 -0.0922202399
C  C133  1  0.17990000  0.95950000  0.75750000  1.0 -0.117633473
C  C134  1  0.24368000  0.04152000  0.78200000  1.0 0.0661801623
C  C135  1  0.29766000  0.02954000  0.83584000  1.0 -0.1087375039
C  C136  1  0.42230000  0.09690000  0.91536000  1.0 0.6645188147
C  C137  1  0.68310000  0.68310000  0.25000000  1.0 0.1204546975
C  C138  1  0.31690000  0.31690000  0.75000000  1.0 0.1143087188
O  O1  1  0.98760000  0.58560000  0.44203000  1.0 -0.7342022246
O  O2  1  0.05738000  0.46542000  0.45601000  1.0 -0.6134458965
O  O3  1  0.88862000  0.37350000  0.44553000  1.0 -0.7092194742
O  O4  1  0.77283000  0.28257000  0.36961000  1.0 -0.416057471
O  O5  1  0.62037000  0.27563000  0.03621000  1.0 -0.6014656758
O  O6  1  0.67269000  0.17591000  0.09994000  1.0 -0.6431342846
O  O7  1  0.70094000  0.15886000  0.19705000  1.0 -0.45084225
O  O8  1  0.82468000  0.51392000  0.43490000  1.0 -0.6188157982
O  O9  1  0.71777000  0.57663000  0.35404000  1.0 -0.4006483814
O  O10  1  0.58560000  0.98760000  0.05797000  1.0 -0.7342022246
O  O11  1  0.46542000  0.05738000  0.04399000  1.0 -0.6134458965
O  O12  1  0.37350000  0.88862000  0.05447000  1.0 -0.7092194742
O  O13  1  0.28257000  0.77283000  0.13039000  1.0 -0.416057471
O  O14  1  0.27563000  0.62037000  0.46379000  1.0 -0.6014656758
O  O15  1  0.17591000  0.67269000  0.40006000  1.0 -0.6431342846
O  O16  1  0.15886000  0.70094000  0.30295000  1.0 -0.45084225
O  O17  1  0.51392000  0.82468000  0.06510000  1.0 -0.6188157982
O  O18  1  0.57663000  0.71777000  0.14596000  1.0 -0.4006483814
O  O19  1  0.01240000  0.41440000  0.55797000  1.0 -0.7342022246
O  O20  1  0.94262000  0.53458000  0.54399000  1.0 -0.6134458965
O  O21  1  0.11138000  0.62650000  0.55447000  1.0 -0.7092194742
O  O22  1  0.22717000  0.71743000  0.63039000  1.0 -0.416057471
O  O23  1  0.37963000  0.72437000  0.96379000  1.0 -0.6014656758
O  O24  1  0.32731000  0.82409000  0.90006000  1.0 -0.6431342846
O  O25  1  0.29906000  0.84114000  0.80295000  1.0 -0.45084225
O  O26  1  0.17532000  0.48608000  0.56510000  1.0 -0.6188157982
O  O27  1  0.28223000  0.42337000  0.64596000  1.0 -0.4006483814
O  O28  1  0.41440000  0.01240000  0.94203000  1.0 -0.7342022246
O  O29  1  0.53458000  0.94262000  0.95601000  1.0 -0.6134458965
O  O30  1  0.62650000  0.11138000  0.94553000  1.0 -0.7092194742
O  O31  1  0.71743000  0.22717000  0.86961000  1.0 -0.416057471
O  O32  1  0.72437000  0.37963000  0.53621000  1.0 -0.6014656758
O  O33  1  0.82409000  0.32731000  0.59994000  1.0 -0.6431342846
O  O34  1  0.84114000  0.29906000  0.69705000  1.0 -0.45084225
O  O35  1  0.48608000  0.17532000  0.93490000  1.0 -0.6188157982
O  O36  1  0.42337000  0.28223000  0.85404000  1.0 -0.4006483814
