# DDEC6 charges by PACMAN v1.1 (https://github.com/mtap-research/PACMAN-charge/)
data_GIYSOX_ASR_pacman
_symmetry_space_group_name_H-M   'P 1'
_cell_length_a   9.63620000
_cell_length_b   11.46200000
_cell_length_c   19.14700000
_cell_angle_alpha   90.00000000
_cell_angle_beta   97.98000000
_cell_angle_gamma   90.00000000
_symmetry_Int_Tables_number   1
_chemical_formula_structural   Cu4MoH48C44(SN2)4
_chemical_formula_sum   'Cu8 Mo2 H96 C88 S8 N16'
_cell_volume   2094.31016533
_cell_formula_units_Z   2
loop_
 _symmetry_equiv_pos_site_id
 _symmetry_equiv_pos_as_xyz
  1  'x, y, z'
loop_
 _atom_site_type_symbol
 _atom_site_label
 _atom_site_symmetry_multiplicity
 _atom_site_fract_x
 _atom_site_fract_y
 _atom_site_fract_z
 _atom_site_occupancy
 _atom_site_charge
Cu  Cu1  1  0.27973000  0.61769000  0.78841000  1.0 0.3372766812
Cu  Cu2  1  0.72027000  0.61769000  0.71159000  1.0 0.3372766812
Cu  Cu3  1  0.72027000  0.38231000  0.21159000  1.0 0.3372766812
Cu  Cu4  1  0.27973000  0.38231000  0.28841000  1.0 0.3372766812
Cu  Cu5  1  0.95984000  0.61678000  0.88706000  1.0 0.205203932
Cu  Cu6  1  0.04016000  0.61678000  0.61294000  1.0 0.2040323381
Cu  Cu7  1  0.04016000  0.38322000  0.11294000  1.0 0.205203932
Cu  Cu8  1  0.95984000  0.38322000  0.38706000  1.0 0.205203932
Mo  Mo1  1  0.00000000  0.61647000  0.75000000  1.0 0.7401756112
Mo  Mo2  1  0.00000000  0.38353000  0.25000000  1.0 0.7401756112
H  H1  1  0.21190000  0.42430000  0.88760000  1.0 0.0977842574
H  H2  1  0.78810000  0.42430000  0.61240000  1.0 0.0977842574
H  H3  1  0.78810000  0.57570000  0.11240000  1.0 0.0977842574
H  H4  1  0.21190000  0.57570000  0.38760000  1.0 0.0977842574
H  H5  1  0.31940000  0.29730000  0.97110000  1.0 0.1119854253
H  H6  1  0.68060000  0.29730000  0.52890000  1.0 0.1119854253
H  H7  1  0.68060000  0.70270000  0.02890000  1.0 0.1119854253
H  H8  1  0.31940000  0.70270000  0.47110000  1.0 0.1119854253
H  H9  1  0.69150000  0.42550000  0.93550000  1.0 0.1336331431
H  H10  1  0.30850000  0.42550000  0.56450000  1.0 0.1336331431
H  H11  1  0.30850000  0.57450000  0.06450000  1.0 0.1336331431
H  H12  1  0.69150000  0.57450000  0.43550000  1.0 0.1336331431
H  H13  1  0.57240000  0.55020000  0.85350000  1.0 0.1119854253
H  H14  1  0.42760000  0.55020000  0.64650000  1.0 0.1119854253
H  H15  1  0.42760000  0.44980000  0.14650000  1.0 0.1119854253
H  H16  1  0.57240000  0.44980000  0.35350000  1.0 0.1119854253
H  H17  1  0.69470000  0.29730000  0.03090000  1.0 0.0889307171
H  H18  1  0.30530000  0.29730000  0.46910000  1.0 0.0889307171
H  H19  1  0.30530000  0.70270000  0.96910000  1.0 0.0889307171
H  H20  1  0.69470000  0.70270000  0.53090000  1.0 0.0889307171
H  H21  1  0.55420000  0.24050000  0.05150000  1.0 0.0889307171
H  H22  1  0.44580000  0.24050000  0.44850000  1.0 0.0889307171
H  H23  1  0.44580000  0.75950000  0.94850000  1.0 0.0889307171
H  H24  1  0.55420000  0.75950000  0.55150000  1.0 0.0889307171
H  H25  1  0.54580000  0.11080000  0.95310000  1.0 0.0601792232
H  H26  1  0.45420000  0.11080000  0.54690000  1.0 0.0601792232
H  H27  1  0.45420000  0.88920000  0.04690000  1.0 0.0601792232
H  H28  1  0.54580000  0.88920000  0.45310000  1.0 0.0601792232
H  H29  1  0.68870000  0.16650000  0.93420000  1.0 0.0889307171
H  H30  1  0.31130000  0.16650000  0.56580000  1.0 0.0889307171
H  H31  1  0.31130000  0.83350000  0.06580000  1.0 0.0889307171
H  H32  1  0.68870000  0.83350000  0.43420000  1.0 0.0889307171
H  H33  1  0.66110000  0.04130000  0.06130000  1.0 0.0601792232
H  H34  1  0.33890000  0.04130000  0.43870000  1.0 0.0601792232
H  H35  1  0.33890000  0.95870000  0.93870000  1.0 0.0601792232
H  H36  1  0.66110000  0.95870000  0.56130000  1.0 0.0601792232
H  H37  1  0.80260000  0.10590000  0.04880000  1.0 0.0715216082
H  H38  1  0.19740000  0.10590000  0.45120000  1.0 0.0715216082
H  H39  1  0.19740000  0.89410000  0.95120000  1.0 0.0715216082
H  H40  1  0.80260000  0.89410000  0.54880000  1.0 0.0715216082
H  H41  1  0.62730000  0.95970000  0.90050000  1.0 0.0889307171
H  H42  1  0.37270000  0.95970000  0.59950000  1.0 0.0889307171
H  H43  1  0.37270000  0.04030000  0.09950000  1.0 0.0889307171
H  H44  1  0.62730000  0.04030000  0.40050000  1.0 0.0889307171
H  H45  1  0.70510000  0.78970000  0.85040000  1.0 0.0889307171
H  H46  1  0.29490000  0.78970000  0.64960000  1.0 0.0889307171
H  H47  1  0.29490000  0.21030000  0.14960000  1.0 0.0889307171
H  H48  1  0.70510000  0.21030000  0.35040000  1.0 0.0889307171
H  H49  1  0.00070000  0.74700000  0.02090000  1.0 0.0601792232
H  H50  1  0.99930000  0.74700000  0.47910000  1.0 0.0601792232
H  H51  1  0.99930000  0.25300000  0.97910000  1.0 0.0601792232
H  H52  1  0.00070000  0.25300000  0.52090000  1.0 0.0601792232
H  H53  1  0.92290000  0.91700000  0.07090000  1.0 0.0977842574
H  H54  1  0.07710000  0.91700000  0.42910000  1.0 0.0977842574
H  H55  1  0.07710000  0.08300000  0.92910000  1.0 0.0977842574
H  H56  1  0.92290000  0.08300000  0.57090000  1.0 0.0977842574
H  H57  1  0.66420000  0.30240000  0.04800000  1.0 0.0889307171
H  H58  1  0.33580000  0.30240000  0.45200000  1.0 0.0889307171
H  H59  1  0.33580000  0.69760000  0.95200000  1.0 0.0889307171
H  H60  1  0.66420000  0.69760000  0.54800000  1.0 0.0889307171
H  H61  1  0.50970000  0.26120000  0.05730000  1.0 0.0804070912
H  H62  1  0.49030000  0.26120000  0.44270000  1.0 0.0804070912
H  H63  1  0.49030000  0.73880000  0.94270000  1.0 0.0804070912
H  H64  1  0.50970000  0.73880000  0.55730000  1.0 0.0804070912
H  H65  1  0.52770000  0.10390000  0.97870000  1.0 0.0601792232
H  H66  1  0.47230000  0.10390000  0.52130000  1.0 0.0601792232
H  H67  1  0.47230000  0.89610000  0.02130000  1.0 0.0601792232
H  H68  1  0.52770000  0.89610000  0.47870000  1.0 0.0601792232
H  H69  1  0.64560000  0.09670000  0.04610000  1.0 0.0715216082
H  H70  1  0.35440000  0.09670000  0.45390000  1.0 0.0715216082
H  H71  1  0.35440000  0.90330000  0.95390000  1.0 0.0715216082
H  H72  1  0.64560000  0.90330000  0.54610000  1.0 0.0715216082
H  H73  1  0.81140000  0.17840000  0.97680000  1.0 0.0715216082
H  H74  1  0.18860000  0.17840000  0.52320000  1.0 0.0715216082
H  H75  1  0.18860000  0.82160000  0.02320000  1.0 0.0715216082
H  H76  1  0.81140000  0.82160000  0.47680000  1.0 0.0715216082
H  H77  1  0.69290000  0.17610000  0.90930000  1.0 0.0889307171
H  H78  1  0.30710000  0.17610000  0.59070000  1.0 0.0889307171
H  H79  1  0.30710000  0.82390000  0.09070000  1.0 0.0889307171
H  H80  1  0.69290000  0.82390000  0.40930000  1.0 0.0889307171
H  H81  1  0.67970000  0.01520000  0.83610000  1.0 0.1155192171
H  H82  1  0.32030000  0.01520000  0.66390000  1.0 0.1155192171
H  H83  1  0.32030000  0.98480000  0.16390000  1.0 0.1155192171
H  H84  1  0.67970000  0.98480000  0.33610000  1.0 0.1155192171
H  H85  1  0.74920000  0.82720000  0.80830000  1.0 0.0889307171
H  H86  1  0.25080000  0.82720000  0.69170000  1.0 0.0889307171
H  H87  1  0.25080000  0.17280000  0.19170000  1.0 0.0889307171
H  H88  1  0.74920000  0.17280000  0.30830000  1.0 0.0889307171
H  H89  1  0.93460000  0.78310000  0.00980000  1.0 0.0804070912
H  H90  1  0.06540000  0.78310000  0.49020000  1.0 0.0804070912
H  H91  1  0.06540000  0.21690000  0.99020000  1.0 0.0804070912
H  H92  1  0.93460000  0.21690000  0.50980000  1.0 0.0804070912
H  H93  1  0.86510000  0.97110000  0.03770000  1.0 0.0977842574
H  H94  1  0.13490000  0.97110000  0.46230000  1.0 0.0977842574
H  H95  1  0.13490000  0.02890000  0.96230000  1.0 0.0977842574
H  H96  1  0.86510000  0.02890000  0.53770000  1.0 0.0977842574
C  C1  1  0.44370000  0.69500000  0.75910000  1.0 -0.4708201375
C  C2  1  0.55630000  0.69500000  0.74090000  1.0 -0.4708201375
C  C3  1  0.55630000  0.30500000  0.24090000  1.0 -0.4708201375
C  C4  1  0.44370000  0.30500000  0.25910000  1.0 -0.4708201375
C  C5  1  0.31120000  0.42550000  0.89760000  1.0 0.0715216082
C  C6  1  0.68880000  0.42550000  0.60240000  1.0 0.0715216082
C  C7  1  0.68880000  0.57450000  0.10240000  1.0 0.0715216082
C  C8  1  0.31120000  0.57450000  0.39760000  1.0 0.0715216082
C  C9  1  0.37500000  0.34840000  0.94750000  1.0 -0.3309840794
C  C10  1  0.62500000  0.34840000  0.55250000  1.0 -0.3309840794
C  C11  1  0.62500000  0.65160000  0.05250000  1.0 -0.3309840794
C  C12  1  0.37500000  0.65160000  0.44750000  1.0 -0.3309840794
C  C13  1  0.51800000  0.34530000  0.96290000  1.0 0.1397290741
C  C14  1  0.48200000  0.34530000  0.53710000  1.0 0.1397290741
C  C15  1  0.48200000  0.65470000  0.03710000  1.0 0.1397290741
C  C16  1  0.51800000  0.65470000  0.46290000  1.0 0.1397290741
C  C17  1  0.59200000  0.42330000  0.92680000  1.0 -0.2582167919
C  C18  1  0.40800000  0.42330000  0.57320000  1.0 -0.2582167919
C  C19  1  0.40800000  0.57670000  0.07320000  1.0 -0.2582167919
C  C20  1  0.59200000  0.57670000  0.42680000  1.0 -0.2582167919
C  C21  1  0.51970000  0.49790000  0.87790000  1.0 0.0889307171
C  C22  1  0.48030000  0.49790000  0.62210000  1.0 0.0889307171
C  C23  1  0.48030000  0.50210000  0.12210000  1.0 0.0889307171
C  C24  1  0.51970000  0.50210000  0.37790000  1.0 0.0889307171
C  C25  1  0.60500000  0.25990000  0.01150000  1.0 -0.1845279719
C  C26  1  0.39500000  0.25990000  0.48850000  1.0 -0.185341769
C  C27  1  0.39500000  0.74010000  0.98850000  1.0 -0.185341769
C  C28  1  0.60500000  0.74010000  0.51150000  1.0 -0.185341769
C  C29  1  0.63500000  0.14800000  0.97330000  1.0 -0.02865418
C  C30  1  0.36500000  0.14800000  0.52670000  1.0 -0.02865418
C  C31  1  0.36500000  0.85200000  0.02670000  1.0 -0.02865418
C  C32  1  0.63500000  0.85200000  0.47330000  1.0 -0.02865418
C  C33  1  0.71930000  0.06430000  0.02480000  1.0 -0.1516495507
C  C34  1  0.28070000  0.06430000  0.47520000  1.0 -0.1516495507
C  C35  1  0.28070000  0.93570000  0.97520000  1.0 -0.1516495507
C  C36  1  0.71930000  0.93570000  0.52480000  1.0 -0.1516495507
C  C37  1  0.76780000  0.95430000  0.99040000  1.0 0.0026004947
C  C38  1  0.23220000  0.95430000  0.50960000  1.0 0.0026004947
C  C39  1  0.23220000  0.04570000  0.00960000  1.0 0.0026004947
C  C40  1  0.76780000  0.04570000  0.49040000  1.0 0.0026004947
C  C41  1  0.70310000  0.91650000  0.92490000  1.0 -0.0888120245
C  C42  1  0.29690000  0.91650000  0.57510000  1.0 -0.0888120245
C  C43  1  0.29690000  0.08350000  0.07510000  1.0 -0.0888120245
C  C44  1  0.70310000  0.08350000  0.42490000  1.0 -0.0888120245
C  C45  1  0.74930000  0.81560000  0.89520000  1.0 0.0715216082
C  C46  1  0.25070000  0.81560000  0.60480000  1.0 0.0715216082
C  C47  1  0.25070000  0.18440000  0.10480000  1.0 0.0715216082
C  C48  1  0.74930000  0.18440000  0.39520000  1.0 0.0715216082
C  C49  1  0.92490000  0.79020000  0.99640000  1.0 0.0310779976
C  C50  1  0.07510000  0.79020000  0.50360000  1.0 0.0310779976
C  C51  1  0.07510000  0.20980000  0.00360000  1.0 0.0310779976
C  C52  1  0.92490000  0.20980000  0.49640000  1.0 0.0310779976
C  C53  1  0.87870000  0.89110000  0.02620000  1.0 -0.1309502368
C  C54  1  0.12130000  0.89110000  0.47380000  1.0 -0.1309502368
C  C55  1  0.12130000  0.10890000  0.97380000  1.0 -0.1309502368
C  C56  1  0.87870000  0.10890000  0.52620000  1.0 -0.1309502368
C  C57  1  0.57800000  0.26600000  0.02330000  1.0 -0.2061435218
C  C58  1  0.42200000  0.26600000  0.47670000  1.0 -0.2061435218
C  C59  1  0.42200000  0.73400000  0.97670000  1.0 -0.2061435218
C  C60  1  0.57800000  0.73400000  0.52330000  1.0 -0.2061435218
C  C61  1  0.61400000  0.14200000  0.00270000  1.0 -0.02865418
C  C62  1  0.38600000  0.14200000  0.49730000  1.0 -0.02865418
C  C63  1  0.38600000  0.85800000  0.99730000  1.0 -0.02865418
C  C64  1  0.61400000  0.85800000  0.50270000  1.0 -0.02865418
C  C65  1  0.72700000  0.13650000  0.95440000  1.0 -0.1389363568
C  C66  1  0.27300000  0.13650000  0.54560000  1.0 -0.1389363568
C  C67  1  0.27300000  0.86350000  0.04560000  1.0 -0.1389363568
C  C68  1  0.72700000  0.86350000  0.45440000  1.0 -0.1389363568
C  C69  1  0.76600000  0.01090000  0.93950000  1.0 -0.0169414821
C  C70  1  0.23400000  0.01090000  0.56050000  1.0 -0.0169414821
C  C71  1  0.23400000  0.98910000  0.06050000  1.0 -0.0169414821
C  C72  1  0.76600000  0.98910000  0.43950000  1.0 -0.0169414821
C  C73  1  0.73100000  0.96810000  0.87140000  1.0 -0.1309502368
C  C74  1  0.26900000  0.96810000  0.62860000  1.0 -0.1309502368
C  C75  1  0.26900000  0.03190000  0.12860000  1.0 -0.1309502368
C  C76  1  0.73100000  0.03190000  0.37140000  1.0 -0.1309502368
C  C77  1  0.77300000  0.85640000  0.85480000  1.0 -0.02865418
C  C78  1  0.22700000  0.85640000  0.64520000  1.0 -0.02865418
C  C79  1  0.22700000  0.14360000  0.14520000  1.0 -0.02865418
C  C80  1  0.77300000  0.14360000  0.35480000  1.0 -0.02865418
C  C81  1  0.88290000  0.83030000  0.97460000  1.0 0.0455018346
C  C82  1  0.11710000  0.83030000  0.52540000  1.0 0.0455018346
C  C83  1  0.11710000  0.16970000  0.02540000  1.0 0.0410520982
C  C84  1  0.88290000  0.16970000  0.47460000  1.0 0.0410520982
C  C85  1  0.84200000  0.94190000  0.99110000  1.0 -0.0055773367
C  C86  1  0.15800000  0.94190000  0.50890000  1.0 -0.0055773367
C  C87  1  0.15800000  0.05810000  0.00890000  1.0 -0.0055773367
C  C88  1  0.84200000  0.05810000  0.49110000  1.0 -0.0055773367
S  S1  1  0.11810000  0.72550000  0.83439000  1.0 -0.5457192596
S  S2  1  0.88190000  0.72550000  0.66561000  1.0 -0.5457192596
S  S3  1  0.88190000  0.27450000  0.16561000  1.0 -0.5457192596
S  S4  1  0.11810000  0.27450000  0.33439000  1.0 -0.5457192596
S  S5  1  0.84620000  0.50660000  0.79772000  1.0 -0.4708201375
S  S6  1  0.15380000  0.50660000  0.70228000  1.0 -0.4708201375
S  S7  1  0.15380000  0.49340000  0.20228000  1.0 -0.4708201375
S  S8  1  0.84620000  0.49340000  0.29772000  1.0 -0.4708201375
N  N1  1  0.37960000  0.50070000  0.86300000  1.0 -0.1743249532
N  N2  1  0.62040000  0.50070000  0.63700000  1.0 -0.1743249532
N  N3  1  0.62040000  0.49930000  0.13700000  1.0 -0.1743249532
N  N4  1  0.37960000  0.49930000  0.36300000  1.0 -0.1743249532
N  N5  1  0.99460000  0.52540000  0.97420000  1.0 -0.0470672919
N  N6  1  0.00540000  0.52540000  0.52580000  1.0 -0.0470672919
N  N7  1  0.00540000  0.47460000  0.02580000  1.0 -0.0470672919
N  N8  1  0.99460000  0.47460000  0.47420000  1.0 -0.0442432399
N  N9  1  0.86020000  0.75240000  0.93090000  1.0 -0.0576954607
N  N10  1  0.13980000  0.75240000  0.56910000  1.0 -0.0576954607
N  N11  1  0.13980000  0.24760000  0.06910000  1.0 -0.0576954607
N  N12  1  0.86020000  0.24760000  0.43090000  1.0 -0.0576954607
N  N13  1  0.84800000  0.78750000  0.90640000  1.0 0.0410520982
N  N14  1  0.15200000  0.78750000  0.59360000  1.0 0.0410520982
N  N15  1  0.15200000  0.21250000  0.09360000  1.0 0.0410520982
N  N16  1  0.84800000  0.21250000  0.40640000  1.0 0.0410520982
