# DDEC6 charges by PACMAN v1.1 (https://github.com/mtap-research/PACMAN-charge/)
data_GIYTIS_FSR_pacman
_symmetry_space_group_name_H-M   'P 1'
_cell_length_a   8.95080000
_cell_length_b   9.08920000
_cell_length_c   19.80200000
_cell_angle_alpha   95.64000000
_cell_angle_beta   97.68000000
_cell_angle_gamma   118.25000000
_symmetry_Int_Tables_number   1
_chemical_formula_structural   Zn3H22C30(NO6)2
_chemical_formula_sum   'Zn3 H22 C30 N2 O12'
_cell_volume   1382.10349604
_cell_formula_units_Z   1
loop_
 _symmetry_equiv_pos_site_id
 _symmetry_equiv_pos_as_xyz
  1  'x, y, z'
loop_
 _atom_site_type_symbol
 _atom_site_label
 _atom_site_symmetry_multiplicity
 _atom_site_fract_x
 _atom_site_fract_y
 _atom_site_fract_z
 _atom_site_occupancy
 _atom_site_charge
Zn  Zn1  1  0.68612000  0.55708000  0.22914000  1.0 0.8223879803
Zn  Zn2  1  0.56000000  0.38510000  0.06379000  1.0 0.9859521259
Zn  Zn3  1  0.43368000  0.21375000  0.89824000  1.0 0.8132300247
H  H1  1  0.61560000  0.00460000  0.16320000  1.0 0.1409404803
H  H2  1  0.50920000  0.93250000  0.22070000  1.0 0.1277957764
H  H3  1  0.22500000  0.92670000  0.22180000  1.0 0.1135382523
H  H4  1  0.14690000  0.99480000  0.16480000  1.0 0.1277957764
H  H5  1  0.15640000  0.55000000  0.11400000  1.0 0.1409404803
H  H6  1  0.22620000  0.65140000  0.19060000  1.0 0.1197993129
H  H7  1  0.96230000  0.22060000  0.01460000  1.0 0.1409404803
H  H8  1  0.89380000  0.12560000  0.93700000  1.0 0.1277957764
H  H9  1  0.51020000  0.76120000  0.96690000  1.0 0.1409404803
H  H10  1  0.60440000  0.82870000  0.90610000  1.0 0.1197993129
H  H11  1  0.89320000  0.84390000  0.90760000  1.0 0.1197993129
H  H12  1  0.96570000  0.77650000  0.96610000  1.0 0.1277957764
H  H13  1  0.02060000  0.79140000  0.32690000  1.0 0.1197993129
H  H14  1  0.06240000  0.96460000  0.43480000  1.0 0.1277957764
H  H15  1  0.69910000  0.55810000  0.48180000  1.0 0.1277957764
H  H16  1  0.58550000  0.47370000  0.36550000  1.0 0.1197993129
H  H17  1  0.90340000  0.74680000  0.57440000  1.0 0.1197993129
H  H18  1  0.17410000  0.99610000  0.54790000  1.0 0.1135382523
H  H19  1  0.40400000  0.22960000  0.64620000  1.0 0.1277957764
H  H20  1  0.51320000  0.33180000  0.76170000  1.0 0.1197993129
H  H21  1  0.15580000  0.89800000  0.80350000  1.0 0.1197993129
H  H22  1  0.98360000  0.87300000  0.69020000  1.0 0.1197993129
C  C1  1  0.49760000  0.66320000  0.14040000  1.0 0.5440292825
C  C2  1  0.40340000  0.76420000  0.12670000  1.0 0.0675967802
C  C3  1  0.49980000  0.94130000  0.17200000  1.0 -0.2605563205
C  C4  1  0.39400000  0.03380000  0.15360000  1.0 0.0919814036
C  C5  1  0.48900000  0.21360000  0.19580000  1.0 0.5502537756
C  C6  1  0.21160000  0.93540000  0.17320000  1.0 -0.2605563205
C  C7  1  0.11450000  0.75500000  0.12670000  1.0 0.0327267777
C  C8  1  0.93620000  0.65340000  0.13850000  1.0 0.5626001228
C  C9  1  0.21710000  0.66300000  0.14220000  1.0 -0.2605563205
C  C10  1  0.18800000  0.12100000  0.98840000  1.0 0.5502537756
C  C11  1  0.99930000  0.01040000  0.99880000  1.0 0.0488787139
C  C12  1  0.90050000  0.10950000  0.98480000  1.0 -0.2672246825
C  C13  1  0.71980000  0.01140000  0.99860000  1.0 0.0488787139
C  C14  1  0.62370000  0.10630000  0.98340000  1.0 0.5502537756
C  C15  1  0.62280000  0.82460000  0.95510000  1.0 -0.2605563205
C  C16  1  0.72510000  0.73470000  0.96910000  1.0 0.0488787139
C  C17  1  0.62300000  0.55720000  0.92640000  1.0 0.5440292825
C  C18  1  0.90100000  0.83560000  0.95630000  1.0 -0.2605563205
C  C19  1  0.94100000  0.76200000  0.35570000  1.0 0.0919814036
C  C20  1  0.98700000  0.84800000  0.42340000  1.0 -0.2524551879
C  C21  1  0.91800000  0.75500000  0.47340000  1.0 0.1277957764
C  C22  1  0.76300000  0.61800000  0.45060000  1.0 -0.2162845165
C  C23  1  0.69700000  0.56600000  0.38050000  1.0 0.0919814036
C  C24  1  0.97700000  0.81200000  0.54730000  1.0 -0.1169805433
C  C25  1  0.10900000  0.93200000  0.57770000  1.0 -0.1110741775
C  C26  1  0.20000000  0.00700000  0.65430000  1.0 0.1409404803
C  C27  1  0.34900000  0.16500000  0.67800000  1.0 -0.2162845165
C  C28  1  0.41400000  0.22600000  0.74730000  1.0 0.0919814036
C  C29  1  0.19400000  0.97700000  0.77420000  1.0 0.0958102364
C  C30  1  0.10300000  0.94000000  0.70270000  1.0 -0.2162845165
N  N1  1  0.78170000  0.63710000  0.33370000  1.0 -0.2252823692
N  N2  1  0.34070000  0.13700000  0.79620000  1.0 -0.2524551879
O  O1  1  0.54970000  0.66230000  0.20690000  1.0 -0.5810780655
O  O2  1  0.50780000  0.58020000  0.09310000  1.0 -0.4839716088
O  O3  1  0.54500000  0.23730000  0.26170000  1.0 -0.5878571402
O  O4  1  0.56970000  0.33480000  0.16710000  1.0 -0.5104693901
O  O5  1  0.90830000  0.67040000  0.19950000  1.0 -0.5675870906
O  O6  1  0.82320000  0.55110000  0.08750000  1.0 -0.5368589591
O  O7  1  0.29490000  0.22540000  0.03880000  1.0 -0.5325626563
O  O8  1  0.21380000  0.09420000  0.92790000  1.0 -0.5580181013
O  O9  1  0.61590000  0.19300000  0.03510000  1.0 -0.5580181013
O  O10  1  0.55400000  0.09090000  0.92410000  1.0 -0.5030745994
O  O11  1  0.55210000  0.43670000  0.96050000  1.0 -0.5368589591
O  O12  1  0.65110000  0.52200000  0.87080000  1.0 -0.5325626563
