# DDEC6 charges by PACMAN v1.1 (https://github.com/mtap-research/PACMAN-charge/)
data_GIYTIS_ASR_pacman
_symmetry_space_group_name_H-M   'P 1'
_cell_length_a   8.95080000
_cell_length_b   9.08920000
_cell_length_c   19.80200000
_cell_angle_alpha   95.64000000
_cell_angle_beta   97.68000000
_cell_angle_gamma   118.25000000
_symmetry_Int_Tables_number   1
_chemical_formula_structural   Zn3H28C30(NO6)2
_chemical_formula_sum   'Zn3 H28 C30 N2 O12'
_cell_volume   1382.10349604
_cell_formula_units_Z   1
loop_
 _symmetry_equiv_pos_site_id
 _symmetry_equiv_pos_as_xyz
  1  'x, y, z'
loop_
 _atom_site_type_symbol
 _atom_site_label
 _atom_site_symmetry_multiplicity
 _atom_site_fract_x
 _atom_site_fract_y
 _atom_site_fract_z
 _atom_site_occupancy
 _atom_site_charge
Zn  Zn1  1  0.31388000  0.44292000  0.77086000  1.0 0.8300847888
Zn  Zn2  1  0.44000000  0.61490000  0.93621000  1.0 0.9881973148
Zn  Zn3  1  0.56632000  0.78625000  0.10176000  1.0 0.8212173462
H  H1  1  0.38440000  0.99540000  0.83680000  1.0 0.1198538051
H  H2  1  0.49080000  0.06750000  0.77930000  1.0 0.1101411189
H  H3  1  0.77500000  0.07330000  0.77820000  1.0 0.1101411189
H  H4  1  0.85310000  0.00520000  0.83520000  1.0 0.1101411189
H  H5  1  0.84360000  0.45000000  0.88600000  1.0 0.1198538051
H  H6  1  0.77380000  0.34860000  0.80940000  1.0 0.1198538051
H  H7  1  0.03770000  0.77940000  0.98540000  1.0 0.1290044636
H  H8  1  0.10620000  0.87440000  0.06300000  1.0 0.1198538051
H  H9  1  0.48980000  0.23880000  0.03310000  1.0 0.1198538051
H  H10  1  0.39560000  0.17130000  0.09390000  1.0 0.1101411189
H  H11  1  0.10680000  0.15610000  0.09240000  1.0 0.1101411189
H  H12  1  0.03430000  0.22350000  0.03390000  1.0 0.1101411189
H  H13  1  0.97940000  0.20860000  0.67310000  1.0 0.1198538051
H  H14  1  0.93760000  0.03540000  0.56520000  1.0 0.1386713714
H  H15  1  0.30090000  0.44190000  0.51820000  1.0 0.1290044636
H  H16  1  0.41450000  0.52630000  0.63450000  1.0 0.1198538051
H  H17  1  0.09660000  0.25320000  0.42560000  1.0 0.1290044636
H  H18  1  0.82590000  0.00390000  0.45210000  1.0 0.1198538051
H  H19  1  0.59600000  0.77040000  0.35380000  1.0 0.1290044636
H  H20  1  0.48680000  0.66820000  0.23830000  1.0 0.1290044636
H  H21  1  0.84420000  0.10200000  0.19650000  1.0 0.1198538051
H  H22  1  0.01640000  0.12700000  0.30980000  1.0 0.1198538051
H  H23  1  0.62265000  0.96199000  0.90414000  1.0 0.0688870523
H  H24  1  0.89349000  0.23060000  0.93001000  1.0 0.0688870523
H  H25  1  0.60835000  0.22277000  0.93017000  1.0 0.0629795671
H  H26  1  0.99260000  0.00271000  0.94435000  1.0 0.0629795671
H  H27  1  0.26283000  0.27634000  0.97381000  1.0 0.0688870523
H  H28  1  0.26846000  0.99686000  0.94403000  1.0 0.0688870523
C  C1  1  0.50240000  0.33680000  0.85960000  1.0 0.5895648082
C  C2  1  0.59660000  0.23580000  0.87330000  1.0 -0.0632413558
C  C3  1  0.50020000  0.05870000  0.82800000  1.0 -0.2271939486
C  C4  1  0.60600000  0.96620000  0.84640000  1.0 -0.0689148649
C  C5  1  0.51100000  0.78640000  0.80420000  1.0 0.5895648082
C  C6  1  0.78840000  0.06460000  0.82680000  1.0 -0.2213244507
C  C7  1  0.88550000  0.24500000  0.87330000  1.0 -0.0885198608
C  C8  1  0.06380000  0.34660000  0.86150000  1.0 0.6054650426
C  C9  1  0.78290000  0.33700000  0.85780000  1.0 -0.2213244507
C  C10  1  0.81200000  0.87900000  0.01160000  1.0 0.595727253
C  C11  1  0.00070000  0.98960000  0.00120000  1.0 -0.0632413558
C  C12  1  0.09950000  0.89050000  0.01520000  1.0 -0.2213244507
C  C13  1  0.28020000  0.98860000  0.00140000  1.0 -0.0632413558
C  C14  1  0.37630000  0.89370000  0.01660000  1.0 0.5895648082
C  C15  1  0.37720000  0.17540000  0.04490000  1.0 -0.2131270706
C  C16  1  0.27490000  0.26530000  0.03090000  1.0 -0.0787321895
C  C17  1  0.37700000  0.44280000  0.07360000  1.0 0.5849670649
C  C18  1  0.09900000  0.16440000  0.04370000  1.0 -0.2131270706
C  C19  1  0.05900000  0.23800000  0.64430000  1.0 0.0931445366
C  C20  1  0.01300000  0.15200000  0.57660000  1.0 -0.2444217771
C  C21  1  0.08200000  0.24500000  0.52660000  1.0 0.1386713714
C  C22  1  0.23700000  0.38200000  0.54940000  1.0 -0.2131270706
C  C23  1  0.30300000  0.43400000  0.61950000  1.0 0.0954043672
C  C24  1  0.02300000  0.18800000  0.45270000  1.0 -0.1116573035
C  C25  1  0.89100000  0.06800000  0.42230000  1.0 -0.1045821949
C  C26  1  0.80000000  0.99300000  0.34570000  1.0 0.1386713714
C  C27  1  0.65100000  0.83500000  0.32200000  1.0 -0.2131270706
C  C28  1  0.58600000  0.77400000  0.25270000  1.0 0.0931445366
C  C29  1  0.80600000  0.02300000  0.22580000  1.0 0.0931445366
C  C30  1  0.89700000  0.06000000  0.29730000  1.0 -0.2131270706
N  N1  1  0.21830000  0.36290000  0.66630000  1.0 -0.2271939486
N  N2  1  0.65930000  0.86300000  0.20380000  1.0 -0.2512798726
O  O1  1  0.45030000  0.33770000  0.79310000  1.0 -0.5812150955
O  O2  1  0.49220000  0.41980000  0.90690000  1.0 -0.493239355
O  O3  1  0.45500000  0.76270000  0.73830000  1.0 -0.5812150955
O  O4  1  0.43030000  0.66520000  0.83290000  1.0 -0.5290916084
O  O5  1  0.09170000  0.32960000  0.80050000  1.0 -0.567634356
O  O6  1  0.17680000  0.44890000  0.91250000  1.0 -0.5464379906
O  O7  1  0.70510000  0.77460000  0.96120000  1.0 -0.5438979387
O  O8  1  0.78620000  0.90580000  0.07210000  1.0 -0.5618443608
O  O9  1  0.38410000  0.80700000  0.96490000  1.0 -0.5618443608
O  O10  1  0.44600000  0.90910000  0.07590000  1.0 -0.5061448931
O  O11  1  0.44790000  0.56330000  0.03950000  1.0 -0.567634356
O  O12  1  0.34890000  0.47800000  0.12920000  1.0 -0.5290916084
