# DDEC6 charges by PACMAN v1.1 (https://github.com/mtap-research/PACMAN-charge/)
data_GODBAF_ASR_pacman
_symmetry_space_group_name_H-M   'P 1'
_cell_length_a   14.29730000
_cell_length_b   8.96170000
_cell_length_c   25.37370000
_cell_angle_alpha   90.00000000
_cell_angle_beta   117.47300000
_cell_angle_gamma   90.00000000
_symmetry_Int_Tables_number   1
_chemical_formula_structural   EuH9C20(NO3)2
_chemical_formula_sum   'Eu4 H36 C80 N8 O24'
_cell_volume   2884.45409956
_cell_formula_units_Z   4
loop_
 _symmetry_equiv_pos_site_id
 _symmetry_equiv_pos_as_xyz
  1  'x, y, z'
loop_
 _atom_site_type_symbol
 _atom_site_label
 _atom_site_symmetry_multiplicity
 _atom_site_fract_x
 _atom_site_fract_y
 _atom_site_fract_z
 _atom_site_occupancy
 _atom_site_charge
Eu  Eu1  1  0.02332000  0.90283000  0.78301000  1.0 2.1352830806
Eu  Eu2  1  0.97668000  0.40283000  0.71699000  1.0 2.1352830806
Eu  Eu3  1  0.97668000  0.09717000  0.21699000  1.0 2.1352830806
Eu  Eu4  1  0.02332000  0.59717000  0.28301000  1.0 2.1352830806
H  H1  1  0.06060000  0.45080000  0.86810000  1.0 0.1453261653
H  H2  1  0.64870000  0.28820000  0.64310000  1.0 0.1195995899
H  H3  1  0.07850000  0.58870000  0.94940000  1.0 0.1282362321
H  H4  1  0.48970000  0.27910000  0.64220000  1.0 0.1195995899
H  H5  1  0.72620000  0.89790000  0.72600000  1.0 0.1114054134
H  H6  1  0.43710000  0.90550000  0.73880000  1.0 0.1114054134
H  H7  1  0.35410000  0.27430000  0.64210000  1.0 0.1114054134
H  H8  1  0.20510000  0.29050000  0.65280000  1.0 0.1282362321
H  H9  1  0.28630000  0.91730000  0.74890000  1.0 0.1114054134
H  H10  1  0.93940000  0.95080000  0.63190000  1.0 0.1453261653
H  H11  1  0.35130000  0.78820000  0.85690000  1.0 0.1195995899
H  H12  1  0.92150000  0.08870000  0.55060000  1.0 0.1282362321
H  H13  1  0.51030000  0.77910000  0.85780000  1.0 0.1195995899
H  H14  1  0.27380000  0.39790000  0.77400000  1.0 0.1114054134
H  H15  1  0.56290000  0.40550000  0.76120000  1.0 0.1114054134
H  H16  1  0.64590000  0.77430000  0.85790000  1.0 0.1114054134
H  H17  1  0.79490000  0.79050000  0.84720000  1.0 0.1282362321
H  H18  1  0.71370000  0.41730000  0.75110000  1.0 0.1114054134
H  H19  1  0.93940000  0.54920000  0.13190000  1.0 0.1453261653
H  H20  1  0.35130000  0.71180000  0.35690000  1.0 0.1195995899
H  H21  1  0.92150000  0.41130000  0.05060000  1.0 0.1282362321
H  H22  1  0.51030000  0.72090000  0.35780000  1.0 0.1195995899
H  H23  1  0.27380000  0.10210000  0.27400000  1.0 0.1114054134
H  H24  1  0.56290000  0.09450000  0.26120000  1.0 0.1114054134
H  H25  1  0.64590000  0.72570000  0.35790000  1.0 0.1114054134
H  H26  1  0.79490000  0.70950000  0.34720000  1.0 0.1282362321
H  H27  1  0.71370000  0.08270000  0.25110000  1.0 0.1114054134
H  H28  1  0.06060000  0.04920000  0.36810000  1.0 0.1453261653
H  H29  1  0.64870000  0.21180000  0.14310000  1.0 0.1195995899
H  H30  1  0.07850000  0.91130000  0.44940000  1.0 0.1282362321
H  H31  1  0.48970000  0.22090000  0.14220000  1.0 0.1195995899
H  H32  1  0.72620000  0.60210000  0.22600000  1.0 0.1114054134
H  H33  1  0.43710000  0.59450000  0.23880000  1.0 0.1114054134
H  H34  1  0.35410000  0.22570000  0.14210000  1.0 0.1114054134
H  H35  1  0.20510000  0.20950000  0.15280000  1.0 0.1282362321
H  H36  1  0.28630000  0.58270000  0.24890000  1.0 0.1114054134
C  C1  1  0.81350000  0.10120000  0.68790000  1.0 0.6497738415
C  C2  1  0.70560000  0.09370000  0.68490000  1.0 -0.090265704
C  C3  1  0.03030000  0.41730000  0.89140000  1.0 -0.1008856632
C  C4  1  0.97130000  0.18270000  0.83060000  1.0 0.6167719194
C  C5  1  0.41230000  0.09160000  0.69080000  1.0 0.0521037744
C  C6  1  0.97540000  0.28420000  0.87830000  1.0 -0.0418541229
C  C7  1  0.23020000  0.10790000  0.70370000  1.0 -0.0329470003
C  C8  1  0.63260000  0.20700000  0.66030000  1.0 -0.0703620782
C  C9  1  0.03970000  0.50070000  0.93980000  1.0 -0.1980271286
C  C10  1  0.51270000  0.09040000  0.68680000  1.0 0.1760441491
C  C11  1  0.99320000  0.45600000  0.97300000  1.0 0.0833688581
C  C12  1  0.53810000  0.20280000  0.66060000  1.0 -0.1761692224
C  C13  1  0.67900000  0.97660000  0.70990000  1.0 0.0607354769
C  C14  1  0.13580000  0.12020000  0.71440000  1.0 0.6497738415
C  C15  1  0.92360000  0.24460000  0.91100000  1.0 0.0022707402
C  C16  1  0.39040000  0.98430000  0.72180000  1.0 -0.1289896017
C  C17  1  0.34140000  0.20310000  0.66470000  1.0 -0.1396707317
C  C18  1  0.25200000  0.21260000  0.67080000  1.0 -0.1008856632
C  C19  1  0.30030000  0.99180000  0.72800000  1.0 -0.1008856632
C  C20  1  0.91300000  0.34300000  0.94840000  1.0 0.0908295174
C  C21  1  0.18650000  0.60120000  0.81210000  1.0 0.6497738415
C  C22  1  0.29440000  0.59370000  0.81510000  1.0 -0.090265704
C  C23  1  0.96970000  0.91730000  0.60860000  1.0 -0.090265704
C  C24  1  0.02870000  0.68270000  0.66940000  1.0 0.6167719194
C  C25  1  0.58770000  0.59160000  0.80920000  1.0 0.0521037744
C  C26  1  0.02460000  0.78420000  0.62170000  1.0 -0.0418541229
C  C27  1  0.76980000  0.60790000  0.79630000  1.0 -0.0329470003
C  C28  1  0.36740000  0.70700000  0.83970000  1.0 -0.0703620782
C  C29  1  0.96030000  0.00070000  0.56020000  1.0 -0.1980271286
C  C30  1  0.48730000  0.59040000  0.81320000  1.0 0.1760441491
C  C31  1  0.00680000  0.95600000  0.52700000  1.0 0.0833688581
C  C32  1  0.46190000  0.70280000  0.83940000  1.0 -0.1761692224
C  C33  1  0.32100000  0.47660000  0.79010000  1.0 0.0607354769
C  C34  1  0.86420000  0.62020000  0.78560000  1.0 0.6497738415
C  C35  1  0.07640000  0.74460000  0.58900000  1.0 0.0022707402
C  C36  1  0.60960000  0.48430000  0.77820000  1.0 -0.1289896017
C  C37  1  0.65860000  0.70310000  0.83530000  1.0 -0.1396707317
C  C38  1  0.74800000  0.71260000  0.82920000  1.0 -0.1008856632
C  C39  1  0.69970000  0.49180000  0.77200000  1.0 -0.1008856632
C  C40  1  0.08700000  0.84300000  0.55160000  1.0 0.0908295174
C  C41  1  0.18650000  0.89880000  0.31210000  1.0 0.6497738415
C  C42  1  0.29440000  0.90630000  0.31510000  1.0 -0.090265704
C  C43  1  0.96970000  0.58270000  0.10860000  1.0 -0.090265704
C  C44  1  0.02870000  0.81730000  0.16940000  1.0 0.6167719194
C  C45  1  0.58770000  0.90840000  0.30920000  1.0 0.0521037744
C  C46  1  0.02460000  0.71580000  0.12170000  1.0 -0.0418541229
C  C47  1  0.76980000  0.89210000  0.29630000  1.0 -0.0329470003
C  C48  1  0.36740000  0.79300000  0.33970000  1.0 -0.0703620782
C  C49  1  0.96030000  0.49930000  0.06020000  1.0 -0.1980271286
C  C50  1  0.48730000  0.90960000  0.31320000  1.0 0.1760441491
C  C51  1  0.00680000  0.54400000  0.02700000  1.0 0.0833688581
C  C52  1  0.46190000  0.79720000  0.33940000  1.0 -0.1761692224
C  C53  1  0.32100000  0.02340000  0.29010000  1.0 0.0607354769
C  C54  1  0.86420000  0.87980000  0.28560000  1.0 0.6497738415
C  C55  1  0.07640000  0.75540000  0.08900000  1.0 0.0022707402
C  C56  1  0.60960000  0.01570000  0.27820000  1.0 -0.1289896017
C  C57  1  0.65860000  0.79690000  0.33530000  1.0 -0.1396707317
C  C58  1  0.74800000  0.78740000  0.32920000  1.0 -0.1008856632
C  C59  1  0.69970000  0.00820000  0.27200000  1.0 -0.1008856632
C  C60  1  0.08700000  0.65700000  0.05160000  1.0 0.0908295174
C  C61  1  0.81350000  0.39880000  0.18790000  1.0 0.6497738415
C  C62  1  0.70560000  0.40630000  0.18490000  1.0 -0.090265704
C  C63  1  0.03030000  0.08270000  0.39140000  1.0 -0.090265704
C  C64  1  0.97130000  0.31730000  0.33060000  1.0 0.6167719194
C  C65  1  0.41230000  0.40840000  0.19080000  1.0 0.0521037744
C  C66  1  0.97540000  0.21580000  0.37830000  1.0 -0.0418541229
C  C67  1  0.23020000  0.39210000  0.20370000  1.0 -0.0329470003
C  C68  1  0.63260000  0.29300000  0.16030000  1.0 -0.0703620782
C  C69  1  0.03970000  0.99930000  0.43980000  1.0 -0.1980271286
C  C70  1  0.51270000  0.40960000  0.18680000  1.0 0.1760441491
C  C71  1  0.99320000  0.04400000  0.47300000  1.0 0.0833688581
C  C72  1  0.53810000  0.29720000  0.16060000  1.0 -0.1761692224
C  C73  1  0.67900000  0.52340000  0.20990000  1.0 0.0607354769
C  C74  1  0.13580000  0.37980000  0.21440000  1.0 0.6497738415
C  C75  1  0.92360000  0.25540000  0.41100000  1.0 0.0022707402
C  C76  1  0.39040000  0.51570000  0.22180000  1.0 -0.1289896017
C  C77  1  0.34140000  0.29690000  0.16470000  1.0 -0.1396707317
C  C78  1  0.25200000  0.28740000  0.17080000  1.0 -0.1008856632
C  C79  1  0.30030000  0.50820000  0.22800000  1.0 -0.1008856632
C  C80  1  0.91300000  0.15700000  0.44840000  1.0 0.0908295174
N  N1  1  0.58390000  0.97180000  0.71200000  1.0 -0.3096700034
N  N2  1  0.95540000  0.31610000  0.96760000  1.0 -0.0540025236
N  N3  1  0.41610000  0.47180000  0.78800000  1.0 -0.3096700034
N  N4  1  0.04460000  0.81610000  0.53240000  1.0 -0.0540025236
N  N5  1  0.41610000  0.02820000  0.28800000  1.0 -0.3096700034
N  N6  1  0.04460000  0.68390000  0.03240000  1.0 -0.0540025236
N  N7  1  0.58390000  0.52820000  0.21200000  1.0 -0.3096700034
N  N8  1  0.95540000  0.18390000  0.46760000  1.0 -0.0540025236
O  O1  1  0.93750000  0.05220000  0.82920000  1.0 -0.6250857434
O  O2  1  0.00562000  0.22360000  0.79592000  1.0 -0.6959229431
O  O3  1  0.12128000  0.01450000  0.74228000  1.0 -0.7055911741
O  O4  1  0.84074000  0.22300000  0.67534000  1.0 -0.6856152138
O  O5  1  0.07907000  0.23370000  0.69627000  1.0 -0.6773547253
O  O6  1  0.86882000  0.98490000  0.70272000  1.0 -0.6773547253
O  O7  1  0.06250000  0.55220000  0.67080000  1.0 -0.6250857434
O  O8  1  0.99438000  0.72360000  0.70408000  1.0 -0.6959229431
O  O9  1  0.87872000  0.51450000  0.75772000  1.0 -0.7055911741
O  O10  1  0.15926000  0.72300000  0.82466000  1.0 -0.6856152138
O  O11  1  0.92093000  0.73370000  0.80373000  1.0 -0.6773547253
O  O12  1  0.13118000  0.48490000  0.79728000  1.0 -0.6773547253
O  O13  1  0.06250000  0.94780000  0.17080000  1.0 -0.6250857434
O  O14  1  0.99438000  0.77640000  0.20408000  1.0 -0.6959229431
O  O15  1  0.87872000  0.98550000  0.25772000  1.0 -0.7055911741
O  O16  1  0.15926000  0.77700000  0.32466000  1.0 -0.6856152138
O  O17  1  0.92093000  0.76630000  0.30373000  1.0 -0.6773547253
O  O18  1  0.13118000  0.01510000  0.29728000  1.0 -0.6773547253
O  O19  1  0.93750000  0.44780000  0.32920000  1.0 -0.6250857434
O  O20  1  0.00562000  0.27640000  0.29592000  1.0 -0.6959229431
O  O21  1  0.12128000  0.48550000  0.24228000  1.0 -0.7055911741
O  O22  1  0.84074000  0.27700000  0.17534000  1.0 -0.6856152138
O  O23  1  0.07907000  0.26630000  0.19627000  1.0 -0.6773547253
O  O24  1  0.86882000  0.51510000  0.20272000  1.0 -0.6773547253
