# DDEC6 charges by PACMAN v1.1 (https://github.com/mtap-research/PACMAN-charge/)
data_GODNOF_ASR_pacman
_symmetry_space_group_name_H-M   'P 1'
_cell_length_a   16.73610000
_cell_length_b   19.67120000
_cell_length_c   31.37100000
_cell_angle_alpha   90.00000000
_cell_angle_beta   90.00000000
_cell_angle_gamma   90.00000000
_symmetry_Int_Tables_number   1
_chemical_formula_structural   CdH18C32(S2N3)2
_chemical_formula_sum   'Cd8 H144 C256 S32 N48'
_cell_volume   10327.93459211
_cell_formula_units_Z   8
loop_
 _symmetry_equiv_pos_site_id
 _symmetry_equiv_pos_as_xyz
  1  'x, y, z'
loop_
 _atom_site_type_symbol
 _atom_site_label
 _atom_site_symmetry_multiplicity
 _atom_site_fract_x
 _atom_site_fract_y
 _atom_site_fract_z
 _atom_site_occupancy
 _atom_site_charge
Cd  Cd1  1  0.24771000  0.24854000  0.47216000  1.0 0.7222003834
Cd  Cd2  1  0.25229000  0.25146000  0.97216000  1.0 0.7222003834
Cd  Cd3  1  0.75229000  0.24854000  0.02784000  1.0 0.7222003834
Cd  Cd4  1  0.74771000  0.25146000  0.52784000  1.0 0.7222003834
Cd  Cd5  1  0.75229000  0.75146000  0.52784000  1.0 0.7222003834
Cd  Cd6  1  0.74771000  0.74854000  0.02784000  1.0 0.7222003834
Cd  Cd7  1  0.24771000  0.75146000  0.97216000  1.0 0.7222003834
Cd  Cd8  1  0.25229000  0.74854000  0.47216000  1.0 0.7222003834
H  H1  1  0.09892000  0.29386000  0.41293000  1.0 0.0983760861
H  H2  1  0.05252000  0.37307000  0.36399000  1.0 0.1201142883
H  H3  1  0.27219000  0.45665000  0.36157000  1.0 0.1385697272
H  H4  1  0.30771000  0.37814000  0.41471000  1.0 0.0983760861
H  H5  1  0.10212000  0.53611000  0.40580000  1.0 0.131753047
H  H6  1  0.13125000  0.62227000  0.45375000  1.0 0.0983760861
H  H7  1  0.27540000  0.71203000  0.37439000  1.0 0.0915450848
H  H8  1  0.23997000  0.63700000  0.31947000  1.0 0.1385697272
H  H9  1  0.24092000  0.63757000  0.12649000  1.0 0.1385697272
H  H10  1  0.28613000  0.70525000  0.07016000  1.0 0.0983760861
H  H11  1  0.14857000  0.60739000  0.99008000  1.0 0.0983760861
H  H12  1  0.08998000  0.54673000  0.04381000  1.0 0.1385697272
H  H13  1  0.27213000  0.45158000  0.08234000  1.0 0.1385697272
H  H14  1  0.30324000  0.38375000  0.02567000  1.0 0.0915450848
H  H15  1  0.10065000  0.29188000  0.03264000  1.0 0.0983760861
H  H16  1  0.05469000  0.36479000  0.08730000  1.0 0.1201142883
H  H17  1  0.10812000  0.05971000  0.47369000  1.0 0.1085736928
H  H18  1  0.89320000  0.05859000  0.53196000  1.0 0.1085736928
H  H19  1  0.40108000  0.20614000  0.91293000  1.0 0.0983760861
H  H20  1  0.44748000  0.12693000  0.86399000  1.0 0.1201142883
H  H21  1  0.22781000  0.04335000  0.86157000  1.0 0.1385697272
H  H22  1  0.19229000  0.12186000  0.91471000  1.0 0.0983760861
H  H23  1  0.39788000  0.96389000  0.90580000  1.0 0.131753047
H  H24  1  0.36875000  0.87773000  0.95375000  1.0 0.0983760861
H  H25  1  0.22460000  0.78797000  0.87439000  1.0 0.0915450848
H  H26  1  0.26003000  0.86300000  0.81947000  1.0 0.1385697272
H  H27  1  0.25908000  0.86243000  0.62649000  1.0 0.1385697272
H  H28  1  0.21387000  0.79475000  0.57016000  1.0 0.0983760861
H  H29  1  0.35143000  0.89261000  0.49008000  1.0 0.0983760861
H  H30  1  0.41002000  0.95327000  0.54381000  1.0 0.1385697272
H  H31  1  0.22787000  0.04842000  0.58234000  1.0 0.1385697272
H  H32  1  0.19676000  0.11625000  0.52567000  1.0 0.0915450848
H  H33  1  0.39935000  0.20812000  0.53264000  1.0 0.0983760861
H  H34  1  0.44531000  0.13521000  0.58730000  1.0 0.1201142883
H  H35  1  0.39188000  0.44029000  0.97369000  1.0 0.1085736928
H  H36  1  0.60680000  0.44141000  0.03196000  1.0 0.1085736928
H  H37  1  0.90108000  0.29386000  0.08707000  1.0 0.0983760861
H  H38  1  0.94748000  0.37307000  0.13601000  1.0 0.1201142883
H  H39  1  0.72781000  0.45665000  0.13843000  1.0 0.1385697272
H  H40  1  0.69229000  0.37814000  0.08529000  1.0 0.0983760861
H  H41  1  0.89788000  0.53611000  0.09420000  1.0 0.131753047
H  H42  1  0.86875000  0.62227000  0.04625000  1.0 0.0983760861
H  H43  1  0.72460000  0.71203000  0.12561000  1.0 0.0915450848
H  H44  1  0.76003000  0.63700000  0.18053000  1.0 0.1385697272
H  H45  1  0.75908000  0.63757000  0.37351000  1.0 0.1385697272
H  H46  1  0.71387000  0.70525000  0.42984000  1.0 0.0983760861
H  H47  1  0.85143000  0.60739000  0.50992000  1.0 0.0983760861
H  H48  1  0.91002000  0.54673000  0.45619000  1.0 0.1385697272
H  H49  1  0.72787000  0.45158000  0.41766000  1.0 0.1385697272
H  H50  1  0.69676000  0.38375000  0.47433000  1.0 0.0915450848
H  H51  1  0.89935000  0.29188000  0.46736000  1.0 0.0983760861
H  H52  1  0.94531000  0.36479000  0.41270000  1.0 0.1201142883
H  H53  1  0.89188000  0.05971000  0.02631000  1.0 0.1085736928
H  H54  1  0.10680000  0.05859000  0.96804000  1.0 0.1085736928
H  H55  1  0.59892000  0.20614000  0.58707000  1.0 0.0983760861
H  H56  1  0.55252000  0.12693000  0.63601000  1.0 0.1201142883
H  H57  1  0.77219000  0.04335000  0.63843000  1.0 0.1385697272
H  H58  1  0.80771000  0.12186000  0.58529000  1.0 0.0983760861
H  H59  1  0.60212000  0.96389000  0.59420000  1.0 0.131753047
H  H60  1  0.63125000  0.87773000  0.54625000  1.0 0.0983760861
H  H61  1  0.77540000  0.78797000  0.62561000  1.0 0.0915450848
H  H62  1  0.73997000  0.86300000  0.68053000  1.0 0.1385697272
H  H63  1  0.74092000  0.86243000  0.87351000  1.0 0.1385697272
H  H64  1  0.78613000  0.79475000  0.92984000  1.0 0.0983760861
H  H65  1  0.64857000  0.89261000  0.00992000  1.0 0.0983760861
H  H66  1  0.58998000  0.95327000  0.95619000  1.0 0.1385697272
H  H67  1  0.77213000  0.04842000  0.91766000  1.0 0.1385697272
H  H68  1  0.80324000  0.11625000  0.97433000  1.0 0.0915450848
H  H69  1  0.60065000  0.20812000  0.96736000  1.0 0.0983760861
H  H70  1  0.55469000  0.13521000  0.91270000  1.0 0.1201142883
H  H71  1  0.60812000  0.44029000  0.52631000  1.0 0.1085736928
H  H72  1  0.39320000  0.44141000  0.46804000  1.0 0.1085736928
H  H73  1  0.90108000  0.70614000  0.58707000  1.0 0.0983760861
H  H74  1  0.94748000  0.62693000  0.63601000  1.0 0.1201142883
H  H75  1  0.72781000  0.54335000  0.63843000  1.0 0.1385697272
H  H76  1  0.69229000  0.62186000  0.58529000  1.0 0.0983760861
H  H77  1  0.89788000  0.46389000  0.59420000  1.0 0.131753047
H  H78  1  0.86875000  0.37773000  0.54625000  1.0 0.0983760861
H  H79  1  0.72460000  0.28797000  0.62561000  1.0 0.0915450848
H  H80  1  0.76003000  0.36300000  0.68053000  1.0 0.1385697272
H  H81  1  0.75908000  0.36243000  0.87351000  1.0 0.1385697272
H  H82  1  0.71387000  0.29475000  0.92984000  1.0 0.0983760861
H  H83  1  0.85143000  0.39261000  0.00992000  1.0 0.0983760861
H  H84  1  0.91002000  0.45327000  0.95619000  1.0 0.1385697272
H  H85  1  0.72787000  0.54842000  0.91766000  1.0 0.1385697272
H  H86  1  0.69676000  0.61625000  0.97433000  1.0 0.0915450848
H  H87  1  0.89935000  0.70812000  0.96736000  1.0 0.0983760861
H  H88  1  0.94531000  0.63521000  0.91270000  1.0 0.1201142883
H  H89  1  0.89188000  0.94029000  0.52631000  1.0 0.1085736928
H  H90  1  0.10680000  0.94141000  0.46804000  1.0 0.1085736928
H  H91  1  0.59892000  0.79386000  0.08707000  1.0 0.0983760861
H  H92  1  0.55252000  0.87307000  0.13601000  1.0 0.1201142883
H  H93  1  0.77219000  0.95665000  0.13843000  1.0 0.1385697272
H  H94  1  0.80771000  0.87814000  0.08529000  1.0 0.0983760861
H  H95  1  0.60212000  0.03611000  0.09420000  1.0 0.131753047
H  H96  1  0.63125000  0.12227000  0.04625000  1.0 0.0983760861
H  H97  1  0.77540000  0.21203000  0.12561000  1.0 0.0915450848
H  H98  1  0.73997000  0.13700000  0.18053000  1.0 0.1385697272
H  H99  1  0.74092000  0.13757000  0.37351000  1.0 0.1385697272
H  H100  1  0.78613000  0.20525000  0.42984000  1.0 0.0983760861
H  H101  1  0.64857000  0.10739000  0.50992000  1.0 0.0983760861
H  H102  1  0.58998000  0.04673000  0.45619000  1.0 0.1385697272
H  H103  1  0.77213000  0.95158000  0.41766000  1.0 0.1385697272
H  H104  1  0.80324000  0.88375000  0.47433000  1.0 0.0915450848
H  H105  1  0.60065000  0.79188000  0.46736000  1.0 0.0983760861
H  H106  1  0.55469000  0.86479000  0.41270000  1.0 0.1201142883
H  H107  1  0.60812000  0.55971000  0.02631000  1.0 0.1085736928
H  H108  1  0.39320000  0.55859000  0.96804000  1.0 0.1085736928
H  H109  1  0.09892000  0.70614000  0.91293000  1.0 0.0983760861
H  H110  1  0.05252000  0.62693000  0.86399000  1.0 0.1201142883
H  H111  1  0.27219000  0.54335000  0.86157000  1.0 0.1385697272
H  H112  1  0.30771000  0.62186000  0.91471000  1.0 0.0983760861
H  H113  1  0.10212000  0.46389000  0.90580000  1.0 0.131753047
H  H114  1  0.13125000  0.37773000  0.95375000  1.0 0.0983760861
H  H115  1  0.27540000  0.28797000  0.87439000  1.0 0.0915450848
H  H116  1  0.23997000  0.36300000  0.81947000  1.0 0.1385697272
H  H117  1  0.24092000  0.36243000  0.62649000  1.0 0.1385697272
H  H118  1  0.28613000  0.29475000  0.57016000  1.0 0.0983760861
H  H119  1  0.14857000  0.39261000  0.49008000  1.0 0.0983760861
H  H120  1  0.08998000  0.45327000  0.54381000  1.0 0.1385697272
H  H121  1  0.27213000  0.54842000  0.58234000  1.0 0.1385697272
H  H122  1  0.30324000  0.61625000  0.52567000  1.0 0.0915450848
H  H123  1  0.10065000  0.70812000  0.53264000  1.0 0.0983760861
H  H124  1  0.05469000  0.63521000  0.58730000  1.0 0.1201142883
H  H125  1  0.10812000  0.94029000  0.97369000  1.0 0.1085736928
H  H126  1  0.89320000  0.94141000  0.03196000  1.0 0.1085736928
H  H127  1  0.40108000  0.79386000  0.41293000  1.0 0.0983760861
H  H128  1  0.44748000  0.87307000  0.36399000  1.0 0.1201142883
H  H129  1  0.22781000  0.95665000  0.36157000  1.0 0.1385697272
H  H130  1  0.19229000  0.87814000  0.41471000  1.0 0.0983760861
H  H131  1  0.39788000  0.03611000  0.40580000  1.0 0.131753047
H  H132  1  0.36875000  0.12227000  0.45375000  1.0 0.0983760861
H  H133  1  0.22460000  0.21203000  0.37439000  1.0 0.0915450848
H  H134  1  0.26003000  0.13700000  0.31947000  1.0 0.1385697272
H  H135  1  0.25908000  0.13757000  0.12649000  1.0 0.1385697272
H  H136  1  0.21387000  0.20525000  0.07016000  1.0 0.0983760861
H  H137  1  0.35143000  0.10739000  0.99008000  1.0 0.0983760861
H  H138  1  0.41002000  0.04673000  0.04381000  1.0 0.1385697272
H  H139  1  0.22787000  0.95158000  0.08234000  1.0 0.1385697272
H  H140  1  0.19676000  0.88375000  0.02567000  1.0 0.0915450848
H  H141  1  0.39935000  0.79188000  0.03264000  1.0 0.0983760861
H  H142  1  0.44531000  0.86479000  0.08730000  1.0 0.1201142883
H  H143  1  0.39188000  0.55971000  0.47369000  1.0 0.1085736928
H  H144  1  0.60680000  0.55859000  0.53196000  1.0 0.1085736928
C  C1  1  0.13480000  0.32790000  0.40320000  1.0 0.0915450848
C  C2  1  0.10690000  0.37420000  0.37260000  1.0 -0.2209786391
C  C3  1  0.15660000  0.42010000  0.35540000  1.0 0.131753047
C  C4  1  0.23500000  0.42390000  0.37160000  1.0 -0.1975730434
C  C5  1  0.25510000  0.37640000  0.40340000  1.0 0.0495535157
C  C6  1  0.13270000  0.46500000  0.32070000  1.0 -0.0689081583
C  C7  1  0.13670000  0.53350000  0.32000000  1.0 -0.0785083501
C  C8  1  0.16530000  0.57890000  0.35580000  1.0 0.1385697272
C  C9  1  0.13590000  0.57280000  0.39790000  1.0 -0.1975730434
C  C10  1  0.15780000  0.62160000  0.42700000  1.0 0.0495535157
C  C11  1  0.24040000  0.67540000  0.38080000  1.0 0.1085736928
C  C12  1  0.21860000  0.63110000  0.34730000  1.0 -0.2209786391
C  C13  1  0.09890000  0.50120000  0.24350000  1.0 -0.1024297131
C  C14  1  0.09730000  0.50120000  0.20090000  1.0 -0.1024297131
C  C15  1  0.14060000  0.53410000  0.12450000  1.0 -0.0689081583
C  C16  1  0.16590000  0.58040000  0.08980000  1.0 0.1201142883
C  C17  1  0.22080000  0.63090000  0.09850000  1.0 -0.2126135789
C  C18  1  0.24610000  0.67230000  0.06440000  1.0 0.1085736928
C  C19  1  0.16460000  0.61610000  0.01860000  1.0 0.0220043368
C  C20  1  0.13330000  0.57650000  0.04960000  1.0 -0.1905224277
C  C21  1  0.13550000  0.46650000  0.12470000  1.0 -0.0785083501
C  C22  1  0.16440000  0.42140000  0.09030000  1.0 0.1201142883
C  C23  1  0.23280000  0.42060000  0.07240000  1.0 -0.1700193351
C  C24  1  0.25310000  0.37720000  0.03930000  1.0 0.0699577229
C  C25  1  0.13600000  0.32580000  0.04310000  1.0 0.0495535157
C  C26  1  0.10690000  0.36900000  0.07570000  1.0 -0.2637800156
C  C27  1  0.06530000  0.18140000  0.48440000  1.0 0.2868828596
C  C28  1  0.99950000  0.14750000  0.50270000  1.0 -0.2126135789
C  C29  1  0.93530000  0.18430000  0.51580000  1.0 0.265251548
C  C30  1  0.00060000  0.07180000  0.49980000  1.0 0.0983760861
C  C31  1  0.06290000  0.03550000  0.48390000  1.0 -0.1700193351
C  C32  1  0.93600000  0.03530000  0.51840000  1.0 -0.1782926424
C  C33  1  0.36520000  0.17210000  0.90320000  1.0 0.0915450848
C  C34  1  0.39310000  0.12580000  0.87260000  1.0 -0.2209786391
C  C35  1  0.34340000  0.07990000  0.85540000  1.0 0.131753047
C  C36  1  0.26500000  0.07610000  0.87160000  1.0 -0.1975730434
C  C37  1  0.24490000  0.12360000  0.90340000  1.0 0.0495535157
C  C38  1  0.36730000  0.03500000  0.82070000  1.0 -0.0689081583
C  C39  1  0.36330000  0.96650000  0.82000000  1.0 -0.0785083501
C  C40  1  0.33470000  0.92110000  0.85580000  1.0 0.1385697272
C  C41  1  0.36410000  0.92720000  0.89790000  1.0 -0.1975730434
C  C42  1  0.34220000  0.87840000  0.92700000  1.0 0.0495535157
C  C43  1  0.25960000  0.82460000  0.88080000  1.0 0.1085736928
C  C44  1  0.28140000  0.86890000  0.84730000  1.0 -0.2209786391
C  C45  1  0.40110000  0.99880000  0.74350000  1.0 -0.1024297131
C  C46  1  0.40270000  0.99880000  0.70090000  1.0 -0.1024297131
C  C47  1  0.35940000  0.96590000  0.62450000  1.0 -0.0689081583
C  C48  1  0.33410000  0.91960000  0.58980000  1.0 0.1201142883
C  C49  1  0.27920000  0.86910000  0.59850000  1.0 -0.2126135789
C  C50  1  0.25390000  0.82770000  0.56440000  1.0 0.1085736928
C  C51  1  0.33540000  0.88390000  0.51860000  1.0 0.0220043368
C  C52  1  0.36670000  0.92350000  0.54960000  1.0 -0.1905224277
C  C53  1  0.36450000  0.03350000  0.62470000  1.0 -0.0785083501
C  C54  1  0.33560000  0.07860000  0.59030000  1.0 0.1201142883
C  C55  1  0.26720000  0.07940000  0.57240000  1.0 -0.1700193351
C  C56  1  0.24690000  0.12280000  0.53930000  1.0 0.0699577229
C  C57  1  0.36400000  0.17420000  0.54310000  1.0 0.0495535157
C  C58  1  0.39310000  0.13100000  0.57570000  1.0 -0.2637800156
C  C59  1  0.43470000  0.31860000  0.98440000  1.0 0.2868828596
C  C60  1  0.50050000  0.35250000  0.00270000  1.0 -0.2126135789
C  C61  1  0.56470000  0.31570000  0.01580000  1.0 0.265251548
C  C62  1  0.49940000  0.42820000  0.99980000  1.0 0.0983760861
C  C63  1  0.43710000  0.46450000  0.98390000  1.0 -0.1700193351
C  C64  1  0.56400000  0.46470000  0.01840000  1.0 -0.1782926424
C  C65  1  0.86520000  0.32790000  0.09680000  1.0 0.0915450848
C  C66  1  0.89310000  0.37420000  0.12740000  1.0 -0.2209786391
C  C67  1  0.84340000  0.42010000  0.14460000  1.0 0.131753047
C  C68  1  0.76500000  0.42390000  0.12840000  1.0 -0.1975730434
C  C69  1  0.74490000  0.37640000  0.09660000  1.0 0.0495535157
C  C70  1  0.86730000  0.46500000  0.17930000  1.0 -0.0689081583
C  C71  1  0.86330000  0.53350000  0.18000000  1.0 -0.0785083501
C  C72  1  0.83470000  0.57890000  0.14420000  1.0 0.1385697272
C  C73  1  0.86410000  0.57280000  0.10210000  1.0 -0.1975730434
C  C74  1  0.84220000  0.62160000  0.07300000  1.0 0.0495535157
C  C75  1  0.75960000  0.67540000  0.11920000  1.0 0.1085736928
C  C76  1  0.78140000  0.63110000  0.15270000  1.0 -0.2209786391
C  C77  1  0.90110000  0.50120000  0.25650000  1.0 -0.1024297131
C  C78  1  0.90270000  0.50120000  0.29910000  1.0 -0.1024297131
C  C79  1  0.85940000  0.53410000  0.37550000  1.0 -0.0689081583
C  C80  1  0.83410000  0.58040000  0.41020000  1.0 0.1201142883
C  C81  1  0.77920000  0.63090000  0.40150000  1.0 -0.2126135789
C  C82  1  0.75390000  0.67230000  0.43560000  1.0 0.1085736928
C  C83  1  0.83540000  0.61610000  0.48140000  1.0 0.0220043368
C  C84  1  0.86670000  0.57650000  0.45040000  1.0 -0.1905224277
C  C85  1  0.86450000  0.46650000  0.37530000  1.0 -0.0785083501
C  C86  1  0.83560000  0.42140000  0.40970000  1.0 0.1201142883
C  C87  1  0.76720000  0.42060000  0.42760000  1.0 -0.1700193351
C  C88  1  0.74690000  0.37720000  0.46070000  1.0 0.0699577229
C  C89  1  0.86400000  0.32580000  0.45690000  1.0 0.0495535157
C  C90  1  0.89310000  0.36900000  0.42430000  1.0 -0.2637800156
C  C91  1  0.93470000  0.18140000  0.01560000  1.0 0.2868828596
C  C92  1  0.00050000  0.14750000  0.99730000  1.0 -0.2126135789
C  C93  1  0.06470000  0.18430000  0.98420000  1.0 0.265251548
C  C94  1  0.99940000  0.07180000  0.00020000  1.0 0.0983760861
C  C95  1  0.93710000  0.03550000  0.01610000  1.0 -0.1700193351
C  C96  1  0.06400000  0.03530000  0.98160000  1.0 -0.1782926424
C  C97  1  0.63480000  0.17210000  0.59680000  1.0 0.0915450848
C  C98  1  0.60690000  0.12580000  0.62740000  1.0 -0.2209786391
C  C99  1  0.65660000  0.07990000  0.64460000  1.0 0.131753047
C  C100  1  0.73500000  0.07610000  0.62840000  1.0 -0.1975730434
C  C101  1  0.75510000  0.12360000  0.59660000  1.0 0.0495535157
C  C102  1  0.63270000  0.03500000  0.67930000  1.0 -0.0689081583
C  C103  1  0.63670000  0.96650000  0.68000000  1.0 -0.0785083501
C  C104  1  0.66530000  0.92110000  0.64420000  1.0 0.1385697272
C  C105  1  0.63590000  0.92720000  0.60210000  1.0 -0.1975730434
C  C106  1  0.65780000  0.87840000  0.57300000  1.0 0.0495535157
C  C107  1  0.74040000  0.82460000  0.61920000  1.0 0.1085736928
C  C108  1  0.71860000  0.86890000  0.65270000  1.0 -0.2209786391
C  C109  1  0.59890000  0.99880000  0.75650000  1.0 -0.1024297131
C  C110  1  0.59730000  0.99880000  0.79910000  1.0 -0.1024297131
C  C111  1  0.64060000  0.96590000  0.87550000  1.0 -0.0689081583
C  C112  1  0.66590000  0.91960000  0.91020000  1.0 0.1201142883
C  C113  1  0.72080000  0.86910000  0.90150000  1.0 -0.2126135789
C  C114  1  0.74610000  0.82770000  0.93560000  1.0 0.1085736928
C  C115  1  0.66460000  0.88390000  0.98140000  1.0 0.0220043368
C  C116  1  0.63330000  0.92350000  0.95040000  1.0 -0.1905224277
C  C117  1  0.63550000  0.03350000  0.87530000  1.0 -0.0785083501
C  C118  1  0.66440000  0.07860000  0.90970000  1.0 0.1201142883
C  C119  1  0.73280000  0.07940000  0.92760000  1.0 -0.1700193351
C  C120  1  0.75310000  0.12280000  0.96070000  1.0 0.0699577229
C  C121  1  0.63600000  0.17420000  0.95690000  1.0 0.0495535157
C  C122  1  0.60690000  0.13100000  0.92430000  1.0 -0.2637800156
C  C123  1  0.56530000  0.31860000  0.51560000  1.0 0.2868828596
C  C124  1  0.49950000  0.35250000  0.49730000  1.0 -0.2126135789
C  C125  1  0.43530000  0.31570000  0.48420000  1.0 0.265251548
C  C126  1  0.50060000  0.42820000  0.50020000  1.0 0.0983760861
C  C127  1  0.56290000  0.46450000  0.51610000  1.0 -0.1700193351
C  C128  1  0.43600000  0.46470000  0.48160000  1.0 -0.1782926424
C  C129  1  0.86520000  0.67210000  0.59680000  1.0 0.0915450848
C  C130  1  0.89310000  0.62580000  0.62740000  1.0 -0.2209786391
C  C131  1  0.84340000  0.57990000  0.64460000  1.0 0.131753047
C  C132  1  0.76500000  0.57610000  0.62840000  1.0 -0.1975730434
C  C133  1  0.74490000  0.62360000  0.59660000  1.0 0.0495535157
C  C134  1  0.86730000  0.53500000  0.67930000  1.0 -0.0689081583
C  C135  1  0.86330000  0.46650000  0.68000000  1.0 -0.0785083501
C  C136  1  0.83470000  0.42110000  0.64420000  1.0 0.1385697272
C  C137  1  0.86410000  0.42720000  0.60210000  1.0 -0.1975730434
C  C138  1  0.84220000  0.37840000  0.57300000  1.0 0.0495535157
C  C139  1  0.75960000  0.32460000  0.61920000  1.0 0.1085736928
C  C140  1  0.78140000  0.36890000  0.65270000  1.0 -0.2209786391
C  C141  1  0.90110000  0.49880000  0.75650000  1.0 -0.1024297131
C  C142  1  0.90270000  0.49880000  0.79910000  1.0 -0.1024297131
C  C143  1  0.85940000  0.46590000  0.87550000  1.0 -0.0689081583
C  C144  1  0.83410000  0.41960000  0.91020000  1.0 0.1201142883
C  C145  1  0.77920000  0.36910000  0.90150000  1.0 -0.2126135789
C  C146  1  0.75390000  0.32770000  0.93560000  1.0 0.1085736928
C  C147  1  0.83540000  0.38390000  0.98140000  1.0 0.0220043368
C  C148  1  0.86670000  0.42350000  0.95040000  1.0 -0.1905224277
C  C149  1  0.86450000  0.53350000  0.87530000  1.0 -0.0785083501
C  C150  1  0.83560000  0.57860000  0.90970000  1.0 0.1201142883
C  C151  1  0.76720000  0.57940000  0.92760000  1.0 -0.1700193351
C  C152  1  0.74690000  0.62280000  0.96070000  1.0 0.0699577229
C  C153  1  0.86400000  0.67420000  0.95690000  1.0 0.0495535157
C  C154  1  0.89310000  0.63100000  0.92430000  1.0 -0.2637800156
C  C155  1  0.93470000  0.81860000  0.51560000  1.0 0.2868828596
C  C156  1  0.00050000  0.85250000  0.49730000  1.0 -0.2126135789
C  C157  1  0.06470000  0.81570000  0.48420000  1.0 0.265251548
C  C158  1  0.99940000  0.92820000  0.50020000  1.0 0.0983760861
C  C159  1  0.93710000  0.96450000  0.51610000  1.0 -0.1700193351
C  C160  1  0.06400000  0.96470000  0.48160000  1.0 -0.1782926424
C  C161  1  0.63480000  0.82790000  0.09680000  1.0 0.0915450848
C  C162  1  0.60690000  0.87420000  0.12740000  1.0 -0.2209786391
C  C163  1  0.65660000  0.92010000  0.14460000  1.0 0.131753047
C  C164  1  0.73500000  0.92390000  0.12840000  1.0 -0.1975730434
C  C165  1  0.75510000  0.87640000  0.09660000  1.0 0.0495535157
C  C166  1  0.63270000  0.96500000  0.17930000  1.0 -0.0689081583
C  C167  1  0.63670000  0.03350000  0.18000000  1.0 -0.0785083501
C  C168  1  0.66530000  0.07890000  0.14420000  1.0 0.1385697272
C  C169  1  0.63590000  0.07280000  0.10210000  1.0 -0.1975730434
C  C170  1  0.65780000  0.12160000  0.07300000  1.0 0.0495535157
C  C171  1  0.74040000  0.17540000  0.11920000  1.0 0.1085736928
C  C172  1  0.71860000  0.13110000  0.15270000  1.0 -0.2209786391
C  C173  1  0.59890000  0.00120000  0.25650000  1.0 -0.1024297131
C  C174  1  0.59730000  0.00120000  0.29910000  1.0 -0.1024297131
C  C175  1  0.64060000  0.03410000  0.37550000  1.0 -0.0689081583
C  C176  1  0.66590000  0.08040000  0.41020000  1.0 0.1201142883
C  C177  1  0.72080000  0.13090000  0.40150000  1.0 -0.2126135789
C  C178  1  0.74610000  0.17230000  0.43560000  1.0 0.1085736928
C  C179  1  0.66460000  0.11610000  0.48140000  1.0 0.0220043368
C  C180  1  0.63330000  0.07650000  0.45040000  1.0 -0.1905224277
C  C181  1  0.63550000  0.96650000  0.37530000  1.0 -0.0785083501
C  C182  1  0.66440000  0.92140000  0.40970000  1.0 0.1201142883
C  C183  1  0.73280000  0.92060000  0.42760000  1.0 -0.1700193351
C  C184  1  0.75310000  0.87720000  0.46070000  1.0 0.0699577229
C  C185  1  0.63600000  0.82580000  0.45690000  1.0 0.0495535157
C  C186  1  0.60690000  0.86900000  0.42430000  1.0 -0.2637800156
C  C187  1  0.56530000  0.68140000  0.01560000  1.0 0.2868828596
C  C188  1  0.49950000  0.64750000  0.99730000  1.0 -0.2126135789
C  C189  1  0.43530000  0.68430000  0.98420000  1.0 0.265251548
C  C190  1  0.50060000  0.57180000  0.00020000  1.0 0.0983760861
C  C191  1  0.56290000  0.53550000  0.01610000  1.0 -0.1700193351
C  C192  1  0.43600000  0.53530000  0.98160000  1.0 -0.1782926424
C  C193  1  0.13480000  0.67210000  0.90320000  1.0 0.0915450848
C  C194  1  0.10690000  0.62580000  0.87260000  1.0 -0.2209786391
C  C195  1  0.15660000  0.57990000  0.85540000  1.0 0.131753047
C  C196  1  0.23500000  0.57610000  0.87160000  1.0 -0.1975730434
C  C197  1  0.25510000  0.62360000  0.90340000  1.0 0.0495535157
C  C198  1  0.13270000  0.53500000  0.82070000  1.0 -0.0689081583
C  C199  1  0.13670000  0.46650000  0.82000000  1.0 -0.0785083501
C  C200  1  0.16530000  0.42110000  0.85580000  1.0 0.1385697272
C  C201  1  0.13590000  0.42720000  0.89790000  1.0 -0.1975730434
C  C202  1  0.15780000  0.37840000  0.92700000  1.0 0.0495535157
C  C203  1  0.24040000  0.32460000  0.88080000  1.0 0.1085736928
C  C204  1  0.21860000  0.36890000  0.84730000  1.0 -0.2209786391
C  C205  1  0.09890000  0.49880000  0.74350000  1.0 -0.1024297131
C  C206  1  0.09730000  0.49880000  0.70090000  1.0 -0.1024297131
C  C207  1  0.14060000  0.46590000  0.62450000  1.0 -0.0689081583
C  C208  1  0.16590000  0.41960000  0.58980000  1.0 0.1201142883
C  C209  1  0.22080000  0.36910000  0.59850000  1.0 -0.2126135789
C  C210  1  0.24610000  0.32770000  0.56440000  1.0 0.1085736928
C  C211  1  0.16460000  0.38390000  0.51860000  1.0 0.0220043368
C  C212  1  0.13330000  0.42350000  0.54960000  1.0 -0.1905224277
C  C213  1  0.13550000  0.53350000  0.62470000  1.0 -0.0785083501
C  C214  1  0.16440000  0.57860000  0.59030000  1.0 0.1201142883
C  C215  1  0.23280000  0.57940000  0.57240000  1.0 -0.1700193351
C  C216  1  0.25310000  0.62280000  0.53930000  1.0 0.0699577229
C  C217  1  0.13600000  0.67420000  0.54310000  1.0 0.0495535157
C  C218  1  0.10690000  0.63100000  0.57570000  1.0 -0.2637800156
C  C219  1  0.06530000  0.81860000  0.98440000  1.0 0.2868828596
C  C220  1  0.99950000  0.85250000  0.00270000  1.0 -0.2126135789
C  C221  1  0.93530000  0.81570000  0.01580000  1.0 0.265251548
C  C222  1  0.00060000  0.92820000  0.99980000  1.0 0.0983760861
C  C223  1  0.06290000  0.96450000  0.98390000  1.0 -0.1700193351
C  C224  1  0.93600000  0.96470000  0.01840000  1.0 -0.1782926424
C  C225  1  0.36520000  0.82790000  0.40320000  1.0 0.0915450848
C  C226  1  0.39310000  0.87420000  0.37260000  1.0 -0.2209786391
C  C227  1  0.34340000  0.92010000  0.35540000  1.0 0.131753047
C  C228  1  0.26500000  0.92390000  0.37160000  1.0 -0.1975730434
C  C229  1  0.24490000  0.87640000  0.40340000  1.0 0.0495535157
C  C230  1  0.36730000  0.96500000  0.32070000  1.0 -0.0689081583
C  C231  1  0.36330000  0.03350000  0.32000000  1.0 -0.0785083501
C  C232  1  0.33470000  0.07890000  0.35580000  1.0 0.1385697272
C  C233  1  0.36410000  0.07280000  0.39790000  1.0 -0.1975730434
C  C234  1  0.34220000  0.12160000  0.42700000  1.0 0.0495535157
C  C235  1  0.25960000  0.17540000  0.38080000  1.0 0.1085736928
C  C236  1  0.28140000  0.13110000  0.34730000  1.0 -0.2209786391
C  C237  1  0.40110000  0.00120000  0.24350000  1.0 -0.1024297131
C  C238  1  0.40270000  0.00120000  0.20090000  1.0 -0.1024297131
C  C239  1  0.35940000  0.03410000  0.12450000  1.0 -0.0689081583
C  C240  1  0.33410000  0.08040000  0.08980000  1.0 0.1201142883
C  C241  1  0.27920000  0.13090000  0.09850000  1.0 -0.2126135789
C  C242  1  0.25390000  0.17230000  0.06440000  1.0 0.1085736928
C  C243  1  0.33540000  0.11610000  0.01860000  1.0 0.0220043368
C  C244  1  0.36670000  0.07650000  0.04960000  1.0 -0.1905224277
C  C245  1  0.36450000  0.96650000  0.12470000  1.0 -0.0785083501
C  C246  1  0.33560000  0.92140000  0.09030000  1.0 0.1201142883
C  C247  1  0.26720000  0.92060000  0.07240000  1.0 -0.1700193351
C  C248  1  0.24690000  0.87720000  0.03930000  1.0 0.0699577229
C  C249  1  0.36400000  0.82580000  0.04310000  1.0 0.0495535157
C  C250  1  0.39310000  0.86900000  0.07570000  1.0 -0.2637800156
C  C251  1  0.43470000  0.68140000  0.48440000  1.0 0.2868828596
C  C252  1  0.50050000  0.64750000  0.50270000  1.0 -0.2126135789
C  C253  1  0.56470000  0.68430000  0.51580000  1.0 0.265251548
C  C254  1  0.49940000  0.57180000  0.49980000  1.0 0.0983760861
C  C255  1  0.43710000  0.53550000  0.48390000  1.0 -0.1700193351
C  C256  1  0.56400000  0.53530000  0.51840000  1.0 -0.1782926424
S  S1  1  0.09687000  0.42606000  0.27377000  1.0 0.0495535157
S  S2  1  0.10323000  0.57567000  0.27347000  1.0 0.0567686678
S  S3  1  0.10179000  0.57632000  0.17075000  1.0 0.0257100996
S  S4  1  0.09588000  0.42705000  0.16930000  1.0 0.0495535157
S  S5  1  0.40313000  0.07394000  0.77377000  1.0 0.0495535157
S  S6  1  0.39677000  0.92433000  0.77347000  1.0 0.0567686678
S  S7  1  0.39821000  0.92368000  0.67075000  1.0 0.0257100996
S  S8  1  0.40412000  0.07295000  0.66930000  1.0 0.0495535157
S  S9  1  0.90313000  0.42606000  0.22623000  1.0 0.0495535157
S  S10  1  0.89677000  0.57567000  0.22653000  1.0 0.0567686678
S  S11  1  0.89821000  0.57632000  0.32925000  1.0 0.0257100996
S  S12  1  0.90412000  0.42705000  0.33070000  1.0 0.0495535157
S  S13  1  0.59687000  0.07394000  0.72623000  1.0 0.0495535157
S  S14  1  0.60323000  0.92433000  0.72653000  1.0 0.0567686678
S  S15  1  0.60179000  0.92368000  0.82925000  1.0 0.0257100996
S  S16  1  0.59588000  0.07295000  0.83070000  1.0 0.0495535157
S  S17  1  0.90313000  0.57394000  0.72623000  1.0 0.0495535157
S  S18  1  0.89677000  0.42433000  0.72653000  1.0 0.0567686678
S  S19  1  0.89821000  0.42368000  0.82925000  1.0 0.0257100996
S  S20  1  0.90412000  0.57295000  0.83070000  1.0 0.0495535157
S  S21  1  0.59687000  0.92606000  0.22623000  1.0 0.0495535157
S  S22  1  0.60323000  0.07567000  0.22653000  1.0 0.0567686678
S  S23  1  0.60179000  0.07632000  0.32925000  1.0 0.0257100996
S  S24  1  0.59588000  0.92705000  0.33070000  1.0 0.0495535157
S  S25  1  0.09687000  0.57394000  0.77377000  1.0 0.0495535157
S  S26  1  0.10323000  0.42433000  0.77347000  1.0 0.0567686678
S  S27  1  0.10179000  0.42368000  0.67075000  1.0 0.0257100996
S  S28  1  0.09588000  0.57295000  0.66930000  1.0 0.0495535157
S  S29  1  0.40313000  0.92606000  0.27377000  1.0 0.0495535157
S  S30  1  0.39677000  0.07567000  0.27347000  1.0 0.0567686678
S  S31  1  0.39821000  0.07632000  0.17075000  1.0 0.0257100996
S  S32  1  0.40412000  0.92705000  0.16930000  1.0 0.0495535157
N  N1  1  0.20500000  0.32860000  0.41890000  1.0 -0.2381599164
N  N2  1  0.21560000  0.66920000  0.41950000  1.0 -0.2319700969
N  N3  1  0.21870000  0.66870000  0.02550000  1.0 -0.2533858596
N  N4  1  0.20810000  0.32850000  0.02580000  1.0 -0.2319700969
N  N5  1  0.12030000  0.20700000  0.47420000  1.0 -0.4703892833
N  N6  1  0.87730000  0.21100000  0.53110000  1.0 -0.5089554591
N  N7  1  0.29500000  0.17140000  0.91890000  1.0 -0.2381599164
N  N8  1  0.28440000  0.83080000  0.91950000  1.0 -0.2319700969
N  N9  1  0.28130000  0.83130000  0.52550000  1.0 -0.2533858596
N  N10  1  0.29190000  0.17150000  0.52580000  1.0 -0.2319700969
N  N11  1  0.37970000  0.29300000  0.97420000  1.0 -0.4703892833
N  N12  1  0.62270000  0.28900000  0.03110000  1.0 -0.5089554591
N  N13  1  0.79500000  0.32860000  0.08110000  1.0 -0.2381599164
N  N14  1  0.78440000  0.66920000  0.08050000  1.0 -0.2319700969
N  N15  1  0.78130000  0.66870000  0.47450000  1.0 -0.2533858596
N  N16  1  0.79190000  0.32850000  0.47420000  1.0 -0.2319700969
N  N17  1  0.87970000  0.20700000  0.02580000  1.0 -0.4703892833
N  N18  1  0.12270000  0.21100000  0.96890000  1.0 -0.5089554591
N  N19  1  0.70500000  0.17140000  0.58110000  1.0 -0.2381599164
N  N20  1  0.71560000  0.83080000  0.58050000  1.0 -0.2319700969
N  N21  1  0.71870000  0.83130000  0.97450000  1.0 -0.2533858596
N  N22  1  0.70810000  0.17150000  0.97420000  1.0 -0.2319700969
N  N23  1  0.62030000  0.29300000  0.52580000  1.0 -0.4703892833
N  N24  1  0.37730000  0.28900000  0.46890000  1.0 -0.5089554591
N  N25  1  0.79500000  0.67140000  0.58110000  1.0 -0.2381599164
N  N26  1  0.78440000  0.33080000  0.58050000  1.0 -0.2319700969
N  N27  1  0.78130000  0.33130000  0.97450000  1.0 -0.2533858596
N  N28  1  0.79190000  0.67150000  0.97420000  1.0 -0.2319700969
N  N29  1  0.87970000  0.79300000  0.52580000  1.0 -0.4703892833
N  N30  1  0.12270000  0.78900000  0.46890000  1.0 -0.5089554591
N  N31  1  0.70500000  0.82860000  0.08110000  1.0 -0.2381599164
N  N32  1  0.71560000  0.16920000  0.08050000  1.0 -0.2319700969
N  N33  1  0.71870000  0.16870000  0.47450000  1.0 -0.2533858596
N  N34  1  0.70810000  0.82850000  0.47420000  1.0 -0.2319700969
N  N35  1  0.62030000  0.70700000  0.02580000  1.0 -0.4703892833
N  N36  1  0.37730000  0.71100000  0.96890000  1.0 -0.5089554591
N  N37  1  0.20500000  0.67140000  0.91890000  1.0 -0.2381599164
N  N38  1  0.21560000  0.33080000  0.91950000  1.0 -0.2319700969
N  N39  1  0.21870000  0.33130000  0.52550000  1.0 -0.2533858596
N  N40  1  0.20810000  0.67150000  0.52580000  1.0 -0.2319700969
N  N41  1  0.12030000  0.79300000  0.97420000  1.0 -0.4703892833
N  N42  1  0.87730000  0.78900000  0.03110000  1.0 -0.5089554591
N  N43  1  0.29500000  0.82860000  0.41890000  1.0 -0.2381599164
N  N44  1  0.28440000  0.16920000  0.41950000  1.0 -0.2319700969
N  N45  1  0.28130000  0.16870000  0.02550000  1.0 -0.2533858596
N  N46  1  0.29190000  0.82850000  0.02580000  1.0 -0.2319700969
N  N47  1  0.37970000  0.70700000  0.47420000  1.0 -0.4703892833
N  N48  1  0.62270000  0.71100000  0.53110000  1.0 -0.5089554591
