# DDEC6 charges by PACMAN v1.1 (https://github.com/mtap-research/PACMAN-charge/)
data_GODNEV_FSR_pacman
_symmetry_space_group_name_H-M   'P 1'
_cell_length_a   12.54240000
_cell_length_b   12.54240000
_cell_length_c   15.49650000
_cell_angle_alpha   80.22150000
_cell_angle_beta   99.77850000
_cell_angle_gamma   78.50040000
_symmetry_Int_Tables_number   1
_chemical_formula_structural   ZnH34C48(S2N3)2
_chemical_formula_sum   'Zn2 H68 C96 S8 N12'
_cell_volume   2301.17187533
_cell_formula_units_Z   2
loop_
 _symmetry_equiv_pos_site_id
 _symmetry_equiv_pos_as_xyz
  1  'x, y, z'
loop_
 _atom_site_type_symbol
 _atom_site_label
 _atom_site_symmetry_multiplicity
 _atom_site_fract_x
 _atom_site_fract_y
 _atom_site_fract_z
 _atom_site_occupancy
 _atom_site_charge
Zn  Zn1  1  0.50000000  0.00000000  0.00000000  1.0 0.5657253732
Zn  Zn2  1  0.00000000  0.50000000  0.00000000  1.0 0.5657253732
H  H1  1  0.86514000  0.01972000  0.19541000  1.0 0.0993608803
H  H2  1  0.74710000  0.97066000  0.08607000  1.0 0.0719207192
H  H3  1  0.48357000  0.12339000  0.15646000  1.0 0.0719207192
H  H4  1  0.59076000  0.16040000  0.27733000  1.0 0.1083001172
H  H5  1  0.87880000  0.00086000  0.90954000  1.0 0.1083001172
H  H6  1  0.75177000  0.96555000  0.99548000  1.0 0.0719207192
H  H7  1  0.49936000  0.13736000  0.81110000  1.0 0.0935846562
H  H8  1  0.61168000  0.17362000  0.71259000  1.0 0.0993608803
H  H9  1  0.36872000  0.51368000  0.08894000  1.0 0.1258489659
H  H10  1  0.74437000  0.93449000  0.30603000  1.0 0.0935846562
H  H11  1  0.63009000  0.90347000  0.18766000  1.0 0.0935846562
H  H12  1  0.60569000  0.20029000  0.04913000  1.0 0.0798557594
H  H13  1  0.71927000  0.24117000  0.16543000  1.0 0.0798557594
H  H14  1  0.73603000  0.21789000  0.84601000  1.0 0.0798557594
H  H15  1  0.62290000  0.17466000  0.93750000  1.0 0.0719207192
H  H16  1  0.62189000  0.89297000  0.86752000  1.0 0.0719207192
H  H17  1  0.73970000  0.92318000  0.77230000  1.0 0.0993608803
H  H18  1  0.01972000  0.86514000  0.80459000  1.0 0.0993608803
H  H19  1  0.97066000  0.74710000  0.91393000  1.0 0.0719207192
H  H20  1  0.12339000  0.48357000  0.84354000  1.0 0.0719207192
H  H21  1  0.16040000  0.59076000  0.72267000  1.0 0.1083001172
H  H22  1  0.00086000  0.87880000  0.09046000  1.0 0.1083001172
H  H23  1  0.96555000  0.75177000  0.00452000  1.0 0.0719207192
H  H24  1  0.13736000  0.49936000  0.18890000  1.0 0.0935846562
H  H25  1  0.17362000  0.61168000  0.28741000  1.0 0.0993608803
H  H26  1  0.51368000  0.36872000  0.91106000  1.0 0.1258489659
H  H27  1  0.93449000  0.74437000  0.69397000  1.0 0.0935846562
H  H28  1  0.90347000  0.63009000  0.81234000  1.0 0.0935846562
H  H29  1  0.20029000  0.60569000  0.95087000  1.0 0.0798557594
H  H30  1  0.24117000  0.71927000  0.83457000  1.0 0.0798557594
H  H31  1  0.21789000  0.73603000  0.15399000  1.0 0.0798557594
H  H32  1  0.17466000  0.62290000  0.06250000  1.0 0.0719207192
H  H33  1  0.89297000  0.62189000  0.13248000  1.0 0.0719207192
H  H34  1  0.92318000  0.73970000  0.22770000  1.0 0.0993608803
H  H35  1  0.13486000  0.98028000  0.80459000  1.0 0.0993608803
H  H36  1  0.25290000  0.02934000  0.91393000  1.0 0.0719207192
H  H37  1  0.51643000  0.87661000  0.84354000  1.0 0.0719207192
H  H38  1  0.40924000  0.83960000  0.72267000  1.0 0.1083001172
H  H39  1  0.12120000  0.99914000  0.09046000  1.0 0.1083001172
H  H40  1  0.24823000  0.03445000  0.00452000  1.0 0.0719207192
H  H41  1  0.50064000  0.86264000  0.18890000  1.0 0.0935846562
H  H42  1  0.38832000  0.82638000  0.28741000  1.0 0.0993608803
H  H43  1  0.63128000  0.48632000  0.91106000  1.0 0.1258489659
H  H44  1  0.25563000  0.06551000  0.69397000  1.0 0.0935846562
H  H45  1  0.36991000  0.09653000  0.81234000  1.0 0.0935846562
H  H46  1  0.39431000  0.79971000  0.95087000  1.0 0.0798557594
H  H47  1  0.28073000  0.75883000  0.83457000  1.0 0.0798557594
H  H48  1  0.26397000  0.78211000  0.15399000  1.0 0.0798557594
H  H49  1  0.37710000  0.82534000  0.06250000  1.0 0.0719207192
H  H50  1  0.37811000  0.10703000  0.13248000  1.0 0.0719207192
H  H51  1  0.26030000  0.07682000  0.22770000  1.0 0.0993608803
H  H52  1  0.98028000  0.13486000  0.19541000  1.0 0.0993608803
H  H53  1  0.02934000  0.25290000  0.08607000  1.0 0.0719207192
H  H54  1  0.87661000  0.51643000  0.15646000  1.0 0.0719207192
H  H55  1  0.83960000  0.40924000  0.27733000  1.0 0.1083001172
H  H56  1  0.99914000  0.12120000  0.90954000  1.0 0.1083001172
H  H57  1  0.03445000  0.24823000  0.99548000  1.0 0.0719207192
H  H58  1  0.86264000  0.50064000  0.81110000  1.0 0.0935846562
H  H59  1  0.82638000  0.38832000  0.71259000  1.0 0.0993608803
H  H60  1  0.48632000  0.63128000  0.08894000  1.0 0.1258489659
H  H61  1  0.06551000  0.25563000  0.30603000  1.0 0.0935846562
H  H62  1  0.09653000  0.36991000  0.18766000  1.0 0.0935846562
H  H63  1  0.79971000  0.39431000  0.04913000  1.0 0.0798557594
H  H64  1  0.75883000  0.28073000  0.16543000  1.0 0.0798557594
H  H65  1  0.78211000  0.26397000  0.84601000  1.0 0.0798557594
H  H66  1  0.82534000  0.37710000  0.93750000  1.0 0.0719207192
H  H67  1  0.10703000  0.37811000  0.86752000  1.0 0.0719207192
H  H68  1  0.07682000  0.26030000  0.77230000  1.0 0.0993608803
C  C1  1  0.81450000  0.11650000  0.32940000  1.0 -0.0733320941
C  C2  1  0.75530000  0.08050000  0.79590000  1.0 0.0719207192
C  C3  1  0.74310000  0.09330000  0.25130000  1.0 0.0719207192
C  C4  1  0.78860000  0.03880000  0.19090000  1.0 -0.128776999
C  C5  1  0.71620000  0.01320000  0.12320000  1.0 -0.0055345003
C  C6  1  0.56060000  0.10080000  0.16590000  1.0 -0.0175768792
C  C7  1  0.62430000  0.12450000  0.23770000  1.0 -0.1099804868
C  C8  1  0.80250000  0.02330000  0.88640000  1.0 -0.1796785305
C  C9  1  0.72370000  0.00450000  0.93660000  1.0 -0.0018158074
C  C10  1  0.57500000  0.10420000  0.82840000  1.0 -0.0306323556
C  C11  1  0.64170000  0.12770000  0.76890000  1.0 -0.1176848988
C  C12  1  0.82840000  0.10220000  0.73280000  1.0 -0.0861452798
C  C13  1  0.37890000  0.25010000  0.97360000  1.0 0.16295922
C  C14  1  0.42130000  0.50810000  0.05320000  1.0 -0.1796785305
C  C15  1  0.71620000  0.99060000  0.25490000  1.0 -0.0979634988
C  C16  1  0.64790000  0.97250000  0.18290000  1.0 0.0033053118
C  C17  1  0.63370000  0.14690000  0.10200000  1.0 -0.0599310862
C  C18  1  0.70150000  0.17210000  0.17160000  1.0 -0.128776999
C  C19  1  0.71550000  0.15030000  0.84830000  1.0 -0.0798734481
C  C20  1  0.64680000  0.12380000  0.90350000  1.0 0.0033053118
C  C21  1  0.64700000  0.95820000  0.86210000  1.0 -0.0306323556
C  C22  1  0.71690000  0.97610000  0.80490000  1.0 -0.1436622458
C  C23  1  0.11650000  0.81450000  0.67060000  1.0 -0.0733320941
C  C24  1  0.08050000  0.75530000  0.20410000  1.0 0.0719207192
C  C25  1  0.09330000  0.74310000  0.74870000  1.0 0.0719207192
C  C26  1  0.03880000  0.78860000  0.80910000  1.0 -0.128776999
C  C27  1  0.01320000  0.71620000  0.87680000  1.0 -0.0055345003
C  C28  1  0.10080000  0.56060000  0.83410000  1.0 -0.0175768792
C  C29  1  0.12450000  0.62430000  0.76230000  1.0 -0.1099804868
C  C30  1  0.02330000  0.80250000  0.11360000  1.0 -0.1796785305
C  C31  1  0.00450000  0.72370000  0.06340000  1.0 -0.0018158074
C  C32  1  0.10420000  0.57500000  0.17160000  1.0 -0.0306323556
C  C33  1  0.12770000  0.64170000  0.23110000  1.0 -0.1176848988
C  C34  1  0.10220000  0.82840000  0.26720000  1.0 -0.0798734481
C  C35  1  0.25010000  0.37890000  0.02640000  1.0 0.1654852201
C  C36  1  0.50810000  0.42130000  0.94680000  1.0 -0.1796785305
C  C37  1  0.99060000  0.71620000  0.74510000  1.0 -0.0979634988
C  C38  1  0.97250000  0.64790000  0.81710000  1.0 0.0033053118
C  C39  1  0.14690000  0.63370000  0.89800000  1.0 -0.0599310862
C  C40  1  0.17210000  0.70150000  0.82840000  1.0 -0.128776999
C  C41  1  0.15030000  0.71550000  0.15170000  1.0 -0.0733320941
C  C42  1  0.12380000  0.64680000  0.09650000  1.0 0.0033053118
C  C43  1  0.95820000  0.64700000  0.13790000  1.0 -0.0306323556
C  C44  1  0.97610000  0.71690000  0.19510000  1.0 -0.1436622458
C  C45  1  0.18550000  0.88350000  0.67060000  1.0 -0.0733320941
C  C46  1  0.24470000  0.91950000  0.20410000  1.0 0.0719207192
C  C47  1  0.25690000  0.90670000  0.74870000  1.0 0.0719207192
C  C48  1  0.21140000  0.96120000  0.80910000  1.0 -0.128776999
C  C49  1  0.28380000  0.98680000  0.87680000  1.0 -0.0055345003
C  C50  1  0.43940000  0.89920000  0.83410000  1.0 -0.0175768792
C  C51  1  0.37570000  0.87550000  0.76230000  1.0 -0.1099804868
C  C52  1  0.19750000  0.97670000  0.11360000  1.0 -0.1796785305
C  C53  1  0.27630000  0.99550000  0.06340000  1.0 -0.0018158074
C  C54  1  0.42500000  0.89580000  0.17160000  1.0 -0.0306323556
C  C55  1  0.35830000  0.87230000  0.23110000  1.0 -0.1176848988
C  C56  1  0.17160000  0.89780000  0.26720000  1.0 -0.0798734481
C  C57  1  0.62110000  0.74990000  0.02640000  1.0 0.1654852201
C  C58  1  0.57870000  0.49190000  0.94680000  1.0 -0.1796785305
C  C59  1  0.28380000  0.00940000  0.74510000  1.0 -0.0979634988
C  C60  1  0.35210000  0.02750000  0.81710000  1.0 0.0033053118
C  C61  1  0.36630000  0.85310000  0.89800000  1.0 -0.0599310862
C  C62  1  0.29850000  0.82790000  0.82840000  1.0 -0.128776999
C  C63  1  0.28450000  0.84970000  0.15170000  1.0 -0.0733320941
C  C64  1  0.35320000  0.87620000  0.09650000  1.0 0.0033053118
C  C65  1  0.35300000  0.04180000  0.13790000  1.0 -0.0306323556
C  C66  1  0.28310000  0.02390000  0.19510000  1.0 -0.1436622458
C  C67  1  0.88350000  0.18550000  0.32940000  1.0 -0.0733320941
C  C68  1  0.91950000  0.24470000  0.79590000  1.0 0.0719207192
C  C69  1  0.90670000  0.25690000  0.25130000  1.0 0.0719207192
C  C70  1  0.96120000  0.21140000  0.19090000  1.0 -0.128776999
C  C71  1  0.98680000  0.28380000  0.12320000  1.0 -0.0055345003
C  C72  1  0.89920000  0.43940000  0.16590000  1.0 -0.0175768792
C  C73  1  0.87550000  0.37570000  0.23770000  1.0 -0.1099804868
C  C74  1  0.97670000  0.19750000  0.88640000  1.0 -0.1796785305
C  C75  1  0.99550000  0.27630000  0.93660000  1.0 -0.0018158074
C  C76  1  0.89580000  0.42500000  0.82840000  1.0 -0.0306323556
C  C77  1  0.87230000  0.35830000  0.76890000  1.0 -0.1176848988
C  C78  1  0.89780000  0.17160000  0.73280000  1.0 -0.0861452798
C  C79  1  0.74990000  0.62110000  0.97360000  1.0 0.16295922
C  C80  1  0.49190000  0.57870000  0.05320000  1.0 -0.1796785305
C  C81  1  0.00940000  0.28380000  0.25490000  1.0 -0.0979634988
C  C82  1  0.02750000  0.35210000  0.18290000  1.0 0.0033053118
C  C83  1  0.85310000  0.36630000  0.10200000  1.0 -0.0599310862
C  C84  1  0.82790000  0.29850000  0.17160000  1.0 -0.128776999
C  C85  1  0.84970000  0.28450000  0.84830000  1.0 -0.0798734481
C  C86  1  0.87620000  0.35320000  0.90350000  1.0 0.0033053118
C  C87  1  0.04180000  0.35300000  0.86210000  1.0 -0.0306323556
C  C88  1  0.02390000  0.28310000  0.80490000  1.0 -0.1436622458
C  C89  1  0.89680000  0.10320000  0.58490000  1.0 -0.0979634988
C  C90  1  0.89070000  0.10930000  0.49680000  1.0 -0.1099804868
C  C91  1  0.10320000  0.89680000  0.41510000  1.0 -0.0979634988
C  C92  1  0.10930000  0.89070000  0.50320000  1.0 -0.1099804868
C  C93  1  0.35120000  0.35120000  0.00000000  1.0 -0.1796785305
C  C94  1  0.42700000  0.42700000  0.00000000  1.0 0.1083001172
C  C95  1  0.64880000  0.64880000  0.00000000  1.0 -0.1796785305
C  C96  1  0.57300000  0.57300000  0.00000000  1.0 0.1083001172
S  S1  1  0.82436000  0.02464000  0.64743000  1.0 0.0375791696
S  S2  1  0.81048000  0.03788000  0.43442000  1.0 0.0313361884
S  S3  1  0.02464000  0.82436000  0.35257000  1.0 0.0375791696
S  S4  1  0.03788000  0.81048000  0.56558000  1.0 0.0313361884
S  S5  1  0.17564000  0.97536000  0.35257000  1.0 0.0375791696
S  S6  1  0.18952000  0.96212000  0.56558000  1.0 0.0313361884
S  S7  1  0.97536000  0.17564000  0.64743000  1.0 0.0375791696
S  S8  1  0.96212000  0.18952000  0.43442000  1.0 0.0313361884
N  N1  1  0.61320000  0.03480000  0.91160000  1.0 -0.0504891642
N  N2  1  0.60610000  0.04550000  0.10790000  1.0 -0.0504891642
N  N3  1  0.40560000  0.16660000  0.95290000  1.0 -0.4842925201
N  N4  1  0.03480000  0.61320000  0.08840000  1.0 -0.0439042839
N  N5  1  0.04550000  0.60610000  0.89210000  1.0 -0.0504891642
N  N6  1  0.16660000  0.40560000  0.04710000  1.0 -0.4842925201
N  N7  1  0.38680000  0.96520000  0.08840000  1.0 -0.0439042839
N  N8  1  0.39390000  0.95450000  0.89210000  1.0 -0.0504891642
N  N9  1  0.59440000  0.83340000  0.04710000  1.0 -0.4842925201
N  N10  1  0.96520000  0.38680000  0.91160000  1.0 -0.0504891642
N  N11  1  0.95450000  0.39390000  0.10790000  1.0 -0.0504891642
N  N12  1  0.83340000  0.59440000  0.95290000  1.0 -0.4842925201
