# DDEC6 charges by PACMAN v1.1 (https://github.com/mtap-research/PACMAN-charge/)
data_GOGSIF_ASR_pacman
_symmetry_space_group_name_H-M   'P 1'
_cell_length_a   14.44300000
_cell_length_b   14.53700000
_cell_length_c   22.01500000
_cell_angle_alpha   90.00000000
_cell_angle_beta   99.97300000
_cell_angle_gamma   90.00000000
_symmetry_Int_Tables_number   1
_chemical_formula_structural   Co5H82C49(N4O7)2
_chemical_formula_sum   'Co10 H164 C98 N16 O28'
_cell_volume   4552.37874740
_cell_formula_units_Z   2
loop_
 _symmetry_equiv_pos_site_id
 _symmetry_equiv_pos_as_xyz
  1  'x, y, z'
loop_
 _atom_site_type_symbol
 _atom_site_label
 _atom_site_symmetry_multiplicity
 _atom_site_fract_x
 _atom_site_fract_y
 _atom_site_fract_z
 _atom_site_occupancy
 _atom_site_charge
Co  Co1  1  0.18990000  0.81220000  0.06070000  1.0 0.7421112238
Co  Co2  1  0.81010000  0.31220000  0.93930000  1.0 0.7421112238
Co  Co3  1  0.84670000  0.16460000  0.06800000  1.0 0.7264028668
Co  Co4  1  0.15330000  0.66460000  0.93200000  1.0 0.7264028668
Co  Co5  1  0.56960000  0.99210000  0.27560000  1.0 0.8434920787
Co  Co6  1  0.43040000  0.49210000  0.72440000  1.0 0.8434920787
Co  Co7  1  0.60260000  0.11830000  0.41220000  1.0 0.8551098286
Co  Co8  1  0.39740000  0.61830000  0.58780000  1.0 0.8551098286
Co  Co9  1  0.62130000  0.91270000  0.40550000  1.0 0.8209353863
Co  Co10  1  0.37870000  0.41270000  0.59450000  1.0 0.8209353863
H  H1  1  0.05830000  0.69100000  0.02250000  1.0 0.3803655087
H  H2  1  0.94170000  0.19100000  0.97750000  1.0 0.3803655087
H  H3  1  0.04010000  0.77650000  0.97850000  1.0 0.3889296233
H  H4  1  0.95990000  0.27650000  0.02150000  1.0 0.3889296233
H  H5  1  0.71690000  0.02700000  0.35330000  1.0 0.3803655087
H  H6  1  0.28310000  0.52700000  0.64670000  1.0 0.3803655087
H  H7  1  0.30100000  0.44400000  0.03840000  1.0 0.1198150185
H  H8  1  0.69900000  0.94400000  0.96160000  1.0 0.1198150185
H  H9  1  0.39610000  0.48420000  0.02490000  1.0 0.1275883085
H  H10  1  0.60390000  0.98420000  0.97510000  1.0 0.1275883085
H  H11  1  0.39460000  0.42630000  0.08480000  1.0 0.1275883085
H  H12  1  0.60540000  0.92630000  0.91520000  1.0 0.1275883085
H  H13  1  0.47740000  0.55830000  0.14690000  1.0 0.1275883085
H  H14  1  0.52260000  0.05830000  0.85310000  1.0 0.1275883085
H  H15  1  0.47350000  0.62050000  0.08830000  1.0 0.1275883085
H  H16  1  0.52650000  0.12050000  0.91170000  1.0 0.1275883085
H  H17  1  0.42870000  0.65500000  0.14410000  1.0 0.1105402305
H  H18  1  0.57130000  0.15500000  0.85590000  1.0 0.1105402305
H  H19  1  0.23270000  0.50720000  0.13030000  1.0 0.1198150185
H  H20  1  0.76730000  0.00720000  0.86970000  1.0 0.1198150185
H  H21  1  0.32930000  0.49710000  0.17500000  1.0 0.1198150185
H  H22  1  0.67070000  0.99710000  0.82500000  1.0 0.1198150185
H  H23  1  0.28020000  0.59340000  0.16550000  1.0 0.1198150185
H  H24  1  0.71980000  0.09340000  0.83450000  1.0 0.1198150185
H  H25  1  0.33390000  0.85910000  0.83440000  1.0 0.062145169
H  H26  1  0.66610000  0.35910000  0.16560000  1.0 0.062145169
H  H27  1  0.38850000  0.94910000  0.85790000  1.0 0.0388332495
H  H28  1  0.61150000  0.44910000  0.14210000  1.0 0.0388332495
H  H29  1  0.23800000  0.06000000  0.92730000  1.0 0.0279330901
H  H30  1  0.76200000  0.56000000  0.07270000  1.0 0.0201063942
H  H31  1  0.31230000  0.00780000  0.97540000  1.0 0.0388332495
H  H32  1  0.68770000  0.50780000  0.02460000  1.0 0.0388332495
H  H33  1  0.34220000  0.05150000  0.91670000  1.0 0.0388332495
H  H34  1  0.65780000  0.55150000  0.08330000  1.0 0.0388332495
H  H35  1  0.14500000  0.89210000  0.83890000  1.0 0.0786219119
H  H36  1  0.85500000  0.39210000  0.16110000  1.0 0.0786219119
H  H37  1  0.14960000  0.99850000  0.85040000  1.0 0.0388332495
H  H38  1  0.85040000  0.49850000  0.14960000  1.0 0.0388332495
H  H39  1  0.20930000  0.95370000  0.80510000  1.0 0.0279330901
H  H40  1  0.79070000  0.45370000  0.19490000  1.0 0.0201063942
H  H41  1  0.41320000  0.91310000  0.91370000  1.0 0.0279330901
H  H42  1  0.58680000  0.41310000  0.08630000  1.0 0.0279330901
H  H43  1  0.47290000  0.22690000  0.16970000  1.0 0.1275883085
H  H44  1  0.52710000  0.72690000  0.83030000  1.0 0.1275883085
H  H45  1  0.37490000  0.20960000  0.18900000  1.0 0.1198150185
H  H46  1  0.62510000  0.70960000  0.81100000  1.0 0.1198150185
H  H47  1  0.40130000  0.30820000  0.16880000  1.0 0.1275883085
H  H48  1  0.59870000  0.80820000  0.83120000  1.0 0.1275883085
H  H49  1  0.36880000  0.37160000  0.27150000  1.0 0.1198150185
H  H50  1  0.63120000  0.87160000  0.72850000  1.0 0.1198150185
H  H51  1  0.34360000  0.27230000  0.29100000  1.0 0.1275883085
H  H52  1  0.65640000  0.77230000  0.70900000  1.0 0.1275883085
H  H53  1  0.42220000  0.32880000  0.33310000  1.0 0.1105402305
H  H54  1  0.57780000  0.82880000  0.66690000  1.0 0.1105402305
H  H55  1  0.59320000  0.31970000  0.24040000  1.0 0.1198150185
H  H56  1  0.40680000  0.81970000  0.75960000  1.0 0.1198150185
H  H57  1  0.52190000  0.40030000  0.24300000  1.0 0.1275883085
H  H58  1  0.47810000  0.90030000  0.75700000  1.0 0.1275883085
H  H59  1  0.57130000  0.35300000  0.30410000  1.0 0.1198150185
H  H60  1  0.42870000  0.85300000  0.69590000  1.0 0.1198150185
H  H61  1  0.29970000  0.07500000  0.29550000  1.0 0.1275883085
H  H62  1  0.70030000  0.57500000  0.70450000  1.0 0.1275883085
H  H63  1  0.31070000  0.97630000  0.26890000  1.0 0.1105402305
H  H64  1  0.68930000  0.47630000  0.73110000  1.0 0.1105402305
H  H65  1  0.21930000  0.00230000  0.29450000  1.0 0.1105402305
H  H66  1  0.78070000  0.50230000  0.70550000  1.0 0.1105402305
H  H67  1  0.31060000  0.08950000  0.41700000  1.0 0.1198150185
H  H68  1  0.68940000  0.58950000  0.58300000  1.0 0.1198150185
H  H69  1  0.22770000  0.01860000  0.41100000  1.0 0.1275883085
H  H70  1  0.77230000  0.51860000  0.58900000  1.0 0.1275883085
H  H71  1  0.32250000  0.99830000  0.45560000  1.0 0.1105402305
H  H72  1  0.67750000  0.49830000  0.54440000  1.0 0.1105402305
H  H73  1  0.33280000  0.84060000  0.33350000  1.0 0.1198150185
H  H74  1  0.66720000  0.34060000  0.66650000  1.0 0.1198150185
H  H75  1  0.33540000  0.84590000  0.40490000  1.0 0.1198150185
H  H76  1  0.66460000  0.34590000  0.59510000  1.0 0.1198150185
H  H77  1  0.24100000  0.86380000  0.35930000  1.0 0.1198150185
H  H78  1  0.75900000  0.36380000  0.64070000  1.0 0.1198150185
H  H79  1  0.73170000  0.75640000  0.20190000  1.0 0.1198150185
H  H80  1  0.26830000  0.25640000  0.79810000  1.0 0.1198150185
H  H81  1  0.69720000  0.65410000  0.19460000  1.0 0.1275883085
H  H82  1  0.30280000  0.15410000  0.80540000  1.0 0.1275883085
H  H83  1  0.62390000  0.73450000  0.18710000  1.0 0.1198150185
H  H84  1  0.37610000  0.23450000  0.81290000  1.0 0.1198150185
H  H85  1  0.76350000  0.67200000  0.35720000  1.0 0.1198150185
H  H86  1  0.23650000  0.17200000  0.64280000  1.0 0.1198150185
H  H87  1  0.78100000  0.61330000  0.30050000  1.0 0.1198150185
H  H88  1  0.21900000  0.11330000  0.69950000  1.0 0.1198150185
H  H89  1  0.82030000  0.71380000  0.30920000  1.0 0.1275883085
H  H90  1  0.17970000  0.21380000  0.69080000  1.0 0.1275883085
H  H91  1  0.59600000  0.63570000  0.32510000  1.0 0.1105402305
H  H92  1  0.40400000  0.13570000  0.67490000  1.0 0.1105402305
H  H93  1  0.54620000  0.66010000  0.25810000  1.0 0.1198150185
H  H94  1  0.45380000  0.16010000  0.74190000  1.0 0.1198150185
H  H95  1  0.62150000  0.58150000  0.26870000  1.0 0.1198150185
H  H96  1  0.37850000  0.08150000  0.73130000  1.0 0.1198150185
H  H97  1  0.83180000  0.92320000  0.64290000  1.0 0.1105402305
H  H98  1  0.16820000  0.42320000  0.35710000  1.0 0.1105402305
H  H99  1  0.72960000  0.89540000  0.61210000  1.0 0.1198150185
H  H100  1  0.27040000  0.39540000  0.38790000  1.0 0.1198150185
H  H101  1  0.81550000  0.86540000  0.58190000  1.0 0.1198150185
H  H102  1  0.18450000  0.36540000  0.41810000  1.0 0.1198150185
H  H103  1  0.87360000  0.09060000  0.53220000  1.0 0.1105402305
H  H104  1  0.12640000  0.59060000  0.46780000  1.0 0.1105402305
H  H105  1  0.92030000  0.04140000  0.59330000  1.0 0.1049404471
H  H106  1  0.07970000  0.54140000  0.40670000  1.0 0.1049404471
H  H107  1  0.90410000  0.98730000  0.53070000  1.0 0.1105402305
H  H108  1  0.09590000  0.48730000  0.46930000  1.0 0.1105402305
H  H109  1  0.73610000  0.13650000  0.57820000  1.0 0.1198150185
H  H110  1  0.26390000  0.63650000  0.42180000  1.0 0.1198150185
H  H111  1  0.67310000  0.06230000  0.60290000  1.0 0.1105402305
H  H112  1  0.32690000  0.56230000  0.39710000  1.0 0.1105402305
H  H113  1  0.77200000  0.08690000  0.64110000  1.0 0.1105402305
H  H114  1  0.22800000  0.58690000  0.35890000  1.0 0.1105402305
H  H115  1  0.31380000  0.77840000  0.18130000  1.0 0.1198150185
H  H116  1  0.68620000  0.27840000  0.81870000  1.0 0.1198150185
H  H117  1  0.44480000  0.82800000  0.24420000  1.0 0.1275883085
H  H118  1  0.55520000  0.32800000  0.75580000  1.0 0.1275883085
H  H119  1  0.44090000  0.04850000  0.14750000  1.0 0.1198150185
H  H120  1  0.55910000  0.54850000  0.85250000  1.0 0.1198150185
H  H121  1  0.31070000  0.99800000  0.08240000  1.0 0.1275883085
H  H122  1  0.68930000  0.49800000  0.91760000  1.0 0.1275883085
H  H123  1  0.98000000  0.03460000  0.15440000  1.0 0.1198150185
H  H124  1  0.02000000  0.53460000  0.84560000  1.0 0.1198150185
H  H125  1  0.09600000  0.92970000  0.15340000  1.0 0.1198150185
H  H126  1  0.90400000  0.42970000  0.84660000  1.0 0.1198150185
H  H127  1  0.04820000  0.93430000  0.97500000  1.0 0.1198150185
H  H128  1  0.95180000  0.43430000  0.02500000  1.0 0.1198150185
H  H129  1  0.92970000  0.03960000  0.97710000  1.0 0.1105402305
H  H130  1  0.07030000  0.53960000  0.02290000  1.0 0.1105402305
H  H131  1  0.80460000  0.19570000  0.19700000  1.0 0.1275883085
H  H132  1  0.19540000  0.69570000  0.80300000  1.0 0.1275883085
H  H133  1  0.70900000  0.14430000  0.26190000  1.0 0.1198150185
H  H134  1  0.29100000  0.64430000  0.73810000  1.0 0.1198150185
H  H135  1  0.64140000  0.93420000  0.15630000  1.0 0.1275883085
H  H136  1  0.35860000  0.43420000  0.84370000  1.0 0.1275883085
H  H137  1  0.73040000  0.98930000  0.08920000  1.0 0.1198150185
H  H138  1  0.26960000  0.48930000  0.91080000  1.0 0.1198150185
H  H139  1  0.42710000  0.21080000  0.58120000  1.0 0.1275883085
H  H140  1  0.57290000  0.71080000  0.41880000  1.0 0.1275883085
H  H141  1  0.49780000  0.11610000  0.52370000  1.0 0.1275883085
H  H142  1  0.50220000  0.61610000  0.47630000  1.0 0.1275883085
H  H143  1  0.56990000  0.32160000  0.43320000  1.0 0.1275883085
H  H144  1  0.43010000  0.82160000  0.56680000  1.0 0.1275883085
H  H145  1  0.48880000  0.41710000  0.48620000  1.0 0.1275883085
H  H146  1  0.51120000  0.91710000  0.51380000  1.0 0.1275883085
H  H147  1  0.39550000  0.86190000  0.90040000  1.0 0.0786219119
H  H148  1  0.60450000  0.36190000  0.09960000  1.0 0.0786219119
H  H149  1  0.37930000  0.97460000  0.96400000  1.0 0.0388332495
H  H150  1  0.62070000  0.47460000  0.03600000  1.0 0.0388332495
H  H151  1  0.38470000  0.01580000  0.89890000  1.0 0.0498286142
H  H152  1  0.61530000  0.51580000  0.10110000  1.0 0.0498286142
H  H153  1  0.14080000  0.00410000  0.87970000  1.0 0.0388332495
H  H154  1  0.85920000  0.50410000  0.12030000  1.0 0.0388332495
H  H155  1  0.19980000  0.02820000  0.94450000  1.0 0.0684265505
H  H156  1  0.80020000  0.52820000  0.05550000  1.0 0.0684265505
H  H157  1  0.22810000  0.06950000  0.88450000  1.0 0.0684265505
H  H158  1  0.77190000  0.56950000  0.11550000  1.0 0.0684265505
H  H159  1  0.19410000  0.87380000  0.81770000  1.0 0.0279330901
H  H160  1  0.80590000  0.37380000  0.18230000  1.0 0.0279330901
H  H161  1  0.26370000  0.95090000  0.80400000  1.0 0.085831645
H  H162  1  0.73630000  0.45090000  0.19600000  1.0 0.085831645
H  H163  1  0.30220000  0.85340000  0.82600000  1.0 0.062145169
H  H164  1  0.69780000  0.35340000  0.17400000  1.0 0.062145169
C  C1  1  0.28700000  0.62800000  0.04800000  1.0 0.5468778937
C  C2  1  0.71300000  0.12800000  0.95200000  1.0 0.5468778937
C  C3  1  0.34400000  0.55700000  0.09100000  1.0 0.1812843542
C  C4  1  0.65600000  0.05700000  0.90900000  1.0 0.1812843542
C  C5  1  0.36100000  0.47000000  0.05700000  1.0 -0.4732099395
C  C6  1  0.63900000  0.97000000  0.94300000  1.0 -0.4732099395
C  C7  1  0.44000000  0.60200000  0.12000000  1.0 -0.4826946478
C  C8  1  0.56000000  0.10200000  0.88000000  1.0 -0.4826946478
C  C9  1  0.29200000  0.53700000  0.14600000  1.0 -0.4505080142
C  C10  1  0.70800000  0.03700000  0.85400000  1.0 -0.4505080142
C  C11  1  0.24100000  0.85500000  0.93940000  1.0 0.4874415725
C  C12  1  0.75900000  0.35500000  0.06060000  1.0 0.4874415725
C  C13  1  0.26800000  0.93100000  0.89700000  1.0 0.137185353
C  C14  1  0.73200000  0.43100000  0.10300000  1.0 0.137185353
C  C15  1  0.35500000  0.89700000  0.87000000  1.0 -0.2117035397
C  C16  1  0.64500000  0.39700000  0.13000000  1.0 -0.2117035397
C  C17  1  0.29200000  0.02100000  0.93200000  1.0 -0.1705882595
C  C18  1  0.70800000  0.52100000  0.06800000  1.0 -0.1705882595
C  C19  1  0.18500000  0.94500000  0.84300000  1.0 -0.1705882595
C  C20  1  0.81500000  0.44500000  0.15700000  1.0 -0.1705882595
C  C21  1  0.50800000  0.18900000  0.28900000  1.0 0.5593625485
C  C22  1  0.49200000  0.68900000  0.71100000  1.0 0.5593625485
C  C23  1  0.46700000  0.27600000  0.25700000  1.0 0.1812843542
C  C24  1  0.53300000  0.77600000  0.74300000  1.0 0.1812843542
C  C25  1  0.42500000  0.25300000  0.19000000  1.0 -0.4732099395
C  C26  1  0.57500000  0.75300000  0.81000000  1.0 -0.4732099395
C  C27  1  0.39400000  0.31600000  0.29100000  1.0 -0.4592691966
C  C28  1  0.60600000  0.81600000  0.70900000  1.0 -0.4592691966
C  C29  1  0.54500000  0.34300000  0.26100000  1.0 -0.4826946478
C  C30  1  0.45500000  0.84300000  0.73900000  1.0 -0.4826946478
C  C31  1  0.43900000  0.98700000  0.37300000  1.0 0.527218598
C  C32  1  0.56100000  0.48700000  0.62700000  1.0 0.527218598
C  C33  1  0.33200000  0.97700000  0.36500000  1.0 0.1812843542
C  C34  1  0.66800000  0.47700000  0.63500000  1.0 0.1812843542
C  C35  1  0.28600000  0.01100000  0.30000000  1.0 -0.4505080142
C  C36  1  0.71400000  0.51100000  0.70000000  1.0 -0.4505080142
C  C37  1  0.29500000  0.02500000  0.41700000  1.0 -0.4592691966
C  C38  1  0.70500000  0.52500000  0.58300000  1.0 -0.4592691966
C  C39  1  0.30800000  0.87200000  0.36600000  1.0 -0.4416297347
C  C40  1  0.69200000  0.37200000  0.63400000  1.0 -0.4416297347
C  C41  1  0.65100000  0.79900000  0.30200000  1.0 0.5468778937
C  C42  1  0.34900000  0.29900000  0.69800000  1.0 0.5468778937
C  C43  1  0.68100000  0.71000000  0.27800000  1.0 0.1456645905
C  C44  1  0.31900000  0.21000000  0.72200000  1.0 0.1456645905
C  C45  1  0.68400000  0.71400000  0.20900000  1.0 -0.4592691966
C  C46  1  0.31600000  0.21400000  0.79100000  1.0 -0.4592691966
C  C47  1  0.76900000  0.67400000  0.31400000  1.0 -0.4339784802
C  C48  1  0.23100000  0.17400000  0.68600000  1.0 -0.4339784802
C  C49  1  0.60400000  0.64000000  0.28300000  1.0 -0.4505080142
C  C50  1  0.39600000  0.14000000  0.71700000  1.0 -0.4505080142
C  C51  1  0.71600000  0.98500000  0.50400000  1.0 0.4666992604
C  C52  1  0.28400000  0.48500000  0.49600000  1.0 0.4666992604
C  C53  1  0.78200000  0.00400000  0.56600000  1.0 0.1812843542
C  C54  1  0.21800000  0.50400000  0.43400000  1.0 0.1812843542
C  C55  1  0.79100000  0.91300000  0.60400000  1.0 -0.4505080142
C  C56  1  0.20900000  0.41300000  0.39600000  1.0 -0.4505080142
C  C57  1  0.87900000  0.03400000  0.55400000  1.0 -0.4416297347
C  C58  1  0.12100000  0.53400000  0.44600000  1.0 -0.4416297347
C  C59  1  0.73600000  0.08000000  0.60000000  1.0 -0.4592691966
C  C60  1  0.26400000  0.58000000  0.40000000  1.0 -0.4592691966
C  C61  1  0.34000000  0.83400000  0.17280000  1.0 -0.0078598446
C  C62  1  0.66000000  0.33400000  0.82720000  1.0 -0.0078598446
C  C63  1  0.41800000  0.86500000  0.21110000  1.0 0.0027109949
C  C64  1  0.58200000  0.36500000  0.78890000  1.0 0.0027109949
C  C65  1  0.41600000  0.99100000  0.15500000  1.0 -0.0194137314
C  C66  1  0.58400000  0.49100000  0.84500000  1.0 -0.0194137314
C  C67  1  0.33800000  0.96100000  0.11500000  1.0 0.0027109949
C  C68  1  0.66200000  0.46100000  0.88500000  1.0 0.0027109949
C  C69  1  0.99300000  0.01400000  0.11660000  1.0 -0.0078598446
C  C70  1  0.00700000  0.51400000  0.88340000  1.0 -0.0078598446
C  C71  1  0.06300000  0.95200000  0.11620000  1.0 -0.0323280998
C  C72  1  0.93700000  0.45200000  0.88380000  1.0 -0.0323280998
C  C73  1  0.03500000  0.95400000  0.01290000  1.0 0.0027109949
C  C74  1  0.96500000  0.45400000  0.98710000  1.0 0.0027109949
C  C75  1  0.96300000  0.01800000  0.01410000  1.0 0.0201063942
C  C76  1  0.03700000  0.51800000  0.98590000  1.0 0.0201063942
C  C77  1  0.77000000  0.14200000  0.18710000  1.0 0.0201063942
C  C78  1  0.23000000  0.64200000  0.81290000  1.0 0.0201063942
C  C79  1  0.71200000  0.11100000  0.22630000  1.0 0.0201063942
C  C80  1  0.28800000  0.61100000  0.77370000  1.0 0.0201063942
C  C81  1  0.67300000  0.99000000  0.16470000  1.0 -0.0194137314
C  C82  1  0.32700000  0.49000000  0.83530000  1.0 -0.0194137314
C  C83  1  0.72800000  0.02200000  0.12500000  1.0 -0.0016959609
C  C84  1  0.27200000  0.52200000  0.87500000  1.0 -0.0016959609
C  C85  1  0.45500000  0.23600000  0.55000000  1.0 0.0027109949
C  C86  1  0.54500000  0.73600000  0.45000000  1.0 0.0027109949
C  C87  1  0.49900000  0.17900000  0.51600000  1.0 -0.0078598446
C  C88  1  0.50100000  0.67900000  0.48400000  1.0 -0.0078598446
C  C89  1  0.53900000  0.29700000  0.46300000  1.0 -0.0016959609
C  C90  1  0.46100000  0.79700000  0.53700000  1.0 -0.0016959609
C  C91  1  0.49200000  0.35500000  0.49600000  1.0 -0.0194137314
C  C92  1  0.50800000  0.85500000  0.50400000  1.0 -0.0194137314
C  C93  1  0.37100000  0.96200000  0.92100000  1.0 -0.1569452108
C  C94  1  0.62900000  0.46200000  0.07900000  1.0 -0.1569452108
C  C95  1  0.20300000  0.01700000  0.90200000  1.0 -0.2117035397
C  C96  1  0.79700000  0.51700000  0.09800000  1.0 -0.2117035397
C  C97  1  0.25600000  0.89900000  0.83000000  1.0 -0.2043482632
C  C98  1  0.74400000  0.39900000  0.17000000  1.0 -0.2043482632
N  N1  1  0.30100000  0.88100000  0.12430000  1.0 -0.1923645348
N  N2  1  0.69900000  0.38100000  0.87570000  1.0 -0.1923645348
N  N3  1  0.45800000  0.94400000  0.20270000  1.0 -0.1923645348
N  N4  1  0.54200000  0.44400000  0.79730000  1.0 -0.1923645348
N  N5  1  0.94300000  0.04700000  0.06600000  1.0 -0.2182612279
N  N6  1  0.05700000  0.54700000  0.93400000  1.0 -0.2182612279
N  N7  1  0.08600000  0.92200000  0.06350000  1.0 -0.2182612279
N  N8  1  0.91400000  0.42200000  0.93650000  1.0 -0.2182612279
N  N9  1  0.77800000  0.09900000  0.13670000  1.0 -0.1923645348
N  N10  1  0.22200000  0.59900000  0.86330000  1.0 -0.1923645348
N  N11  1  0.66200000  0.03700000  0.21550000  1.0 -0.1923645348
N  N12  1  0.33800000  0.53700000  0.78450000  1.0 -0.1923645348
N  N13  1  0.45100000  0.32500000  0.54090000  1.0 -0.1835451619
N  N14  1  0.54900000  0.82500000  0.45910000  1.0 -0.1835451619
N  N15  1  0.54200000  0.20800000  0.47130000  1.0 -0.1923645348
N  N16  1  0.45800000  0.70800000  0.52870000  1.0 -0.1923645348
O  O1  1  0.28510000  0.70680000  0.06770000  1.0 -0.5405816258
O  O2  1  0.71490000  0.20680000  0.93230000  1.0 -0.5312243324
O  O3  1  0.08820000  0.73530000  0.99930000  1.0 -0.742482406
O  O4  1  0.91180000  0.23530000  0.00070000  1.0 -0.742482406
O  O5  1  0.24200000  0.59850000  0.99810000  1.0 -0.5653859795
O  O6  1  0.75800000  0.09850000  0.00190000  1.0 -0.5653859795
O  O7  1  0.65010000  0.02100000  0.35580000  1.0 -0.8979383529
O  O8  1  0.34990000  0.52100000  0.64420000  1.0 -0.8979383529
O  O9  1  0.22900000  0.88230000  0.99140000  1.0 -0.5312243324
O  O10  1  0.77100000  0.38230000  0.00860000  1.0 -0.5312243324
O  O11  1  0.23290000  0.77720000  0.91930000  1.0 -0.508133036
O  O12  1  0.76710000  0.27720000  0.08070000  1.0 -0.508133036
O  O13  1  0.50700000  0.11600000  0.26120000  1.0 -0.5405816258
O  O14  1  0.49300000  0.61600000  0.73880000  1.0 -0.5405816258
O  O15  1  0.54000000  0.19700000  0.34520000  1.0 -0.5597831131
O  O16  1  0.46000000  0.69700000  0.65480000  1.0 -0.5597831131
O  O17  1  0.48100000  0.93400000  0.34170000  1.0 -0.5405816258
O  O18  1  0.51900000  0.43400000  0.65830000  1.0 -0.5405816258
O  O19  1  0.47900000  0.03700000  0.41110000  1.0 -0.4826946478
O  O20  1  0.52100000  0.53700000  0.58890000  1.0 -0.4826946478
O  O21  1  0.62200000  0.86200000  0.26600000  1.0 -0.5597831131
O  O22  1  0.37800000  0.36200000  0.73400000  1.0 -0.5597831131
O  O23  1  0.65600000  0.80400000  0.35930000  1.0 -0.5405816258
O  O24  1  0.34400000  0.30400000  0.64070000  1.0 -0.5405816258
O  O25  1  0.73400000  0.92100000  0.47600000  1.0 -0.4085560412
O  O26  1  0.26600000  0.42100000  0.52400000  1.0 -0.4085560412
O  O27  1  0.65100000  0.03200000  0.48860000  1.0 -0.4732099395
O  O28  1  0.34900000  0.53200000  0.51140000  1.0 -0.4732099395
