# DDEC6 charges by PACMAN v1.1 (https://github.com/mtap-research/PACMAN-charge/)
data_GOGWAB_FSR_pacman
_symmetry_space_group_name_H-M   'P 1'
_cell_length_a   12.57100000
_cell_length_b   12.57100000
_cell_length_c   12.57100000
_cell_angle_alpha   95.18350000
_cell_angle_beta   95.18350000
_cell_angle_gamma   145.01600000
_symmetry_Int_Tables_number   1
_chemical_formula_structural   ZnH14C8S2(N2O3)2
_chemical_formula_sum   'Zn2 H28 C16 S4 N8 O12'
_cell_volume   1086.33869049
_cell_formula_units_Z   2
loop_
 _symmetry_equiv_pos_site_id
 _symmetry_equiv_pos_as_xyz
  1  'x, y, z'
loop_
 _atom_site_type_symbol
 _atom_site_label
 _atom_site_symmetry_multiplicity
 _atom_site_fract_x
 _atom_site_fract_y
 _atom_site_fract_z
 _atom_site_occupancy
 _atom_site_charge
Zn  Zn1  1  0.50000000  0.50000000  0.00000000  1.0 0.9194099051
Zn  Zn2  1  0.75000000  0.25000000  0.50000000  1.0 0.9194099051
H  H1  1  0.52300000  0.87500000  0.14800000  1.0 0.1907433032
H  H2  1  0.72700000  0.37500000  0.85200000  1.0 0.1907433032
H  H3  1  0.62500000  0.47700000  0.35200000  1.0 0.1907433032
H  H4  1  0.12500000  0.27300000  0.64800000  1.0 0.1907433032
H  H5  1  0.23470000  0.16170000  0.01900000  1.0 0.390041132
H  H6  1  0.14270000  0.21570000  0.98100000  1.0 0.390041132
H  H7  1  0.78430000  0.76530000  0.92700000  1.0 0.390041132
H  H8  1  0.83830000  0.85730000  0.07300000  1.0 0.390041132
H  H9  1  0.01530000  0.53430000  0.42700000  1.0 0.390041132
H  H10  1  0.10730000  0.58830000  0.57300000  1.0 0.390041132
H  H11  1  0.46570000  0.89270000  0.48100000  1.0 0.390041132
H  H12  1  0.41170000  0.98470000  0.51900000  1.0 0.390041132
H  H13  1  0.63910000  0.68250000  0.24680000  1.0 0.196343446
H  H14  1  0.43570000  0.39230000  0.75320000  1.0 0.196343446
H  H15  1  0.60770000  0.36090000  0.04340000  1.0 0.1907433032
H  H16  1  0.31750000  0.56430000  0.95660000  1.0 0.1907433032
H  H17  1  0.61090000  0.35770000  0.54340000  1.0 0.1907433032
H  H18  1  0.81430000  0.06750000  0.45660000  1.0 0.1907433032
H  H19  1  0.64230000  0.18570000  0.25320000  1.0 0.1907433032
H  H20  1  0.93250000  0.38910000  0.74680000  1.0 0.196343446
H  H21  1  0.38410000  0.59760000  0.04070000  1.0 0.2235031599
H  H22  1  0.55690000  0.34340000  0.95930000  1.0 0.2235031599
H  H23  1  0.65660000  0.61590000  0.21350000  1.0 0.2235031599
H  H24  1  0.40240000  0.44310000  0.78650000  1.0 0.2235031599
H  H25  1  0.86590000  0.40660000  0.71350000  1.0 0.2235031599
H  H26  1  0.69310000  0.15240000  0.28650000  1.0 0.2235031599
H  H27  1  0.59340000  0.30690000  0.45930000  1.0 0.2235031599
H  H28  1  0.84760000  0.13410000  0.54070000  1.0 0.2235031599
C  C1  1  0.57780000  0.87500000  0.20280000  1.0 -0.4988116877
C  C2  1  0.67220000  0.37500000  0.79720000  1.0 -0.4988116877
C  C3  1  0.62500000  0.42220000  0.29720000  1.0 -0.4988116877
C  C4  1  0.12500000  0.32780000  0.70280000  1.0 -0.4988116877
C  C5  1  0.56500000  0.75610000  0.17630000  1.0 0.4388729525
C  C6  1  0.57980000  0.38870000  0.82370000  1.0 0.4388729525
C  C7  1  0.61130000  0.43500000  0.19110000  1.0 0.4388729525
C  C8  1  0.24390000  0.42020000  0.80890000  1.0 0.4388729525
C  C9  1  0.68500000  0.36130000  0.69110000  1.0 0.4388729525
C  C10  1  0.67020000  0.99390000  0.30890000  1.0 0.4388729525
C  C11  1  0.63870000  0.32980000  0.32370000  1.0 0.4388729525
C  C12  1  0.00610000  0.31500000  0.67630000  1.0 0.4388729525
C  C13  1  0.74300000  0.87500000  0.36800000  1.0 0.4054241298
C  C14  1  0.50700000  0.37500000  0.63200000  1.0 0.4054241298
C  C15  1  0.62500000  0.25700000  0.13200000  1.0 0.4054241298
C  C16  1  0.12500000  0.49300000  0.86800000  1.0 0.4054241298
S  S1  1  0.84094000  0.87500000  0.46594000  1.0 -0.4883635821
S  S2  1  0.40906000  0.37500000  0.53406000  1.0 -0.4883635821
S  S3  1  0.62500000  0.15906000  0.03406000  1.0 -0.4883635821
S  S4  1  0.12500000  0.59094000  0.96594000  1.0 -0.4883635821
N  N1  1  0.64870000  0.75860000  0.26250000  1.0 -0.4331335532
N  N2  1  0.49610000  0.38620000  0.73750000  1.0 -0.4331335532
N  N3  1  0.61380000  0.35130000  0.10990000  1.0 -0.4331335532
N  N4  1  0.24140000  0.50390000  0.89010000  1.0 -0.4331335532
N  N5  1  0.60130000  0.36380000  0.60990000  1.0 -0.4331335532
N  N6  1  0.75390000  0.99140000  0.39010000  1.0 -0.4331335532
N  N7  1  0.63620000  0.24610000  0.23750000  1.0 -0.4331335532
N  N8  1  0.00860000  0.39870000  0.76250000  1.0 -0.4331335532
O  O1  1  0.48049000  0.63652000  0.08381000  1.0 -0.4657467673
O  O2  1  0.55271000  0.39668000  0.91619000  1.0 -0.4657467673
O  O3  1  0.60332000  0.51951000  0.15603000  1.0 -0.4657467673
O  O4  1  0.36348000  0.44729000  0.84397000  1.0 -0.4657467673
O  O5  1  0.76951000  0.35332000  0.65603000  1.0 -0.4657467673
O  O6  1  0.69729000  0.11348000  0.34397000  1.0 -0.4657467673
O  O7  1  0.64668000  0.30271000  0.41619000  1.0 -0.4657467673
O  O8  1  0.88652000  0.23049000  0.58381000  1.0 -0.4657467673
O  O9  1  0.23110000  0.23110000  0.00000000  1.0 -0.7614576774
O  O10  1  0.76890000  0.76890000  0.00000000  1.0 -0.7614576774
O  O11  1  0.01890000  0.51890000  0.50000000  1.0 -0.7614576774
O  O12  1  0.48110000  0.98110000  0.50000000  1.0 -0.7614576774
