# DDEC6 charges by PACMAN v1.1 (https://github.com/mtap-research/PACMAN-charge/)
data_GOHVEH_FSR_pacman
_symmetry_space_group_name_H-M   'P 1'
_cell_length_a   15.21530000
_cell_length_b   15.21530000
_cell_length_c   15.21530000
_cell_angle_alpha   112.96200000
_cell_angle_beta   112.96200000
_cell_angle_gamma   112.96200000
_symmetry_Int_Tables_number   1
_chemical_formula_structural   ScH5C9N3O8
_chemical_formula_sum   'Sc6 H30 C54 N18 O48'
_cell_volume   2295.44702592
_cell_formula_units_Z   6
loop_
 _symmetry_equiv_pos_site_id
 _symmetry_equiv_pos_as_xyz
  1  'x, y, z'
loop_
 _atom_site_type_symbol
 _atom_site_label
 _atom_site_symmetry_multiplicity
 _atom_site_fract_x
 _atom_site_fract_y
 _atom_site_fract_z
 _atom_site_occupancy
 _atom_site_charge
Sc  Sc1  1  0.34595000  0.19634000  0.76411000  1.0 1.5885065414
Sc  Sc2  1  0.19634000  0.76411000  0.34595000  1.0 1.5885065414
Sc  Sc3  1  0.76411000  0.34595000  0.19634000  1.0 1.5885065414
Sc  Sc4  1  0.65405000  0.80366000  0.23589000  1.0 1.5885065414
Sc  Sc5  1  0.80366000  0.23589000  0.65405000  1.0 1.5885065414
Sc  Sc6  1  0.23589000  0.65405000  0.80366000  1.0 1.5885065414
H  H1  1  0.31570000  0.25780000  0.93450000  1.0 0.3695978838
H  H2  1  0.26040000  0.13390000  0.87670000  1.0 0.3562206445
H  H3  1  0.04705000  0.01056000  0.66818000  1.0 0.108365458
H  H4  1  0.24104000  0.86778000  0.73941000  1.0 0.11697312
H  H5  1  0.12518000  0.54830000  0.38771000  1.0 0.11697312
H  H6  1  0.25780000  0.93450000  0.31570000  1.0 0.3695978838
H  H7  1  0.13390000  0.87670000  0.26040000  1.0 0.3562206445
H  H8  1  0.01056000  0.66818000  0.04705000  1.0 0.108365458
H  H9  1  0.86778000  0.73941000  0.24104000  1.0 0.11697312
H  H10  1  0.54830000  0.38771000  0.12518000  1.0 0.11697312
H  H11  1  0.93450000  0.31570000  0.25780000  1.0 0.3695978838
H  H12  1  0.87670000  0.26040000  0.13390000  1.0 0.3562206445
H  H13  1  0.66818000  0.04705000  0.01056000  1.0 0.108365458
H  H14  1  0.73941000  0.24104000  0.86778000  1.0 0.11697312
H  H15  1  0.38771000  0.12518000  0.54830000  1.0 0.11697312
H  H16  1  0.68430000  0.74220000  0.06550000  1.0 0.3695978838
H  H17  1  0.73960000  0.86610000  0.12330000  1.0 0.3562206445
H  H18  1  0.95295000  0.98944000  0.33182000  1.0 0.108365458
H  H19  1  0.75896000  0.13222000  0.26059000  1.0 0.11697312
H  H20  1  0.87482000  0.45170000  0.61229000  1.0 0.11697312
H  H21  1  0.74220000  0.06550000  0.68430000  1.0 0.3695978838
H  H22  1  0.86610000  0.12330000  0.73960000  1.0 0.3562206445
H  H23  1  0.98944000  0.33182000  0.95295000  1.0 0.108365458
H  H24  1  0.13222000  0.26059000  0.75896000  1.0 0.11697312
H  H25  1  0.45170000  0.61229000  0.87482000  1.0 0.11697312
H  H26  1  0.06550000  0.68430000  0.74220000  1.0 0.3695978838
H  H27  1  0.12330000  0.73960000  0.86610000  1.0 0.3562206445
H  H28  1  0.33182000  0.95295000  0.98944000  1.0 0.108365458
H  H29  1  0.26059000  0.75896000  0.13222000  1.0 0.11697312
H  H30  1  0.61229000  0.87482000  0.45170000  1.0 0.11697312
C  C1  1  0.20231000  0.14524000  0.51785000  1.0 0.4401771643
C  C2  1  0.09324000  0.06667000  0.50599000  1.0 0.0215699951
C  C3  1  0.02974000  0.00737000  0.59939000  1.0 0.000301275
C  C4  1  0.23151000  0.91726000  0.58283000  1.0 0.5783630429
C  C5  1  0.20676000  0.80759000  0.57535000  1.0 0.0842907397
C  C6  1  0.21679000  0.80048000  0.66723000  1.0 0.0420370741
C  C7  1  0.14942000  0.61559000  0.45989000  1.0 0.0671972923
C  C8  1  0.15552000  0.60695000  0.54943000  1.0 0.0671972923
C  C9  1  0.11429000  0.48828000  0.52843000  1.0 0.5489212094
C  C10  1  0.14524000  0.51785000  0.20231000  1.0 0.4401771643
C  C11  1  0.06667000  0.50599000  0.09324000  1.0 0.0215699951
C  C12  1  0.00737000  0.59939000  0.02974000  1.0 -0.0021393231
C  C13  1  0.91726000  0.58283000  0.23151000  1.0 0.5783630429
C  C14  1  0.80759000  0.57535000  0.20676000  1.0 0.0842907397
C  C15  1  0.80048000  0.66723000  0.21679000  1.0 0.0420370741
C  C16  1  0.61559000  0.45989000  0.14942000  1.0 0.0671972923
C  C17  1  0.60695000  0.54943000  0.15552000  1.0 0.0671972923
C  C18  1  0.48828000  0.52843000  0.11429000  1.0 0.5489212094
C  C19  1  0.51785000  0.20231000  0.14524000  1.0 0.4401771643
C  C20  1  0.50599000  0.09324000  0.06667000  1.0 0.0215699951
C  C21  1  0.59939000  0.02974000  0.00737000  1.0 -0.0021393231
C  C22  1  0.58283000  0.23151000  0.91726000  1.0 0.5783630429
C  C23  1  0.57535000  0.20676000  0.80759000  1.0 0.0842907397
C  C24  1  0.66723000  0.21679000  0.80048000  1.0 0.0420370741
C  C25  1  0.45989000  0.14942000  0.61559000  1.0 0.0671972923
C  C26  1  0.54943000  0.15552000  0.60695000  1.0 0.0671972923
C  C27  1  0.52843000  0.11429000  0.48828000  1.0 0.5489212094
C  C28  1  0.79769000  0.85476000  0.48215000  1.0 0.4401771643
C  C29  1  0.90676000  0.93333000  0.49401000  1.0 0.0215699951
C  C30  1  0.97026000  0.99263000  0.40061000  1.0 -0.0021393231
C  C31  1  0.76849000  0.08274000  0.41717000  1.0 0.5783630429
C  C32  1  0.79324000  0.19241000  0.42465000  1.0 0.0842907397
C  C33  1  0.78321000  0.19952000  0.33277000  1.0 0.0420370741
C  C34  1  0.85058000  0.38441000  0.54011000  1.0 0.0671972923
C  C35  1  0.84448000  0.39305000  0.45057000  1.0 0.0671972923
C  C36  1  0.88571000  0.51172000  0.47157000  1.0 0.5489212094
C  C37  1  0.85476000  0.48215000  0.79769000  1.0 0.4401771643
C  C38  1  0.93333000  0.49401000  0.90676000  1.0 0.0215699951
C  C39  1  0.99263000  0.40061000  0.97026000  1.0 -0.0021393231
C  C40  1  0.08274000  0.41717000  0.76849000  1.0 0.5783630429
C  C41  1  0.19241000  0.42465000  0.79324000  1.0 0.0842907397
C  C42  1  0.19952000  0.33277000  0.78321000  1.0 0.0420370741
C  C43  1  0.38441000  0.54011000  0.85058000  1.0 0.0671972923
C  C44  1  0.39305000  0.45057000  0.84448000  1.0 0.0671972923
C  C45  1  0.51172000  0.47157000  0.88571000  1.0 0.5489212094
C  C46  1  0.48215000  0.79769000  0.85476000  1.0 0.4401771643
C  C47  1  0.49401000  0.90676000  0.93333000  1.0 0.0215699951
C  C48  1  0.40061000  0.97026000  0.99263000  1.0 -0.0021393231
C  C49  1  0.41717000  0.76849000  0.08274000  1.0 0.5783630429
C  C50  1  0.42465000  0.79324000  0.19241000  1.0 0.0842907397
C  C51  1  0.33277000  0.78321000  0.19952000  1.0 0.0420370741
C  C52  1  0.54011000  0.85058000  0.38441000  1.0 0.0671972923
C  C53  1  0.45057000  0.84448000  0.39305000  1.0 0.0671972923
C  C54  1  0.47157000  0.88571000  0.51172000  1.0 0.5489212094
N  N1  1  0.12291000  0.07349000  0.60462000  1.0 -0.2507890991
N  N2  1  0.17738000  0.71767000  0.47442000  1.0 -0.2507890991
N  N3  1  0.19258000  0.69963000  0.65459000  1.0 -0.278572041
N  N4  1  0.07349000  0.60462000  0.12291000  1.0 -0.2507890991
N  N5  1  0.71767000  0.47442000  0.17738000  1.0 -0.2507890991
N  N6  1  0.69963000  0.65459000  0.19258000  1.0 -0.278572041
N  N7  1  0.60462000  0.12291000  0.07349000  1.0 -0.2507890991
N  N8  1  0.47442000  0.17738000  0.71767000  1.0 -0.2507890991
N  N9  1  0.65459000  0.19258000  0.69963000  1.0 -0.278572041
N  N10  1  0.87709000  0.92651000  0.39538000  1.0 -0.2507890991
N  N11  1  0.82262000  0.28233000  0.52558000  1.0 -0.2507890991
N  N12  1  0.80742000  0.30037000  0.34541000  1.0 -0.278572041
N  N13  1  0.92651000  0.39538000  0.87709000  1.0 -0.2507890991
N  N14  1  0.28233000  0.52558000  0.82262000  1.0 -0.2507890991
N  N15  1  0.30037000  0.34541000  0.80742000  1.0 -0.278572041
N  N16  1  0.39538000  0.87709000  0.92651000  1.0 -0.2507890991
N  N17  1  0.52558000  0.82262000  0.28233000  1.0 -0.2507890991
N  N18  1  0.34541000  0.80742000  0.30037000  1.0 -0.278572041
O  O1  1  0.28758000  0.19088000  0.87078000  1.0 -0.7488686027
O  O2  1  0.30773000  0.20761000  0.62102000  1.0 -0.6099288314
O  O3  1  0.18660000  0.16430000  0.44460000  1.0 -0.0096392213
O  O4  1  0.26373000  0.00679000  0.67810000  1.0 -0.6099288314
O  O5  1  0.21860000  0.91026000  0.49327000  1.0 -0.5692980073
O  O6  1  0.07056000  0.39739000  0.42812000  1.0 -0.5107678356
O  O7  1  0.12287000  0.49083000  0.61627000  1.0 -0.6099288314
O  O8  1  0.18450000  0.13030000  0.42370000  1.0 -0.0561476208
O  O9  1  0.19088000  0.87078000  0.28758000  1.0 -0.7488686027
O  O10  1  0.20761000  0.62102000  0.30773000  1.0 -0.6099288314
O  O11  1  0.16430000  0.44460000  0.18660000  1.0 -0.0096392213
O  O12  1  0.00679000  0.67810000  0.26373000  1.0 -0.6099288314
O  O13  1  0.91026000  0.49327000  0.21860000  1.0 -0.5692980073
O  O14  1  0.39739000  0.42812000  0.07056000  1.0 -0.5107678356
O  O15  1  0.49083000  0.61627000  0.12287000  1.0 -0.6099288314
O  O16  1  0.13030000  0.42370000  0.18450000  1.0 -0.0561476208
O  O17  1  0.87078000  0.28758000  0.19088000  1.0 -0.7488686027
O  O18  1  0.62102000  0.30773000  0.20761000  1.0 -0.6099288314
O  O19  1  0.44460000  0.18660000  0.16430000  1.0 -0.0096392213
O  O20  1  0.67810000  0.26373000  0.00679000  1.0 -0.6099288314
O  O21  1  0.49327000  0.21860000  0.91026000  1.0 -0.5692980073
O  O22  1  0.42812000  0.07056000  0.39739000  1.0 -0.5107678356
O  O23  1  0.61627000  0.12287000  0.49083000  1.0 -0.6099288314
O  O24  1  0.42370000  0.18450000  0.13030000  1.0 -0.0561476208
O  O25  1  0.71242000  0.80912000  0.12922000  1.0 -0.7488686027
O  O26  1  0.69227000  0.79239000  0.37898000  1.0 -0.6099288314
O  O27  1  0.81340000  0.83570000  0.55540000  1.0 -0.0096392213
O  O28  1  0.73627000  0.99321000  0.32190000  1.0 -0.6099288314
O  O29  1  0.78140000  0.08974000  0.50673000  1.0 -0.5692980073
O  O30  1  0.92944000  0.60261000  0.57188000  1.0 -0.5107678356
O  O31  1  0.87713000  0.50917000  0.38373000  1.0 -0.6099288314
O  O32  1  0.81550000  0.86970000  0.57630000  1.0 -0.0561476208
O  O33  1  0.80912000  0.12922000  0.71242000  1.0 -0.7488686027
O  O34  1  0.79239000  0.37898000  0.69227000  1.0 -0.6099288314
O  O35  1  0.83570000  0.55540000  0.81340000  1.0 -0.0096392213
O  O36  1  0.99321000  0.32190000  0.73627000  1.0 -0.6099288314
O  O37  1  0.08974000  0.50673000  0.78140000  1.0 -0.5692980073
O  O38  1  0.60261000  0.57188000  0.92944000  1.0 -0.5107678356
O  O39  1  0.50917000  0.38373000  0.87713000  1.0 -0.6099288314
O  O40  1  0.86970000  0.57630000  0.81550000  1.0 -0.0561476208
O  O41  1  0.12922000  0.71242000  0.80912000  1.0 -0.7488686027
O  O42  1  0.37898000  0.69227000  0.79239000  1.0 -0.6099288314
O  O43  1  0.55540000  0.81340000  0.83570000  1.0 -0.0096392213
O  O44  1  0.32190000  0.73627000  0.99321000  1.0 -0.6099288314
O  O45  1  0.50673000  0.78140000  0.08974000  1.0 -0.5692980073
O  O46  1  0.57188000  0.92944000  0.60261000  1.0 -0.5107678356
O  O47  1  0.38373000  0.87713000  0.50917000  1.0 -0.6099288314
O  O48  1  0.57630000  0.81550000  0.86970000  1.0 -0.0561476208
