# DDEC6 charges by PACMAN v1.1 (https://github.com/mtap-research/PACMAN-charge/)
data_GOHWIM_ASR_pacman
_symmetry_space_group_name_H-M   'P 1'
_cell_length_a   16.74340000
_cell_length_b   19.37720000
_cell_length_c   24.76210000
_cell_angle_alpha   90.00000000
_cell_angle_beta   105.44600000
_cell_angle_gamma   90.00000000
_symmetry_Int_Tables_number   1
_chemical_formula_structural   CaH108(C48O41)2
_chemical_formula_sum   'Ca2 H216 C192 O164'
_cell_volume   7743.65451911
_cell_formula_units_Z   2
loop_
 _symmetry_equiv_pos_site_id
 _symmetry_equiv_pos_as_xyz
  1  'x, y, z'
loop_
 _atom_site_type_symbol
 _atom_site_label
 _atom_site_symmetry_multiplicity
 _atom_site_fract_x
 _atom_site_fract_y
 _atom_site_fract_z
 _atom_site_occupancy
 _atom_site_charge
Ca  Ca1  1  0.40313000  0.82709000  0.72341000  1.0 1.235008821
Ca  Ca2  1  0.59687000  0.32709000  0.27659000  1.0 1.2335364671
H  H1  1  0.36105000  0.97466000  0.55289000  1.0 0.128467837
H  H2  1  0.43896000  0.96218000  0.64824000  1.0 0.1111610533
H  H3  1  0.49757000  0.83301000  0.61563000  1.0 0.1202513953
H  H4  1  0.59316000  0.95662000  0.64942000  1.0 0.1111610533
H  H5  1  0.54106000  0.89877000  0.53738000  1.0 0.1111610533
H  H6  1  0.59675000  0.99937000  0.50862000  1.0 0.128467837
H  H7  1  0.66766000  0.95955000  0.55406000  1.0 0.1202513953
H  H8  1  0.13206000  0.80889000  0.38463000  1.0 0.128467837
H  H9  1  0.16019000  0.81391000  0.48083000  1.0 0.128467837
H  H10  1  0.32565000  0.77146000  0.48900000  1.0 0.1111610533
H  H11  1  0.27080000  0.90475000  0.50975000  1.0 0.1202513953
H  H12  1  0.33670000  0.85581000  0.42038000  1.0 0.1111610533
H  H13  1  0.31340000  0.96756000  0.38236000  1.0 0.128467837
H  H14  1  0.38780000  0.96393000  0.43800000  1.0 0.1202513953
H  H15  1  0.17675000  0.62388000  0.20438000  1.0 0.128467837
H  H16  1  0.12482000  0.61737000  0.28349000  1.0 0.128467837
H  H17  1  0.28987000  0.65643000  0.34591000  1.0 0.1111610533
H  H18  1  0.13396000  0.72717000  0.33285000  1.0 0.1202513953
H  H19  1  0.26837000  0.76695000  0.28741000  1.0 0.1027368917
H  H20  1  0.17375000  0.84686000  0.23416000  1.0 0.128467837
H  H21  1  0.19159000  0.86185000  0.29992000  1.0 0.1111610533
H  H22  1  0.47109000  0.56088000  0.12363000  1.0 0.1202513953
H  H23  1  0.33412000  0.52969000  0.12362000  1.0 0.1202513953
H  H24  1  0.38492000  0.54529000  0.24196000  1.0 0.1202513953
H  H25  1  0.26952000  0.63077000  0.16199000  1.0 0.1111610533
H  H26  1  0.43505000  0.66748000  0.22957000  1.0 0.1202513953
H  H27  1  0.33707000  0.76195000  0.20381000  1.0 0.1202513953
H  H28  1  0.33101000  0.74543000  0.13944000  1.0 0.1111610533
H  H29  1  0.81951000  0.50473000  0.25725000  1.0 0.128467837
H  H30  1  0.70425000  0.44806000  0.19908000  1.0 0.1202513953
H  H31  1  0.61360000  0.49096000  0.27666000  1.0 0.1111610533
H  H32  1  0.59109000  0.53734000  0.16371000  1.0 0.1111610533
H  H33  1  0.65515000  0.61283000  0.26503000  1.0 0.1111610533
H  H34  1  0.69093000  0.69719000  0.20547000  1.0 0.1369607965
H  H35  1  0.59328000  0.69100000  0.19819000  1.0 0.128467837
H  H36  1  0.00408000  0.53778000  0.49113000  1.0 0.1369607965
H  H37  1  0.94418000  0.44584000  0.43525000  1.0 0.1202513953
H  H38  1  0.78469000  0.50988000  0.42055000  1.0 0.1111610533
H  H39  1  0.87896000  0.49207000  0.34115000  1.0 0.128467837
H  H40  1  0.84433000  0.61775000  0.39459000  1.0 0.1111610533
H  H41  1  0.93213000  0.67567000  0.34597000  1.0 0.128467837
H  H42  1  0.84829000  0.64856000  0.30339000  1.0 0.1202513953
H  H43  1  0.96046000  0.72091000  0.67375000  1.0 0.128467837
H  H44  1  0.97831000  0.60599000  0.65671000  1.0 0.1111610533
H  H45  1  0.82854000  0.61320000  0.56982000  1.0 0.1202513953
H  H46  1  0.99444000  0.59236000  0.56046000  1.0 0.1202513953
H  H47  1  0.88830000  0.71060000  0.52654000  1.0 0.1111610533
H  H48  1  0.99718000  0.76622000  0.50568000  1.0 0.128467837
H  H49  1  0.98480000  0.69484000  0.47183000  1.0 0.1202513953
H  H50  1  0.70911000  0.92791000  0.69185000  1.0 0.1369607965
H  H51  1  0.79323000  0.84486000  0.74270000  1.0 0.128467837
H  H52  1  0.72789000  0.74508000  0.65659000  1.0 0.1202513953
H  H53  1  0.88843000  0.80347000  0.67914000  1.0 0.128467837
H  H54  1  0.74881000  0.83137000  0.58397000  1.0 0.1111610533
H  H55  1  0.82759000  0.90832000  0.55152000  1.0 0.128467837
H  H56  1  0.87128000  0.83440000  0.55684000  1.0 0.1202513953
H  H57  1  0.19279000  0.63307000  0.64005000  1.0 0.1202513953
H  H58  1  0.30719000  0.69050000  0.62057000  1.0 0.128467837
H  H59  1  0.39231000  0.66026000  0.73457000  1.0 0.1027368917
H  H60  1  0.42616000  0.60471000  0.63518000  1.0 0.1111610533
H  H61  1  0.36084000  0.53644000  0.71752000  1.0 0.1111610533
H  H62  1  0.33307000  0.44213000  0.65310000  1.0 0.149701994
H  H63  1  0.43015000  0.45410000  0.67961000  1.0 0.149701994
H  H64  1  0.99952000  0.58218000  0.79864000  1.0 0.128467837
H  H65  1  0.04482000  0.67665000  0.75819000  1.0 0.1111610533
H  H66  1  0.21231000  0.64107000  0.81323000  1.0 0.1111610533
H  H67  1  0.12462000  0.63009000  0.69609000  1.0 0.1111610533
H  H68  1  0.18724000  0.52319000  0.77625000  1.0 0.1027368917
H  H69  1  0.12073000  0.44491000  0.70591000  1.0 0.128467837
H  H70  1  0.19737000  0.48235000  0.69091000  1.0 0.1027368917
H  H71  1  0.04070000  0.44044000  0.01483000  1.0 0.1202513953
H  H72  1  0.02845000  0.55638000  0.98345000  1.0 0.1202513953
H  H73  1  0.17977000  0.53836000  0.95199000  1.0 0.1202513953
H  H74  1  0.01369000  0.55548000  0.88113000  1.0 0.1111610533
H  H75  1  0.11745000  0.43428000  0.89532000  1.0 0.1202513953
H  H76  1  0.29389000  0.23005000  0.12362000  1.0 0.128467837
H  H77  1  0.20750000  0.31289000  0.14387000  1.0 0.128467837
H  H78  1  0.27098000  0.41145000  0.08041000  1.0 0.1202513953
H  H79  1  0.10997000  0.34991000  0.04408000  1.0 0.1202513953
H  H80  1  0.24759000  0.32566000  0.99789000  1.0 0.1202513953
H  H81  1  0.64031000  0.18056000  0.11868000  1.0 0.1202513953
H  H82  1  0.55597000  0.19347000  0.17880000  1.0 0.1111610533
H  H83  1  0.50569000  0.32393000  0.12725000  1.0 0.1202513953
H  H84  1  0.40689000  0.20145000  0.11878000  1.0 0.1111610533
H  H85  1  0.46927000  0.26596000  0.03266000  1.0 0.1111610533
H  H86  1  0.41368000  0.16922000  0.97673000  1.0 0.1369607965
H  H87  1  0.34056000  0.20863000  0.99470000  1.0 0.128467837
H  H88  1  0.87693000  0.32089000  0.01743000  1.0 0.128467837
H  H89  1  0.86789000  0.30206000  0.10977000  1.0 0.1369607965
H  H90  1  0.71313000  0.37288000  0.08051000  1.0 0.1111610533
H  H91  1  0.73318000  0.22760000  0.09809000  1.0 0.1202513953
H  H92  1  0.66423000  0.29583000  0.99264000  1.0 0.1027368917
H  H93  1  0.66399000  0.18561000  0.95240000  1.0 0.1202513953
H  H94  1  0.60322000  0.18718000  0.99265000  1.0 0.1202513953
H  H95  1  0.83676000  0.55291000  0.86815000  1.0 0.1202513953
H  H96  1  0.87212000  0.54645000  0.95696000  1.0 0.128467837
H  H97  1  0.71816000  0.49110000  0.95700000  1.0 0.1202513953
H  H98  1  0.87586000  0.41794000  0.98130000  1.0 0.1111610533
H  H99  1  0.73203000  0.39557000  0.88784000  1.0 0.1027368917
H  H100  1  0.81619000  0.31717000  0.85163000  1.0 0.1202513953
H  H101  1  0.79447000  0.28866000  0.90648000  1.0 0.1111610533
H  H102  1  0.54923000  0.58397000  0.64643000  1.0 0.1202513953
H  H103  1  0.68285000  0.61886000  0.69645000  1.0 0.1202513953
H  H104  1  0.62626000  0.61718000  0.79579000  1.0 0.1111610533
H  H105  1  0.74257000  0.52335000  0.77002000  1.0 0.1202513953
H  H106  1  0.57651000  0.49173000  0.76974000  1.0 0.128467837
H  H107  1  0.66812000  0.39509000  0.79317000  1.0 0.1111610533
H  H108  1  0.68814000  0.40279000  0.73383000  1.0 0.1111610533
H  H109  1  0.63895000  0.47466000  0.44711000  1.0 0.128467837
H  H110  1  0.56104000  0.46218000  0.35176000  1.0 0.1111610533
H  H111  1  0.50243000  0.33301000  0.38437000  1.0 0.1202513953
H  H112  1  0.40684000  0.45662000  0.35058000  1.0 0.1111610533
H  H113  1  0.45894000  0.39877000  0.46262000  1.0 0.1111610533
H  H114  1  0.40325000  0.49937000  0.49138000  1.0 0.128467837
H  H115  1  0.33234000  0.45955000  0.44594000  1.0 0.1202513953
H  H116  1  0.86794000  0.30889000  0.61537000  1.0 0.128467837
H  H117  1  0.83981000  0.31391000  0.51917000  1.0 0.128467837
H  H118  1  0.67435000  0.27146000  0.51100000  1.0 0.1111610533
H  H119  1  0.72920000  0.40475000  0.49025000  1.0 0.1202513953
H  H120  1  0.66330000  0.35581000  0.57962000  1.0 0.1111610533
H  H121  1  0.68660000  0.46756000  0.61764000  1.0 0.128467837
H  H122  1  0.61220000  0.46393000  0.56200000  1.0 0.1202513953
H  H123  1  0.82325000  0.12388000  0.79562000  1.0 0.128467837
H  H124  1  0.87518000  0.11737000  0.71651000  1.0 0.128467837
H  H125  1  0.71013000  0.15643000  0.65409000  1.0 0.1111610533
H  H126  1  0.86604000  0.22717000  0.66715000  1.0 0.1202513953
H  H127  1  0.73163000  0.26695000  0.71259000  1.0 0.1027368917
H  H128  1  0.82625000  0.34686000  0.76584000  1.0 0.128467837
H  H129  1  0.80841000  0.36185000  0.70008000  1.0 0.1111610533
H  H130  1  0.52891000  0.06088000  0.87637000  1.0 0.1202513953
H  H131  1  0.66588000  0.02969000  0.87638000  1.0 0.1202513953
H  H132  1  0.61508000  0.04529000  0.75804000  1.0 0.1202513953
H  H133  1  0.73048000  0.13077000  0.83801000  1.0 0.1111610533
H  H134  1  0.56495000  0.16748000  0.77043000  1.0 0.1202513953
H  H135  1  0.66293000  0.26195000  0.79619000  1.0 0.1202513953
H  H136  1  0.66899000  0.24543000  0.86056000  1.0 0.1111610533
H  H137  1  0.18049000  0.00473000  0.74275000  1.0 0.128467837
H  H138  1  0.29575000  0.94806000  0.80092000  1.0 0.1202513953
H  H139  1  0.38640000  0.99096000  0.72334000  1.0 0.1111610533
H  H140  1  0.40891000  0.03734000  0.83629000  1.0 0.1202513953
H  H141  1  0.34485000  0.11283000  0.73497000  1.0 0.1111610533
H  H142  1  0.30907000  0.19719000  0.79453000  1.0 0.1369607965
H  H143  1  0.40672000  0.19100000  0.80181000  1.0 0.1369607965
H  H144  1  0.99592000  0.03778000  0.50887000  1.0 0.1369607965
H  H145  1  0.05582000  0.94584000  0.56475000  1.0 0.1202513953
H  H146  1  0.21531000  0.00988000  0.57945000  1.0 0.1111610533
H  H147  1  0.12104000  0.99207000  0.65885000  1.0 0.128467837
H  H148  1  0.15567000  0.11775000  0.60541000  1.0 0.1111610533
H  H149  1  0.06787000  0.17567000  0.65403000  1.0 0.128467837
H  H150  1  0.15171000  0.14856000  0.69661000  1.0 0.1202513953
H  H151  1  0.03954000  0.22091000  0.32625000  1.0 0.128467837
H  H152  1  0.02169000  0.10599000  0.34329000  1.0 0.1111610533
H  H153  1  0.17146000  0.11320000  0.43018000  1.0 0.1202513953
H  H154  1  0.00556000  0.09236000  0.43954000  1.0 0.1202513953
H  H155  1  0.11170000  0.21060000  0.47346000  1.0 0.1111610533
H  H156  1  0.00282000  0.26622000  0.49432000  1.0 0.128467837
H  H157  1  0.01520000  0.19484000  0.52817000  1.0 0.1202513953
H  H158  1  0.29089000  0.42791000  0.30815000  1.0 0.1369607965
H  H159  1  0.20677000  0.34486000  0.25730000  1.0 0.128467837
H  H160  1  0.27211000  0.24508000  0.34341000  1.0 0.1202513953
H  H161  1  0.11157000  0.30347000  0.32086000  1.0 0.128467837
H  H162  1  0.25119000  0.33137000  0.41603000  1.0 0.1111610533
H  H163  1  0.17241000  0.40832000  0.44848000  1.0 0.128467837
H  H164  1  0.12872000  0.33440000  0.44316000  1.0 0.1202513953
H  H165  1  0.80721000  0.13307000  0.35995000  1.0 0.1202513953
H  H166  1  0.69281000  0.19050000  0.37943000  1.0 0.128467837
H  H167  1  0.60769000  0.16026000  0.26543000  1.0 0.1027368917
H  H168  1  0.57384000  0.10471000  0.36482000  1.0 0.1111610533
H  H169  1  0.63916000  0.03644000  0.28248000  1.0 0.1111610533
H  H170  1  0.66693000  0.94213000  0.34690000  1.0 0.149701994
H  H171  1  0.56985000  0.95410000  0.32039000  1.0 0.149701994
H  H172  1  0.00048000  0.08218000  0.20136000  1.0 0.128467837
H  H173  1  0.95518000  0.17665000  0.24181000  1.0 0.1111610533
H  H174  1  0.78769000  0.14107000  0.18677000  1.0 0.1111610533
H  H175  1  0.87538000  0.13009000  0.30391000  1.0 0.1111610533
H  H176  1  0.81276000  0.02319000  0.22375000  1.0 0.1027368917
H  H177  1  0.87927000  0.94491000  0.29409000  1.0 0.128467837
H  H178  1  0.80263000  0.98235000  0.30909000  1.0 0.1027368917
H  H179  1  0.95930000  0.94044000  0.98517000  1.0 0.1202513953
H  H180  1  0.97155000  0.05638000  0.01655000  1.0 0.1202513953
H  H181  1  0.82023000  0.03836000  0.04801000  1.0 0.1202513953
H  H182  1  0.98631000  0.05548000  0.11887000  1.0 0.1111610533
H  H183  1  0.88255000  0.93428000  0.10468000  1.0 0.1202513953
H  H184  1  0.70611000  0.73005000  0.87638000  1.0 0.128467837
H  H185  1  0.79250000  0.81289000  0.85613000  1.0 0.128467837
H  H186  1  0.72902000  0.91145000  0.91959000  1.0 0.1202513953
H  H187  1  0.89003000  0.84991000  0.95592000  1.0 0.1111610533
H  H188  1  0.75241000  0.82566000  0.00211000  1.0 0.1202513953
H  H189  1  0.35969000  0.68056000  0.88132000  1.0 0.1202513953
H  H190  1  0.44403000  0.69347000  0.82120000  1.0 0.1111610533
H  H191  1  0.49431000  0.82393000  0.87275000  1.0 0.1202513953
H  H192  1  0.59311000  0.70145000  0.88122000  1.0 0.1111610533
H  H193  1  0.53073000  0.76596000  0.96734000  1.0 0.1111610533
H  H194  1  0.58632000  0.66922000  0.02327000  1.0 0.1369607965
H  H195  1  0.65944000  0.70863000  0.00530000  1.0 0.128467837
H  H196  1  0.12307000  0.82089000  0.98257000  1.0 0.128467837
H  H197  1  0.13211000  0.80206000  0.89023000  1.0 0.1369607965
H  H198  1  0.28687000  0.87288000  0.91949000  1.0 0.1111610533
H  H199  1  0.26682000  0.72760000  0.90191000  1.0 0.1202513953
H  H200  1  0.33577000  0.79583000  0.00736000  1.0 0.1027368917
H  H201  1  0.33601000  0.68561000  0.04760000  1.0 0.1202513953
H  H202  1  0.39678000  0.68718000  0.00735000  1.0 0.1202513953
H  H203  1  0.16324000  0.05291000  0.13185000  1.0 0.1202513953
H  H204  1  0.12788000  0.04645000  0.04304000  1.0 0.128467837
H  H205  1  0.28184000  0.99110000  0.04300000  1.0 0.1202513953
H  H206  1  0.12414000  0.91794000  0.01870000  1.0 0.1111610533
H  H207  1  0.26797000  0.89557000  0.11216000  1.0 0.1027368917
H  H208  1  0.18381000  0.81717000  0.14837000  1.0 0.1202513953
H  H209  1  0.20553000  0.78866000  0.09352000  1.0 0.1111610533
H  H210  1  0.45077000  0.08397000  0.35357000  1.0 0.1202513953
H  H211  1  0.31715000  0.11886000  0.30355000  1.0 0.1202513953
H  H212  1  0.37374000  0.11718000  0.20421000  1.0 0.1111610533
H  H213  1  0.25743000  0.02335000  0.22998000  1.0 0.1202513953
H  H214  1  0.42349000  0.99173000  0.23026000  1.0 0.128467837
H  H215  1  0.33188000  0.89509000  0.20683000  1.0 0.1111610533
H  H216  1  0.31186000  0.90279000  0.26617000  1.0 0.1111610533
C  C1  1  0.41040000  0.94350000  0.56180000  1.0 0.2308054766
C  C2  1  0.42830000  0.92000000  0.62410000  1.0 0.0476693682
C  C3  1  0.50760000  0.87700000  0.63750000  1.0 0.0798464144
C  C4  1  0.57690000  0.91610000  0.62380000  1.0 0.0393865196
C  C5  1  0.55050000  0.94000000  0.56250000  1.0 0.0891994326
C  C6  1  0.61550000  0.98600000  0.54860000  1.0 -0.0374373265
C  C7  1  0.19170000  0.81200000  0.40600000  1.0 0.2308054766
C  C8  1  0.20030000  0.78710000  0.46550000  1.0 0.0287089774
C  C9  1  0.28600000  0.80140000  0.50220000  1.0 0.0798464144
C  C10  1  0.30850000  0.87360000  0.49580000  1.0 0.0476693682
C  C11  1  0.30120000  0.88930000  0.43420000  1.0 0.0717397036
C  C12  1  0.32680000  0.96080000  0.42340000  1.0 0.0199206964
C  C13  1  0.20560000  0.64960000  0.23910000  1.0 0.2501468622
C  C14  1  0.18610000  0.61530000  0.28860000  1.0 0.0393865196
C  C15  1  0.22880000  0.65500000  0.34180000  1.0 0.0798464144
C  C16  1  0.19440000  0.72800000  0.33490000  1.0 0.0476693682
C  C17  1  0.20760000  0.76050000  0.28230000  1.0 0.0891994326
C  C18  1  0.16580000  0.82880000  0.26980000  1.0 -0.0563885513
C  C19  1  0.44950000  0.57470000  0.15600000  1.0 0.2389620109
C  C20  1  0.37820000  0.52680000  0.15980000  1.0 0.0393865196
C  C21  1  0.34240000  0.55020000  0.20520000  1.0 0.0798464144
C  C22  1  0.31580000  0.62540000  0.19680000  1.0 0.0393865196
C  C23  1  0.39140000  0.66940000  0.19310000  1.0 0.0798464144
C  C24  1  0.36790000  0.74330000  0.17800000  1.0 -0.0374373265
C  C25  1  0.76280000  0.51830000  0.25950000  1.0 0.2244236247
C  C26  1  0.70290000  0.45940000  0.23820000  1.0 0.0287089774
C  C27  1  0.61540000  0.48150000  0.23730000  1.0 0.0891994326
C  C28  1  0.59310000  0.54690000  0.20370000  1.0 0.0476693682
C  C29  1  0.65590000  0.60170000  0.22570000  1.0 0.0891994326
C  C30  1  0.64220000  0.66666667  0.19220000  1.0 -0.0499972234
C  C31  1  0.94810000  0.54510000  0.46470000  1.0 0.2308054766
C  C32  1  0.90670000  0.47540000  0.45080000  1.0 0.0393865196
C  C33  1  0.82450000  0.48260000  0.40530000  1.0 0.0891994326
C  C34  1  0.84130000  0.52010000  0.35770000  1.0 0.0476693682
C  C35  1  0.88180000  0.59070000  0.37720000  1.0 0.0891994326
C  C36  1  0.90080000  0.63380000  0.32990000  1.0 -0.0499972234
C  C37  1  0.93050000  0.70240000  0.63610000  1.0 0.2308054766
C  C38  1  0.92160000  0.62580000  0.64130000  1.0 0.0476693682
C  C39  1  0.88540000  0.59390000  0.58550000  1.0 0.0798464144
C  C40  1  0.93780000  0.61270000  0.54610000  1.0 0.0476693682
C  C41  1  0.94470000  0.69080000  0.54300000  1.0 0.0798464144
C  C42  1  0.00160000  0.71540000  0.50980000  1.0 -0.0563885513
C  C43  1  0.71950000  0.88640000  0.67070000  1.0 0.2308054766
C  C44  1  0.74610000  0.82820000  0.71150000  1.0 0.0199206964
C  C45  1  0.77670000  0.76710000  0.68330000  1.0 0.0606240101
C  C46  1  0.83560000  0.78830000  0.65220000  1.0 0.0393865196
C  C47  1  0.80090000  0.84780000  0.61100000  1.0 0.0798464144
C  C48  1  0.85730000  0.87330000  0.57860000  1.0 -0.0319616942
C  C49  1  0.24980000  0.62340000  0.66420000  1.0 0.2389620109
C  C50  1  0.30720000  0.68310000  0.66050000  1.0 0.0287089774
C  C51  1  0.39290000  0.66590000  0.69450000  1.0 0.0798464144
C  C52  1  0.42180000  0.59950000  0.67450000  1.0 0.0606240101
C  C53  1  0.36150000  0.54290000  0.67760000  1.0 0.0717397036
C  C54  1  0.37960000  0.47410000  0.65420000  1.0 0.0393865196
C  C55  1  0.05850000  0.58200000  0.79680000  1.0 0.2389620109
C  C56  1  0.08560000  0.65570000  0.79120000  1.0 0.0393865196
C  C57  1  0.16890000  0.65780000  0.77970000  1.0 0.0798464144
C  C58  1  0.16680000  0.61230000  0.72980000  1.0 0.0476693682
C  C59  1  0.14580000  0.53990000  0.74180000  1.0 0.0798464144
C  C60  1  0.14120000  0.48970000  0.69580000  1.0 -0.0499972234
C  C61  1  0.07030000  0.45520000  0.98660000  1.0 0.2389620109
C  C62  1  0.08380000  0.53360000  0.98990000  1.0 0.0393865196
C  C63  1  0.12250000  0.55770000  0.94510000  1.0 0.0717397036
C  C64  1  0.06990000  0.53400000  0.88860000  1.0 0.0717397036
C  C65  1  0.06130000  0.45580000  0.88770000  1.0 -0.0319616942
C  C66  1  0.00700000  0.42760000  0.83390000  1.0 0.5621057601
C  C67  1  0.28210000  0.27100000  0.09820000  1.0 0.2389620109
C  C68  1  0.25400000  0.32990000  0.12910000  1.0 0.0199206964
C  C69  1  0.22250000  0.38940000  0.09000000  1.0 0.0606240101
C  C70  1  0.16310000  0.36520000  0.03660000  1.0 0.0476693682
C  C71  1  0.19800000  0.30880000  0.00930000  1.0 -0.0110349095
C  C72  1  0.13630000  0.27750000  0.96010000  1.0 0.6388356538
C  C73  1  0.59390000  0.21450000  0.10740000  1.0 0.2389620109
C  C74  1  0.56880000  0.23610000  0.15990000  1.0 0.0393865196
C  C75  1  0.49230000  0.27980000  0.14390000  1.0 0.0717397036
C  C76  1  0.42400000  0.24380000  0.10160000  1.0 0.0393865196
C  C77  1  0.45540000  0.22340000  0.05120000  1.0 0.0891994326
C  C78  1  0.39160000  0.18110000  0.00890000  1.0 -0.0669426619
C  C79  1  0.82100000  0.32190000  0.02470000  1.0 0.2501468622
C  C80  1  0.83060000  0.33770000  0.08680000  1.0 0.0199206964
C  C81  1  0.74760000  0.33300000  0.09910000  1.0 0.0798464144
C  C82  1  0.70280000  0.26760000  0.07650000  1.0 0.0476693682
C  C83  1  0.69750000  0.25760000  0.01490000  1.0 0.0798464144
C  C84  1  0.66190000  0.18980000  0.99190000  1.0 -0.0499972234
C  C85  1  0.80370000  0.52070000  0.88530000  1.0 0.1369607965
C  C86  1  0.81140000  0.54210000  0.93870000  1.0 0.0199206964
C  C87  1  0.78000000  0.49200000  0.97010000  1.0 0.0717397036
C  C88  1  0.81470000  0.41940000  0.96410000  1.0 0.0606240101
C  C89  1  0.79370000  0.39600000  0.90280000  1.0 0.0891994326
C  C90  1  0.82680000  0.32400000  0.89260000  1.0 -0.0374373265
C  C91  1  0.56760000  0.57450000  0.68760000  1.0 0.2308054766
C  C92  1  0.63710000  0.62380000  0.71510000  1.0 0.0287089774
C  C93  1  0.67070000  0.60750000  0.77670000  1.0 0.0891994326
C  C94  1  0.69260000  0.53200000  0.78400000  1.0 0.0287089774
C  C95  1  0.62430000  0.48590000  0.75310000  1.0 0.0798464144
C  C96  1  0.64490000  0.40990000  0.75380000  1.0 -0.0499972234
C  C97  1  0.58960000  0.44350000  0.43820000  1.0 0.2308054766
C  C98  1  0.57170000  0.42000000  0.37590000  1.0 0.0476693682
C  C99  1  0.49240000  0.37700000  0.36250000  1.0 0.0798464144
C  C100  1  0.42310000  0.41610000  0.37620000  1.0 0.0393865196
C  C101  1  0.44950000  0.44000000  0.43750000  1.0 0.0891994326
C  C102  1  0.38450000  0.48600000  0.45140000  1.0 -0.0374373265
C  C103  1  0.80830000  0.31200000  0.59400000  1.0 0.2308054766
C  C104  1  0.79970000  0.28710000  0.53450000  1.0 0.0287089774
C  C105  1  0.71400000  0.30140000  0.49780000  1.0 0.0798464144
C  C106  1  0.69150000  0.37360000  0.50420000  1.0 0.0476693682
C  C107  1  0.69880000  0.38930000  0.56580000  1.0 0.0717397036
C  C108  1  0.67320000  0.46080000  0.57660000  1.0 0.0199206964
C  C109  1  0.79440000  0.14960000  0.76090000  1.0 0.2501468622
C  C110  1  0.81390000  0.11530000  0.71140000  1.0 0.0393865196
C  C111  1  0.77120000  0.15500000  0.65820000  1.0 0.0798464144
C  C112  1  0.80560000  0.22800000  0.66510000  1.0 0.0476693682
C  C113  1  0.79240000  0.26050000  0.71770000  1.0 0.0891994326
C  C114  1  0.83420000  0.32880000  0.73020000  1.0 -0.0563885513
C  C115  1  0.55050000  0.07470000  0.84400000  1.0 0.2389620109
C  C116  1  0.62180000  0.02680000  0.84020000  1.0 0.0393865196
C  C117  1  0.65760000  0.05020000  0.79480000  1.0 0.0798464144
C  C118  1  0.68420000  0.12540000  0.80320000  1.0 0.0393865196
C  C119  1  0.60860000  0.16940000  0.80690000  1.0 0.0798464144
C  C120  1  0.63210000  0.24330000  0.82200000  1.0 -0.0374373265
C  C121  1  0.23720000  0.01830000  0.74050000  1.0 0.2244236247
C  C122  1  0.29710000  0.95940000  0.76180000  1.0 0.0287089774
C  C123  1  0.38460000  0.98150000  0.76270000  1.0 0.0891994326
C  C124  1  0.40690000  0.04690000  0.79630000  1.0 0.0476693682
C  C125  1  0.34410000  0.10170000  0.77430000  1.0 0.0891994326
C  C126  1  0.35780000  0.16667000  0.80780000  1.0 -0.0499972234
C  C127  1  0.05190000  0.04510000  0.53530000  1.0 0.2308054766
C  C128  1  0.09330000  0.97540000  0.54920000  1.0 0.0393865196
C  C129  1  0.17550000  0.98260000  0.59470000  1.0 0.0891994326
C  C130  1  0.15870000  0.02010000  0.64230000  1.0 0.0476693682
C  C131  1  0.11820000  0.09070000  0.62280000  1.0 0.0891994326
C  C132  1  0.09920000  0.13380000  0.67010000  1.0 -0.0499972234
C  C133  1  0.06950000  0.20240000  0.36390000  1.0 0.2308054766
C  C134  1  0.07840000  0.12580000  0.35870000  1.0 0.0476693682
C  C135  1  0.11460000  0.09390000  0.41450000  1.0 0.0798464144
C  C136  1  0.06220000  0.11270000  0.45390000  1.0 0.0476693682
C  C137  1  0.05530000  0.19080000  0.45700000  1.0 0.0798464144
C  C138  1  0.99840000  0.21540000  0.49020000  1.0 -0.0563885513
C  C139  1  0.28050000  0.38640000  0.32930000  1.0 0.2308054766
C  C140  1  0.25390000  0.32820000  0.28850000  1.0 0.0199206964
C  C141  1  0.22330000  0.26710000  0.31670000  1.0 0.0606240101
C  C142  1  0.16440000  0.28830000  0.34780000  1.0 0.0393865196
C  C143  1  0.19910000  0.34780000  0.38900000  1.0 0.0798464144
C  C144  1  0.14270000  0.37330000  0.42140000  1.0 -0.0319616942
C  C145  1  0.75020000  0.12340000  0.33580000  1.0 0.2389620109
C  C146  1  0.69280000  0.18310000  0.33950000  1.0 0.0287089774
C  C147  1  0.60710000  0.16590000  0.30550000  1.0 0.0798464144
C  C148  1  0.57820000  0.09950000  0.32550000  1.0 0.0606240101
C  C149  1  0.63850000  0.04290000  0.32240000  1.0 0.0717397036
C  C150  1  0.62040000  0.97410000  0.34580000  1.0 0.0393865196
C  C151  1  0.94150000  0.08200000  0.20320000  1.0 0.2389620109
C  C152  1  0.91440000  0.15570000  0.20880000  1.0 0.0393865196
C  C153  1  0.83110000  0.15780000  0.22030000  1.0 0.0798464144
C  C154  1  0.83320000  0.11230000  0.27020000  1.0 0.0476693682
C  C155  1  0.85420000  0.03990000  0.25820000  1.0 0.0798464144
C  C156  1  0.85880000  0.98970000  0.30420000  1.0 -0.0499972234
C  C157  1  0.92970000  0.95520000  0.01340000  1.0 0.2389620109
C  C158  1  0.91620000  0.03360000  0.01010000  1.0 0.0393865196
C  C159  1  0.87750000  0.05770000  0.05490000  1.0 0.0717397036
C  C160  1  0.93010000  0.03400000  0.11140000  1.0 0.0717397036
C  C161  1  0.93870000  0.95580000  0.11230000  1.0 -0.0319616942
C  C162  1  0.99300000  0.92760000  0.16610000  1.0 0.5621057601
C  C163  1  0.71790000  0.77100000  0.90180000  1.0 0.2389620109
C  C164  1  0.74600000  0.82990000  0.87090000  1.0 0.0199206964
C  C165  1  0.77750000  0.88940000  0.91000000  1.0 0.0606240101
C  C166  1  0.83690000  0.86520000  0.96340000  1.0 0.0476693682
C  C167  1  0.80200000  0.80880000  0.99070000  1.0 -0.0110349095
C  C168  1  0.86370000  0.77750000  0.03990000  1.0 0.6388356538
C  C169  1  0.40610000  0.71450000  0.89260000  1.0 0.2389620109
C  C170  1  0.43120000  0.73610000  0.84010000  1.0 0.0393865196
C  C171  1  0.50770000  0.77980000  0.85610000  1.0 0.0717397036
C  C172  1  0.57600000  0.74380000  0.89840000  1.0 0.0393865196
C  C173  1  0.54460000  0.72340000  0.94880000  1.0 0.0891994326
C  C174  1  0.60840000  0.68110000  0.99110000  1.0 -0.0669426619
C  C175  1  0.17900000  0.82190000  0.97530000  1.0 0.2501468622
C  C176  1  0.16940000  0.83770000  0.91320000  1.0 0.0199206964
C  C177  1  0.25240000  0.83300000  0.90090000  1.0 0.0798464144
C  C178  1  0.29720000  0.76760000  0.92350000  1.0 0.0476693682
C  C179  1  0.30250000  0.75760000  0.98510000  1.0 0.0798464144
C  C180  1  0.33810000  0.68980000  0.00810000  1.0 -0.0499972234
C  C181  1  0.19630000  0.02070000  0.11470000  1.0 0.1369607965
C  C182  1  0.18860000  0.04210000  0.06130000  1.0 0.0199206964
C  C183  1  0.22000000  0.99200000  0.02990000  1.0 0.0717397036
C  C184  1  0.18530000  0.91940000  0.03590000  1.0 0.0606240101
C  C185  1  0.20630000  0.89600000  0.09720000  1.0 0.0891994326
C  C186  1  0.17320000  0.82400000  0.10740000  1.0 -0.0374373265
C  C187  1  0.43240000  0.07450000  0.31240000  1.0 0.2308054766
C  C188  1  0.36290000  0.12380000  0.28490000  1.0 0.0287089774
C  C189  1  0.32930000  0.10750000  0.22330000  1.0 0.0891994326
C  C190  1  0.30740000  0.03200000  0.21600000  1.0 0.0287089774
C  C191  1  0.37570000  0.98590000  0.24690000  1.0 0.0798464144
C  C192  1  0.35510000  0.90990000  0.24620000  1.0 -0.0499972234
O  O1  1  0.47690000  0.97860000  0.55265000  1.0 -0.2187786921
O  O2  1  0.36330000  0.88440000  0.63550000  1.0 -0.4064573197
O  O3  1  0.52730000  0.86200000  0.69634000  1.0 -0.3425737096
O  O4  1  0.64460000  0.86810000  0.63178000  1.0 -0.2607924817
O  O5  1  0.63090000  0.04480000  0.58110000  1.0 -0.2513707688
O  O6  1  0.21770000  0.87870000  0.40370000  1.0 -0.2098515976
O  O7  1  0.17790000  0.71710000  0.46460000  1.0 -0.2287139653
O  O8  1  0.29040000  0.78280000  0.55780000  1.0 -0.309440866
O  O9  1  0.39200000  0.88440000  0.52785000  1.0 -0.2670838044
O  O10  1  0.29440000  0.01160000  0.44450000  1.0 -0.2607924817
O  O11  1  0.17580000  0.71890000  0.23420000  1.0 -0.2513707688
O  O12  1  0.21070000  0.54490000  0.29170000  1.0 -0.2884519645
O  O13  1  0.21340000  0.62180000  0.38970000  1.0 -0.2010606694
O  O14  1  0.23760000  0.76590000  0.38198000  1.0 -0.2607924817
O  O15  1  0.08060000  0.82370000  0.26550000  1.0 -0.2187786921
O  O16  1  0.42290000  0.64240000  0.15000000  1.0 -0.2398364151
O  O17  1  0.40910000  0.45910000  0.16610000  1.0 -0.2287139653
O  O18  1  0.27180000  0.50720000  0.20520000  1.0 -0.2884519645
O  O19  1  0.29000000  0.64740000  0.24477000  1.0 -0.2607924817
O  O20  1  0.43710000  0.78300000  0.18130000  1.0 -0.2670838044
O  O21  1  0.73670000  0.57740000  0.22630000  1.0 -0.2513707688
O  O22  1  0.72390000  0.39820000  0.27208000  1.0 -0.2830375027
O  O23  1  0.56310000  0.42570000  0.21690000  1.0 -0.4429918526
O  O24  1  0.51310000  0.56750000  0.20713000  1.0 -0.2607924817
O  O25  1  0.62950000  0.65380000  0.13420000  1.0 -0.3425737096
O  O26  1  0.95800000  0.57910000  0.41810000  1.0 -0.2398364151
O  O27  1  0.89460000  0.44160000  0.49850000  1.0 -0.3294765292
O  O28  1  0.79000000  0.41870000  0.38730000  1.0 -0.2398364151
O  O29  1  0.76440000  0.53150000  0.31642000  1.0 -0.2607924817
O  O30  1  0.94680000  0.59550000  0.30180000  1.0 -0.3013332932
O  O31  1  0.97700000  0.71750000  0.59890000  1.0 -0.2398364151
O  O32  1  0.87560000  0.61230000  0.67980000  1.0 -0.2830375027
O  O33  1  0.87890000  0.51970000  0.58830000  1.0 -0.1437016724
O  O34  1  0.89950000  0.58480000  0.49260000  1.0 -0.2513707688
O  O35  1  0.08460000  0.69740000  0.53590000  1.0 -0.2607924817
O  O36  1  0.78010000  0.90330000  0.64320000  1.0 -0.2287139653
O  O37  1  0.68180000  0.80690000  0.73467000  1.0 -0.1187536119
O  O38  1  0.81350000  0.71770000  0.72570000  1.0 -0.3175369053
O  O39  1  0.85160000  0.73150000  0.62100000  1.0 -0.2398364151
O  O40  1  0.92860000  0.90150000  0.61020000  1.0 -0.3013332932
O  O41  1  0.28130000  0.56240000  0.64570000  1.0 -0.2398364151
O  O42  1  0.28410000  0.74590000  0.68316000  1.0 -0.2513707688
O  O43  1  0.44690000  0.72300000  0.69061000  1.0 -0.4300008117
O  O44  1  0.50050000  0.58410000  0.71110000  1.0 -0.2513707688
O  O45  1  0.38980000  0.47890000  0.60520000  1.0 -0.3175369053
O  O46  1  0.06480000  0.54070000  0.75180000  1.0 -0.2287139653
O  O47  1  0.08270000  0.69440000  0.83940000  1.0 -0.3294765292
O  O48  1  0.18490000  0.72820000  0.76800000  1.0 -0.2287139653
O  O49  1  0.24760000  0.61580000  0.72062000  1.0 -0.2513707688
O  O50  1  0.08750000  0.51340000  0.64430000  1.0 -0.3294765292
O  O51  1  0.02300000  0.43620000  0.93154000  1.0 -0.2187786921
O  O52  1  0.13130000  0.55140000  0.04360000  1.0 -0.2830375027
O  O53  1  0.12570000  0.63130000  0.94500000  1.0 -0.2670838044
O  O54  1  0.10840000  0.55560000  0.84720000  1.0 -0.2287139653
O  O55  1  0.93300000  0.45970000  0.81400000  1.0 -0.5135144441
O  O56  1  0.22130000  0.25230000  0.04920000  1.0 -0.2010606694
O  O57  1  0.31850000  0.35200000  0.17459000  1.0 -0.1187536119
O  O58  1  0.18290000  0.43980000  0.11490000  1.0 -0.3294765292
O  O59  1  0.14810000  0.42400000  0.99837000  1.0 -0.2398364151
O  O60  1  0.05480000  0.25490000  0.98680000  1.0 -0.4429918526
O  O61  1  0.52710000  0.18210000  0.06955000  1.0 -0.2398364151
O  O62  1  0.63400000  0.27160000  0.19782000  1.0 -0.383506134
O  O63  1  0.47080000  0.29530000  0.19547000  1.0 -0.309440866
O  O64  1  0.35530000  0.28960000  0.08475000  1.0 -0.2513707688
O  O65  1  0.37240000  0.11860000  0.03470000  1.0 -0.2287139653
O  O66  1  0.78210000  0.26000000  0.00920000  1.0 -0.2098515976
O  O67  1  0.86730000  0.40390000  0.10140000  1.0 -0.2884519645
O  O68  1  0.75550000  0.33710000  0.15910000  1.0 -0.2607924817
O  O69  1  0.62190000  0.27060000  0.08490000  1.0 -0.2398364151
O  O70  1  0.70640000  0.13560000  0.02330000  1.0 -0.2830375027
O  O71  1  0.82590000  0.44410000  0.87150000  1.0 -0.2010606694
O  O72  1  0.77570000  0.60920000  0.94140000  1.0 -0.2398364151
O  O73  1  0.80570000  0.51380000  0.02810000  1.0 -0.2607924817
O  O74  1  0.77360000  0.37720000  0.99370000  1.0 -0.2607924817
O  O75  1  0.90880000  0.31230000  0.91670000  1.0 -0.1880766599
O  O76  1  0.59830000  0.50630000  0.69670000  1.0 -0.2607924817
O  O77  1  0.60440000  0.69120000  0.70550000  1.0 -0.2010606694
O  O78  1  0.74000000  0.64840000  0.80180000  1.0 -0.3294765292
O  O79  1  0.71350000  0.51610000  0.84420000  1.0 -0.2098515976
O  O80  1  0.57440000  0.36680000  0.72840000  1.0 -0.309440866
O  O81  1  0.99840000  0.35370000  0.84210000  1.0 -0.3013332932
O  O82  1  0.19030000  0.24550000  0.92360000  1.0 -0.4300008117
O  O83  1  0.52310000  0.47860000  0.44735000  1.0 -0.2187786921
O  O84  1  0.63670000  0.38440000  0.36450000  1.0 -0.4064573197
O  O85  1  0.47270000  0.36200000  0.30366000  1.0 -0.3425737096
O  O86  1  0.35540000  0.36810000  0.36822000  1.0 -0.2607924817
O  O87  1  0.36910000  0.54480000  0.41890000  1.0 -0.2513707688
O  O88  1  0.78230000  0.37870000  0.59630000  1.0 -0.2098515976
O  O89  1  0.82210000  0.21710000  0.53540000  1.0 -0.2287139653
O  O90  1  0.70960000  0.28280000  0.44220000  1.0 -0.309440866
O  O91  1  0.60800000  0.38440000  0.47215000  1.0 -0.2670838044
O  O92  1  0.70560000  0.51160000  0.55550000  1.0 -0.2670838044
O  O93  1  0.82420000  0.21890000  0.76580000  1.0 -0.2513707688
O  O94  1  0.78930000  0.04490000  0.70830000  1.0 -0.2884519645
O  O95  1  0.78660000  0.12180000  0.61030000  1.0 -0.2010606694
O  O96  1  0.76240000  0.26590000  0.61802000  1.0 -0.2607924817
O  O97  1  0.91940000  0.32370000  0.73450000  1.0 -0.2187786921
O  O98  1  0.57710000  0.14240000  0.85000000  1.0 -0.2398364151
O  O99  1  0.59090000  0.95910000  0.83390000  1.0 -0.2287139653
O  O100  1  0.72820000  0.00720000  0.79480000  1.0 -0.2830375027
O  O101  1  0.71000000  0.14740000  0.75523000  1.0 -0.2607924817
O  O102  1  0.56290000  0.28300000  0.81870000  1.0 -0.2670838044
O  O103  1  0.26330000  0.07740000  0.77370000  1.0 -0.2513707688
O  O104  1  0.27610000  0.89820000  0.72792000  1.0 -0.2830375027
O  O105  1  0.43690000  0.92570000  0.78310000  1.0 -0.4429918526
O  O106  1  0.48690000  0.06750000  0.79287000  1.0 -0.2607924817
O  O107  1  0.37050000  0.15380000  0.86580000  1.0 -0.3425737096
O  O108  1  0.04200000  0.07910000  0.58190000  1.0 -0.2398364151
O  O109  1  0.10540000  0.94160000  0.50150000  1.0 -0.3294765292
O  O110  1  0.21000000  0.91870000  0.61270000  1.0 -0.2398364151
O  O111  1  0.23560000  0.03150000  0.68358000  1.0 -0.2607924817
O  O112  1  0.05320000  0.09550000  0.69820000  1.0 -0.3013332932
O  O113  1  0.02300000  0.21750000  0.40110000  1.0 -0.2398364151
O  O114  1  0.12440000  0.11230000  0.32020000  1.0 -0.2884519645
O  O115  1  0.12110000  0.01970000  0.41170000  1.0 -0.1437016724
O  O116  1  0.10050000  0.08480000  0.50740000  1.0 -0.2513707688
O  O117  1  0.91540000  0.19740000  0.46410000  1.0 -0.2607924817
O  O118  1  0.21990000  0.40330000  0.35680000  1.0 -0.2287139653
O  O119  1  0.31820000  0.30690000  0.26533000  1.0 -0.1187536119
O  O120  1  0.18650000  0.21770000  0.27430000  1.0 -0.3175369053
O  O121  1  0.14840000  0.23150000  0.37900000  1.0 -0.2398364151
O  O122  1  0.07140000  0.40150000  0.38980000  1.0 -0.3013332932
O  O123  1  0.71870000  0.06240000  0.35430000  1.0 -0.2398364151
O  O124  1  0.71590000  0.24590000  0.31684000  1.0 -0.2513707688
O  O125  1  0.55310000  0.22300000  0.30939000  1.0 -0.4300008117
O  O126  1  0.49950000  0.08410000  0.28890000  1.0 -0.2513707688
O  O127  1  0.61020000  0.97890000  0.39480000  1.0 -0.3175369053
O  O128  1  0.93520000  0.04070000  0.24820000  1.0 -0.2287139653
O  O129  1  0.91730000  0.19440000  0.16060000  1.0 -0.3294765292
O  O130  1  0.81510000  0.22820000  0.23200000  1.0 -0.2287139653
O  O131  1  0.75240000  0.11580000  0.27938000  1.0 -0.2513707688
O  O132  1  0.91250000  0.01340000  0.35570000  1.0 -0.3294765292
O  O133  1  0.97700000  0.93620000  0.06846000  1.0 -0.2187786921
O  O134  1  0.86870000  0.05140000  0.95640000  1.0 -0.2830375027
O  O135  1  0.87430000  0.13130000  0.05500000  1.0 -0.2607924817
O  O136  1  0.89160000  0.05560000  0.15280000  1.0 -0.2287139653
O  O137  1  0.06700000  0.95970000  0.18600000  1.0 -0.5135144441
O  O138  1  0.77870000  0.75230000  0.95080000  1.0 -0.2010606694
O  O139  1  0.68150000  0.85200000  0.82541000  1.0 -0.1254434137
O  O140  1  0.81710000  0.93980000  0.88510000  1.0 -0.3294765292
O  O141  1  0.85190000  0.92400000  0.00163000  1.0 -0.2398364151
O  O142  1  0.94520000  0.75490000  0.01320000  1.0 -0.4429918526
O  O143  1  0.47290000  0.68210000  0.93045000  1.0 -0.2398364151
O  O144  1  0.36600000  0.77160000  0.80218000  1.0 -0.383506134
O  O145  1  0.52920000  0.79530000  0.80453000  1.0 -0.309440866
O  O146  1  0.64470000  0.78960000  0.91525000  1.0 -0.2513707688
O  O147  1  0.62760000  0.61860000  0.96530000  1.0 -0.2287139653
O  O148  1  0.21790000  0.76000000  0.99080000  1.0 -0.2098515976
O  O149  1  0.13270000  0.90390000  0.89860000  1.0 -0.3013332932
O  O150  1  0.24450000  0.83710000  0.84090000  1.0 -0.2607924817
O  O151  1  0.37810000  0.77060000  0.91510000  1.0 -0.2287139653
O  O152  1  0.29360000  0.63560000  0.97670000  1.0 -0.2884519645
O  O153  1  0.17410000  0.94410000  0.12850000  1.0 -0.2010606694
O  O154  1  0.22430000  0.10920000  0.05860000  1.0 -0.2398364151
O  O155  1  0.19430000  0.01380000  0.97190000  1.0 -0.2670838044
O  O156  1  0.22640000  0.87720000  0.00630000  1.0 -0.2607924817
O  O157  1  0.09120000  0.81230000  0.08330000  1.0 -0.1880766599
O  O158  1  0.40170000  0.00630000  0.30330000  1.0 -0.2607924817
O  O159  1  0.39560000  0.19120000  0.29450000  1.0 -0.2010606694
O  O160  1  0.26000000  0.14840000  0.19820000  1.0 -0.3294765292
O  O161  1  0.28650000  0.01610000  0.15580000  1.0 -0.2098515976
O  O162  1  0.42560000  0.86680000  0.27160000  1.0 -0.309440866
O  O163  1  0.00160000  0.85370000  0.15790000  1.0 -0.3013332932
O  O164  1  0.80970000  0.74550000  0.07640000  1.0 -0.4300008117
