# DDEC6 charges by PACMAN v1.1 (https://github.com/mtap-research/PACMAN-charge/)
data_GOHWEI_ion_pacman
_symmetry_space_group_name_H-M   'P 1'
_cell_length_a   10.88130000
_cell_length_b   22.42660000
_cell_length_c   30.71290000
_cell_angle_alpha   90.00000000
_cell_angle_beta   90.00000000
_cell_angle_gamma   90.00000000
_symmetry_Int_Tables_number   1
_chemical_formula_structural   SrH54C48(NO24)2
_chemical_formula_sum   'Sr4 H216 C192 N8 O192'
_cell_volume   7494.88626546
_cell_formula_units_Z   4
loop_
 _symmetry_equiv_pos_site_id
 _symmetry_equiv_pos_as_xyz
  1  'x, y, z'
loop_
 _atom_site_type_symbol
 _atom_site_label
 _atom_site_symmetry_multiplicity
 _atom_site_fract_x
 _atom_site_fract_y
 _atom_site_fract_z
 _atom_site_occupancy
 _atom_site_charge
Sr  Sr1  1  0.99875000  0.91785000  0.86546000  1.0 1.3121145308
Sr  Sr2  1  0.50125000  0.08215000  0.36546000  1.0 1.3121145308
Sr  Sr3  1  0.00125000  0.41785000  0.63454000  1.0 1.3121145308
Sr  Sr4  1  0.49875000  0.58215000  0.13454000  1.0 1.3121145308
H  H1  1  0.80497000  0.04938000  0.83014000  1.0 0.130092685
H  H2  1  0.61718000  0.01199000  0.80461000  1.0 0.1207330959
H  H3  1  0.50642000  0.04616000  0.88615000  1.0 0.1207330959
H  H4  1  0.55265000  0.92688000  0.85567000  1.0 0.1114780512
H  H5  1  0.67739000  0.98868000  0.92516000  1.0 0.1207330959
H  H6  1  0.67232000  0.88637000  0.94052000  1.0 0.1395697075
H  H7  1  0.71959000  0.87082000  0.89233000  1.0 0.1207330959
H  H8  1  0.05550000  0.23664000  0.93217000  1.0 0.1207330959
H  H9  1  0.95248000  0.22283000  0.86586000  1.0 0.1207330959
H  H10  1  0.73995000  0.18735000  0.91510000  1.0 0.1207330959
H  H11  1  0.89732000  0.11469000  0.86165000  1.0 0.1207330959
H  H12  1  0.86968000  0.11374000  0.95484000  1.0 0.1114780512
H  H13  1  0.04291000  0.04477000  0.95262000  1.0 0.1395697075
H  H14  1  0.91438000  0.01646000  0.93786000  1.0 0.1207330959
H  H15  1  0.00960000  0.33323000  0.10973000  1.0 0.1207330959
H  H16  1  0.03040000  0.36228000  0.03894000  1.0 0.130092685
H  H17  1  0.81091000  0.30003000  0.01564000  1.0 0.1207330959
H  H18  1  0.05766000  0.26362000  0.99597000  1.0 0.1114780512
H  H19  1  0.88830000  0.20935000  0.05553000  1.0 0.1114780512
H  H20  1  0.01743000  0.13534000  0.02311000  1.0 0.1395697075
H  H21  1  0.13650000  0.17326000  0.03607000  1.0 0.130092685
H  H22  1  0.68352000  0.31471000  0.26097000  1.0 0.1207330959
H  H23  1  0.74851000  0.38656000  0.21344000  1.0 0.1207330959
H  H24  1  0.64504000  0.32458000  0.14084000  1.0 0.1114780512
H  H25  1  0.90056000  0.33013000  0.16279000  1.0 0.1114780512
H  H26  1  0.73195000  0.23097000  0.16707000  1.0 0.130092685
H  H27  1  0.25211000  0.15724000  0.30523000  1.0 0.130092685
H  H28  1  0.28099000  0.26144000  0.29458000  1.0 0.1207330959
H  H29  1  0.36750000  0.23224000  0.20953000  1.0 0.130092685
H  H30  1  0.51123000  0.28099000  0.27905000  1.0 0.1114780512
H  H31  1  0.52942000  0.16088000  0.24519000  1.0 0.1207330959
H  H32  1  0.71662000  0.19386000  0.27607000  1.0 0.1395697075
H  H33  1  0.64707000  0.21364000  0.31977000  1.0 0.130092685
H  H34  1  0.12433000  0.93010000  0.21336000  1.0 0.130092685
H  H35  1  0.05039000  0.00369000  0.25865000  1.0 0.130092685
H  H36  1  0.13611000  0.09277000  0.19916000  1.0 0.130092685
H  H37  1  0.23754000  0.06868000  0.28377000  1.0 0.1207330959
H  H38  1  0.34646000  0.04028000  0.20024000  1.0 0.1114780512
H  H39  1  0.50001000  0.99014000  0.23962000  1.0 0.130092685
H  H40  1  0.50241000  0.06034000  0.24852000  1.0 0.1207330959
H  H41  1  0.08362000  0.86406000  0.02936000  1.0 0.1395697075
H  H42  1  0.95766000  0.92207000  0.07199000  1.0 0.130092685
H  H43  1  0.15018000  0.00641000  0.08627000  1.0 0.130092685
H  H44  1  0.05936000  0.92214000  0.14829000  1.0 0.130092685
H  H45  1  0.29383000  0.92311000  0.10453000  1.0 0.1114780512
H  H46  1  0.34007000  0.83333000  0.13952000  1.0 0.130092685
H  H47  1  0.31335000  0.88236000  0.17615000  1.0 0.1207330959
H  H48  1  0.45173000  0.86093000  0.88849000  1.0 0.1207330959
H  H49  1  0.24719000  0.84489000  0.90932000  1.0 0.1114780512
H  H50  1  0.25440000  0.96079000  0.94917000  1.0 0.130092685
H  H51  1  0.23617000  0.84723000  0.99085000  1.0 0.1207330959
H  H52  1  0.44564000  0.92694000  0.99214000  1.0 0.1207330959
H  H53  1  0.42535000  0.86994000  0.05749000  1.0 0.1207330959
H  H54  1  0.42242000  0.80978000  0.02930000  1.0 0.130092685
H  H55  1  0.69503000  0.95062000  0.33014000  1.0 0.130092685
H  H56  1  0.88282000  0.98801000  0.30461000  1.0 0.1207330959
H  H57  1  0.99358000  0.95384000  0.38615000  1.0 0.1207330959
H  H58  1  0.94735000  0.07312000  0.35567000  1.0 0.1114780512
H  H59  1  0.82261000  0.01132000  0.42516000  1.0 0.1207330959
H  H60  1  0.82768000  0.11363000  0.44052000  1.0 0.1395697075
H  H61  1  0.78041000  0.12918000  0.39233000  1.0 0.1207330959
H  H62  1  0.44450000  0.76336000  0.43217000  1.0 0.1114780512
H  H63  1  0.54752000  0.77717000  0.36586000  1.0 0.1207330959
H  H64  1  0.76005000  0.81265000  0.41510000  1.0 0.1207330959
H  H65  1  0.60268000  0.88531000  0.36165000  1.0 0.1207330959
H  H66  1  0.63032000  0.88626000  0.45484000  1.0 0.1114780512
H  H67  1  0.45709000  0.95523000  0.45262000  1.0 0.1395697075
H  H68  1  0.58562000  0.98354000  0.43786000  1.0 0.1207330959
H  H69  1  0.49040000  0.66677000  0.60973000  1.0 0.1207330959
H  H70  1  0.46960000  0.63772000  0.53894000  1.0 0.130092685
H  H71  1  0.68909000  0.69997000  0.51564000  1.0 0.1207330959
H  H72  1  0.44234000  0.73638000  0.49597000  1.0 0.1114780512
H  H73  1  0.61170000  0.79065000  0.55553000  1.0 0.1114780512
H  H74  1  0.48257000  0.86466000  0.52311000  1.0 0.130092685
H  H75  1  0.36350000  0.82674000  0.53607000  1.0 0.130092685
H  H76  1  0.81648000  0.68529000  0.76097000  1.0 0.1207330959
H  H77  1  0.75149000  0.61344000  0.71344000  1.0 0.1207330959
H  H78  1  0.85496000  0.67542000  0.64084000  1.0 0.1114780512
H  H79  1  0.59944000  0.66987000  0.66279000  1.0 0.1207330959
H  H80  1  0.76805000  0.76903000  0.66707000  1.0 0.130092685
H  H81  1  0.24789000  0.84276000  0.80523000  1.0 0.130092685
H  H82  1  0.21901000  0.73856000  0.79458000  1.0 0.130092685
H  H83  1  0.13250000  0.76776000  0.70953000  1.0 0.130092685
H  H84  1  0.98877000  0.71901000  0.77905000  1.0 0.1114780512
H  H85  1  0.97058000  0.83912000  0.74519000  1.0 0.1207330959
H  H86  1  0.78338000  0.80614000  0.77607000  1.0 0.1395697075
H  H87  1  0.85293000  0.78636000  0.81977000  1.0 0.130092685
H  H88  1  0.37567000  0.06990000  0.71336000  1.0 0.130092685
H  H89  1  0.44961000  0.99631000  0.75865000  1.0 0.130092685
H  H90  1  0.36389000  0.90723000  0.69916000  1.0 0.130092685
H  H91  1  0.26246000  0.93132000  0.78377000  1.0 0.1207330959
H  H92  1  0.15354000  0.95972000  0.70024000  1.0 0.1114780512
H  H93  1  0.99999000  0.00986000  0.73962000  1.0 0.130092685
H  H94  1  0.99759000  0.93966000  0.74852000  1.0 0.1207330959
H  H95  1  0.41638000  0.13594000  0.52936000  1.0 0.1395697075
H  H96  1  0.54234000  0.07793000  0.57199000  1.0 0.130092685
H  H97  1  0.34982000  0.99359000  0.58627000  1.0 0.130092685
H  H98  1  0.44064000  0.07786000  0.64829000  1.0 0.1207330959
H  H99  1  0.20617000  0.07689000  0.60453000  1.0 0.1114780512
H  H100  1  0.15993000  0.16667000  0.63952000  1.0 0.130092685
H  H101  1  0.18665000  0.11764000  0.67615000  1.0 0.1207330959
H  H102  1  0.04827000  0.13907000  0.38849000  1.0 0.1207330959
H  H103  1  0.25281000  0.15511000  0.40932000  1.0 0.1114780512
H  H104  1  0.24560000  0.03921000  0.44917000  1.0 0.130092685
H  H105  1  0.26383000  0.15277000  0.49085000  1.0 0.1207330959
H  H106  1  0.05436000  0.07306000  0.49214000  1.0 0.1207330959
H  H107  1  0.07465000  0.13006000  0.55749000  1.0 0.1207330959
H  H108  1  0.07758000  0.19022000  0.52930000  1.0 0.130092685
H  H109  1  0.19503000  0.54938000  0.66986000  1.0 0.130092685
H  H110  1  0.38282000  0.51199000  0.69539000  1.0 0.1207330959
H  H111  1  0.49358000  0.54616000  0.61385000  1.0 0.1207330959
H  H112  1  0.44735000  0.42688000  0.64433000  1.0 0.1114780512
H  H113  1  0.32261000  0.48868000  0.57484000  1.0 0.1207330959
H  H114  1  0.32768000  0.38637000  0.55948000  1.0 0.1395697075
H  H115  1  0.28041000  0.37082000  0.60767000  1.0 0.1207330959
H  H116  1  0.94450000  0.73664000  0.56783000  1.0 0.1207330959
H  H117  1  0.04752000  0.72283000  0.63414000  1.0 0.1207330959
H  H118  1  0.26005000  0.68735000  0.58490000  1.0 0.1207330959
H  H119  1  0.10268000  0.61469000  0.63835000  1.0 0.1207330959
H  H120  1  0.13032000  0.61374000  0.54516000  1.0 0.1114780512
H  H121  1  0.95709000  0.54477000  0.54738000  1.0 0.1395697075
H  H122  1  0.08562000  0.51646000  0.56214000  1.0 0.1207330959
H  H123  1  0.99040000  0.83323000  0.39027000  1.0 0.1207330959
H  H124  1  0.96960000  0.86228000  0.46106000  1.0 0.1395697075
H  H125  1  0.18909000  0.80003000  0.48436000  1.0 0.1207330959
H  H126  1  0.94234000  0.76362000  0.50403000  1.0 0.1114780512
H  H127  1  0.11170000  0.70935000  0.44447000  1.0 0.1114780512
H  H128  1  0.98257000  0.63534000  0.47689000  1.0 0.130092685
H  H129  1  0.86350000  0.67326000  0.46393000  1.0 0.130092685
H  H130  1  0.31648000  0.81471000  0.23903000  1.0 0.1207330959
H  H131  1  0.25149000  0.88656000  0.28656000  1.0 0.1207330959
H  H132  1  0.35496000  0.82458000  0.35916000  1.0 0.1114780512
H  H133  1  0.09944000  0.83013000  0.33721000  1.0 0.1207330959
H  H134  1  0.26805000  0.73097000  0.33293000  1.0 0.130092685
H  H135  1  0.74789000  0.65724000  0.19477000  1.0 0.130092685
H  H136  1  0.71901000  0.76144000  0.20542000  1.0 0.130092685
H  H137  1  0.63250000  0.73224000  0.29047000  1.0 0.130092685
H  H138  1  0.48877000  0.78099000  0.22095000  1.0 0.1114780512
H  H139  1  0.47058000  0.66088000  0.25481000  1.0 0.1207330959
H  H140  1  0.28338000  0.69386000  0.22393000  1.0 0.1395697075
H  H141  1  0.35293000  0.71364000  0.18023000  1.0 0.130092685
H  H142  1  0.87567000  0.43010000  0.28664000  1.0 0.130092685
H  H143  1  0.94961000  0.50369000  0.24135000  1.0 0.130092685
H  H144  1  0.86389000  0.59277000  0.30084000  1.0 0.130092685
H  H145  1  0.76246000  0.56868000  0.21623000  1.0 0.1207330959
H  H146  1  0.65354000  0.54028000  0.29976000  1.0 0.1114780512
H  H147  1  0.49999000  0.49014000  0.26038000  1.0 0.130092685
H  H148  1  0.49759000  0.56034000  0.25148000  1.0 0.1207330959
H  H149  1  0.91638000  0.36406000  0.47064000  1.0 0.1395697075
H  H150  1  0.04234000  0.42207000  0.42801000  1.0 0.130092685
H  H151  1  0.84982000  0.50641000  0.41373000  1.0 0.130092685
H  H152  1  0.94064000  0.42214000  0.35171000  1.0 0.1207330959
H  H153  1  0.70617000  0.42311000  0.39547000  1.0 0.1114780512
H  H154  1  0.65993000  0.33333333  0.36048000  1.0 0.130092685
H  H155  1  0.68665000  0.38236000  0.32385000  1.0 0.1207330959
H  H156  1  0.54827000  0.36093000  0.61151000  1.0 0.1207330959
H  H157  1  0.75281000  0.34489000  0.59068000  1.0 0.1114780512
H  H158  1  0.74560000  0.46079000  0.55083000  1.0 0.130092685
H  H159  1  0.76383000  0.34723000  0.50915000  1.0 0.1207330959
H  H160  1  0.55436000  0.42694000  0.50786000  1.0 0.1207330959
H  H161  1  0.57465000  0.36994000  0.44251000  1.0 0.1207330959
H  H162  1  0.57758000  0.30978000  0.47070000  1.0 0.130092685
H  H163  1  0.30497000  0.45062000  0.16986000  1.0 0.130092685
H  H164  1  0.11718000  0.48801000  0.19539000  1.0 0.1207330959
H  H165  1  0.00642000  0.45384000  0.11385000  1.0 0.1207330959
H  H166  1  0.05265000  0.57312000  0.14433000  1.0 0.1114780512
H  H167  1  0.17739000  0.51132000  0.07484000  1.0 0.1207330959
H  H168  1  0.17232000  0.61363000  0.05948000  1.0 0.1395697075
H  H169  1  0.21959000  0.62918000  0.10767000  1.0 0.1207330959
H  H170  1  0.55550000  0.26336000  0.06783000  1.0 0.1207330959
H  H171  1  0.45248000  0.27717000  0.13414000  1.0 0.1207330959
H  H172  1  0.23995000  0.31265000  0.08490000  1.0 0.1207330959
H  H173  1  0.39732000  0.38531000  0.13835000  1.0 0.1207330959
H  H174  1  0.36968000  0.38626000  0.04516000  1.0 0.1114780512
H  H175  1  0.54291000  0.45523000  0.04738000  1.0 0.1395697075
H  H176  1  0.41438000  0.48354000  0.06214000  1.0 0.1207330959
H  H177  1  0.50960000  0.16677000  0.89027000  1.0 0.1207330959
H  H178  1  0.53040000  0.13772000  0.96106000  1.0 0.130092685
H  H179  1  0.31091000  0.19997000  0.98436000  1.0 0.1207330959
H  H180  1  0.55766000  0.23638000  0.00403000  1.0 0.1114780512
H  H181  1  0.38830000  0.29065000  0.94447000  1.0 0.1114780512
H  H182  1  0.51743000  0.36466000  0.97689000  1.0 0.130092685
H  H183  1  0.63650000  0.32674000  0.96393000  1.0 0.130092685
H  H184  1  0.18352000  0.18529000  0.73903000  1.0 0.1207330959
H  H185  1  0.24851000  0.11344000  0.78656000  1.0 0.1207330959
H  H186  1  0.14504000  0.17542000  0.85916000  1.0 0.1114780512
H  H187  1  0.40056000  0.16987000  0.83721000  1.0 0.1114780512
H  H188  1  0.23195000  0.26903000  0.83293000  1.0 0.130092685
H  H189  1  0.75211000  0.34276000  0.69477000  1.0 0.130092685
H  H190  1  0.78099000  0.23856000  0.70542000  1.0 0.130092685
H  H191  1  0.86750000  0.26776000  0.79047000  1.0 0.130092685
H  H192  1  0.01123000  0.21901000  0.72095000  1.0 0.1114780512
H  H193  1  0.02942000  0.33912000  0.75481000  1.0 0.1207330959
H  H194  1  0.21662000  0.30614000  0.72393000  1.0 0.1395697075
H  H195  1  0.14707000  0.28636000  0.68023000  1.0 0.130092685
H  H196  1  0.62433000  0.56990000  0.78664000  1.0 0.1395697075
H  H197  1  0.55039000  0.49631000  0.74135000  1.0 0.130092685
H  H198  1  0.63611000  0.40723000  0.80084000  1.0 0.130092685
H  H199  1  0.73754000  0.43132000  0.71623000  1.0 0.1207330959
H  H200  1  0.84646000  0.45972000  0.79976000  1.0 0.1114780512
H  H201  1  0.00001000  0.50986000  0.76038000  1.0 0.130092685
H  H202  1  0.00241000  0.43966000  0.75148000  1.0 0.1207330959
H  H203  1  0.58362000  0.63594000  0.97064000  1.0 0.1395697075
H  H204  1  0.45766000  0.57793000  0.92801000  1.0 0.130092685
H  H205  1  0.65018000  0.49359000  0.91373000  1.0 0.130092685
H  H206  1  0.55936000  0.57786000  0.85171000  1.0 0.130092685
H  H207  1  0.79383000  0.57689000  0.89547000  1.0 0.1114780512
H  H208  1  0.84007000  0.66666667  0.86048000  1.0 0.1207330959
H  H209  1  0.81335000  0.61764000  0.82385000  1.0 0.1207330959
H  H210  1  0.95173000  0.63907000  0.11151000  1.0 0.1207330959
H  H211  1  0.74719000  0.65511000  0.09068000  1.0 0.1114780512
H  H212  1  0.75440000  0.53921000  0.05083000  1.0 0.130092685
H  H213  1  0.73617000  0.65277000  0.00915000  1.0 0.1207330959
H  H214  1  0.94564000  0.57306000  0.00786000  1.0 0.1207330959
H  H215  1  0.92535000  0.63006000  0.94251000  1.0 0.130092685
H  H216  1  0.92242000  0.69022000  0.97070000  1.0 0.130092685
C  C1  1  0.74120000  0.03800000  0.85210000  1.0 0.2466445356
C  C2  1  0.61520000  0.03910000  0.83050000  1.0 0.0318776904
C  C3  1  0.51570000  0.01710000  0.86170000  1.0 0.0902367159
C  C4  1  0.55310000  0.95730000  0.87950000  1.0 0.0417146343
C  C5  1  0.67890000  0.95980000  0.90030000  1.0 0.0902367159
C  C6  1  0.72420000  0.90050000  0.91610000  1.0 -0.067615516
C  C7  1  0.98190000  0.21000000  0.93190000  1.0 0.2300167982
C  C8  1  0.90140000  0.22640000  0.89280000  1.0 0.0318776904
C  C9  1  0.79530000  0.18260000  0.88930000  1.0 0.0819487729
C  C10  1  0.84520000  0.11990000  0.88820000  1.0 0.0318776904
C  C11  1  0.92180000  0.10780000  0.92840000  1.0 0.0976517672
C  C12  1  0.97850000  0.04580000  0.92990000  1.0 -0.0532454048
C  C13  1  0.96280000  0.30940000  0.08780000  1.0 0.2212054852
C  C14  1  0.94760000  0.34680000  0.04740000  1.0 0.0479776974
C  C15  1  0.89880000  0.31040000  0.00980000  1.0 0.069911236
C  C16  1  0.97160000  0.25360000  0.00470000  1.0 0.0417146343
C  C17  1  0.97410000  0.21950000  0.04650000  1.0 0.0902367159
C  C18  1  0.05190000  0.16280000  0.04520000  1.0 -0.0532454048
C  C19  1  0.68690000  0.30320000  0.22950000  1.0 0.2212054852
C  C20  1  0.68420000  0.35890000  0.20190000  1.0 0.0417146343
C  C21  1  0.71580000  0.34550000  0.15490000  1.0 0.0819487729
C  C22  1  0.82820000  0.30790000  0.15100000  1.0 0.0479776974
C  C23  1  0.80940000  0.25070000  0.17700000  1.0 -0.0285829366
C  C24  1  0.91290000  0.20690000  0.17420000  1.0 0.5521154642
C  C25  1  0.31250000  0.17090000  0.28280000  1.0 0.2627053127
C  C26  1  0.27990000  0.23490000  0.26840000  1.0 0.0138221369
C  C27  1  0.37270000  0.25740000  0.23630000  1.0 0.0819487729
C  C28  1  0.50070000  0.25220000  0.25450000  1.0 0.0417146343
C  C29  1  0.52700000  0.18870000  0.27060000  1.0 0.0902367159
C  C30  1  0.64710000  0.18430000  0.29570000  1.0 -0.0559147045
C  C31  1  0.16030000  0.97100000  0.21090000  1.0 0.2300167982
C  C32  1  0.07090000  0.01550000  0.22810000  1.0 0.0138221369
C  C33  1  0.12480000  0.07810000  0.22960000  1.0 0.069911236
C  C34  1  0.24830000  0.07700000  0.25200000  1.0 0.0417146343
C  C35  1  0.33240000  0.02960000  0.23150000  1.0 0.0902367159
C  C36  1  0.45460000  0.02340000  0.25340000  1.0 -0.0532454048
C  C37  1  0.12480000  0.89320000  0.04920000  1.0 0.2434785711
C  C38  1  0.03420000  0.94200000  0.06130000  1.0 0.0318776904
C  C39  1  0.08090000  0.98170000  0.09780000  1.0 0.0622671057
C  C40  1  0.12880000  0.94440000  0.13450000  1.0 0.0479776974
C  C41  1  0.22430000  0.90050000  0.11800000  1.0 0.0902367159
C  C42  1  0.27520000  0.85850000  0.15270000  1.0 -0.0364008448
C  C43  1  0.41790000  0.88400000  0.91370000  1.0 0.2434785711
C  C44  1  0.27930000  0.88670000  0.90960000  1.0 0.0417146343
C  C45  1  0.22600000  0.91840000  0.94920000  1.0 0.0819487729
C  C46  1  0.26980000  0.88870000  0.98980000  1.0 0.0479776974
C  C47  1  0.41080000  0.88570000  0.99140000  1.0 0.0976517672
C  C48  1  0.45550000  0.85090000  0.03040000  1.0 -0.067615516
C  C49  1  0.75880000  0.96200000  0.35210000  1.0 0.2466445356
C  C50  1  0.88480000  0.96090000  0.33050000  1.0 0.0318776904
C  C51  1  0.98430000  0.98290000  0.36170000  1.0 0.0902367159
C  C52  1  0.94690000  0.04270000  0.37950000  1.0 0.0417146343
C  C53  1  0.82110000  0.04020000  0.40030000  1.0 0.0902367159
C  C54  1  0.77580000  0.09950000  0.41610000  1.0 -0.067615516
C  C55  1  0.51810000  0.79000000  0.43190000  1.0 0.2300167982
C  C56  1  0.59860000  0.77360000  0.39280000  1.0 0.0318776904
C  C57  1  0.70470000  0.81740000  0.38930000  1.0 0.0819487729
C  C58  1  0.65480000  0.88010000  0.38820000  1.0 0.0318776904
C  C59  1  0.57820000  0.89220000  0.42840000  1.0 0.0976517672
C  C60  1  0.52150000  0.95420000  0.42990000  1.0 -0.0532454048
C  C61  1  0.53720000  0.69060000  0.58780000  1.0 0.2212054852
C  C62  1  0.55240000  0.65320000  0.54740000  1.0 0.0479776974
C  C63  1  0.60120000  0.68960000  0.50980000  1.0 0.069911236
C  C64  1  0.52840000  0.74640000  0.50470000  1.0 0.0417146343
C  C65  1  0.52590000  0.78050000  0.54650000  1.0 0.0902367159
C  C66  1  0.44810000  0.83720000  0.54520000  1.0 -0.0532454048
C  C67  1  0.81310000  0.69680000  0.72950000  1.0 0.2212054852
C  C68  1  0.81580000  0.64110000  0.70190000  1.0 0.0417146343
C  C69  1  0.78420000  0.65450000  0.65490000  1.0 0.0819487729
C  C70  1  0.67180000  0.69210000  0.65100000  1.0 0.0479776974
C  C71  1  0.69060000  0.74930000  0.67700000  1.0 -0.0285829366
C  C72  1  0.58710000  0.79310000  0.67420000  1.0 0.5521154642
C  C73  1  0.18750000  0.82910000  0.78280000  1.0 0.2627053127
C  C74  1  0.22010000  0.76510000  0.76840000  1.0 0.0138221369
C  C75  1  0.12730000  0.74260000  0.73630000  1.0 0.0819487729
C  C76  1  0.99930000  0.74780000  0.75450000  1.0 0.0417146343
C  C77  1  0.97300000  0.81130000  0.77060000  1.0 0.0902367159
C  C78  1  0.85290000  0.81570000  0.79570000  1.0 -0.0559147045
C  C79  1  0.33970000  0.02900000  0.71090000  1.0 0.2300167982
C  C80  1  0.42910000  0.98450000  0.72810000  1.0 0.0138221369
C  C81  1  0.37520000  0.92190000  0.72960000  1.0 0.069911236
C  C82  1  0.25170000  0.92300000  0.75200000  1.0 0.0417146343
C  C83  1  0.16760000  0.97040000  0.73150000  1.0 0.0902367159
C  C84  1  0.04540000  0.97660000  0.75340000  1.0 -0.0532454048
C  C85  1  0.37520000  0.10680000  0.54920000  1.0 0.2434785711
C  C86  1  0.46580000  0.05800000  0.56130000  1.0 0.0318776904
C  C87  1  0.41910000  0.01830000  0.59780000  1.0 0.0622671057
C  C88  1  0.37120000  0.05560000  0.63450000  1.0 0.0479776974
C  C89  1  0.27570000  0.09950000  0.61800000  1.0 0.0902367159
C  C90  1  0.22480000  0.14150000  0.65270000  1.0 -0.0364008448
C  C91  1  0.08210000  0.11600000  0.41370000  1.0 0.2466445356
C  C92  1  0.22070000  0.11330000  0.40960000  1.0 0.0417146343
C  C93  1  0.27400000  0.08160000  0.44920000  1.0 0.0819487729
C  C94  1  0.23020000  0.11130000  0.48980000  1.0 0.0479776974
C  C95  1  0.08920000  0.11430000  0.49140000  1.0 0.0976517672
C  C96  1  0.04450000  0.14910000  0.53040000  1.0 -0.067615516
C  C97  1  0.25880000  0.53800000  0.64790000  1.0 0.2466445356
C  C98  1  0.38480000  0.53910000  0.66950000  1.0 0.0318776904
C  C99  1  0.48430000  0.51710000  0.63830000  1.0 0.0902367159
C  C100  1  0.44690000  0.45730000  0.62050000  1.0 0.0417146343
C  C101  1  0.32110000  0.45980000  0.59970000  1.0 0.0902367159
C  C102  1  0.27580000  0.40050000  0.58390000  1.0 -0.067615516
C  C103  1  0.01810000  0.71000000  0.56810000  1.0 0.2300167982
C  C104  1  0.09860000  0.72640000  0.60720000  1.0 0.0318776904
C  C105  1  0.20470000  0.68260000  0.61070000  1.0 0.0819487729
C  C106  1  0.15480000  0.61990000  0.61180000  1.0 0.0318776904
C  C107  1  0.07820000  0.60780000  0.57160000  1.0 0.0976517672
C  C108  1  0.02150000  0.54580000  0.57010000  1.0 -0.0532454048
C  C109  1  0.03720000  0.80940000  0.41220000  1.0 0.2212054852
C  C110  1  0.05240000  0.84680000  0.45260000  1.0 0.0479776974
C  C111  1  0.10120000  0.81040000  0.49020000  1.0 0.069911236
C  C112  1  0.02840000  0.75360000  0.49530000  1.0 0.0417146343
C  C113  1  0.02590000  0.71950000  0.45350000  1.0 0.0902367159
C  C114  1  0.94810000  0.66280000  0.45480000  1.0 -0.0532454048
C  C115  1  0.31310000  0.80320000  0.27050000  1.0 0.2212054852
C  C116  1  0.31580000  0.85890000  0.29810000  1.0 0.0417146343
C  C117  1  0.28420000  0.84550000  0.34510000  1.0 0.0819487729
C  C118  1  0.17180000  0.80790000  0.34900000  1.0 0.0479776974
C  C119  1  0.19060000  0.75070000  0.32300000  1.0 -0.0285829366
C  C120  1  0.08710000  0.70690000  0.32580000  1.0 0.5521154642
C  C121  1  0.68750000  0.67090000  0.21720000  1.0 0.2627053127
C  C122  1  0.72010000  0.73490000  0.23160000  1.0 0.0138221369
C  C123  1  0.62730000  0.75740000  0.26370000  1.0 0.0819487729
C  C124  1  0.49930000  0.75220000  0.24550000  1.0 0.0417146343
C  C125  1  0.47300000  0.68870000  0.22940000  1.0 0.0902367159
C  C126  1  0.35290000  0.68430000  0.20430000  1.0 -0.0559147045
C  C127  1  0.83970000  0.47100000  0.28910000  1.0 0.2212054852
C  C128  1  0.92910000  0.51550000  0.27190000  1.0 0.0138221369
C  C129  1  0.87520000  0.57810000  0.27040000  1.0 0.069911236
C  C130  1  0.75170000  0.57700000  0.24800000  1.0 0.0417146343
C  C131  1  0.66760000  0.52960000  0.26850000  1.0 0.0902367159
C  C132  1  0.54540000  0.52340000  0.24660000  1.0 -0.0532454048
C  C133  1  0.87520000  0.39320000  0.45080000  1.0 0.2434785711
C  C134  1  0.96580000  0.44200000  0.43870000  1.0 0.0318776904
C  C135  1  0.91910000  0.48170000  0.40220000  1.0 0.0622671057
C  C136  1  0.87120000  0.44440000  0.36550000  1.0 0.0479776974
C  C137  1  0.77570000  0.40050000  0.38200000  1.0 0.0902367159
C  C138  1  0.72480000  0.35850000  0.34730000  1.0 -0.0364008448
C  C139  1  0.58210000  0.38400000  0.58630000  1.0 0.2434785711
C  C140  1  0.72070000  0.38670000  0.59040000  1.0 0.0417146343
C  C141  1  0.77400000  0.41840000  0.55080000  1.0 0.0819487729
C  C142  1  0.73020000  0.38870000  0.51020000  1.0 0.0479776974
C  C143  1  0.58920000  0.38570000  0.50860000  1.0 0.0976517672
C  C144  1  0.54450000  0.35090000  0.46960000  1.0 -0.067615516
C  C145  1  0.24120000  0.46200000  0.14790000  1.0 0.2466445356
C  C146  1  0.11520000  0.46090000  0.16950000  1.0 0.0318776904
C  C147  1  0.01570000  0.48290000  0.13830000  1.0 0.0902367159
C  C148  1  0.05310000  0.54270000  0.12050000  1.0 0.0417146343
C  C149  1  0.17890000  0.54020000  0.09970000  1.0 0.0902367159
C  C150  1  0.22420000  0.59950000  0.08390000  1.0 -0.067615516
C  C151  1  0.48190000  0.29000000  0.06810000  1.0 0.2300167982
C  C152  1  0.40140000  0.27360000  0.10720000  1.0 0.0318776904
C  C153  1  0.29530000  0.31740000  0.11070000  1.0 0.0819487729
C  C154  1  0.34520000  0.38010000  0.11180000  1.0 0.0318776904
C  C155  1  0.42180000  0.39220000  0.07160000  1.0 0.0976517672
C  C156  1  0.47850000  0.45420000  0.07010000  1.0 -0.0559147045
C  C157  1  0.46280000  0.19060000  0.91220000  1.0 0.2212054852
C  C158  1  0.44760000  0.15320000  0.95260000  1.0 0.0479776974
C  C159  1  0.39880000  0.18960000  0.99020000  1.0 0.069911236
C  C160  1  0.47160000  0.24640000  0.99530000  1.0 0.0417146343
C  C161  1  0.47410000  0.28050000  0.95350000  1.0 0.0902367159
C  C162  1  0.55190000  0.33720000  0.95480000  1.0 -0.0532454048
C  C163  1  0.18690000  0.19680000  0.77050000  1.0 0.2212054852
C  C164  1  0.18420000  0.14110000  0.79810000  1.0 0.0417146343
C  C165  1  0.21580000  0.15450000  0.84510000  1.0 0.0819487729
C  C166  1  0.32820000  0.19210000  0.84900000  1.0 0.0479776974
C  C167  1  0.30940000  0.24930000  0.82300000  1.0 -0.0285829366
C  C168  1  0.41290000  0.29310000  0.82580000  1.0 0.5521154642
C  C169  1  0.81250000  0.32910000  0.71720000  1.0 0.2627053127
C  C170  1  0.77990000  0.26510000  0.73160000  1.0 0.0138221369
C  C171  1  0.87270000  0.24260000  0.76370000  1.0 0.0819487729
C  C172  1  0.00070000  0.24780000  0.74550000  1.0 0.0417146343
C  C173  1  0.02700000  0.31130000  0.72940000  1.0 0.0902367159
C  C174  1  0.14710000  0.31570000  0.70430000  1.0 -0.0559147045
C  C175  1  0.66030000  0.52900000  0.78910000  1.0 0.2300167982
C  C176  1  0.57090000  0.48450000  0.77190000  1.0 0.0138221369
C  C177  1  0.62480000  0.42190000  0.77040000  1.0 0.069911236
C  C178  1  0.74830000  0.42300000  0.74800000  1.0 0.0417146343
C  C179  1  0.83240000  0.47040000  0.76850000  1.0 0.0902367159
C  C180  1  0.95460000  0.47660000  0.74660000  1.0 -0.0532454048
C  C181  1  0.62480000  0.60680000  0.95080000  1.0 0.2434785711
C  C182  1  0.53420000  0.55800000  0.93870000  1.0 0.0318776904
C  C183  1  0.58090000  0.51830000  0.90220000  1.0 0.0622671057
C  C184  1  0.62880000  0.55560000  0.86550000  1.0 0.0479776974
C  C185  1  0.72430000  0.59950000  0.88200000  1.0 0.0902367159
C  C186  1  0.77520000  0.64150000  0.84730000  1.0 -0.0364008448
C  C187  1  0.91790000  0.61600000  0.08630000  1.0 0.2434785711
C  C188  1  0.77930000  0.61330000  0.09040000  1.0 0.0417146343
C  C189  1  0.72600000  0.58160000  0.05080000  1.0 0.0819487729
C  C190  1  0.76980000  0.61130000  0.01020000  1.0 0.0479776974
C  C191  1  0.91080000  0.61430000  0.00860000  1.0 0.0976517672
C  C192  1  0.95550000  0.64910000  0.96960000  1.0 -0.067615516
N  N1  1  0.80900000  0.85800000  0.58780000  1.0 0.7101052865
N  N2  1  0.78770000  0.00100000  0.51990000  1.0 0.7101052865
N  N3  1  0.69100000  0.14200000  0.08780000  1.0 0.7101052865
N  N4  1  0.71230000  0.99900000  0.01990000  1.0 0.7101052865
N  N5  1  0.19100000  0.35800000  0.91220000  1.0 0.7101052865
N  N6  1  0.21230000  0.50100000  0.98010000  1.0 0.7101052865
N  N7  1  0.30900000  0.64200000  0.41220000  1.0 0.7101052865
N  N8  1  0.28770000  0.49900000  0.48010000  1.0 0.7101052865
O  O1  1  0.00560000  0.80950000  0.89330000  1.0 -0.4888469537
O  O2  1  0.76730000  0.97980000  0.86802000  1.0 -0.2942615152
O  O3  1  0.58800000  0.09840000  0.81580000  1.0 -0.3312546194
O  O4  1  0.40050000  0.01030000  0.83985000  1.0 -0.3194905132
O  O5  1  0.46250000  0.94200000  0.91186000  1.0 -0.2185345203
O  O6  1  0.84760000  0.90690000  0.93020000  1.0 -0.3417056064
O  O7  1  0.02210000  0.14990000  0.92933000  1.0 -0.2417099411
O  O8  1  0.86200000  0.28530000  0.89650000  1.0 -0.1706243702
O  O9  1  0.72620000  0.19240000  0.85002000  1.0 -0.1823511444
O  O10  1  0.74170000  0.07990000  0.88590000  1.0 -0.2310384125
O  O11  1  0.03150000  0.02950000  0.88866000  1.0 -0.2984187791
O  O12  1  0.03000000  0.25710000  0.07886000  1.0 -0.2185345203
O  O13  1  0.87200000  0.39650000  0.05789000  1.0 -0.2185345203
O  O14  1  0.90500000  0.34580000  0.97110000  1.0 -0.1895433128
O  O15  1  0.91420000  0.21950000  0.97040000  1.0 -0.2417099411
O  O16  1  0.05640000  0.13360000  0.08560000  1.0 -0.1197953781
O  O17  1  0.79450000  0.26930000  0.22203000  1.0 -0.2020437777
O  O18  1  0.56860000  0.38830000  0.20570000  1.0 -0.2679443568
O  O19  1  0.73650000  0.40250000  0.13301000  1.0 -0.1197953781
O  O20  1  0.84680000  0.29600000  0.10535000  1.0 -0.2310384125
O  O21  1  0.04660000  0.23050000  0.17510000  1.0 -0.310168389
O  O22  1  0.43290000  0.16950000  0.30077000  1.0 -0.310168389
O  O23  1  0.15920000  0.23450000  0.25080000  1.0 -0.156338694
O  O24  1  0.34870000  0.31710000  0.22440000  1.0 -0.2984187791
O  O25  1  0.58300000  0.26760000  0.21947000  1.0 -0.2507636993
O  O26  1  0.66210000  0.12560000  0.31280000  1.0 -0.4462431059
O  O27  1  0.27220000  0.97290000  0.23323000  1.0 -0.2507636993
O  O28  1  0.95930000  0.01460000  0.20360000  1.0 -0.2185345203
O  O29  1  0.04220000  0.11740000  0.25190000  1.0 -0.2507636993
O  O30  1  0.30340000  0.13430000  0.24597000  1.0 -0.2507636993
O  O31  1  0.44730000  0.01240000  0.29970000  1.0 -0.3312546194
O  O32  1  0.17050000  0.86270000  0.08600000  1.0 -0.2507636993
O  O33  1  0.00340000  0.97370000  0.02331000  1.0 -0.2565863312
O  O34  1  0.98650000  0.02110000  0.11300000  1.0 -0.1197953781
O  O35  1  0.18280000  0.98440000  0.16581000  1.0 -0.2507636993
O  O36  1  0.18700000  0.82260000  0.17020000  1.0 -0.3312546194
O  O37  1  0.45270000  0.85520000  0.95305000  1.0 -0.2565863312
O  O38  1  0.24310000  0.91510000  0.86980000  1.0 -0.4356230855
O  O39  1  0.09650000  0.91720000  0.94579000  1.0 -0.4002194949
O  O40  1  0.22540000  0.92100000  0.02657000  1.0 -0.2417099411
O  O41  1  0.58710000  0.84890000  0.03090000  1.0 -0.1823511444
O  O42  1  0.86370000  0.15380000  0.19910000  1.0 -0.310168389
O  O43  1  0.49440000  0.19050000  0.39330000  1.0 -0.4888469537
O  O44  1  0.73270000  0.02020000  0.36802000  1.0 -0.2942615152
O  O45  1  0.91200000  0.90160000  0.31580000  1.0 -0.3312546194
O  O46  1  0.09950000  0.98970000  0.33985000  1.0 -0.3194905132
O  O47  1  0.03750000  0.05800000  0.41186000  1.0 -0.2185345203
O  O48  1  0.65240000  0.09310000  0.43020000  1.0 -0.3417056064
O  O49  1  0.47790000  0.85010000  0.42933000  1.0 -0.2417099411
O  O50  1  0.63800000  0.71470000  0.39650000  1.0 -0.1706243702
O  O51  1  0.77380000  0.80760000  0.35002000  1.0 -0.1823511444
O  O52  1  0.75830000  0.92010000  0.38590000  1.0 -0.2310384125
O  O53  1  0.46850000  0.97050000  0.38866000  1.0 -0.2984187791
O  O54  1  0.47000000  0.74290000  0.57886000  1.0 -0.2185345203
O  O55  1  0.62800000  0.60350000  0.55789000  1.0 -0.2185345203
O  O56  1  0.59500000  0.65420000  0.47110000  1.0 -0.1895433128
O  O57  1  0.58580000  0.78050000  0.47040000  1.0 -0.2417099411
O  O58  1  0.44360000  0.86640000  0.58560000  1.0 -0.1197953781
O  O59  1  0.70550000  0.73070000  0.72203000  1.0 -0.2020437777
O  O60  1  0.93140000  0.61170000  0.70570000  1.0 -0.2679443568
O  O61  1  0.76350000  0.59750000  0.63301000  1.0 -0.1197953781
O  O62  1  0.65320000  0.70400000  0.60535000  1.0 -0.2310384125
O  O63  1  0.45340000  0.76950000  0.67510000  1.0 -0.310168389
O  O64  1  0.06710000  0.83050000  0.80077000  1.0 -0.310168389
O  O65  1  0.34080000  0.76550000  0.75080000  1.0 -0.156338694
O  O66  1  0.15130000  0.68290000  0.72440000  1.0 -0.2984187791
O  O67  1  0.91700000  0.73240000  0.71947000  1.0 -0.2507636993
O  O68  1  0.83790000  0.87440000  0.81280000  1.0 -0.4462431059
O  O69  1  0.22780000  0.02710000  0.73323000  1.0 -0.2507636993
O  O70  1  0.54070000  0.98540000  0.70360000  1.0 -0.2185345203
O  O71  1  0.45780000  0.88260000  0.75190000  1.0 -0.2507636993
O  O72  1  0.19660000  0.86570000  0.74597000  1.0 -0.2507636993
O  O73  1  0.05270000  0.98760000  0.79970000  1.0 -0.3417056064
O  O74  1  0.32950000  0.13730000  0.58600000  1.0 -0.2507636993
O  O75  1  0.49660000  0.02630000  0.52331000  1.0 -0.2507636993
O  O76  1  0.51350000  0.97890000  0.61300000  1.0 -0.1197953781
O  O77  1  0.31720000  0.01560000  0.66581000  1.0 -0.2507636993
O  O78  1  0.31300000  0.17740000  0.67020000  1.0 -0.3312546194
O  O79  1  0.04730000  0.14480000  0.45305000  1.0 -0.2565863312
O  O80  1  0.25690000  0.08490000  0.36980000  1.0 -0.4356230855
O  O81  1  0.40350000  0.08280000  0.44579000  1.0 -0.4002194949
O  O82  1  0.27460000  0.07900000  0.52657000  1.0 -0.2417099411
O  O83  1  0.91290000  0.15110000  0.53090000  1.0 -0.1823511444
O  O84  1  0.63630000  0.84620000  0.69910000  1.0 -0.310168389
O  O85  1  0.99440000  0.30950000  0.60670000  1.0 -0.4844946623
O  O86  1  0.23270000  0.47980000  0.63198000  1.0 -0.2942615152
O  O87  1  0.41200000  0.59840000  0.68420000  1.0 -0.3312546194
O  O88  1  0.59950000  0.51030000  0.66015000  1.0 -0.3194905132
O  O89  1  0.53750000  0.44200000  0.58814000  1.0 -0.2185345203
O  O90  1  0.15240000  0.40690000  0.56980000  1.0 -0.3417056064
O  O91  1  0.97790000  0.64990000  0.57067000  1.0 -0.2417099411
O  O92  1  0.13800000  0.78530000  0.60350000  1.0 -0.1706243702
O  O93  1  0.27380000  0.69240000  0.64998000  1.0 -0.1823511444
O  O94  1  0.25830000  0.57990000  0.61410000  1.0 -0.2310384125
O  O95  1  0.96850000  0.52950000  0.61134000  1.0 -0.2984187791
O  O96  1  0.97000000  0.75710000  0.42114000  1.0 -0.2143553108
O  O97  1  0.12800000  0.89650000  0.44211000  1.0 -0.2185345203
O  O98  1  0.09500000  0.84580000  0.52890000  1.0 -0.1895433128
O  O99  1  0.08580000  0.71950000  0.52960000  1.0 -0.2417099411
O  O100  1  0.94360000  0.63360000  0.41440000  1.0 -0.1197953781
O  O101  1  0.20550000  0.76930000  0.27797000  1.0 -0.2020437777
O  O102  1  0.43140000  0.88830000  0.29430000  1.0 -0.2679443568
O  O103  1  0.26350000  0.90250000  0.36699000  1.0 -0.1197953781
O  O104  1  0.15320000  0.79600000  0.39465000  1.0 -0.2310384125
O  O105  1  0.95340000  0.73050000  0.32490000  1.0 -0.310168389
O  O106  1  0.56710000  0.66950000  0.19923000  1.0 -0.310168389
O  O107  1  0.84080000  0.73450000  0.24920000  1.0 -0.156338694
O  O108  1  0.65130000  0.81710000  0.27560000  1.0 -0.2984187791
O  O109  1  0.41700000  0.76760000  0.28053000  1.0 -0.2507636993
O  O110  1  0.33790000  0.62560000  0.18720000  1.0 -0.4462431059
O  O111  1  0.72780000  0.47290000  0.26677000  1.0 -0.2507636993
O  O112  1  0.04070000  0.51460000  0.29640000  1.0 -0.2185345203
O  O113  1  0.95780000  0.61740000  0.24810000  1.0 -0.2507636993
O  O114  1  0.69660000  0.63430000  0.25403000  1.0 -0.2507636993
O  O115  1  0.55270000  0.51240000  0.20030000  1.0 -0.3312546194
O  O116  1  0.82950000  0.36270000  0.41400000  1.0 -0.2507636993
O  O117  1  0.99660000  0.47370000  0.47669000  1.0 -0.2507636993
O  O118  1  0.01350000  0.52110000  0.38700000  1.0 -0.1197953781
O  O119  1  0.81720000  0.48440000  0.33419000  1.0 -0.2507636993
O  O120  1  0.81300000  0.32260000  0.32980000  1.0 -0.3312546194
O  O121  1  0.54730000  0.35520000  0.54695000  1.0 -0.2565863312
O  O122  1  0.75690000  0.41510000  0.63020000  1.0 -0.4356230855
O  O123  1  0.90350000  0.41720000  0.55421000  1.0 -0.4002194949
O  O124  1  0.77460000  0.42100000  0.47343000  1.0 -0.2417099411
O  O125  1  0.41290000  0.34890000  0.46910000  1.0 -0.1823511444
O  O126  1  0.13630000  0.65380000  0.30090000  1.0 -0.310168389
O  O127  1  0.50560000  0.69050000  0.10670000  1.0 -0.4888469537
O  O128  1  0.26730000  0.52020000  0.13198000  1.0 -0.2942615152
O  O129  1  0.08800000  0.40160000  0.18420000  1.0 -0.3312546194
O  O130  1  0.90050000  0.48970000  0.16015000  1.0 -0.3194905132
O  O131  1  0.96250000  0.55800000  0.08814000  1.0 -0.2185345203
O  O132  1  0.34760000  0.59310000  0.06980000  1.0 -0.3417056064
O  O133  1  0.52210000  0.35010000  0.07067000  1.0 -0.2417099411
O  O134  1  0.36200000  0.21470000  0.10350000  1.0 -0.1706243702
O  O135  1  0.22620000  0.30760000  0.14998000  1.0 -0.1823511444
O  O136  1  0.24170000  0.42010000  0.11410000  1.0 -0.2310384125
O  O137  1  0.53150000  0.47050000  0.11134000  1.0 -0.2942615152
O  O138  1  0.53000000  0.24290000  0.92114000  1.0 -0.2185345203
O  O139  1  0.37200000  0.10350000  0.94211000  1.0 -0.2185345203
O  O140  1  0.40500000  0.15420000  0.02890000  1.0 -0.1895433128
O  O141  1  0.41420000  0.28050000  0.02960000  1.0 -0.2417099411
O  O142  1  0.55640000  0.36640000  0.91440000  1.0 -0.1197953781
O  O143  1  0.29450000  0.23070000  0.77797000  1.0 -0.2020437777
O  O144  1  0.06860000  0.11170000  0.79430000  1.0 -0.2679443568
O  O145  1  0.23650000  0.09750000  0.86699000  1.0 -0.1197953781
O  O146  1  0.34680000  0.20400000  0.89465000  1.0 -0.2310384125
O  O147  1  0.54660000  0.26950000  0.82490000  1.0 -0.310168389
O  O148  1  0.93290000  0.33050000  0.69923000  1.0 -0.310168389
O  O149  1  0.65920000  0.26550000  0.74920000  1.0 -0.156338694
O  O150  1  0.84870000  0.18290000  0.77560000  1.0 -0.2984187791
O  O151  1  0.08300000  0.23240000  0.78053000  1.0 -0.2507636993
O  O152  1  0.16210000  0.37440000  0.68720000  1.0 -0.4462431059
O  O153  1  0.77220000  0.52710000  0.76677000  1.0 -0.2507636993
O  O154  1  0.45930000  0.48540000  0.79640000  1.0 -0.2185345203
O  O155  1  0.54220000  0.38260000  0.74810000  1.0 -0.2507636993
O  O156  1  0.80340000  0.36570000  0.75403000  1.0 -0.2507636993
O  O157  1  0.94730000  0.48760000  0.70030000  1.0 -0.3417056064
O  O158  1  0.67050000  0.63730000  0.91400000  1.0 -0.2507636993
O  O159  1  0.50340000  0.52630000  0.97669000  1.0 -0.2507636993
O  O160  1  0.48650000  0.47890000  0.88700000  1.0 -0.1197953781
O  O161  1  0.68280000  0.51560000  0.83419000  1.0 -0.2507636993
O  O162  1  0.68700000  0.67740000  0.82980000  1.0 -0.3312546194
O  O163  1  0.95270000  0.64480000  0.04695000  1.0 -0.2565863312
O  O164  1  0.74310000  0.58490000  0.13020000  1.0 -0.4343113363
O  O165  1  0.59650000  0.58280000  0.05421000  1.0 -0.4002194949
O  O166  1  0.72540000  0.57900000  0.97343000  1.0 -0.2417099411
O  O167  1  0.08710000  0.65110000  0.96910000  1.0 -0.1823511444
O  O168  1  0.36370000  0.34620000  0.80090000  1.0 -0.310168389
O  O169  1  0.71900000  0.88950000  0.60100000  1.0 -0.3491383255
O  O170  1  0.88000000  0.83410000  0.61570000  1.0 -0.419806777
O  O171  1  0.83600000  0.85960000  0.54820000  1.0 -0.3853301466
O  O172  1  0.70370000  0.96210000  0.52060000  1.0 -0.3741393894
O  O173  1  0.76250000  0.05420000  0.52930000  1.0 -0.3491383255
O  O174  1  0.89720000  0.98560000  0.51210000  1.0 -0.4002194949
O  O175  1  0.78100000  0.11050000  0.10100000  1.0 -0.3491383255
O  O176  1  0.62000000  0.16590000  0.11570000  1.0 -0.419806777
O  O177  1  0.66400000  0.14040000  0.04820000  1.0 -0.3853301466
O  O178  1  0.79630000  0.03790000  0.02060000  1.0 -0.3741393894
O  O179  1  0.73750000  0.94580000  0.02930000  1.0 -0.3491383255
O  O180  1  0.60280000  0.01440000  0.01210000  1.0 -0.4002194949
O  O181  1  0.28100000  0.38950000  0.89900000  1.0 -0.3491383255
O  O182  1  0.12000000  0.33410000  0.88430000  1.0 -0.419806777
O  O183  1  0.16400000  0.35960000  0.95180000  1.0 -0.3833974958
O  O184  1  0.29630000  0.46210000  0.97940000  1.0 -0.3741393894
O  O185  1  0.23750000  0.55420000  0.97070000  1.0 -0.3491383255
O  O186  1  0.10280000  0.48560000  0.98790000  1.0 -0.4002194949
O  O187  1  0.21900000  0.61050000  0.39900000  1.0 -0.3491383255
O  O188  1  0.38000000  0.66590000  0.38430000  1.0 -0.419806777
O  O189  1  0.33600000  0.64040000  0.45180000  1.0 -0.3853301466
O  O190  1  0.20370000  0.53790000  0.47940000  1.0 -0.3741393894
O  O191  1  0.26250000  0.44580000  0.47070000  1.0 -0.3491383255
O  O192  1  0.39720000  0.51440000  0.48790000  1.0 -0.4002194949
