# DDEC6 charges by PACMAN v1.1 (https://github.com/mtap-research/PACMAN-charge/)
data_GOHWAE_ion_pacman
_symmetry_space_group_name_H-M   'P 1'
_cell_length_a   17.54210000
_cell_length_b   17.54210000
_cell_length_c   22.91690000
_cell_angle_alpha   90.00000000
_cell_angle_beta   90.00000000
_cell_angle_gamma   120.00000000
_symmetry_Int_Tables_number   1
_chemical_formula_structural   BaH61C48(ClO23)2
_chemical_formula_sum   'Ba3 H183 C144 Cl6 O138'
_cell_volume   6107.30579999
_cell_formula_units_Z   3
loop_
 _symmetry_equiv_pos_site_id
 _symmetry_equiv_pos_as_xyz
  1  'x, y, z'
loop_
 _atom_site_type_symbol
 _atom_site_label
 _atom_site_symmetry_multiplicity
 _atom_site_fract_x
 _atom_site_fract_y
 _atom_site_fract_z
 _atom_site_occupancy
 _atom_site_charge
Ba  Ba1  1  0.32361000  0.58514000  0.31545000  1.0 1.3605378642
Ba  Ba2  1  0.41486000  0.73847000  0.98212000  1.0 1.3605378642
Ba  Ba3  1  0.26153000  0.67639000  0.64878000  1.0 1.3605378642
H  H1  1  0.36788000  0.65960000  0.46993000  1.0 0.1204323245
H  H2  1  0.27945000  0.53777000  0.52872000  1.0 0.1287371626
H  H3  1  0.43236000  0.52597000  0.55712000  1.0 0.1204323245
H  H4  1  0.28127000  0.40935000  0.48739000  1.0 0.1204323245
H  H5  1  0.46025000  0.52181000  0.44856000  1.0 0.1110170587
H  H6  1  0.38616000  0.39203000  0.39129000  1.0 0.1287371626
H  H7  1  0.30398000  0.40712000  0.38320000  1.0 0.1385549257
H  H8  1  0.68922000  0.99391000  0.44194000  1.0 0.1204323245
H  H9  1  0.55644000  0.91867000  0.49492000  1.0 0.1204323245
H  H10  1  0.62089000  0.80712000  0.53762000  1.0 0.1110170587
H  H11  1  0.47812000  0.77498000  0.46043000  1.0 0.1204323245
H  H12  1  0.63970000  0.77322000  0.44154000  1.0 0.0904907176
H  H13  1  0.60281000  0.74972000  0.34113000  1.0 0.1508542185
H  H14  1  0.53797000  0.66573000  0.37943000  1.0 0.1287371626
H  H15  1  0.07416000  0.12482000  0.47987000  1.0 0.1204323245
H  H16  1  0.96294000  0.14228000  0.52595000  1.0 0.1287371626
H  H17  1  0.86619000  0.95586000  0.54787000  1.0 0.1827253078
H  H18  1  0.81746000  0.05573000  0.47021000  1.0 0.1204323245
H  H19  1  0.88225000  0.94311000  0.42922000  1.0 0.1002685318
H  H20  1  0.88574000  0.00781000  0.33671000  1.0 0.1385549257
H  H21  1  0.78798000  0.94828000  0.36132000  1.0 0.1287371626
H  H22  1  0.24297000  0.89995000  0.48433000  1.0 0.1204323245
H  H23  1  0.23942000  0.00947000  0.53953000  1.0 0.1204323245
H  H24  1  0.05182000  0.89690000  0.54774000  1.0 0.1204323245
H  H25  1  0.14378000  0.05993000  0.48277000  1.0 0.1110170587
H  H26  1  0.04366000  0.88283000  0.43724000  1.0 0.1110170587
H  H27  1  0.08952000  0.94008000  0.34540000  1.0 0.2040594444
H  H28  1  0.04032000  0.98692000  0.37366000  1.0 0.1287371626
H  H29  1  0.12468000  0.53002000  0.44417000  1.0 0.1287371626
H  H30  1  0.22083000  0.65889000  0.49364000  1.0 0.1204323245
H  H31  1  0.07128000  0.66148000  0.54174000  1.0 0.1287371626
H  H32  1  0.20117000  0.77575000  0.45796000  1.0 0.1204323245
H  H33  1  0.01476000  0.65507000  0.44096000  1.0 0.1002685318
H  H34  1  0.03441000  0.68906000  0.34233000  1.0 0.1287371626
H  H35  1  0.06721000  0.77932000  0.37721000  1.0 0.1204323245
H  H36  1  0.80545000  0.18622000  0.45372000  1.0 0.1204323245
H  H37  1  0.94155000  0.26286000  0.50016000  1.0 0.1204323245
H  H38  1  0.89207000  0.38615000  0.54242000  1.0 0.1204323245
H  H39  1  0.02113000  0.40913000  0.45481000  1.0 0.1204323245
H  H40  1  0.85663000  0.40466000  0.44048000  1.0 0.1110170587
H  H41  1  0.88158000  0.41446000  0.33956000  1.0 0.1385549257
H  H42  1  0.95693000  0.50143000  0.37085000  1.0 0.1287371626
H  H43  1  0.42233000  0.07573000  0.46175000  1.0 0.1110170587
H  H44  1  0.51818000  0.03550000  0.50615000  1.0 0.1204323245
H  H45  1  0.61726000  0.21325000  0.54692000  1.0 0.1204323245
H  H46  1  0.67254000  0.13353000  0.45939000  1.0 0.1204323245
H  H47  1  0.62514000  0.26635000  0.44028000  1.0 0.1287371626
H  H48  1  0.62929000  0.23296000  0.33868000  1.0 0.1204323245
H  H49  1  0.72410000  0.28584000  0.36882000  1.0 0.1287371626
H  H50  1  0.24417000  0.28103000  0.50788000  1.0 0.1204323245
H  H51  1  0.26331000  0.17728000  0.55994000  1.0 0.1204323245
H  H52  1  0.45014000  0.29928000  0.55489000  1.0 0.1204323245
H  H53  1  0.35276000  0.13078000  0.49549000  1.0 0.1110170587
H  H54  1  0.43697000  0.30456000  0.44273000  1.0 0.1110170587
H  H55  1  0.35557000  0.21888000  0.35677000  1.0 0.2581210409
H  H56  1  0.44020000  0.21215000  0.37381000  1.0 0.1933181906
H  H57  1  0.87771000  0.95933000  0.53549000  1.0 0.1508542185
H  H58  1  0.03356000  0.96923000  0.36703000  1.0 0.1287371626
H  H59  1  0.13324000  0.04653000  0.37674000  1.0 0.2300634003
H  H60  1  0.43713000  0.20026000  0.37717000  1.0 0.2089416658
H  H61  1  0.33483000  0.13295000  0.38951000  1.0 0.2427980428
H  H62  1  0.34040000  0.70828000  0.13660000  1.0 0.1204323245
H  H63  1  0.46223000  0.74168000  0.19539000  1.0 0.1287371626
H  H64  1  0.47403000  0.90639000  0.22379000  1.0 0.1204323245
H  H65  1  0.59065000  0.87192000  0.15406000  1.0 0.1204323245
H  H66  1  0.47819000  0.93844000  0.11523000  1.0 0.1110170587
H  H67  1  0.60797000  0.99413000  0.05796000  1.0 0.1287371626
H  H68  1  0.59288000  0.89686000  0.04987000  1.0 0.1385549257
H  H69  1  0.00609000  0.69531000  0.10861000  1.0 0.1204323245
H  H70  1  0.08133000  0.63777000  0.16159000  1.0 0.1204323245
H  H71  1  0.19288000  0.81377000  0.20429000  1.0 0.1110170587
H  H72  1  0.22502000  0.70314000  0.12710000  1.0 0.1204323245
H  H73  1  0.22678000  0.86648000  0.10821000  1.0 0.0904907176
H  H74  1  0.25028000  0.85309000  0.00780000  1.0 0.1508542185
H  H75  1  0.33427000  0.87224000  0.04610000  1.0 0.1287371626
H  H76  1  0.87518000  0.94934000  0.14654000  1.0 0.1204323245
H  H77  1  0.85772000  0.82066000  0.19262000  1.0 0.1287371626
H  H78  1  0.04414000  0.91033000  0.21454000  1.0 0.1827253078
H  H79  1  0.94427000  0.76173000  0.13688000  1.0 0.1204323245
H  H80  1  0.05689000  0.93914000  0.09589000  1.0 0.1002685318
H  H81  1  0.99219000  0.87793000  0.00338000  1.0 0.1385549257
H  H82  1  0.05172000  0.83970000  0.02799000  1.0 0.1287371626
H  H83  1  0.10005000  0.34302000  0.15100000  1.0 0.1204323245
H  H84  1  0.99053000  0.22995000  0.20620000  1.0 0.1204323245
H  H85  1  0.10310000  0.15492000  0.21441000  1.0 0.1204323245
H  H86  1  0.94007000  0.08385000  0.14944000  1.0 0.1110170587
H  H87  1  0.11717000  0.16083000  0.10391000  1.0 0.1110170587
H  H88  1  0.05992000  0.14944000  0.01207000  1.0 0.2040594444
H  H89  1  0.01308000  0.05340000  0.04033000  1.0 0.1287371626
H  H90  1  0.46998000  0.59466000  0.11084000  1.0 0.1287371626
H  H91  1  0.34111000  0.56194000  0.16031000  1.0 0.1204323245
H  H92  1  0.33852000  0.40980000  0.20841000  1.0 0.1287371626
H  H93  1  0.22425000  0.42542000  0.12463000  1.0 0.1204323245
H  H94  1  0.34493000  0.35969000  0.10763000  1.0 0.1002685318
H  H95  1  0.31094000  0.34535000  0.00900000  1.0 0.1287371626
H  H96  1  0.22068000  0.28789000  0.04388000  1.0 0.1204323245
H  H97  1  0.81378000  0.61923000  0.12039000  1.0 0.1204323245
H  H98  1  0.73714000  0.67869000  0.16683000  1.0 0.1204323245
H  H99  1  0.61385000  0.50592000  0.20909000  1.0 0.1204323245
H  H100  1  0.59087000  0.61200000  0.12148000  1.0 0.1204323245
H  H101  1  0.59534000  0.45197000  0.10715000  1.0 0.1110170587
H  H102  1  0.58554000  0.46712000  0.00623000  1.0 0.1385549257
H  H103  1  0.49857000  0.45550000  0.03752000  1.0 0.1287371626
H  H104  1  0.92427000  0.34660000  0.12842000  1.0 0.1110170587
H  H105  1  0.96450000  0.48268000  0.17282000  1.0 0.1287371626
H  H106  1  0.78675000  0.40401000  0.21359000  1.0 0.1204323245
H  H107  1  0.86647000  0.53901000  0.12606000  1.0 0.1204323245
H  H108  1  0.73365000  0.35879000  0.10695000  1.0 0.1287371626
H  H109  1  0.76704000  0.39633000  0.00535000  1.0 0.1204323245
H  H110  1  0.71416000  0.43826000  0.03549000  1.0 0.1287371626
H  H111  1  0.71897000  0.96314000  0.17455000  1.0 0.1204323245
H  H112  1  0.82272000  0.08603000  0.22661000  1.0 0.1204323245
H  H113  1  0.70072000  0.15086000  0.22156000  1.0 0.1204323245
H  H114  1  0.86922000  0.22198000  0.16216000  1.0 0.1002685318
H  H115  1  0.69544000  0.13241000  0.10940000  1.0 0.1110170587
H  H116  1  0.78112000  0.13669000  0.02344000  1.0 0.2581210409
H  H117  1  0.78785000  0.22805000  0.04048000  1.0 0.1933181906
H  H118  1  0.04067000  0.91838000  0.20216000  1.0 0.1508542185
H  H119  1  0.03077000  0.06433000  0.03370000  1.0 0.1287371626
H  H120  1  0.95347000  0.08671000  0.04341000  1.0 0.2300634003
H  H121  1  0.79974000  0.23687000  0.04384000  1.0 0.2089416658
H  H122  1  0.86705000  0.20188000  0.05618000  1.0 0.2427980428
H  H123  1  0.29172000  0.63212000  0.80326000  1.0 0.1204323245
H  H124  1  0.25832000  0.72055000  0.86205000  1.0 0.1287371626
H  H125  1  0.09361000  0.56764000  0.89045000  1.0 0.1204323245
H  H126  1  0.12808000  0.71873000  0.82072000  1.0 0.1204323245
H  H127  1  0.06156000  0.53975000  0.78189000  1.0 0.1110170587
H  H128  1  0.00587000  0.61384000  0.72462000  1.0 0.1287371626
H  H129  1  0.10314000  0.69602000  0.71653000  1.0 0.1385549257
H  H130  1  0.30469000  0.31078000  0.77527000  1.0 0.1204323245
H  H131  1  0.36223000  0.44356000  0.82825000  1.0 0.1204323245
H  H132  1  0.18623000  0.37911000  0.87095000  1.0 0.1110170587
H  H133  1  0.29686000  0.52188000  0.79376000  1.0 0.1204323245
H  H134  1  0.13352000  0.36030000  0.77487000  1.0 0.1002685318
H  H135  1  0.14691000  0.39719000  0.67446000  1.0 0.1508542185
H  H136  1  0.12776000  0.46203000  0.71276000  1.0 0.1287371626
H  H137  1  0.05066000  0.92584000  0.81320000  1.0 0.1204323245
H  H138  1  0.17934000  0.03706000  0.85928000  1.0 0.1287371626
H  H139  1  0.08967000  0.13381000  0.88120000  1.0 0.1827253078
H  H140  1  0.23827000  0.18254000  0.80354000  1.0 0.1204323245
H  H141  1  0.06086000  0.11775000  0.76255000  1.0 0.1002685318
H  H142  1  0.12207000  0.11426000  0.67004000  1.0 0.1385549257
H  H143  1  0.16030000  0.21202000  0.69465000  1.0 0.1287371626
H  H144  1  0.65698000  0.75703000  0.81766000  1.0 0.1204323245
H  H145  1  0.77005000  0.76058000  0.87286000  1.0 0.1204323245
H  H146  1  0.84508000  0.94818000  0.88107000  1.0 0.1204323245
H  H147  1  0.91615000  0.85622000  0.81610000  1.0 0.1110170587
H  H148  1  0.83917000  0.95634000  0.77057000  1.0 0.1110170587
H  H149  1  0.85056000  0.91048000  0.67873000  1.0 0.2040594444
H  H150  1  0.94660000  0.95968000  0.70699000  1.0 0.1287371626
H  H151  1  0.40534000  0.87532000  0.77750000  1.0 0.1287371626
H  H152  1  0.43806000  0.77917000  0.82697000  1.0 0.1204323245
H  H153  1  0.59020000  0.92872000  0.87507000  1.0 0.1287371626
H  H154  1  0.57458000  0.79883000  0.79129000  1.0 0.1204323245
H  H155  1  0.64031000  0.98524000  0.77429000  1.0 0.1002685318
H  H156  1  0.65465000  0.96559000  0.67566000  1.0 0.1287371626
H  H157  1  0.71211000  0.93279000  0.71054000  1.0 0.1204323245
H  H158  1  0.38077000  0.19455000  0.78705000  1.0 0.1204323245
H  H159  1  0.32131000  0.05845000  0.83349000  1.0 0.1204323245
H  H160  1  0.49408000  0.10793000  0.87575000  1.0 0.1204323245
H  H161  1  0.38800000  0.97887000  0.78814000  1.0 0.1287371626
H  H162  1  0.54803000  0.14337000  0.77381000  1.0 0.1110170587
H  H163  1  0.53288000  0.11842000  0.67289000  1.0 0.1385549257
H  H164  1  0.54450000  0.04307000  0.70418000  1.0 0.1287371626
H  H165  1  0.65340000  0.57767000  0.79508000  1.0 0.1110170587
H  H166  1  0.51732000  0.48182000  0.83948000  1.0 0.1287371626
H  H167  1  0.59599000  0.38274000  0.88025000  1.0 0.1204323245
H  H168  1  0.46099000  0.32746000  0.79272000  1.0 0.1204323245
H  H169  1  0.64121000  0.37486000  0.77361000  1.0 0.1287371626
H  H170  1  0.60367000  0.37071000  0.67201000  1.0 0.1204323245
H  H171  1  0.56174000  0.27590000  0.70215000  1.0 0.1287371626
H  H172  1  0.03686000  0.75583000  0.84121000  1.0 0.1204323245
H  H173  1  0.91397000  0.73669000  0.89327000  1.0 0.1204323245
H  H174  1  0.84914000  0.54986000  0.88822000  1.0 0.1204323245
H  H175  1  0.77802000  0.64724000  0.82882000  1.0 0.1002685318
H  H176  1  0.86759000  0.56303000  0.77606000  1.0 0.1110170587
H  H177  1  0.86331000  0.64443000  0.69010000  1.0 0.2581210409
H  H178  1  0.77195000  0.55980000  0.70714000  1.0 0.1933181906
H  H179  1  0.08162000  0.12229000  0.86882000  1.0 0.1553036546
H  H180  1  0.93567000  0.96644000  0.70036000  1.0 0.1287371626
H  H181  1  0.91329000  0.86676000  0.71007000  1.0 0.2300634003
H  H182  1  0.76313000  0.56287000  0.71050000  1.0 0.2089416658
H  H183  1  0.79812000  0.66517000  0.72284000  1.0 0.2427980428
C  C1  1  0.39010000  0.61850000  0.47950000  1.0 0.2499664364
C  C2  1  0.34440000  0.56790000  0.53550000  1.0 0.0501921073
C  C3  1  0.36790000  0.49750000  0.54890000  1.0 0.0599299766
C  C4  1  0.34600000  0.43890000  0.49500000  1.0 0.0423885525
C  C5  1  0.39530000  0.49330000  0.44220000  1.0 0.0904907176
C  C6  1  0.36880000  0.43750000  0.38750000  1.0 -0.0622038407
C  C7  1  0.66900000  0.93280000  0.45600000  1.0 0.2300634003
C  C8  1  0.60720000  0.91190000  0.50790000  1.0 0.0282131704
C  C9  1  0.57100000  0.81660000  0.52670000  1.0 0.0599299766
C  C10  1  0.52350000  0.76040000  0.47410000  1.0 0.0501921073
C  C11  1  0.59120000  0.78170000  0.42590000  1.0 0.1002685318
C  C12  1  0.55550000  0.72770000  0.37080000  1.0 -0.0622038407
C  C13  1  0.01230000  0.07450000  0.48100000  1.0 0.2300634003
C  C14  1  0.96380000  0.08630000  0.53210000  1.0 0.0423885525
C  C15  1  0.87050000  0.01240000  0.53510000  1.0 -0.0044419176
C  C16  1  0.82580000  0.00390000  0.47610000  1.0 0.0007936361
C  C17  1  0.88120000  0.99950000  0.42630000  1.0 0.0904907176
C  C18  1  0.84440000  0.00350000  0.36760000  1.0 -0.0483996288
C  C19  1  0.18560000  0.89910000  0.48690000  1.0 0.2427980428
C  C20  1  0.18660000  0.94910000  0.54090000  1.0 0.0282131704
C  C21  1  0.10440000  0.95690000  0.54290000  1.0 0.0799075098
C  C22  1  0.09460000  0.99770000  0.48640000  1.0 0.0599299766
C  C23  1  0.09530000  0.94380000  0.43440000  1.0 0.0716321609
C  C24  1  0.09400000  0.98190000  0.37610000  1.0 -0.0483996288
C  C25  1  0.10150000  0.56840000  0.45850000  1.0 0.2300634003
C  C26  1  0.15910000  0.62540000  0.50860000  1.0 0.0423885525
C  C27  1  0.13300000  0.69230000  0.52660000  1.0 0.0799075098
C  C28  1  0.13950000  0.74610000  0.47320000  1.0 0.0501921073
C  C29  1  0.07640000  0.68540000  0.42560000  1.0 0.1002685318
C  C30  1  0.08000000  0.73140000  0.36930000  1.0 -0.0673571068
C  C31  1  0.82690000  0.24910000  0.46420000  1.0 0.2427980428
C  C32  1  0.89440000  0.27490000  0.51370000  1.0 0.0282131704
C  C33  1  0.93760000  0.37270000  0.52740000  1.0 0.0716321609
C  C34  1  0.97520000  0.42220000  0.46960000  1.0 0.0423885525
C  C35  1  0.90300000  0.39300000  0.42480000  1.0 0.0904907176
C  C36  1  0.93250000  0.43720000  0.36640000  1.0 -0.0809140603
C  C37  1  0.48400000  0.12270000  0.47060000  1.0 0.2300634003
C  C38  1  0.52080000  0.09130000  0.51900000  1.0 0.0282131704
C  C39  1  0.61590000  0.15950000  0.53090000  1.0 0.0799075098
C  C40  1  0.66830000  0.18510000  0.47380000  1.0 0.0501921073
C  C41  1  0.62520000  0.21200000  0.42720000  1.0 0.0904907176
C  C42  1  0.66840000  0.22880000  0.36810000  1.0 -0.0673571068
C  C43  1  0.30250000  0.28400000  0.50520000  1.0 0.2300634003
C  C44  1  0.31360000  0.23910000  0.55790000  1.0 0.0243206542
C  C45  1  0.39930000  0.23770000  0.55360000  1.0 0.0716321609
C  C46  1  0.40050000  0.19390000  0.49550000  1.0 0.0501921073
C  C47  1  0.38680000  0.24260000  0.44440000  1.0 0.0599299766
C  C48  1  0.38000000  0.19600000  0.38650000  1.0 -0.0673571068
C  C49  1  0.38150000  0.77160000  0.14617000  1.0 0.2499664364
C  C50  1  0.43210000  0.77650000  0.20217000  1.0 0.0501921073
C  C51  1  0.50250000  0.87040000  0.21557000  1.0 0.0599299766
C  C52  1  0.56110000  0.90710000  0.16167000  1.0 0.0423885525
C  C53  1  0.50670000  0.90200000  0.10887000  1.0 0.0904907176
C  C54  1  0.56250000  0.93130000  0.05417000  1.0 -0.0622038407
C  C55  1  0.06720000  0.73620000  0.12267000  1.0 0.2300634003
C  C56  1  0.08810000  0.69530000  0.17457000  1.0 0.0282131704
C  C57  1  0.18340000  0.75440000  0.19337000  1.0 0.0599299766
C  C58  1  0.23960000  0.76310000  0.14077000  1.0 0.0501921073
C  C59  1  0.21830000  0.80950000  0.09257000  1.0 0.1002685318
C  C60  1  0.27230000  0.82780000  0.03747000  1.0 -0.0622038407
C  C61  1  0.92550000  0.93780000  0.14767000  1.0 0.2300634003
C  C62  1  0.91370000  0.87750000  0.19877000  1.0 0.0423885525
C  C63  1  0.98760000  0.85810000  0.20177000  1.0 -0.0044419176
C  C64  1  0.99610000  0.82190000  0.14277000  1.0 0.0007936361
C  C65  1  0.00050000  0.88170000  0.09297000  1.0 0.0904907176
C  C66  1  0.99650000  0.84090000  0.03427000  1.0 -0.0483996288
C  C67  1  0.10090000  0.28650000  0.15357000  1.0 0.2427980428
C  C68  1  0.05090000  0.23750000  0.20757000  1.0 0.0282131704
C  C69  1  0.04310000  0.14750000  0.20957000  1.0 0.0799075098
C  C70  1  0.00230000  0.09690000  0.15307000  1.0 0.0599299766
C  C71  1  0.05620000  0.15150000  0.10107000  1.0 0.0716321609
C  C72  1  0.01810000  0.11210000  0.04277000  1.0 -0.0483996288
C  C73  1  0.43160000  0.53310000  0.12517000  1.0 0.2300634003
C  C74  1  0.37460000  0.53370000  0.17527000  1.0 0.0423885525
C  C75  1  0.30770000  0.44070000  0.19327000  1.0 0.0799075098
C  C76  1  0.25390000  0.39340000  0.13987000  1.0 0.0501921073
C  C77  1  0.31460000  0.39100000  0.09227000  1.0 0.1002685318
C  C78  1  0.26860000  0.34860000  0.03597000  1.0 -0.0673571068
C  C79  1  0.75090000  0.57780000  0.13087000  1.0 0.2499664364
C  C80  1  0.72510000  0.61950000  0.18037000  1.0 0.0282131704
C  C81  1  0.62730000  0.56490000  0.19407000  1.0 0.0716321609
C  C82  1  0.57780000  0.55300000  0.13627000  1.0 0.0423885525
C  C83  1  0.60700000  0.51000000  0.09147000  1.0 0.0904907176
C  C84  1  0.56280000  0.49530000  0.03307000  1.0 -0.0809140603
C  C85  1  0.87730000  0.36130000  0.13727000  1.0 0.2300634003
C  C86  1  0.90870000  0.42950000  0.18567000  1.0 0.0282131704
C  C87  1  0.84050000  0.45640000  0.19757000  1.0 0.0799075098
C  C88  1  0.81490000  0.48320000  0.14047000  1.0 0.0501921073
C  C89  1  0.78800000  0.41320000  0.09387000  1.0 0.0904907176
C  C90  1  0.77120000  0.43960000  0.03477000  1.0 -0.0673571068
C  C91  1  0.71600000  0.01850000  0.17187000  1.0 0.2300634003
C  C92  1  0.76090000  0.07450000  0.22457000  1.0 0.0243206542
C  C93  1  0.76230000  0.16160000  0.22027000  1.0 0.0716321609
C  C94  1  0.80610000  0.20660000  0.16217000  1.0 0.0501921073
C  C95  1  0.75740000  0.14420000  0.11107000  1.0 0.0599299766
C  C96  1  0.80400000  0.18400000  0.05317000  1.0 -0.0673571068
C  C97  1  0.22840000  0.60990000  0.81283000  1.0 0.2499664364
C  C98  1  0.22350000  0.65560000  0.86883000  1.0 0.0501921073
C  C99  1  0.12960000  0.63210000  0.88223000  1.0 0.0599299766
C  C100  1  0.09290000  0.65400000  0.82833000  1.0 0.0423885525
C  C101  1  0.09800000  0.60470000  0.77553000  1.0 0.0904907176
C  C102  1  0.06870000  0.63120000  0.72083000  1.0 -0.0622038407
C  C103  1  0.26380000  0.33100000  0.78933000  1.0 0.2300634003
C  C104  1  0.30470000  0.39280000  0.84123000  1.0 0.0282131704
C  C105  1  0.24560000  0.42900000  0.86003000  1.0 0.0599299766
C  C106  1  0.23690000  0.47650000  0.80743000  1.0 0.0501921073
C  C107  1  0.19050000  0.40880000  0.75923000  1.0 0.1002685318
C  C108  1  0.17220000  0.44450000  0.70413000  1.0 -0.0622038407
C  C109  1  0.06220000  0.98770000  0.81433000  1.0 0.2300634003
C  C110  1  0.12250000  0.03620000  0.86543000  1.0 0.0423885525
C  C111  1  0.14190000  0.12950000  0.86843000  1.0 -0.0044419176
C  C112  1  0.17810000  0.17420000  0.80943000  1.0 0.0007936361
C  C113  1  0.11830000  0.11880000  0.75963000  1.0 0.0904907176
C  C114  1  0.15910000  0.15560000  0.70093000  1.0 -0.0483996288
C  C115  1  0.71350000  0.81440000  0.82023000  1.0 0.2427980428
C  C116  1  0.76250000  0.81340000  0.87423000  1.0 0.0282131704
C  C117  1  0.85250000  0.89560000  0.87623000  1.0 0.0799075098
C  C118  1  0.90310000  0.90540000  0.81973000  1.0 0.0599299766
C  C119  1  0.84850000  0.90470000  0.76773000  1.0 0.0716321609
C  C120  1  0.88790000  0.90600000  0.70943000  1.0 -0.0483996288
C  C121  1  0.46690000  0.89850000  0.79183000  1.0 0.2300634003
C  C122  1  0.46630000  0.84090000  0.84193000  1.0 0.0423885525
C  C123  1  0.55930000  0.86700000  0.85993000  1.0 0.0799075098
C  C124  1  0.60660000  0.86050000  0.80653000  1.0 0.0501921073
C  C125  1  0.60900000  0.92360000  0.75893000  1.0 0.1002685318
C  C126  1  0.65140000  0.92000000  0.70263000  1.0 -0.0673571068
C  C127  1  0.42220000  0.17310000  0.79753000  1.0 0.2427980428
C  C128  1  0.38050000  0.10560000  0.84703000  1.0 0.0282131704
C  C129  1  0.43510000  0.06240000  0.86073000  1.0 0.0716321609
C  C130  1  0.44700000  0.02480000  0.80293000  1.0 0.0423885525
C  C131  1  0.49000000  0.09700000  0.75813000  1.0 0.0904907176
C  C132  1  0.50470000  0.06750000  0.69973000  1.0 -0.0809140603
C  C133  1  0.63870000  0.51600000  0.80393000  1.0 0.2300634003
C  C134  1  0.57050000  0.47920000  0.85233000  1.0 0.0282131704
C  C135  1  0.54360000  0.38410000  0.86423000  1.0 0.0799075098
C  C136  1  0.51680000  0.33170000  0.80713000  1.0 0.0501921073
C  C137  1  0.58680000  0.37480000  0.76053000  1.0 0.0904907176
C  C138  1  0.56040000  0.33160000  0.70143000  1.0 -0.0673571068
C  C139  1  0.98150000  0.69750000  0.83853000  1.0 0.2300634003
C  C140  1  0.92550000  0.68640000  0.89123000  1.0 0.0243206542
C  C141  1  0.83840000  0.60070000  0.88693000  1.0 0.0716321609
C  C142  1  0.79340000  0.59950000  0.82883000  1.0 0.0501921073
C  C143  1  0.85580000  0.61320000  0.77773000  1.0 0.0599299766
C  C144  1  0.81600000  0.62000000  0.71983000  1.0 -0.0673571068
Cl  Cl1  1  0.18852000  0.88735000  0.78448000  1.0 -0.5117499734
Cl  Cl2  1  0.12117000  0.51037000  0.11086000  1.0 -0.5117499734
Cl  Cl3  1  0.69883000  0.81148000  0.11782000  1.0 -0.5117499734
Cl  Cl4  1  0.38920000  0.87883000  0.44420000  1.0 -0.5117499734
Cl  Cl5  1  0.11265000  0.30117000  0.45115000  1.0 -0.5150361086
Cl  Cl6  1  0.48963000  0.61080000  0.77753000  1.0 -0.5117499734
O  O1  1  0.17360000  0.46060000  0.36830000  1.0 -0.3384193244
O  O2  1  0.16720000  0.54800000  0.25680000  1.0 -0.0483996288
O  O3  1  0.28570000  0.69350000  0.37870000  1.0 -0.3699361558
O  O4  1  0.37040000  0.55920000  0.43220000  1.0 -0.3497446204
O  O5  1  0.36440000  0.62850000  0.58220000  1.0 -0.3979525392
O  O6  1  0.31970000  0.44930000  0.59910000  1.0 -0.2309829926
O  O7  1  0.37000000  0.37390000  0.50590000  1.0 -0.2386448885
O  O8  1  0.40910000  0.48940000  0.33660000  1.0 -0.3878508235
O  O9  1  0.62710000  0.87200000  0.40980000  1.0 -0.2207388565
O  O10  1  0.65060000  0.97240000  0.55400000  1.0 -0.3699361558
O  O11  1  0.51280000  0.79530000  0.57500000  1.0 -0.1187348788
O  O12  1  0.48090000  0.66830000  0.49040000  1.0 -0.2496640906
O  O13  1  0.48190000  0.73070000  0.34750000  1.0 -0.3384193244
O  O14  1  0.96960000  0.07170000  0.42840000  1.0 -0.2386448885
O  O15  1  0.00980000  0.09410000  0.58490000  1.0 -0.3979525392
O  O16  1  0.82970000  0.04480000  0.57710000  1.0 0.0716321609
O  O17  1  0.74320000  0.92650000  0.47650000  1.0 -0.2894380714
O  O18  1  0.82980000  0.07630000  0.36240000  1.0 -0.2309829926
O  O19  1  0.17550000  0.93970000  0.43570000  1.0 -0.2496640906
O  O20  1  0.19380000  0.90410000  0.58970000  1.0 -0.1571919496
O  O21  1  0.11100000  0.00950000  0.59200000  1.0 -0.3699361558
O  O22  1  0.01300000  0.99570000  0.49010000  1.0 -0.2894380714
O  O23  1  0.16370000  0.06070000  0.36440000  1.0 -0.1970544333
O  O24  1  0.10110000  0.62120000  0.41190000  1.0 -0.2207388565
O  O25  1  0.15830000  0.57120000  0.55540000  1.0 -0.4205160514
O  O26  1  0.19220000  0.74560000  0.57140000  1.0 -0.4205160514
O  O27  1  0.11780000  0.81170000  0.49060000  1.0 -0.2309829926
O  O28  1  0.16510000  0.76740000  0.34220000  1.0 -0.1412064309
O  O29  1  0.86450000  0.30030000  0.41500000  1.0 -0.2207388565
O  O30  1  0.85410000  0.22170000  0.56400000  1.0 -0.3384193244
O  O31  1  0.00570000  0.39930000  0.56920000  1.0 -0.2496640906
O  O32  1  0.01520000  0.51450000  0.48180000  1.0 -0.2386448885
O  O33  1  0.99850000  0.42050000  0.34250000  1.0 -0.0673571068
O  O34  1  0.53550000  0.14210000  0.41980000  1.0 -0.2803563848
O  O35  1  0.46630000  0.07310000  0.56920000  1.0 -0.2309829926
O  O36  1  0.65710000  0.13010000  0.57310000  1.0 -0.3139294411
O  O37  1  0.75460000  0.25530000  0.48650000  1.0 -0.2386448885
O  O38  1  0.68660000  0.16060000  0.35110000  1.0 -0.2207388565
O  O39  1  0.30510000  0.24280000  0.45280000  1.0 -0.2803563848
O  O40  1  0.31210000  0.28590000  0.60820000  1.0 -0.169164382
O  O41  1  0.40730000  0.18750000  0.59970000  1.0 -0.2207388565
O  O42  1  0.48370000  0.19940000  0.49050000  1.0 -0.2729725068
O  O43  1  0.33060000  0.10780000  0.38710000  1.0 -0.2970879401
O  O44  1  0.80920000  0.99440000  0.58290000  1.0 0.0599299766
O  O45  1  0.12310000  0.94370000  0.33220000  1.0 -0.2581801439
O  O46  1  0.35560000  0.23850000  0.33950000  1.0 -0.3699361558
O  O47  1  0.53940000  0.71300000  0.03497000  1.0 -0.3384193244
O  O48  1  0.45200000  0.61920000  0.92347000  1.0 -0.0421845081
O  O49  1  0.30650000  0.59220000  0.04537000  1.0 -0.3699361558
O  O50  1  0.44080000  0.81120000  0.09887000  1.0 -0.3497446204
O  O51  1  0.37150000  0.73590000  0.24887000  1.0 -0.3979525392
O  O52  1  0.55070000  0.87040000  0.26577000  1.0 -0.2309829926
O  O53  1  0.62610000  0.99610000  0.17257000  1.0 -0.2309829926
O  O54  1  0.51060000  0.91970000  0.00327000  1.0 -0.3878508235
O  O55  1  0.12800000  0.75510000  0.07647000  1.0 -0.2207388565
O  O56  1  0.02760000  0.67820000  0.22067000  1.0 -0.3699361558
O  O57  1  0.20470000  0.71750000  0.24167000  1.0 -0.1187348788
O  O58  1  0.33170000  0.81260000  0.15707000  1.0 -0.2496640906
O  O59  1  0.26930000  0.75120000  0.01417000  1.0 -0.3384193244
O  O60  1  0.92830000  0.89790000  0.09507000  1.0 -0.2386448885
O  O61  1  0.90590000  0.91570000  0.25157000  1.0 -0.3979525392
O  O62  1  0.95520000  0.78490000  0.24377000  1.0 0.0799075098
O  O63  1  0.07350000  0.81670000  0.14317000  1.0 -0.2894380714
O  O64  1  0.92370000  0.75350000  0.02907000  1.0 -0.2309829926
O  O65  1  0.06030000  0.23580000  0.10237000  1.0 -0.2496640906
O  O66  1  0.09590000  0.28970000  0.25637000  1.0 -0.1549095536
O  O67  1  0.99050000  0.10150000  0.25867000  1.0 -0.3699361558
O  O68  1  0.00430000  0.01730000  0.15677000  1.0 -0.2894380714
O  O69  1  0.93930000  0.10300000  0.03107000  1.0 -0.1970544333
O  O70  1  0.37880000  0.47990000  0.07857000  1.0 -0.2207388565
O  O71  1  0.42880000  0.58710000  0.22207000  1.0 -0.4205160514
O  O72  1  0.25440000  0.44660000  0.23807000  1.0 -0.4205160514
O  O73  1  0.18830000  0.30610000  0.15727000  1.0 -0.2309829926
O  O74  1  0.23260000  0.39770000  0.00887000  1.0 -0.1412064309
O  O75  1  0.69970000  0.56420000  0.08167000  1.0 -0.2207388565
O  O76  1  0.77830000  0.63240000  0.23067000  1.0 -0.3384193244
O  O77  1  0.60070000  0.60640000  0.23587000  1.0 -0.2496640906
O  O78  1  0.48550000  0.50070000  0.14847000  1.0 -0.2386448885
O  O79  1  0.57950000  0.57800000  0.00917000  1.0 -0.0673571068
O  O80  1  0.85790000  0.39340000  0.08647000  1.0 -0.2803563848
O  O81  1  0.92690000  0.39320000  0.23587000  1.0 -0.2309829926
O  O82  1  0.86990000  0.52700000  0.23977000  1.0 -0.3139294411
O  O83  1  0.74470000  0.49930000  0.15317000  1.0 -0.2386448885
O  O84  1  0.83940000  0.52600000  0.01777000  1.0 -0.2207388565
O  O85  1  0.75720000  0.06230000  0.11947000  1.0 -0.2803563848
O  O86  1  0.71410000  0.02620000  0.27487000  1.0 -0.169164382
O  O87  1  0.81250000  0.21980000  0.26637000  1.0 -0.2207388565
O  O88  1  0.80060000  0.28430000  0.15717000  1.0 -0.2729725068
O  O89  1  0.89220000  0.22280000  0.05377000  1.0 -0.2970879401
O  O90  1  0.00560000  0.81480000  0.24957000  1.0 0.0599299766
O  O91  1  0.05630000  0.17940000  0.99887000  1.0 -0.2581801439
O  O92  1  0.76150000  0.11710000  0.00617000  1.0 -0.3699361558
O  O93  1  0.28700000  0.82640000  0.70163000  1.0 -0.3384193244
O  O94  1  0.38080000  0.83280000  0.59013000  1.0 -0.0483996288
O  O95  1  0.40780000  0.71430000  0.71203000  1.0 -0.3699361558
O  O96  1  0.18880000  0.62960000  0.76553000  1.0 -0.3497446204
O  O97  1  0.26410000  0.63560000  0.91553000  1.0 -0.3979525392
O  O98  1  0.12960000  0.68030000  0.93243000  1.0 -0.2309829926
O  O99  1  0.00390000  0.63000000  0.83923000  1.0 -0.2309829926
O  O100  1  0.08030000  0.59090000  0.66993000  1.0 -0.3878508235
O  O101  1  0.24490000  0.37290000  0.74313000  1.0 -0.2207388565
O  O102  1  0.32180000  0.34940000  0.88733000  1.0 -0.3699361558
O  O103  1  0.28250000  0.48720000  0.90833000  1.0 -0.1187348788
O  O104  1  0.18740000  0.51910000  0.82373000  1.0 -0.2496640906
O  O105  1  0.24880000  0.51810000  0.68083000  1.0 -0.3384193244
O  O106  1  0.10210000  0.03040000  0.76173000  1.0 -0.2386448885
O  O107  1  0.08430000  0.99020000  0.91823000  1.0 -0.3979525392
O  O108  1  0.21510000  0.17030000  0.91043000  1.0 0.0716321609
O  O109  1  0.18330000  0.25680000  0.80983000  1.0 -0.2894380714
O  O110  1  0.24650000  0.17020000  0.69573000  1.0 -0.2309829926
O  O111  1  0.76420000  0.82450000  0.76903000  1.0 -0.2496640906
O  O112  1  0.71030000  0.80620000  0.92303000  1.0 -0.1571919496
O  O113  1  0.89850000  0.88900000  0.92533000  1.0 -0.3699361558
O  O114  1  0.98270000  0.98700000  0.82343000  1.0 -0.2894380714
O  O115  1  0.89700000  0.83630000  0.69773000  1.0 -0.1970544333
O  O116  1  0.52010000  0.89890000  0.74523000  1.0 -0.2207388565
O  O117  1  0.41290000  0.84170000  0.88873000  1.0 -0.4205160514
O  O118  1  0.55340000  0.80780000  0.90473000  1.0 -0.4205160514
O  O119  1  0.69390000  0.88220000  0.82393000  1.0 -0.2309829926
O  O120  1  0.60230000  0.83490000  0.67553000  1.0 -0.1412064309
O  O121  1  0.43580000  0.13550000  0.74833000  1.0 -0.2207388565
O  O122  1  0.36760000  0.14590000  0.89733000  1.0 -0.3336048747
O  O123  1  0.39360000  0.99430000  0.90253000  1.0 -0.2496640906
O  O124  1  0.49930000  0.98480000  0.81513000  1.0 -0.2386448885
O  O125  1  0.42200000  0.00150000  0.67583000  1.0 -0.0673571068
O  O126  1  0.60660000  0.46450000  0.75313000  1.0 -0.2803563848
O  O127  1  0.60680000  0.53370000  0.90253000  1.0 -0.2309829926
O  O128  1  0.47300000  0.34290000  0.90643000  1.0 -0.3139294411
O  O129  1  0.50070000  0.24540000  0.81983000  1.0 -0.2386448885
O  O130  1  0.47400000  0.31340000  0.68443000  1.0 -0.2207388565
O  O131  1  0.93770000  0.69490000  0.78613000  1.0 -0.2803563848
O  O132  1  0.97380000  0.68790000  0.94153000  1.0 -0.169164382
O  O133  1  0.78020000  0.59270000  0.93303000  1.0 -0.2207388565
O  O134  1  0.71570000  0.51630000  0.82383000  1.0 -0.2729725068
O  O135  1  0.77720000  0.66940000  0.72043000  1.0 -0.2970879401
O  O136  1  0.18520000  0.19080000  0.91623000  1.0 0.0599299766
O  O137  1  0.82060000  0.87690000  0.66553000  1.0 -0.2581801439
O  O138  1  0.88290000  0.64440000  0.67283000  1.0 -0.3699361558
