# DDEC6 charges by PACMAN v1.1 (https://github.com/mtap-research/PACMAN-charge/)
data_GOHWUY_ion_pacman
_symmetry_space_group_name_H-M   'P 1'
_cell_length_a   11.04270000
_cell_length_b   22.78690000
_cell_length_c   30.59710000
_cell_angle_alpha   90.00000000
_cell_angle_beta   90.00000000
_cell_angle_gamma   90.00000000
_symmetry_Int_Tables_number   1
_chemical_formula_structural   BaH58C48Cl3O43
_chemical_formula_sum   'Ba4 H232 C192 Cl12 O172'
_cell_volume   7699.11463547
_cell_formula_units_Z   4
loop_
 _symmetry_equiv_pos_site_id
 _symmetry_equiv_pos_as_xyz
  1  'x, y, z'
loop_
 _atom_site_type_symbol
 _atom_site_label
 _atom_site_symmetry_multiplicity
 _atom_site_fract_x
 _atom_site_fract_y
 _atom_site_fract_z
 _atom_site_occupancy
 _atom_site_charge
Ba  Ba1  1  0.00853000  0.91686000  0.13397000  1.0 1.3551658983
Ba  Ba2  1  0.49147000  0.08314000  0.63397000  1.0 1.353150546
Ba  Ba3  1  0.99147000  0.41686000  0.36603000  1.0 1.353150546
Ba  Ba4  1  0.50853000  0.58314000  0.86603000  1.0 1.353150546
H  H1  1  0.20709000  0.04889000  0.16877000  1.0 0.1289757331
H  H2  1  0.39552000  0.01487000  0.19291000  1.0 0.1190858587
H  H3  1  0.50050000  0.04791000  0.11031000  1.0 0.1190858587
H  H4  1  0.45822000  0.92911000  0.13915000  1.0 0.1111504517
H  H5  1  0.32702000  0.99119000  0.07167000  1.0 0.1190858587
H  H6  1  0.33913000  0.88863000  0.05751000  1.0 0.1289757331
H  H7  1  0.28774000  0.87477000  0.10545000  1.0 0.1190858587
H  H8  1  0.94836000  0.23441000  0.06986000  1.0 0.1190858587
H  H9  1  0.04844000  0.21632000  0.13666000  1.0 0.1190858587
H  H10  1  0.26115000  0.18919000  0.08610000  1.0 0.1111504517
H  H11  1  0.10939000  0.11182000  0.13804000  1.0 0.1190858587
H  H12  1  0.13275000  0.11441000  0.04398000  1.0 0.0974928107
H  H13  1  0.96228000  0.04709000  0.04567000  1.0 0.1377563273
H  H14  1  0.08748000  0.01834000  0.06115000  1.0 0.1190858587
H  H15  1  0.99437000  0.33215000  0.89180000  1.0 0.1190858587
H  H16  1  0.97302000  0.36086000  0.96393000  1.0 0.1289757331
H  H17  1  0.19176000  0.29948000  0.98625000  1.0 0.1190858587
H  H18  1  0.94714000  0.26241000  0.00634000  1.0 0.1111504517
H  H19  1  0.11800000  0.21043000  0.94573000  1.0 0.1111504517
H  H20  1  0.98649000  0.13890000  0.98148000  1.0 0.0891676305
H  H21  1  0.87249000  0.17292000  0.96107000  1.0 0.1289757331
H  H22  1  0.31081000  0.31587000  0.73994000  1.0 0.1111504517
H  H23  1  0.24747000  0.38750000  0.78783000  1.0 0.1289757331
H  H24  1  0.35322000  0.32532000  0.86041000  1.0 0.1111504517
H  H25  1  0.10029000  0.33209000  0.83952000  1.0 0.1190858587
H  H26  1  0.26351000  0.23249000  0.83323000  1.0 0.1111504517
H  H27  1  0.09023000  0.19042000  0.85249000  1.0 0.1700883503
H  H28  1  0.09600000  0.18380000  0.80067000  1.0 0.2425103873
H  H29  1  0.70071000  0.26462000  0.70150000  1.0 0.1377563273
H  H30  1  0.63051000  0.23457000  0.78932000  1.0 0.1289757331
H  H31  1  0.47730000  0.28229000  0.72088000  1.0 0.1190858587
H  H32  1  0.46278000  0.16483000  0.75673000  1.0 0.1190858587
H  H33  1  0.27880000  0.19981000  0.72639000  1.0 0.1377563273
H  H34  1  0.34699000  0.21474000  0.68151000  1.0 0.1289757331
H  H35  1  0.89275000  0.94285000  0.78244000  1.0 0.1289757331
H  H36  1  0.95503000  0.01896000  0.73745000  1.0 0.1289757331
H  H37  1  0.86220000  0.10086000  0.79980000  1.0 0.1289757331
H  H38  1  0.76003000  0.07583000  0.71436000  1.0 0.1289757331
H  H39  1  0.66455000  0.04608000  0.79962000  1.0 0.1111504517
H  H40  1  0.51077000  0.99372000  0.76376000  1.0 0.1289757331
H  H41  1  0.50213000  0.06186000  0.75163000  1.0 0.1111504517
H  H42  1  0.92562000  0.87243000  0.96770000  1.0 0.1472231145
H  H43  1  0.05796000  0.92957000  0.92668000  1.0 0.1289757331
H  H44  1  0.86608000  0.01259000  0.91098000  1.0 0.1289757331
H  H45  1  0.72757000  0.92662000  0.88842000  1.0 0.1190858587
H  H46  1  0.70174000  0.83738000  0.85233000  1.0 0.1289757331
H  H47  1  0.71864000  0.88876000  0.81735000  1.0 0.1111504517
H  H48  1  0.54688000  0.86456000  0.10275000  1.0 0.1190858587
H  H49  1  0.75188000  0.84955000  0.08393000  1.0 0.1190858587
H  H50  1  0.75178000  0.96543000  0.04652000  1.0 0.1289757331
H  H51  1  0.76292000  0.85340000  0.00206000  1.0 0.1190858587
H  H52  1  0.57367000  0.94060000  0.00409000  1.0 0.1111504517
H  H53  1  0.45648000  0.87187000  0.96277000  1.0 0.1569431196
H  H54  1  0.56365000  0.90102000  0.93520000  1.0 0.1289757331
H  H55  1  0.00958000  0.13228000  0.96999000  1.0 0.1289757331
H  H56  1  0.88897000  0.17001000  0.97620000  1.0 0.0833840706
H  H57  1  0.06616000  0.20199000  0.85526000  1.0 0.1700883503
H  H58  1  0.01332000  0.23058000  0.81114000  1.0 0.2520243301
H  H59  1  0.29291000  0.95111000  0.66877000  1.0 0.1289757331
H  H60  1  0.10448000  0.98513000  0.69291000  1.0 0.1190858587
H  H61  1  0.99950000  0.95209000  0.61031000  1.0 0.1190858587
H  H62  1  0.04178000  0.07089000  0.63915000  1.0 0.1111504517
H  H63  1  0.17298000  0.00881000  0.57167000  1.0 0.1190858587
H  H64  1  0.16087000  0.11137000  0.55751000  1.0 0.1289757331
H  H65  1  0.21226000  0.12523000  0.60545000  1.0 0.1190858587
H  H66  1  0.55164000  0.76559000  0.56986000  1.0 0.1190858587
H  H67  1  0.45156000  0.78368000  0.63666000  1.0 0.1190858587
H  H68  1  0.23885000  0.81081000  0.58610000  1.0 0.1111504517
H  H69  1  0.39061000  0.88818000  0.63804000  1.0 0.1190858587
H  H70  1  0.36725000  0.88559000  0.54398000  1.0 0.0974928107
H  H71  1  0.53772000  0.95291000  0.54567000  1.0 0.1377563273
H  H72  1  0.41252000  0.98166000  0.56115000  1.0 0.1190858587
H  H73  1  0.50563000  0.66785000  0.39180000  1.0 0.1190858587
H  H74  1  0.52698000  0.63914000  0.46393000  1.0 0.1289757331
H  H75  1  0.30824000  0.70052000  0.48625000  1.0 0.1190858587
H  H76  1  0.55286000  0.73759000  0.50634000  1.0 0.1111504517
H  H77  1  0.38200000  0.78957000  0.44573000  1.0 0.1111504517
H  H78  1  0.51351000  0.86110000  0.48148000  1.0 0.0891676305
H  H79  1  0.62751000  0.82708000  0.46107000  1.0 0.1289757331
H  H80  1  0.18919000  0.68413000  0.23994000  1.0 0.1111504517
H  H81  1  0.25253000  0.61250000  0.28783000  1.0 0.1289757331
H  H82  1  0.14678000  0.67468000  0.36041000  1.0 0.1111504517
H  H83  1  0.39971000  0.66791000  0.33952000  1.0 0.1190858587
H  H84  1  0.23649000  0.76751000  0.33323000  1.0 0.1111504517
H  H85  1  0.40977000  0.80958000  0.35249000  1.0 0.1700883503
H  H86  1  0.40400000  0.81620000  0.30067000  1.0 0.2425103873
H  H87  1  0.79929000  0.73538000  0.20150000  1.0 0.1377563273
H  H88  1  0.86949000  0.76543000  0.28932000  1.0 0.1289757331
H  H89  1  0.02270000  0.71771000  0.22088000  1.0 0.1190858587
H  H90  1  0.03722000  0.83517000  0.25673000  1.0 0.1190858587
H  H91  1  0.22120000  0.80019000  0.22639000  1.0 0.1377563273
H  H92  1  0.15301000  0.78526000  0.18151000  1.0 0.1289757331
H  H93  1  0.60725000  0.05715000  0.28244000  1.0 0.1289757331
H  H94  1  0.54497000  0.98104000  0.23745000  1.0 0.1289757331
H  H95  1  0.63780000  0.89914000  0.29980000  1.0 0.1289757331
H  H96  1  0.73997000  0.92417000  0.21436000  1.0 0.1289757331
H  H97  1  0.83545000  0.95392000  0.29962000  1.0 0.1111504517
H  H98  1  0.98923000  0.00628000  0.26376000  1.0 0.1289757331
H  H99  1  0.99787000  0.93814000  0.25163000  1.0 0.1111504517
H  H100  1  0.57438000  0.12757000  0.46770000  1.0 0.1472231145
H  H101  1  0.44204000  0.07043000  0.42668000  1.0 0.1289757331
H  H102  1  0.63392000  0.98741000  0.41098000  1.0 0.1289757331
H  H103  1  0.77243000  0.07338000  0.38842000  1.0 0.1111504517
H  H104  1  0.79826000  0.16262000  0.35233000  1.0 0.1289757331
H  H105  1  0.78136000  0.11124000  0.31735000  1.0 0.1111504517
H  H106  1  0.95312000  0.13544000  0.60275000  1.0 0.1190858587
H  H107  1  0.74812000  0.15045000  0.58393000  1.0 0.1190858587
H  H108  1  0.74822000  0.03457000  0.54652000  1.0 0.1289757331
H  H109  1  0.73708000  0.14660000  0.50206000  1.0 0.1190858587
H  H110  1  0.92633000  0.05940000  0.50409000  1.0 0.1111504517
H  H111  1  0.04352000  0.12813000  0.46277000  1.0 0.1569431196
H  H112  1  0.93635000  0.09898000  0.43520000  1.0 0.1289757331
H  H113  1  0.49042000  0.86772000  0.46999000  1.0 0.1289757331
H  H114  1  0.61103000  0.82999000  0.47620000  1.0 0.0833840706
H  H115  1  0.43384000  0.79801000  0.35526000  1.0 0.1700883503
H  H116  1  0.48668000  0.76942000  0.31114000  1.0 0.2520243301
H  H117  1  0.79291000  0.54889000  0.33123000  1.0 0.1289757331
H  H118  1  0.60448000  0.51487000  0.30709000  1.0 0.1190858587
H  H119  1  0.49950000  0.54791000  0.38969000  1.0 0.1190858587
H  H120  1  0.54178000  0.42911000  0.36085000  1.0 0.1111504517
H  H121  1  0.67298000  0.49119000  0.42833000  1.0 0.1190858587
H  H122  1  0.66087000  0.38863000  0.44249000  1.0 0.1289757331
H  H123  1  0.71226000  0.37477000  0.39455000  1.0 0.1190858587
H  H124  1  0.05164000  0.73441000  0.43014000  1.0 0.1190858587
H  H125  1  0.95156000  0.71632000  0.36334000  1.0 0.1190858587
H  H126  1  0.73885000  0.68919000  0.41390000  1.0 0.1111504517
H  H127  1  0.89061000  0.61182000  0.36196000  1.0 0.1190858587
H  H128  1  0.86725000  0.61441000  0.45602000  1.0 0.0974928107
H  H129  1  0.03772000  0.54709000  0.45433000  1.0 0.1377563273
H  H130  1  0.91252000  0.51834000  0.43885000  1.0 0.1190858587
H  H131  1  0.00563000  0.83215000  0.60820000  1.0 0.1190858587
H  H132  1  0.02698000  0.86086000  0.53607000  1.0 0.1289757331
H  H133  1  0.80824000  0.79948000  0.51375000  1.0 0.1190858587
H  H134  1  0.05286000  0.76241000  0.49366000  1.0 0.1111504517
H  H135  1  0.88200000  0.71043000  0.55427000  1.0 0.1111504517
H  H136  1  0.01351000  0.63890000  0.51852000  1.0 0.0891676305
H  H137  1  0.12751000  0.67292000  0.53893000  1.0 0.1289757331
H  H138  1  0.68919000  0.81587000  0.76006000  1.0 0.1111504517
H  H139  1  0.75253000  0.88750000  0.71217000  1.0 0.1289757331
H  H140  1  0.64678000  0.82532000  0.63959000  1.0 0.1111504517
H  H141  1  0.89971000  0.83209000  0.66048000  1.0 0.1190858587
H  H142  1  0.73649000  0.73249000  0.66677000  1.0 0.1111504517
H  H143  1  0.90977000  0.69042000  0.64751000  1.0 0.1700883503
H  H144  1  0.90400000  0.68380000  0.69933000  1.0 0.2425103873
H  H145  1  0.29929000  0.76462000  0.79850000  1.0 0.1377563273
H  H146  1  0.36949000  0.73457000  0.71068000  1.0 0.1289757331
H  H147  1  0.52270000  0.78229000  0.77912000  1.0 0.1190858587
H  H148  1  0.53722000  0.66483000  0.74327000  1.0 0.1190858587
H  H149  1  0.72120000  0.69981000  0.77361000  1.0 0.1377563273
H  H150  1  0.65301000  0.71474000  0.81849000  1.0 0.1190858587
H  H151  1  0.10725000  0.44285000  0.71756000  1.0 0.1289757331
H  H152  1  0.04497000  0.51896000  0.76255000  1.0 0.1289757331
H  H153  1  0.13780000  0.60086000  0.70020000  1.0 0.1289757331
H  H154  1  0.23997000  0.57583000  0.78564000  1.0 0.1289757331
H  H155  1  0.33545000  0.54608000  0.70038000  1.0 0.1111504517
H  H156  1  0.48923000  0.49372000  0.73624000  1.0 0.1289757331
H  H157  1  0.49787000  0.56186000  0.74837000  1.0 0.1190858587
H  H158  1  0.07438000  0.37243000  0.53230000  1.0 0.1472231145
H  H159  1  0.94204000  0.42957000  0.57332000  1.0 0.1289757331
H  H160  1  0.13392000  0.51259000  0.58902000  1.0 0.1289757331
H  H161  1  0.27243000  0.42662000  0.61158000  1.0 0.1190858587
H  H162  1  0.29826000  0.33738000  0.64767000  1.0 0.1289757331
H  H163  1  0.28136000  0.38876000  0.68265000  1.0 0.1111504517
H  H164  1  0.45312000  0.36456000  0.39725000  1.0 0.1190858587
H  H165  1  0.24812000  0.34955000  0.41607000  1.0 0.1190858587
H  H166  1  0.24822000  0.46543000  0.45348000  1.0 0.1289757331
H  H167  1  0.23708000  0.35340000  0.49794000  1.0 0.1190858587
H  H168  1  0.42633000  0.44060000  0.49591000  1.0 0.1111504517
H  H169  1  0.54352000  0.37187000  0.53723000  1.0 0.1569431196
H  H170  1  0.43635000  0.40102000  0.56480000  1.0 0.1289757331
H  H171  1  0.99042000  0.63228000  0.53001000  1.0 0.1289757331
H  H172  1  0.11103000  0.67001000  0.52380000  1.0 0.0833840706
H  H173  1  0.93384000  0.70199000  0.64474000  1.0 0.1700883503
H  H174  1  0.98668000  0.73058000  0.68886000  1.0 0.2520243301
H  H175  1  0.70709000  0.45111000  0.83123000  1.0 0.1289757331
H  H176  1  0.89552000  0.48513000  0.80709000  1.0 0.1190858587
H  H177  1  0.00050000  0.45209000  0.88969000  1.0 0.1190858587
H  H178  1  0.95822000  0.57089000  0.86085000  1.0 0.1111504517
H  H179  1  0.82702000  0.50881000  0.92833000  1.0 0.1190858587
H  H180  1  0.83913000  0.61137000  0.94249000  1.0 0.1289757331
H  H181  1  0.78774000  0.62523000  0.89455000  1.0 0.1190858587
H  H182  1  0.44836000  0.26559000  0.93014000  1.0 0.1190858587
H  H183  1  0.54844000  0.28368000  0.86334000  1.0 0.1190858587
H  H184  1  0.76115000  0.31081000  0.91390000  1.0 0.1111504517
H  H185  1  0.60939000  0.38818000  0.86196000  1.0 0.1190858587
H  H186  1  0.63275000  0.38559000  0.95602000  1.0 0.0974928107
H  H187  1  0.46228000  0.45291000  0.95433000  1.0 0.1377563273
H  H188  1  0.58748000  0.48166000  0.93885000  1.0 0.1190858587
H  H189  1  0.49437000  0.16785000  0.10820000  1.0 0.1190858587
H  H190  1  0.47302000  0.13914000  0.03607000  1.0 0.1289757331
H  H191  1  0.69176000  0.20052000  0.01375000  1.0 0.1190858587
H  H192  1  0.44714000  0.23759000  0.99366000  1.0 0.1111504517
H  H193  1  0.61800000  0.28957000  0.05427000  1.0 0.1111504517
H  H194  1  0.48649000  0.36110000  0.01852000  1.0 0.0891676305
H  H195  1  0.37249000  0.32708000  0.03893000  1.0 0.1289757331
H  H196  1  0.81081000  0.18413000  0.26006000  1.0 0.1111504517
H  H197  1  0.74747000  0.11250000  0.21217000  1.0 0.1289757331
H  H198  1  0.85322000  0.17468000  0.13959000  1.0 0.1111504517
H  H199  1  0.60029000  0.16791000  0.16048000  1.0 0.1190858587
H  H200  1  0.76351000  0.26751000  0.16677000  1.0 0.1111504517
H  H201  1  0.59023000  0.30958000  0.14751000  1.0 0.1700883503
H  H202  1  0.59600000  0.31620000  0.19933000  1.0 0.2425103873
H  H203  1  0.20071000  0.23538000  0.29850000  1.0 0.1377563273
H  H204  1  0.13051000  0.26543000  0.21068000  1.0 0.1289757331
H  H205  1  0.97730000  0.21771000  0.27912000  1.0 0.1190858587
H  H206  1  0.96278000  0.33517000  0.24327000  1.0 0.1190858587
H  H207  1  0.77880000  0.30019000  0.27361000  1.0 0.1377563273
H  H208  1  0.84699000  0.28526000  0.31849000  1.0 0.1289757331
H  H209  1  0.39275000  0.55715000  0.21756000  1.0 0.1289757331
H  H210  1  0.45503000  0.48104000  0.26255000  1.0 0.1289757331
H  H211  1  0.36220000  0.39914000  0.20020000  1.0 0.1289757331
H  H212  1  0.26003000  0.42417000  0.28564000  1.0 0.1289757331
H  H213  1  0.16455000  0.45392000  0.20038000  1.0 0.1111504517
H  H214  1  0.01077000  0.50628000  0.23624000  1.0 0.1289757331
H  H215  1  0.00213000  0.43814000  0.24837000  1.0 0.1111504517
H  H216  1  0.42562000  0.62757000  0.03230000  1.0 0.1472231145
H  H217  1  0.55796000  0.57043000  0.07332000  1.0 0.1289757331
H  H218  1  0.36608000  0.48741000  0.08902000  1.0 0.1289757331
H  H219  1  0.22757000  0.57338000  0.11158000  1.0 0.1190858587
H  H220  1  0.20174000  0.66262000  0.14767000  1.0 0.1289757331
H  H221  1  0.21864000  0.61124000  0.18265000  1.0 0.1111504517
H  H222  1  0.04688000  0.63544000  0.89725000  1.0 0.1190858587
H  H223  1  0.25188000  0.65045000  0.91607000  1.0 0.1190858587
H  H224  1  0.25178000  0.53457000  0.95348000  1.0 0.1289757331
H  H225  1  0.26292000  0.64660000  0.99794000  1.0 0.1190858587
H  H226  1  0.07367000  0.55940000  0.99591000  1.0 0.1190858587
H  H227  1  0.95648000  0.62813000  0.03723000  1.0 0.1569431196
H  H228  1  0.06365000  0.59898000  0.06480000  1.0 0.1289757331
H  H229  1  0.50958000  0.36772000  0.03001000  1.0 0.1289757331
H  H230  1  0.38897000  0.32999000  0.02380000  1.0 0.0833840706
H  H231  1  0.56616000  0.29801000  0.14474000  1.0 0.1700883503
H  H232  1  0.51332000  0.26942000  0.18886000  1.0 0.2520243301
C  C1  1  0.26820000  0.03870000  0.14589000  1.0 0.2520243301
C  C2  1  0.39470000  0.04050000  0.16640000  1.0 0.0306872977
C  C3  1  0.49080000  0.01890000  0.13457000  1.0 0.0891676305
C  C4  1  0.45450000  0.96000000  0.11590000  1.0 0.0505613732
C  C5  1  0.32830000  0.96270000  0.09650000  1.0 0.0891676305
C  C6  1  0.28520000  0.90320000  0.08100000  1.0 -0.0709411023
C  C7  1  0.02150000  0.20850000  0.06980000  1.0 0.2292749877
C  C8  1  0.09860000  0.22280000  0.10990000  1.0 0.0390969038
C  C9  1  0.20700000  0.18220000  0.11180000  1.0 0.0974928107
C  C10  1  0.15960000  0.11870000  0.11134000  1.0 0.0390969038
C  C11  1  0.08220000  0.10820000  0.07070000  1.0 0.0974928107
C  C12  1  0.02490000  0.04770000  0.06883000  1.0 -0.0504852394
C  C13  1  0.04110000  0.30870000  0.91370000  1.0 0.2520243301
C  C14  1  0.05450000  0.34560000  0.95530000  1.0 0.0390969038
C  C15  1  0.10540000  0.30950000  0.99260000  1.0 0.0891676305
C  C16  1  0.03230000  0.25290000  0.99770000  1.0 0.0505613732
C  C17  1  0.03290000  0.21940000  0.95470000  1.0 0.0505613732
C  C18  1  0.95910000  0.16340000  0.95670000  1.0 -0.1017391836
C  C19  1  0.30850000  0.30470000  0.77150000  1.0 0.2292749877
C  C20  1  0.31220000  0.36070000  0.79900000  1.0 0.0390969038
C  C21  1  0.28330000  0.34660000  0.84700000  1.0 0.0891676305
C  C22  1  0.17180000  0.30970000  0.85060000  1.0 0.0306872977
C  C23  1  0.18870000  0.25330000  0.82330000  1.0 0.0891676305
C  C24  1  0.08570000  0.21250000  0.82470000  1.0 -0.0925515765
C  C25  1  0.67570000  0.17540000  0.71500000  1.0 0.404293477
C  C26  1  0.70870000  0.23880000  0.72780000  1.0 -0.0100973086
C  C27  1  0.62090000  0.25940000  0.76260000  1.0 0.0891676305
C  C28  1  0.48960000  0.25460000  0.74585000  1.0 0.0505613732
C  C29  1  0.46370000  0.19180000  0.73090000  1.0 0.0891676305
C  C30  1  0.34570000  0.18770000  0.70680000  1.0 -0.044191345
C  C31  1  0.85290000  0.98190000  0.78640000  1.0 0.2425103873
C  C32  1  0.93520000  0.02910000  0.76840000  1.0 0.0202078542
C  C33  1  0.87410000  0.08820000  0.76880000  1.0 0.0891676305
C  C34  1  0.74960000  0.08450000  0.74618000  1.0 0.0626501091
C  C35  1  0.67520000  0.03610000  0.76800000  1.0 0.0974928107
C  C36  1  0.55160000  0.02600000  0.74790000  1.0 -0.0504852394
C  C37  1  0.88820000  0.90070000  0.94670000  1.0 0.2520243301
C  C38  1  0.98080000  0.94850000  0.93630000  1.0 0.0505613732
C  C39  1  0.93490000  0.98840000  0.89970000  1.0 0.0306872977
C  C40  1  0.89210000  0.95290000  0.86150000  1.0 0.2700422624
C  C41  1  0.80040000  0.90660000  0.87600000  1.0 0.0626501091
C  C42  1  0.76090000  0.86560000  0.84010000  1.0 -0.044191345
C  C43  1  0.58330000  0.88900000  0.07900000  1.0 0.2425103873
C  C44  1  0.72130000  0.89080000  0.08430000  1.0 0.0390969038
C  C45  1  0.77780000  0.92340000  0.04586000  1.0 0.0891676305
C  C46  1  0.73610000  0.89530000  0.00320000  1.0 0.0505613732
C  C47  1  0.59900000  0.89870000  0.00120000  1.0 0.0891676305
C  C48  1  0.54560000  0.87380000  0.95960000  1.0 0.0202078542
C  C49  1  0.23180000  0.96130000  0.64589000  1.0 0.2520243301
C  C50  1  0.10530000  0.95950000  0.66640000  1.0 0.0306872977
C  C51  1  0.00920000  0.98110000  0.63457000  1.0 0.0891676305
C  C52  1  0.04550000  0.04000000  0.61590000  1.0 0.0505613732
C  C53  1  0.17170000  0.03730000  0.59650000  1.0 0.0891676305
C  C54  1  0.21480000  0.09680000  0.58100000  1.0 -0.0709411023
C  C55  1  0.47850000  0.79150000  0.56980000  1.0 0.2292749877
C  C56  1  0.40140000  0.77720000  0.60990000  1.0 0.0390969038
C  C57  1  0.29300000  0.81780000  0.61180000  1.0 0.0974928107
C  C58  1  0.34040000  0.88130000  0.61134000  1.0 0.0390969038
C  C59  1  0.41780000  0.89180000  0.57070000  1.0 0.0891676305
C  C60  1  0.47510000  0.95230000  0.56883000  1.0 -0.0504852394
C  C61  1  0.45890000  0.69130000  0.41370000  1.0 0.2520243301
C  C62  1  0.44550000  0.65440000  0.45530000  1.0 0.0390969038
C  C63  1  0.39460000  0.69050000  0.49260000  1.0 0.0891676305
C  C64  1  0.46770000  0.74710000  0.49770000  1.0 0.0505613732
C  C65  1  0.46710000  0.78060000  0.45470000  1.0 0.0505613732
C  C66  1  0.54090000  0.83660000  0.45670000  1.0 -0.1017391836
C  C67  1  0.19150000  0.69530000  0.27150000  1.0 0.2292749877
C  C68  1  0.18780000  0.63930000  0.29900000  1.0 0.0390969038
C  C69  1  0.21670000  0.65340000  0.34700000  1.0 0.0891676305
C  C70  1  0.32820000  0.69030000  0.35060000  1.0 0.0306872977
C  C71  1  0.31130000  0.74670000  0.32330000  1.0 0.0891676305
C  C72  1  0.41430000  0.78750000  0.32470000  1.0 -0.0925515765
C  C73  1  0.82430000  0.82460000  0.21500000  1.0 0.404293477
C  C74  1  0.79130000  0.76120000  0.22780000  1.0 -0.0100973086
C  C75  1  0.87910000  0.74060000  0.26260000  1.0 0.0833840706
C  C76  1  0.01040000  0.74540000  0.24585000  1.0 0.0505613732
C  C77  1  0.03630000  0.80820000  0.23090000  1.0 0.0891676305
C  C78  1  0.15430000  0.81230000  0.20680000  1.0 -0.0504852394
C  C79  1  0.64710000  0.01810000  0.28640000  1.0 0.2425103873
C  C80  1  0.56480000  0.97090000  0.26840000  1.0 0.0202078542
C  C81  1  0.62590000  0.91180000  0.26880000  1.0 0.0891676305
C  C82  1  0.75040000  0.91550000  0.24618000  1.0 0.0626501091
C  C83  1  0.82480000  0.96390000  0.26800000  1.0 0.0974928107
C  C84  1  0.94840000  0.97400000  0.24790000  1.0 -0.0504852394
C  C85  1  0.61180000  0.09930000  0.44670000  1.0 0.2520243301
C  C86  1  0.51920000  0.05150000  0.43630000  1.0 0.0505613732
C  C87  1  0.56510000  0.01160000  0.39970000  1.0 0.0306872977
C  C88  1  0.60790000  0.04710000  0.36150000  1.0 0.2700422624
C  C89  1  0.69960000  0.09340000  0.37600000  1.0 0.0626501091
C  C90  1  0.73910000  0.13440000  0.34010000  1.0 -0.044191345
C  C91  1  0.91670000  0.11100000  0.57900000  1.0 0.2425103873
C  C92  1  0.77870000  0.10920000  0.58430000  1.0 0.0390969038
C  C93  1  0.72220000  0.07660000  0.54586000  1.0 0.0891676305
C  C94  1  0.76390000  0.10470000  0.50320000  1.0 0.0505613732
C  C95  1  0.90100000  0.10130000  0.50120000  1.0 0.0891676305
C  C96  1  0.95440000  0.12620000  0.45960000  1.0 0.0202078542
C  C97  1  0.73180000  0.53870000  0.35411000  1.0 0.2520243301
C  C98  1  0.60530000  0.54050000  0.33360000  1.0 0.0306872977
C  C99  1  0.50920000  0.51890000  0.36543000  1.0 0.0891676305
C  C100  1  0.54550000  0.46000000  0.38410000  1.0 0.0505613732
C  C101  1  0.67170000  0.46270000  0.40350000  1.0 0.0891676305
C  C102  1  0.71480000  0.40320000  0.41900000  1.0 -0.0709411023
C  C103  1  0.97850000  0.70850000  0.43020000  1.0 0.2292749877
C  C104  1  0.90140000  0.72280000  0.39010000  1.0 0.0390969038
C  C105  1  0.79300000  0.68220000  0.38820000  1.0 0.0974928107
C  C106  1  0.84040000  0.61870000  0.38866000  1.0 0.0390969038
C  C107  1  0.91780000  0.60820000  0.42930000  1.0 0.0974928107
C  C108  1  0.97510000  0.54770000  0.43117000  1.0 -0.0504852394
C  C109  1  0.95890000  0.80870000  0.58630000  1.0 0.2520243301
C  C110  1  0.94550000  0.84560000  0.54470000  1.0 0.0390969038
C  C111  1  0.89460000  0.80950000  0.50740000  1.0 0.0891676305
C  C112  1  0.96770000  0.75290000  0.50230000  1.0 0.0505613732
C  C113  1  0.96710000  0.71940000  0.54530000  1.0 0.0505613732
C  C114  1  0.04090000  0.66340000  0.54330000  1.0 -0.1017391836
C  C115  1  0.69150000  0.80470000  0.72850000  1.0 0.2292749877
C  C116  1  0.68780000  0.86070000  0.70100000  1.0 0.0390969038
C  C117  1  0.71670000  0.84660000  0.65300000  1.0 0.0891676305
C  C118  1  0.82820000  0.80970000  0.64940000  1.0 0.0306872977
C  C119  1  0.81130000  0.75330000  0.67670000  1.0 0.0891676305
C  C120  1  0.91430000  0.71250000  0.67530000  1.0 -0.0925515765
C  C121  1  0.32430000  0.67540000  0.78500000  1.0 0.404293477
C  C122  1  0.29130000  0.73880000  0.77220000  1.0 -0.0100973086
C  C123  1  0.37910000  0.75940000  0.73740000  1.0 0.0833840706
C  C124  1  0.51040000  0.75460000  0.75415000  1.0 0.0505613732
C  C125  1  0.53630000  0.69180000  0.76910000  1.0 0.0891676305
C  C126  1  0.65430000  0.68770000  0.79320000  1.0 -0.044191345
C  C127  1  0.14710000  0.48190000  0.71360000  1.0 0.2425103873
C  C128  1  0.06480000  0.52910000  0.73160000  1.0 0.0202078542
C  C129  1  0.12590000  0.58820000  0.73120000  1.0 0.0891676305
C  C130  1  0.25040000  0.58450000  0.75382000  1.0 0.0626501091
C  C131  1  0.32480000  0.53610000  0.73200000  1.0 0.0891676305
C  C132  1  0.44840000  0.52600000  0.75210000  1.0 -0.0504852394
C  C133  1  0.11180000  0.40070000  0.55330000  1.0 0.2520243301
C  C134  1  0.01920000  0.44850000  0.56370000  1.0 0.0505613732
C  C135  1  0.06510000  0.48840000  0.60030000  1.0 0.0202078542
C  C136  1  0.10790000  0.45290000  0.63850000  1.0 0.2700422624
C  C137  1  0.19960000  0.40660000  0.62400000  1.0 0.0626501091
C  C138  1  0.23910000  0.36560000  0.65990000  1.0 -0.044191345
C  C139  1  0.41670000  0.38900000  0.42100000  1.0 0.2425103873
C  C140  1  0.27870000  0.39080000  0.41570000  1.0 0.0390969038
C  C141  1  0.22220000  0.42340000  0.45414000  1.0 0.0891676305
C  C142  1  0.26390000  0.39530000  0.49680000  1.0 0.0505613732
C  C143  1  0.40100000  0.39870000  0.49880000  1.0 0.0891676305
C  C144  1  0.45440000  0.37380000  0.54040000  1.0 0.0202078542
C  C145  1  0.76820000  0.46130000  0.85411000  1.0 0.2520243301
C  C146  1  0.89470000  0.45950000  0.83360000  1.0 0.0306872977
C  C147  1  0.99080000  0.48110000  0.86543000  1.0 0.0891676305
C  C148  1  0.95450000  0.54000000  0.88410000  1.0 0.0505613732
C  C149  1  0.82830000  0.53730000  0.90350000  1.0 0.0891676305
C  C150  1  0.78520000  0.59680000  0.91900000  1.0 -0.0709411023
C  C151  1  0.52150000  0.29150000  0.93020000  1.0 0.2292749877
C  C152  1  0.59860000  0.27720000  0.89010000  1.0 0.0390969038
C  C153  1  0.70700000  0.31780000  0.88820000  1.0 0.0974928107
C  C154  1  0.65960000  0.38130000  0.88866000  1.0 0.0390969038
C  C155  1  0.58220000  0.39180000  0.92930000  1.0 0.0974928107
C  C156  1  0.52490000  0.45230000  0.93117000  1.0 -0.0504852394
C  C157  1  0.54110000  0.19130000  0.08630000  1.0 0.2520243301
C  C158  1  0.55450000  0.15440000  0.04470000  1.0 0.0390969038
C  C159  1  0.60540000  0.19050000  0.00740000  1.0 0.0891676305
C  C160  1  0.53230000  0.24710000  0.00230000  1.0 0.0505613732
C  C161  1  0.53290000  0.28060000  0.04530000  1.0 0.0505613732
C  C162  1  0.45910000  0.33660000  0.04330000  1.0 -0.1017391836
C  C163  1  0.80850000  0.19530000  0.22850000  1.0 0.2292749877
C  C164  1  0.81220000  0.13930000  0.20100000  1.0 0.0390969038
C  C165  1  0.78330000  0.15340000  0.15300000  1.0 0.0891676305
C  C166  1  0.67180000  0.19030000  0.14940000  1.0 0.0306872977
C  C167  1  0.68870000  0.24670000  0.17670000  1.0 0.0891676305
C  C168  1  0.58570000  0.28750000  0.17530000  1.0 -0.0925515765
C  C169  1  0.17570000  0.32460000  0.28500000  1.0 0.404293477
C  C170  1  0.20870000  0.26120000  0.27220000  1.0 -0.0100973086
C  C171  1  0.12090000  0.24060000  0.23740000  1.0 0.0833840706
C  C172  1  0.98960000  0.24540000  0.25415000  1.0 0.0505613732
C  C173  1  0.96370000  0.30820000  0.26910000  1.0 0.0891676305
C  C174  1  0.84570000  0.31230000  0.29320000  1.0 -0.044191345
C  C175  1  0.35290000  0.51810000  0.21360000  1.0 0.2425103873
C  C176  1  0.43520000  0.47090000  0.23160000  1.0 0.0202078542
C  C177  1  0.37410000  0.41180000  0.23120000  1.0 0.0891676305
C  C178  1  0.24960000  0.41550000  0.25382000  1.0 0.0626501091
C  C179  1  0.17520000  0.46390000  0.23200000  1.0 0.0891676305
C  C180  1  0.05160000  0.47400000  0.25210000  1.0 -0.0504852394
C  C181  1  0.38820000  0.59930000  0.05330000  1.0 0.2520243301
C  C182  1  0.48080000  0.55150000  0.06370000  1.0 0.0505613732
C  C183  1  0.43490000  0.51160000  0.10030000  1.0 0.0306872977
C  C184  1  0.39210000  0.54710000  0.13850000  1.0 0.2700422624
C  C185  1  0.30040000  0.59340000  0.12400000  1.0 0.0626501091
C  C186  1  0.26090000  0.63440000  0.15990000  1.0 -0.044191345
C  C187  1  0.08330000  0.61100000  0.92100000  1.0 0.2520243301
C  C188  1  0.22130000  0.60920000  0.91570000  1.0 0.0390969038
C  C189  1  0.27780000  0.57660000  0.95414000  1.0 0.0891676305
C  C190  1  0.23610000  0.60470000  0.99680000  1.0 0.0505613732
C  C191  1  0.09900000  0.60130000  0.99880000  1.0 0.0891676305
C  C192  1  0.04560000  0.62620000  0.04040000  1.0 0.0145835423
Cl  Cl1  1  0.16960000  0.85640000  0.44630000  1.0 -0.5096165394
Cl  Cl2  1  0.44310000  0.14640000  0.26561000  1.0 -0.1968917256
Cl  Cl3  1  0.30230000  0.16043000  0.48256000  1.0 -0.401618405
Cl  Cl4  1  0.33040000  0.14360000  0.94630000  1.0 -0.5096165394
Cl  Cl5  1  0.05690000  0.85360000  0.76561000  1.0 -0.1968917256
Cl  Cl6  1  0.19770000  0.83957000  0.98256000  1.0 -0.401618405
Cl  Cl7  1  0.83040000  0.35640000  0.05370000  1.0 -0.5096165394
Cl  Cl8  1  0.55690000  0.64640000  0.23439000  1.0 -0.1968917256
Cl  Cl9  1  0.69770000  0.66043000  0.01744000  1.0 -0.401618405
Cl  Cl10  1  0.66960000  0.64360000  0.55370000  1.0 -0.5096165394
Cl  Cl11  1  0.94310000  0.35360000  0.73439000  1.0 -0.1920214658
Cl  Cl12  1  0.80230000  0.33957000  0.51744000  1.0 -0.401618405
O  O1  1  0.96840000  0.80760000  0.10227000  1.0 -0.410142919
O  O2  1  0.24330000  0.98143000  0.13003000  1.0 -0.3205581163
O  O3  1  0.42160000  0.10010000  0.17940000  1.0 -0.2812345927
O  O4  1  0.60470000  0.01120000  0.15667000  1.0 -0.291614335
O  O5  1  0.54050000  0.94760000  0.08236000  1.0 -0.230193822
O  O6  1  0.16450000  0.90800000  0.06492000  1.0 -0.3551576242
O  O7  1  0.98370000  0.14969000  0.07090000  1.0 -0.2613177846
O  O8  1  0.13320000  0.28220000  0.10860000  1.0 -0.230193822
O  O9  1  0.27230000  0.19160000  0.15187000  1.0 -0.1920214658
O  O10  1  0.26240000  0.08070000  0.11222000  1.0 -0.230193822
O  O11  1  0.97080000  0.03202000  0.10971000  1.0 -0.3298109589
O  O12  1  0.97570000  0.25660000  0.92267000  1.0 -0.291614335
O  O13  1  0.13170000  0.39430000  0.94480000  1.0 -0.2510783763
O  O14  1  0.09980000  0.34340000  0.03143000  1.0 -0.2613177846
O  O15  1  0.09040000  0.22020000  0.03184000  1.0 -0.2510783763
O  O16  1  0.97470000  0.13130000  0.91560000  1.0 0.0202078542
O  O17  1  0.20460000  0.27210000  0.77907000  1.0 -0.2389553325
O  O18  1  0.42430000  0.39020000  0.79477000  1.0 -0.2223893528
O  O19  1  0.26530000  0.40167000  0.86961000  1.0 -0.0834034854
O  O20  1  0.15610000  0.29680000  0.89624000  1.0 -0.2389553325
O  O21  1  0.96190000  0.23800000  0.82110000  1.0 -0.3205581163
O  O22  1  0.55390000  0.17240000  0.69962000  1.0 -0.401618405
O  O23  1  0.82790000  0.24060000  0.74250000  1.0 -0.1525872206
O  O24  1  0.64020000  0.31970000  0.77370000  1.0 -0.291614335
O  O25  1  0.41410000  0.27110000  0.78125000  1.0 -0.2613177846
O  O26  1  0.32460000  0.12820000  0.69167000  1.0 -0.4466206064
O  O27  1  0.73990000  0.98140000  0.76473000  1.0 -0.2389553325
O  O28  1  0.04540000  0.03010000  0.79276000  1.0 -0.2613177846
O  O29  1  0.94670000  0.13090000  0.74670000  1.0 -0.291614335
O  O30  1  0.69030000  0.13880000  0.75188000  1.0 -0.2660724143
O  O31  1  0.55680000  0.01160000  0.70252000  1.0 -0.3487875169
O  O32  1  0.85400000  0.86990000  0.90909000  1.0 -0.2223893528
O  O33  1  0.00240000  0.97990000  0.97558000  1.0 -0.3119843607
O  O34  1  0.03010000  0.02670000  0.88537000  1.0 -0.3298109589
O  O35  1  0.83460000  0.99210000  0.83179000  1.0 -0.2660724143
O  O36  1  0.85440000  0.83420000  0.82040000  1.0 -0.3016118442
O  O37  1  0.55060000  0.86580000  0.03752000  1.0 -0.2613177846
O  O38  1  0.75380000  0.91620000  0.12493000  1.0 -0.4261809592
O  O39  1  0.90720000  0.92020000  0.04990000  1.0 -0.3813544293
O  O40  1  0.78690000  0.92740000  0.96714000  1.0 -0.2389553325
O  O41  1  0.58520000  0.82230000  0.94940000  1.0 -0.2223893528
O  O42  1  0.91600000  0.14290000  0.91630000  1.0 0.0306872977
O  O43  1  0.12180000  0.16190000  0.80080000  1.0 -0.3016118442
O  O44  1  0.53160000  0.19240000  0.60227000  1.0 -0.401618405
O  O45  1  0.25670000  0.01857000  0.63003000  1.0 -0.3205581163
O  O46  1  0.07840000  0.89990000  0.67940000  1.0 -0.2812345927
O  O47  1  0.89530000  0.98880000  0.65667000  1.0 -0.291614335
O  O48  1  0.95950000  0.05240000  0.58236000  1.0 -0.230193822
O  O49  1  0.33550000  0.09200000  0.56492000  1.0 -0.3551576242
O  O50  1  0.51630000  0.85031000  0.57090000  1.0 -0.2613177846
O  O51  1  0.36680000  0.71780000  0.60860000  1.0 -0.230193822
O  O52  1  0.22770000  0.80840000  0.65187000  1.0 -0.1920214658
O  O53  1  0.23760000  0.91930000  0.61222000  1.0 -0.230193822
O  O54  1  0.52920000  0.96798000  0.60971000  1.0 -0.3298109589
O  O55  1  0.52430000  0.74340000  0.42267000  1.0 -0.291614335
O  O56  1  0.36830000  0.60570000  0.44480000  1.0 -0.2510783763
O  O57  1  0.40020000  0.65660000  0.53143000  1.0 -0.2660724143
O  O58  1  0.40960000  0.77980000  0.53184000  1.0 -0.2510783763
O  O59  1  0.52530000  0.86870000  0.41560000  1.0 0.0202078542
O  O60  1  0.29540000  0.72790000  0.27907000  1.0 -0.2389553325
O  O61  1  0.07570000  0.60980000  0.29477000  1.0 -0.230193822
O  O62  1  0.23470000  0.59833000  0.36961000  1.0 -0.0834034854
O  O63  1  0.34390000  0.70320000  0.39624000  1.0 -0.2389553325
O  O64  1  0.53810000  0.76200000  0.32110000  1.0 -0.3205581163
O  O65  1  0.94610000  0.82760000  0.19962000  1.0 -0.401618405
O  O66  1  0.67210000  0.75940000  0.24250000  1.0 -0.1525872206
O  O67  1  0.85980000  0.68030000  0.27370000  1.0 -0.291614335
O  O68  1  0.08590000  0.72890000  0.28125000  1.0 -0.2613177846
O  O69  1  0.17540000  0.87180000  0.19167000  1.0 -0.4466206064
O  O70  1  0.76010000  0.01860000  0.26473000  1.0 -0.2389553325
O  O71  1  0.45460000  0.96990000  0.29276000  1.0 -0.2613177846
O  O72  1  0.55330000  0.86910000  0.24670000  1.0 -0.3016118442
O  O73  1  0.80970000  0.86120000  0.25188000  1.0 -0.2613177846
O  O74  1  0.94320000  0.98840000  0.20252000  1.0 -0.3487875169
O  O75  1  0.64600000  0.13010000  0.40909000  1.0 -0.2223893528
O  O76  1  0.49760000  0.02010000  0.47558000  1.0 -0.3119843607
O  O77  1  0.46990000  0.97330000  0.38537000  1.0 -0.3298109589
O  O78  1  0.66540000  0.00790000  0.33179000  1.0 -0.2660724143
O  O79  1  0.64560000  0.16580000  0.32040000  1.0 -0.3016118442
O  O80  1  0.94940000  0.13420000  0.53752000  1.0 -0.2613177846
O  O81  1  0.74620000  0.08380000  0.62493000  1.0 -0.4261809592
O  O82  1  0.59280000  0.07980000  0.54990000  1.0 -0.3813544293
O  O83  1  0.71310000  0.07260000  0.46714000  1.0 -0.2389553325
O  O84  1  0.91480000  0.17770000  0.44940000  1.0 -0.2223893528
O  O85  1  0.58400000  0.85710000  0.41630000  1.0 0.0306872977
O  O86  1  0.37820000  0.83810000  0.30080000  1.0 -0.3016118442
O  O87  1  0.03160000  0.30760000  0.39773000  1.0 -0.410142919
O  O88  1  0.75670000  0.48143000  0.36997000  1.0 -0.3205581163
O  O89  1  0.57840000  0.60010000  0.32060000  1.0 -0.2812345927
O  O90  1  0.39530000  0.51120000  0.34333000  1.0 -0.291614335
O  O91  1  0.45950000  0.44760000  0.41764000  1.0 -0.230193822
O  O92  1  0.83550000  0.40800000  0.43508000  1.0 -0.3487875169
O  O93  1  0.01630000  0.64969000  0.42910000  1.0 -0.2613177846
O  O94  1  0.86680000  0.78220000  0.39140000  1.0 -0.230193822
O  O95  1  0.72770000  0.69160000  0.34813000  1.0 -0.1920214658
O  O96  1  0.73760000  0.58070000  0.38778000  1.0 -0.230193822
O  O97  1  0.02920000  0.53202000  0.39029000  1.0 -0.3298109589
O  O98  1  0.02430000  0.75660000  0.57733000  1.0 -0.291614335
O  O99  1  0.86830000  0.89430000  0.55520000  1.0 -0.2510783763
O  O100  1  0.90020000  0.84340000  0.46857000  1.0 -0.2613177846
O  O101  1  0.90960000  0.72020000  0.46816000  1.0 -0.2613177846
O  O102  1  0.02530000  0.63130000  0.58440000  1.0 0.0202078542
O  O103  1  0.79540000  0.77210000  0.72093000  1.0 -0.2389553325
O  O104  1  0.57570000  0.89020000  0.70523000  1.0 -0.230193822
O  O105  1  0.73470000  0.90167000  0.63039000  1.0 -0.0834034854
O  O106  1  0.84390000  0.79680000  0.60376000  1.0 -0.2389553325
O  O107  1  0.03810000  0.73800000  0.67890000  1.0 -0.3205581163
O  O108  1  0.44610000  0.67240000  0.80038000  1.0 -0.401618405
O  O109  1  0.17210000  0.74060000  0.75750000  1.0 -0.1561433082
O  O110  1  0.35980000  0.81970000  0.72630000  1.0 -0.291614335
O  O111  1  0.58590000  0.77110000  0.71875000  1.0 -0.2613177846
O  O112  1  0.67540000  0.62820000  0.80833000  1.0 -0.4466206064
O  O113  1  0.26010000  0.48140000  0.73527000  1.0 -0.2389553325
O  O114  1  0.95460000  0.53010000  0.70724000  1.0 -0.2613177846
O  O115  1  0.05330000  0.63090000  0.75330000  1.0 -0.3016118442
O  O116  1  0.30970000  0.63880000  0.74812000  1.0 -0.2613177846
O  O117  1  0.44320000  0.51160000  0.79748000  1.0 -0.3487875169
O  O118  1  0.14600000  0.36990000  0.59091000  1.0 -0.2223893528
O  O119  1  0.99760000  0.47990000  0.52442000  1.0 -0.3119843607
O  O120  1  0.96990000  0.52670000  0.61463000  1.0 -0.3298109589
O  O121  1  0.16540000  0.49210000  0.66821000  1.0 -0.2660724143
O  O122  1  0.14560000  0.33420000  0.67960000  1.0 -0.3016118442
O  O123  1  0.44940000  0.36580000  0.46248000  1.0 -0.2613177846
O  O124  1  0.24620000  0.41620000  0.37507000  1.0 -0.4261809592
O  O125  1  0.09280000  0.42020000  0.45010000  1.0 -0.3813544293
O  O126  1  0.21310000  0.42740000  0.53286000  1.0 -0.2389553325
O  O127  1  0.41480000  0.32230000  0.55060000  1.0 -0.2223893528
O  O128  1  0.08400000  0.64290000  0.58370000  1.0 0.0306872977
O  O129  1  0.87820000  0.66190000  0.69920000  1.0 -0.3016118442
O  O130  1  0.46840000  0.69240000  0.89773000  1.0 -0.410142919
O  O131  1  0.74330000  0.51857000  0.86997000  1.0 -0.3205581163
O  O132  1  0.92160000  0.39990000  0.82060000  1.0 -0.2812345927
O  O133  1  0.10470000  0.48880000  0.84333000  1.0 -0.291614335
O  O134  1  0.04050000  0.55240000  0.91764000  1.0 -0.230193822
O  O135  1  0.66450000  0.59200000  0.93508000  1.0 -0.3551576242
O  O136  1  0.48370000  0.35031000  0.92910000  1.0 -0.2613177846
O  O137  1  0.63320000  0.21780000  0.89140000  1.0 -0.230193822
O  O138  1  0.77230000  0.30840000  0.84813000  1.0 -0.1920214658
O  O139  1  0.76240000  0.41930000  0.88778000  1.0 -0.230193822
O  O140  1  0.47080000  0.46798000  0.89029000  1.0 -0.3298109589
O  O141  1  0.47570000  0.24340000  0.07733000  1.0 -0.291614335
O  O142  1  0.63170000  0.10570000  0.05520000  1.0 -0.2510783763
O  O143  1  0.59980000  0.15660000  0.96857000  1.0 -0.2660724143
O  O144  1  0.59040000  0.27980000  0.96816000  1.0 -0.2510783763
O  O145  1  0.47470000  0.36870000  0.08440000  1.0 0.0202078542
O  O146  1  0.70460000  0.22790000  0.22093000  1.0 -0.2389553325
O  O147  1  0.92430000  0.10980000  0.20523000  1.0 -0.2223893528
O  O148  1  0.76530000  0.09833000  0.13039000  1.0 -0.0834034854
O  O149  1  0.65610000  0.20320000  0.10376000  1.0 -0.2389553325
O  O150  1  0.46190000  0.26200000  0.17890000  1.0 -0.3205581163
O  O151  1  0.05390000  0.32760000  0.30038000  1.0 -0.401618405
O  O152  1  0.32790000  0.25940000  0.25750000  1.0 -0.1561433082
O  O153  1  0.14020000  0.18030000  0.22630000  1.0 -0.291614335
O  O154  1  0.91410000  0.22890000  0.21875000  1.0 -0.2613177846
O  O155  1  0.82460000  0.37180000  0.30833000  1.0 -0.4466206064
O  O156  1  0.23990000  0.51860000  0.23527000  1.0 -0.2389553325
O  O157  1  0.54540000  0.46990000  0.20724000  1.0 -0.2613177846
O  O158  1  0.44670000  0.36910000  0.25330000  1.0 -0.291614335
O  O159  1  0.19030000  0.36120000  0.24812000  1.0 -0.2613177846
O  O160  1  0.05680000  0.48840000  0.29748000  1.0 -0.3487875169
O  O161  1  0.35400000  0.63010000  0.09091000  1.0 -0.2223893528
O  O162  1  0.50240000  0.52010000  0.02442000  1.0 -0.3119843607
O  O163  1  0.53010000  0.47330000  0.11463000  1.0 -0.3298109589
O  O164  1  0.33460000  0.50790000  0.16821000  1.0 -0.2660724143
O  O165  1  0.35440000  0.66580000  0.17960000  1.0 -0.3016118442
O  O166  1  0.05060000  0.63420000  0.96248000  1.0 -0.2613177846
O  O167  1  0.25380000  0.58380000  0.87507000  1.0 -0.4261809592
O  O168  1  0.40720000  0.57980000  0.95010000  1.0 -0.3813544293
O  O169  1  0.28690000  0.57260000  0.03286000  1.0 -0.2389553325
O  O170  1  0.08520000  0.67770000  0.05060000  1.0 -0.2223893528
O  O171  1  0.41600000  0.35710000  0.08370000  1.0 0.0306872977
O  O172  1  0.62180000  0.33810000  0.19920000  1.0 -0.3016118442
