# DDEC6 charges by PACMAN v1.1 (https://github.com/mtap-research/PACMAN-charge/)
data_GOJRED_ASR_pacman
_symmetry_space_group_name_H-M   'P 1'
_cell_length_a   33.33730000
_cell_length_b   33.33730000
_cell_length_c   33.33730000
_cell_angle_alpha   90.00000000
_cell_angle_beta   90.00000000
_cell_angle_gamma   90.00000000
_symmetry_Int_Tables_number   1
_chemical_formula_structural   K3H72C63N30Cl3O17
_chemical_formula_sum   'K48 H1152 C1008 N480 Cl48 O272'
_cell_volume   37050.26083277
_cell_formula_units_Z   16
loop_
 _symmetry_equiv_pos_site_id
 _symmetry_equiv_pos_as_xyz
  1  'x, y, z'
loop_
 _atom_site_type_symbol
 _atom_site_label
 _atom_site_symmetry_multiplicity
 _atom_site_fract_x
 _atom_site_fract_y
 _atom_site_fract_z
 _atom_site_occupancy
 _atom_site_charge
K  K1  1  0.09164000  0.18138000  0.09758000  1.0 0.8765302604
K  K2  1  0.40836000  0.81862000  0.59758000  1.0 0.8765302604
K  K3  1  0.90836000  0.68138000  0.40242000  1.0 0.8765302604
K  K4  1  0.59164000  0.31862000  0.90242000  1.0 0.8765302604
K  K5  1  0.09758000  0.09164000  0.18138000  1.0 0.8765302604
K  K6  1  0.59758000  0.40836000  0.81862000  1.0 0.8765302604
K  K7  1  0.40242000  0.90836000  0.68138000  1.0 0.8765302604
K  K8  1  0.90242000  0.59164000  0.31862000  1.0 0.8765302604
K  K9  1  0.18138000  0.09758000  0.09164000  1.0 0.8765302604
K  K10  1  0.81862000  0.59758000  0.40836000  1.0 0.8765302604
K  K11  1  0.68138000  0.40242000  0.90836000  1.0 0.8765302604
K  K12  1  0.31862000  0.90242000  0.59164000  1.0 0.8765302604
K  K13  1  0.90836000  0.81862000  0.90242000  1.0 0.8765302604
K  K14  1  0.59164000  0.18138000  0.40242000  1.0 0.8765302604
K  K15  1  0.09164000  0.31862000  0.59758000  1.0 0.8765302604
K  K16  1  0.40836000  0.68138000  0.09758000  1.0 0.8765302604
K  K17  1  0.90242000  0.90836000  0.81862000  1.0 0.8765302604
K  K18  1  0.40242000  0.59164000  0.18138000  1.0 0.8765302604
K  K19  1  0.59758000  0.09164000  0.31862000  1.0 0.8765302604
K  K20  1  0.09758000  0.40836000  0.68138000  1.0 0.8765302604
K  K21  1  0.81862000  0.90242000  0.90836000  1.0 0.8765302604
K  K22  1  0.18138000  0.40242000  0.59164000  1.0 0.8765302604
K  K23  1  0.31862000  0.59758000  0.09164000  1.0 0.8765302604
K  K24  1  0.68138000  0.09758000  0.40836000  1.0 0.8765302604
K  K25  1  0.92911000  0.34018000  0.15565000  1.0 0.8694891984
K  K26  1  0.57089000  0.65982000  0.65565000  1.0 0.8694891984
K  K27  1  0.07089000  0.84018000  0.34435000  1.0 0.8694891984
K  K28  1  0.42911000  0.15982000  0.84435000  1.0 0.8694891984
K  K29  1  0.15565000  0.92911000  0.34018000  1.0 0.8694891984
K  K30  1  0.65565000  0.57089000  0.65982000  1.0 0.8694891984
K  K31  1  0.34435000  0.07089000  0.84018000  1.0 0.8694891984
K  K32  1  0.84435000  0.42911000  0.15982000  1.0 0.8694891984
K  K33  1  0.34018000  0.15565000  0.92911000  1.0 0.8694891984
K  K34  1  0.65982000  0.65565000  0.57089000  1.0 0.8694891984
K  K35  1  0.84018000  0.34435000  0.07089000  1.0 0.8694891984
K  K36  1  0.15982000  0.84435000  0.42911000  1.0 0.8694891984
K  K37  1  0.07089000  0.65982000  0.84435000  1.0 0.8694891984
K  K38  1  0.42911000  0.34018000  0.34435000  1.0 0.8694891984
K  K39  1  0.92911000  0.15982000  0.65565000  1.0 0.8694891984
K  K40  1  0.57089000  0.84018000  0.15565000  1.0 0.8694891984
K  K41  1  0.84435000  0.07089000  0.65982000  1.0 0.8694891984
K  K42  1  0.34435000  0.42911000  0.34018000  1.0 0.8694891984
K  K43  1  0.65565000  0.92911000  0.15982000  1.0 0.8694891984
K  K44  1  0.15565000  0.57089000  0.84018000  1.0 0.8694891984
K  K45  1  0.65982000  0.84435000  0.07089000  1.0 0.8694891984
K  K46  1  0.34018000  0.34435000  0.42911000  1.0 0.8694891984
K  K47  1  0.15982000  0.65565000  0.92911000  1.0 0.8694891984
K  K48  1  0.84018000  0.15565000  0.57089000  1.0 0.8694891984
H  H1  1  0.01200000  0.12280000  0.18590000  1.0 0.1195504993
H  H2  1  0.48800000  0.87720000  0.68590000  1.0 0.1195504993
H  H3  1  0.98800000  0.62280000  0.31410000  1.0 0.1195504993
H  H4  1  0.51200000  0.37720000  0.81410000  1.0 0.1195504993
H  H5  1  0.18590000  0.01200000  0.12280000  1.0 0.1195504993
H  H6  1  0.68590000  0.48800000  0.87720000  1.0 0.1195504993
H  H7  1  0.31410000  0.98800000  0.62280000  1.0 0.1195504993
H  H8  1  0.81410000  0.51200000  0.37720000  1.0 0.1195504993
H  H9  1  0.12280000  0.18590000  0.01200000  1.0 0.1195504993
H  H10  1  0.87720000  0.68590000  0.48800000  1.0 0.1195504993
H  H11  1  0.62280000  0.31410000  0.98800000  1.0 0.1195504993
H  H12  1  0.37720000  0.81410000  0.51200000  1.0 0.1195504993
H  H13  1  0.98800000  0.87720000  0.81410000  1.0 0.1195504993
H  H14  1  0.51200000  0.12280000  0.31410000  1.0 0.1195504993
H  H15  1  0.01200000  0.37720000  0.68590000  1.0 0.1195504993
H  H16  1  0.48800000  0.62280000  0.18590000  1.0 0.1195504993
H  H17  1  0.81410000  0.98800000  0.87720000  1.0 0.1195504993
H  H18  1  0.31410000  0.51200000  0.12280000  1.0 0.1195504993
H  H19  1  0.68590000  0.01200000  0.37720000  1.0 0.1195504993
H  H20  1  0.18590000  0.48800000  0.62280000  1.0 0.1195504993
H  H21  1  0.87720000  0.81410000  0.98800000  1.0 0.1195504993
H  H22  1  0.12280000  0.31410000  0.51200000  1.0 0.1195504993
H  H23  1  0.37720000  0.68590000  0.01200000  1.0 0.1195504993
H  H24  1  0.62280000  0.18590000  0.48800000  1.0 0.1195504993
H  H25  1  0.97270000  0.12880000  0.21080000  1.0 0.1091847888
H  H26  1  0.52730000  0.87120000  0.71080000  1.0 0.1091847888
H  H27  1  0.02730000  0.62880000  0.28920000  1.0 0.1091847888
H  H28  1  0.47270000  0.37120000  0.78920000  1.0 0.1091847888
H  H29  1  0.21080000  0.97270000  0.12880000  1.0 0.1091847888
H  H30  1  0.71080000  0.52730000  0.87120000  1.0 0.1091847888
H  H31  1  0.28920000  0.02730000  0.62880000  1.0 0.1091847888
H  H32  1  0.78920000  0.47270000  0.37120000  1.0 0.1091847888
H  H33  1  0.12880000  0.21080000  0.97270000  1.0 0.1091847888
H  H34  1  0.87120000  0.71080000  0.52730000  1.0 0.1091847888
H  H35  1  0.62880000  0.28920000  0.02730000  1.0 0.1091847888
H  H36  1  0.37120000  0.78920000  0.47270000  1.0 0.1091847888
H  H37  1  0.02730000  0.87120000  0.78920000  1.0 0.1091847888
H  H38  1  0.47270000  0.12880000  0.28920000  1.0 0.1091847888
H  H39  1  0.97270000  0.37120000  0.71080000  1.0 0.1091847888
H  H40  1  0.52730000  0.62880000  0.21080000  1.0 0.1091847888
H  H41  1  0.78920000  0.02730000  0.87120000  1.0 0.1091847888
H  H42  1  0.28920000  0.47270000  0.12880000  1.0 0.1091847888
H  H43  1  0.71080000  0.97270000  0.37120000  1.0 0.1091847888
H  H44  1  0.21080000  0.52730000  0.62880000  1.0 0.1091847888
H  H45  1  0.87120000  0.78920000  0.02730000  1.0 0.1091847888
H  H46  1  0.12880000  0.28920000  0.47270000  1.0 0.1091847888
H  H47  1  0.37120000  0.71080000  0.97270000  1.0 0.1091847888
H  H48  1  0.62880000  0.21080000  0.52730000  1.0 0.1091847888
H  H49  1  0.91230000  0.18770000  0.23020000  1.0 0.1091847888
H  H50  1  0.58770000  0.81230000  0.73020000  1.0 0.1091847888
H  H51  1  0.08770000  0.68770000  0.26980000  1.0 0.1091847888
H  H52  1  0.41230000  0.31230000  0.76980000  1.0 0.1091847888
H  H53  1  0.23020000  0.91230000  0.18770000  1.0 0.1091847888
H  H54  1  0.73020000  0.58770000  0.81230000  1.0 0.1091847888
H  H55  1  0.26980000  0.08770000  0.68770000  1.0 0.1091847888
H  H56  1  0.76980000  0.41230000  0.31230000  1.0 0.1091847888
H  H57  1  0.18770000  0.23020000  0.91230000  1.0 0.1091847888
H  H58  1  0.81230000  0.73020000  0.58770000  1.0 0.1091847888
H  H59  1  0.68770000  0.26980000  0.08770000  1.0 0.1091847888
H  H60  1  0.31230000  0.76980000  0.41230000  1.0 0.1091847888
H  H61  1  0.08770000  0.81230000  0.76980000  1.0 0.1091847888
H  H62  1  0.41230000  0.18770000  0.26980000  1.0 0.1091847888
H  H63  1  0.91230000  0.31230000  0.73020000  1.0 0.1091847888
H  H64  1  0.58770000  0.68770000  0.23020000  1.0 0.1091847888
H  H65  1  0.76980000  0.08770000  0.81230000  1.0 0.1091847888
H  H66  1  0.26980000  0.41230000  0.18770000  1.0 0.1091847888
H  H67  1  0.73020000  0.91230000  0.31230000  1.0 0.1091847888
H  H68  1  0.23020000  0.58770000  0.68770000  1.0 0.1091847888
H  H69  1  0.81230000  0.76980000  0.08770000  1.0 0.1091847888
H  H70  1  0.18770000  0.26980000  0.41230000  1.0 0.1091847888
H  H71  1  0.31230000  0.73020000  0.91230000  1.0 0.1091847888
H  H72  1  0.68770000  0.23020000  0.58770000  1.0 0.1091847888
H  H73  1  0.90000000  0.23210000  0.22140000  1.0 0.1195504993
H  H74  1  0.60000000  0.76790000  0.72140000  1.0 0.1195504993
H  H75  1  0.10000000  0.73210000  0.27860000  1.0 0.1195504993
H  H76  1  0.40000000  0.26790000  0.77860000  1.0 0.1195504993
H  H77  1  0.22140000  0.90000000  0.23210000  1.0 0.1195504993
H  H78  1  0.72140000  0.60000000  0.76790000  1.0 0.1195504993
H  H79  1  0.27860000  0.10000000  0.73210000  1.0 0.1195504993
H  H80  1  0.77860000  0.40000000  0.26790000  1.0 0.1195504993
H  H81  1  0.23210000  0.22140000  0.90000000  1.0 0.1195504993
H  H82  1  0.76790000  0.72140000  0.60000000  1.0 0.1195504993
H  H83  1  0.73210000  0.27860000  0.10000000  1.0 0.1195504993
H  H84  1  0.26790000  0.77860000  0.40000000  1.0 0.1195504993
H  H85  1  0.10000000  0.76790000  0.77860000  1.0 0.1195504993
H  H86  1  0.40000000  0.23210000  0.27860000  1.0 0.1195504993
H  H87  1  0.90000000  0.26790000  0.72140000  1.0 0.1195504993
H  H88  1  0.60000000  0.73210000  0.22140000  1.0 0.1195504993
H  H89  1  0.77860000  0.10000000  0.76790000  1.0 0.1195504993
H  H90  1  0.27860000  0.40000000  0.23210000  1.0 0.1195504993
H  H91  1  0.72140000  0.90000000  0.26790000  1.0 0.1195504993
H  H92  1  0.22140000  0.60000000  0.73210000  1.0 0.1195504993
H  H93  1  0.76790000  0.77860000  0.10000000  1.0 0.1195504993
H  H94  1  0.23210000  0.27860000  0.40000000  1.0 0.1195504993
H  H95  1  0.26790000  0.72140000  0.90000000  1.0 0.1195504993
H  H96  1  0.73210000  0.22140000  0.60000000  1.0 0.1195504993
H  H97  1  0.91110000  0.14420000  0.16790000  1.0 0.1005633496
H  H98  1  0.58890000  0.85580000  0.66790000  1.0 0.1005633496
H  H99  1  0.08890000  0.64420000  0.33210000  1.0 0.1091847888
H  H100  1  0.41110000  0.35580000  0.83210000  1.0 0.1005633496
H  H101  1  0.16790000  0.91110000  0.14420000  1.0 0.1091847888
H  H102  1  0.66790000  0.58890000  0.85580000  1.0 0.1005633496
H  H103  1  0.33210000  0.08890000  0.64420000  1.0 0.1005633496
H  H104  1  0.83210000  0.41110000  0.35580000  1.0 0.1005633496
H  H105  1  0.14420000  0.16790000  0.91110000  1.0 0.1005633496
H  H106  1  0.85580000  0.66790000  0.58890000  1.0 0.1005633496
H  H107  1  0.64420000  0.33210000  0.08890000  1.0 0.1005633496
H  H108  1  0.35580000  0.83210000  0.41110000  1.0 0.1091847888
H  H109  1  0.08890000  0.85580000  0.83210000  1.0 0.1091847888
H  H110  1  0.41110000  0.14420000  0.33210000  1.0 0.1005633496
H  H111  1  0.91110000  0.35580000  0.66790000  1.0 0.1005633496
H  H112  1  0.58890000  0.64420000  0.16790000  1.0 0.1005633496
H  H113  1  0.83210000  0.08890000  0.85580000  1.0 0.1005633496
H  H114  1  0.33210000  0.41110000  0.14420000  1.0 0.1005633496
H  H115  1  0.66790000  0.91110000  0.35580000  1.0 0.1005633496
H  H116  1  0.16790000  0.58890000  0.64420000  1.0 0.1091847888
H  H117  1  0.85580000  0.83210000  0.08890000  1.0 0.1005633496
H  H118  1  0.14420000  0.33210000  0.41110000  1.0 0.1005633496
H  H119  1  0.35580000  0.66790000  0.91110000  1.0 0.1005633496
H  H120  1  0.64420000  0.16790000  0.58890000  1.0 0.1005633496
H  H121  1  0.89940000  0.15170000  0.10210000  1.0 0.1005633496
H  H122  1  0.60060000  0.84830000  0.60210000  1.0 0.1091847888
H  H123  1  0.10060000  0.65170000  0.39790000  1.0 0.1091847888
H  H124  1  0.39940000  0.34830000  0.89790000  1.0 0.1005633496
H  H125  1  0.10210000  0.89940000  0.15170000  1.0 0.1091847888
H  H126  1  0.60210000  0.60060000  0.84830000  1.0 0.1005633496
H  H127  1  0.39790000  0.10060000  0.65170000  1.0 0.1005633496
H  H128  1  0.89790000  0.39940000  0.34830000  1.0 0.1005633496
H  H129  1  0.15170000  0.10210000  0.89940000  1.0 0.1005633496
H  H130  1  0.84830000  0.60210000  0.60060000  1.0 0.1005633496
H  H131  1  0.65170000  0.39790000  0.10060000  1.0 0.1005633496
H  H132  1  0.34830000  0.89790000  0.39940000  1.0 0.1091847888
H  H133  1  0.10060000  0.84830000  0.89790000  1.0 0.1091847888
H  H134  1  0.39940000  0.15170000  0.39790000  1.0 0.1005633496
H  H135  1  0.89940000  0.34830000  0.60210000  1.0 0.1005633496
H  H136  1  0.60060000  0.65170000  0.10210000  1.0 0.1005633496
H  H137  1  0.89790000  0.10060000  0.84830000  1.0 0.1005633496
H  H138  1  0.39790000  0.39940000  0.15170000  1.0 0.1005633496
H  H139  1  0.60210000  0.89940000  0.34830000  1.0 0.1091847888
H  H140  1  0.10210000  0.60060000  0.65170000  1.0 0.1091847888
H  H141  1  0.84830000  0.89790000  0.10060000  1.0 0.1005633496
H  H142  1  0.15170000  0.39790000  0.39940000  1.0 0.1005633496
H  H143  1  0.34830000  0.60210000  0.89940000  1.0 0.1005633496
H  H144  1  0.65170000  0.10210000  0.60060000  1.0 0.1005633496
H  H145  1  0.98480000  0.14230000  0.04340000  1.0 0.1195504993
H  H146  1  0.51520000  0.85770000  0.54340000  1.0 0.1195504993
H  H147  1  0.01520000  0.64230000  0.45660000  1.0 0.1195504993
H  H148  1  0.48480000  0.35770000  0.95660000  1.0 0.1195504993
H  H149  1  0.04340000  0.98480000  0.14230000  1.0 0.1195504993
H  H150  1  0.54340000  0.51520000  0.85770000  1.0 0.1195504993
H  H151  1  0.45660000  0.01520000  0.64230000  1.0 0.1195504993
H  H152  1  0.95660000  0.48480000  0.35770000  1.0 0.1195504993
H  H153  1  0.14230000  0.04340000  0.98480000  1.0 0.1195504993
H  H154  1  0.85770000  0.54340000  0.51520000  1.0 0.1195504993
H  H155  1  0.64230000  0.45660000  0.01520000  1.0 0.1195504993
H  H156  1  0.35770000  0.95660000  0.48480000  1.0 0.1195504993
H  H157  1  0.01520000  0.85770000  0.95660000  1.0 0.1195504993
H  H158  1  0.48480000  0.14230000  0.45660000  1.0 0.1195504993
H  H159  1  0.98480000  0.35770000  0.54340000  1.0 0.1195504993
H  H160  1  0.51520000  0.64230000  0.04340000  1.0 0.1195504993
H  H161  1  0.95660000  0.01520000  0.85770000  1.0 0.1195504993
H  H162  1  0.45660000  0.48480000  0.14230000  1.0 0.1195504993
H  H163  1  0.54340000  0.98480000  0.35770000  1.0 0.1195504993
H  H164  1  0.04340000  0.51520000  0.64230000  1.0 0.1195504993
H  H165  1  0.85770000  0.95660000  0.01520000  1.0 0.1195504993
H  H166  1  0.14230000  0.45660000  0.48480000  1.0 0.1195504993
H  H167  1  0.35770000  0.54340000  0.98480000  1.0 0.1195504993
H  H168  1  0.64230000  0.04340000  0.51520000  1.0 0.1195504993
H  H169  1  0.93910000  0.15140000  0.03680000  1.0 0.1091847888
H  H170  1  0.56090000  0.84860000  0.53680000  1.0 0.1091847888
H  H171  1  0.06090000  0.65140000  0.46320000  1.0 0.1091847888
H  H172  1  0.43910000  0.34860000  0.96320000  1.0 0.1091847888
H  H173  1  0.03680000  0.93910000  0.15140000  1.0 0.1091847888
H  H174  1  0.53680000  0.56090000  0.84860000  1.0 0.1091847888
H  H175  1  0.46320000  0.06090000  0.65140000  1.0 0.1091847888
H  H176  1  0.96320000  0.43910000  0.34860000  1.0 0.1091847888
H  H177  1  0.15140000  0.03680000  0.93910000  1.0 0.1091847888
H  H178  1  0.84860000  0.53680000  0.56090000  1.0 0.1091847888
H  H179  1  0.65140000  0.46320000  0.06090000  1.0 0.1091847888
H  H180  1  0.34860000  0.96320000  0.43910000  1.0 0.1091847888
H  H181  1  0.06090000  0.84860000  0.96320000  1.0 0.1091847888
H  H182  1  0.43910000  0.15140000  0.46320000  1.0 0.1091847888
H  H183  1  0.93910000  0.34860000  0.53680000  1.0 0.1091847888
H  H184  1  0.56090000  0.65140000  0.03680000  1.0 0.1091847888
H  H185  1  0.96320000  0.06090000  0.84860000  1.0 0.1091847888
H  H186  1  0.46320000  0.43910000  0.15140000  1.0 0.1091847888
H  H187  1  0.53680000  0.93910000  0.34860000  1.0 0.1091847888
H  H188  1  0.03680000  0.56090000  0.65140000  1.0 0.1091847888
H  H189  1  0.84860000  0.96320000  0.06090000  1.0 0.1091847888
H  H190  1  0.15140000  0.46320000  0.43910000  1.0 0.1091847888
H  H191  1  0.34860000  0.53680000  0.93910000  1.0 0.1091847888
H  H192  1  0.65140000  0.03680000  0.56090000  1.0 0.1091847888
H  H193  1  0.87720000  0.21100000  0.05620000  1.0 0.1091847888
H  H194  1  0.62280000  0.78900000  0.55620000  1.0 0.1091847888
H  H195  1  0.12280000  0.71100000  0.44380000  1.0 0.1091847888
H  H196  1  0.37720000  0.28900000  0.94380000  1.0 0.1091847888
H  H197  1  0.05620000  0.87720000  0.21100000  1.0 0.1091847888
H  H198  1  0.55620000  0.62280000  0.78900000  1.0 0.1091847888
H  H199  1  0.44380000  0.12280000  0.71100000  1.0 0.1091847888
H  H200  1  0.94380000  0.37720000  0.28900000  1.0 0.1091847888
H  H201  1  0.21100000  0.05620000  0.87720000  1.0 0.1091847888
H  H202  1  0.78900000  0.55620000  0.62280000  1.0 0.1091847888
H  H203  1  0.71100000  0.44380000  0.12280000  1.0 0.1091847888
H  H204  1  0.28900000  0.94380000  0.37720000  1.0 0.1091847888
H  H205  1  0.12280000  0.78900000  0.94380000  1.0 0.1091847888
H  H206  1  0.37720000  0.21100000  0.44380000  1.0 0.1091847888
H  H207  1  0.87720000  0.28900000  0.55620000  1.0 0.1091847888
H  H208  1  0.62280000  0.71100000  0.05620000  1.0 0.1091847888
H  H209  1  0.94380000  0.12280000  0.78900000  1.0 0.1091847888
H  H210  1  0.44380000  0.37720000  0.21100000  1.0 0.1091847888
H  H211  1  0.55620000  0.87720000  0.28900000  1.0 0.1091847888
H  H212  1  0.05620000  0.62280000  0.71100000  1.0 0.1091847888
H  H213  1  0.78900000  0.94380000  0.12280000  1.0 0.1091847888
H  H214  1  0.21100000  0.44380000  0.37720000  1.0 0.1091847888
H  H215  1  0.28900000  0.55620000  0.87720000  1.0 0.1091847888
H  H216  1  0.71100000  0.05620000  0.62280000  1.0 0.1091847888
H  H217  1  0.87140000  0.25130000  0.07960000  1.0 0.1195504993
H  H218  1  0.62860000  0.74870000  0.57960000  1.0 0.1195504993
H  H219  1  0.12860000  0.75130000  0.42040000  1.0 0.1195504993
H  H220  1  0.37140000  0.24870000  0.92040000  1.0 0.1195504993
H  H221  1  0.07960000  0.87140000  0.25130000  1.0 0.1195504993
H  H222  1  0.57960000  0.62860000  0.74870000  1.0 0.1195504993
H  H223  1  0.42040000  0.12860000  0.75130000  1.0 0.1195504993
H  H224  1  0.92040000  0.37140000  0.24870000  1.0 0.1195504993
H  H225  1  0.25130000  0.07960000  0.87140000  1.0 0.1195504993
H  H226  1  0.74870000  0.57960000  0.62860000  1.0 0.1195504993
H  H227  1  0.75130000  0.42040000  0.12860000  1.0 0.1195504993
H  H228  1  0.24870000  0.92040000  0.37140000  1.0 0.1195504993
H  H229  1  0.12860000  0.74870000  0.92040000  1.0 0.1195504993
H  H230  1  0.37140000  0.25130000  0.42040000  1.0 0.1195504993
H  H231  1  0.87140000  0.24870000  0.57960000  1.0 0.1195504993
H  H232  1  0.62860000  0.75130000  0.07960000  1.0 0.1195504993
H  H233  1  0.92040000  0.12860000  0.74870000  1.0 0.1195504993
H  H234  1  0.42040000  0.37140000  0.25130000  1.0 0.1195504993
H  H235  1  0.57960000  0.87140000  0.24870000  1.0 0.1195504993
H  H236  1  0.07960000  0.62860000  0.75130000  1.0 0.1195504993
H  H237  1  0.74870000  0.92040000  0.12860000  1.0 0.1195504993
H  H238  1  0.25130000  0.42040000  0.37140000  1.0 0.1195504993
H  H239  1  0.24870000  0.57960000  0.87140000  1.0 0.1195504993
H  H240  1  0.75130000  0.07960000  0.62860000  1.0 0.1195504993
H  H241  1  0.04550000  0.28380000  0.97290000  1.0 0.1005633496
H  H242  1  0.45450000  0.71620000  0.47290000  1.0 0.1005633496
H  H243  1  0.95450000  0.78380000  0.52710000  1.0 0.1005633496
H  H244  1  0.54550000  0.21620000  0.02710000  1.0 0.1005633496
H  H245  1  0.97290000  0.04550000  0.28380000  1.0 0.1005633496
H  H246  1  0.47290000  0.45450000  0.71620000  1.0 0.1005633496
H  H247  1  0.52710000  0.95450000  0.78380000  1.0 0.1005633496
H  H248  1  0.02710000  0.54550000  0.21620000  1.0 0.1005633496
H  H249  1  0.28380000  0.97290000  0.04550000  1.0 0.1005633496
H  H250  1  0.71620000  0.47290000  0.45450000  1.0 0.1005633496
H  H251  1  0.78380000  0.52710000  0.95450000  1.0 0.1005633496
H  H252  1  0.21620000  0.02710000  0.54550000  1.0 0.1005633496
H  H253  1  0.95450000  0.71620000  0.02710000  1.0 0.1005633496
H  H254  1  0.54550000  0.28380000  0.52710000  1.0 0.1005633496
H  H255  1  0.04550000  0.21620000  0.47290000  1.0 0.1005633496
H  H256  1  0.45450000  0.78380000  0.97290000  1.0 0.1005633496
H  H257  1  0.02710000  0.95450000  0.71620000  1.0 0.1005633496
H  H258  1  0.52710000  0.54550000  0.28380000  1.0 0.1005633496
H  H259  1  0.47290000  0.04550000  0.21620000  1.0 0.1005633496
H  H260  1  0.97290000  0.45450000  0.78380000  1.0 0.1005633496
H  H261  1  0.71620000  0.02710000  0.95450000  1.0 0.1005633496
H  H262  1  0.28380000  0.52710000  0.54550000  1.0 0.1005633496
H  H263  1  0.21620000  0.47290000  0.04550000  1.0 0.1005633496
H  H264  1  0.78380000  0.97290000  0.45450000  1.0 0.1005633496
H  H265  1  0.06960000  0.24840000  0.99230000  1.0 0.1195504993
H  H266  1  0.43040000  0.75160000  0.49230000  1.0 0.1195504993
H  H267  1  0.93040000  0.74840000  0.50770000  1.0 0.1195504993
H  H268  1  0.56960000  0.25160000  0.00770000  1.0 0.1195504993
H  H269  1  0.99230000  0.06960000  0.24840000  1.0 0.1195504993
H  H270  1  0.49230000  0.43040000  0.75160000  1.0 0.1195504993
H  H271  1  0.50770000  0.93040000  0.74840000  1.0 0.1195504993
H  H272  1  0.00770000  0.56960000  0.25160000  1.0 0.1195504993
H  H273  1  0.24840000  0.99230000  0.06960000  1.0 0.1195504993
H  H274  1  0.75160000  0.49230000  0.43040000  1.0 0.1195504993
H  H275  1  0.74840000  0.50770000  0.93040000  1.0 0.1195504993
H  H276  1  0.25160000  0.00770000  0.56960000  1.0 0.1195504993
H  H277  1  0.93040000  0.75160000  0.00770000  1.0 0.1195504993
H  H278  1  0.56960000  0.24840000  0.50770000  1.0 0.1195504993
H  H279  1  0.06960000  0.25160000  0.49230000  1.0 0.1195504993
H  H280  1  0.43040000  0.74840000  0.99230000  1.0 0.1195504993
H  H281  1  0.00770000  0.93040000  0.75160000  1.0 0.1195504993
H  H282  1  0.50770000  0.56960000  0.24840000  1.0 0.1195504993
H  H283  1  0.49230000  0.06960000  0.25160000  1.0 0.1195504993
H  H284  1  0.99230000  0.43040000  0.74840000  1.0 0.1195504993
H  H285  1  0.75160000  0.00770000  0.93040000  1.0 0.1195504993
H  H286  1  0.24840000  0.50770000  0.56960000  1.0 0.1195504993
H  H287  1  0.25160000  0.49230000  0.06960000  1.0 0.1195504993
H  H288  1  0.74840000  0.99230000  0.43040000  1.0 0.1195504993
H  H289  1  0.98260000  0.34410000  0.99500000  1.0 0.1005633496
H  H290  1  0.51740000  0.65590000  0.49500000  1.0 0.1005633496
H  H291  1  0.01740000  0.84410000  0.50500000  1.0 0.1005633496
H  H292  1  0.48260000  0.15590000  0.00500000  1.0 0.1005633496
H  H293  1  0.99500000  0.98260000  0.34410000  1.0 0.1005633496
H  H294  1  0.49500000  0.51740000  0.65590000  1.0 0.1005633496
H  H295  1  0.50500000  0.01740000  0.84410000  1.0 0.1005633496
H  H296  1  0.00500000  0.48260000  0.15590000  1.0 0.1005633496
H  H297  1  0.34410000  0.99500000  0.98260000  1.0 0.1005633496
H  H298  1  0.65590000  0.49500000  0.51740000  1.0 0.1005633496
H  H299  1  0.84410000  0.50500000  0.01740000  1.0 0.1005633496
H  H300  1  0.15590000  0.00500000  0.48260000  1.0 0.1005633496
H  H301  1  0.01740000  0.65590000  0.00500000  1.0 0.1005633496
H  H302  1  0.48260000  0.34410000  0.50500000  1.0 0.1005633496
H  H303  1  0.98260000  0.15590000  0.49500000  1.0 0.1005633496
H  H304  1  0.51740000  0.84410000  0.99500000  1.0 0.1005633496
H  H305  1  0.00500000  0.01740000  0.65590000  1.0 0.1005633496
H  H306  1  0.50500000  0.48260000  0.34410000  1.0 0.1005633496
H  H307  1  0.49500000  0.98260000  0.15590000  1.0 0.1005633496
H  H308  1  0.99500000  0.51740000  0.84410000  1.0 0.1005633496
H  H309  1  0.65590000  0.00500000  0.01740000  1.0 0.1005633496
H  H310  1  0.34410000  0.50500000  0.48260000  1.0 0.1005633496
H  H311  1  0.15590000  0.49500000  0.98260000  1.0 0.1005633496
H  H312  1  0.84410000  0.99500000  0.51740000  1.0 0.1005633496
H  H313  1  0.95620000  0.35680000  0.03180000  1.0 0.1303111883
H  H314  1  0.54380000  0.64320000  0.53180000  1.0 0.1303111883
H  H315  1  0.04380000  0.85680000  0.46820000  1.0 0.1195504993
H  H316  1  0.45620000  0.14320000  0.96820000  1.0 0.1303111883
H  H317  1  0.03180000  0.95620000  0.35680000  1.0 0.1303111883
H  H318  1  0.53180000  0.54380000  0.64320000  1.0 0.1303111883
H  H319  1  0.46820000  0.04380000  0.85680000  1.0 0.1303111883
H  H320  1  0.96820000  0.45620000  0.14320000  1.0 0.1303111883
H  H321  1  0.35680000  0.03180000  0.95620000  1.0 0.1303111883
H  H322  1  0.64320000  0.53180000  0.54380000  1.0 0.1303111883
H  H323  1  0.85680000  0.46820000  0.04380000  1.0 0.1303111883
H  H324  1  0.14320000  0.96820000  0.45620000  1.0 0.1303111883
H  H325  1  0.04380000  0.64320000  0.96820000  1.0 0.1195504993
H  H326  1  0.45620000  0.35680000  0.46820000  1.0 0.1303111883
H  H327  1  0.95620000  0.14320000  0.53180000  1.0 0.1303111883
H  H328  1  0.54380000  0.85680000  0.03180000  1.0 0.1303111883
H  H329  1  0.96820000  0.04380000  0.64320000  1.0 0.1303111883
H  H330  1  0.46820000  0.45620000  0.35680000  1.0 0.1303111883
H  H331  1  0.53180000  0.95620000  0.14320000  1.0 0.1303111883
H  H332  1  0.03180000  0.54380000  0.85680000  1.0 0.1303111883
H  H333  1  0.64320000  0.96820000  0.04380000  1.0 0.1303111883
H  H334  1  0.35680000  0.46820000  0.45620000  1.0 0.1303111883
H  H335  1  0.14320000  0.53180000  0.95620000  1.0 0.1303111883
H  H336  1  0.85680000  0.03180000  0.54380000  1.0 0.1303111883
H  H337  1  0.05920000  0.35350000  0.00820000  1.0 0.1005633496
H  H338  1  0.44080000  0.64650000  0.50820000  1.0 0.1005633496
H  H339  1  0.94080000  0.85350000  0.49180000  1.0 0.1005633496
H  H340  1  0.55920000  0.14650000  0.99180000  1.0 0.1005633496
H  H341  1  0.00820000  0.05920000  0.35350000  1.0 0.1005633496
H  H342  1  0.50820000  0.44080000  0.64650000  1.0 0.1005633496
H  H343  1  0.49180000  0.94080000  0.85350000  1.0 0.1005633496
H  H344  1  0.99180000  0.55920000  0.14650000  1.0 0.1005633496
H  H345  1  0.35350000  0.00820000  0.05920000  1.0 0.1005633496
H  H346  1  0.64650000  0.50820000  0.44080000  1.0 0.1005633496
H  H347  1  0.85350000  0.49180000  0.94080000  1.0 0.1005633496
H  H348  1  0.14650000  0.99180000  0.55920000  1.0 0.1005633496
H  H349  1  0.94080000  0.64650000  0.99180000  1.0 0.1005633496
H  H350  1  0.55920000  0.35350000  0.49180000  1.0 0.1005633496
H  H351  1  0.05920000  0.14650000  0.50820000  1.0 0.1005633496
H  H352  1  0.44080000  0.85350000  0.00820000  1.0 0.1005633496
H  H353  1  0.99180000  0.94080000  0.64650000  1.0 0.1005633496
H  H354  1  0.49180000  0.55920000  0.35350000  1.0 0.1005633496
H  H355  1  0.50820000  0.05920000  0.14650000  1.0 0.1005633496
H  H356  1  0.00820000  0.44080000  0.85350000  1.0 0.1005633496
H  H357  1  0.64650000  0.99180000  0.94080000  1.0 0.1005633496
H  H358  1  0.35350000  0.49180000  0.55920000  1.0 0.1005633496
H  H359  1  0.14650000  0.50820000  0.05920000  1.0 0.1005633496
H  H360  1  0.85350000  0.00820000  0.44080000  1.0 0.1005633496
H  H361  1  0.09610000  0.37580000  0.06020000  1.0 0.092274618
H  H362  1  0.40390000  0.62420000  0.56020000  1.0 0.092274618
H  H363  1  0.90390000  0.87580000  0.43980000  1.0 0.092274618
H  H364  1  0.59610000  0.12420000  0.93980000  1.0 0.092274618
H  H365  1  0.06020000  0.09610000  0.37580000  1.0 0.092274618
H  H366  1  0.56020000  0.40390000  0.62420000  1.0 0.092274618
H  H367  1  0.43980000  0.90390000  0.87580000  1.0 0.092274618
H  H368  1  0.93980000  0.59610000  0.12420000  1.0 0.092274618
H  H369  1  0.37580000  0.06020000  0.09610000  1.0 0.092274618
H  H370  1  0.62420000  0.56020000  0.40390000  1.0 0.092274618
H  H371  1  0.87580000  0.43980000  0.90390000  1.0 0.092274618
H  H372  1  0.12420000  0.93980000  0.59610000  1.0 0.092274618
H  H373  1  0.90390000  0.62420000  0.93980000  1.0 0.092274618
H  H374  1  0.59610000  0.37580000  0.43980000  1.0 0.092274618
H  H375  1  0.09610000  0.12420000  0.56020000  1.0 0.092274618
H  H376  1  0.40390000  0.87580000  0.06020000  1.0 0.092274618
H  H377  1  0.93980000  0.90390000  0.62420000  1.0 0.092274618
H  H378  1  0.43980000  0.59610000  0.37580000  1.0 0.092274618
H  H379  1  0.56020000  0.09610000  0.12420000  1.0 0.092274618
H  H380  1  0.06020000  0.40390000  0.87580000  1.0 0.092274618
H  H381  1  0.62420000  0.93980000  0.90390000  1.0 0.092274618
H  H382  1  0.37580000  0.43980000  0.59610000  1.0 0.092274618
H  H383  1  0.12420000  0.56020000  0.09610000  1.0 0.092274618
H  H384  1  0.87580000  0.06020000  0.40390000  1.0 0.092274618
H  H385  1  0.14500000  0.34320000  0.10930000  1.0 0.1005633496
H  H386  1  0.35500000  0.65680000  0.60930000  1.0 0.1005633496
H  H387  1  0.85500000  0.84320000  0.39070000  1.0 0.1005633496
H  H388  1  0.64500000  0.15680000  0.89070000  1.0 0.1005633496
H  H389  1  0.10930000  0.14500000  0.34320000  1.0 0.1005633496
H  H390  1  0.60930000  0.35500000  0.65680000  1.0 0.1005633496
H  H391  1  0.39070000  0.85500000  0.84320000  1.0 0.1005633496
H  H392  1  0.89070000  0.64500000  0.15680000  1.0 0.1005633496
H  H393  1  0.34320000  0.10930000  0.14500000  1.0 0.1005633496
H  H394  1  0.65680000  0.60930000  0.35500000  1.0 0.1005633496
H  H395  1  0.84320000  0.39070000  0.85500000  1.0 0.1005633496
H  H396  1  0.15680000  0.89070000  0.64500000  1.0 0.1005633496
H  H397  1  0.85500000  0.65680000  0.89070000  1.0 0.1005633496
H  H398  1  0.64500000  0.34320000  0.39070000  1.0 0.1005633496
H  H399  1  0.14500000  0.15680000  0.60930000  1.0 0.1005633496
H  H400  1  0.35500000  0.84320000  0.10930000  1.0 0.1005633496
H  H401  1  0.89070000  0.85500000  0.65680000  1.0 0.1005633496
H  H402  1  0.39070000  0.64500000  0.34320000  1.0 0.1005633496
H  H403  1  0.60930000  0.14500000  0.15680000  1.0 0.1005633496
H  H404  1  0.10930000  0.35500000  0.84320000  1.0 0.1005633496
H  H405  1  0.65680000  0.89070000  0.85500000  1.0 0.1005633496
H  H406  1  0.34320000  0.39070000  0.64500000  1.0 0.1005633496
H  H407  1  0.15680000  0.60930000  0.14500000  1.0 0.1005633496
H  H408  1  0.84320000  0.10930000  0.35500000  1.0 0.1005633496
H  H409  1  0.15150000  0.29720000  0.10240000  1.0 0.1195504993
H  H410  1  0.34850000  0.70280000  0.60240000  1.0 0.1195504993
H  H411  1  0.84850000  0.79720000  0.39760000  1.0 0.1195504993
H  H412  1  0.65150000  0.20280000  0.89760000  1.0 0.1195504993
H  H413  1  0.10240000  0.15150000  0.29720000  1.0 0.1195504993
H  H414  1  0.60240000  0.34850000  0.70280000  1.0 0.1195504993
H  H415  1  0.39760000  0.84850000  0.79720000  1.0 0.1195504993
H  H416  1  0.89760000  0.65150000  0.20280000  1.0 0.1195504993
H  H417  1  0.29720000  0.10240000  0.15150000  1.0 0.1195504993
H  H418  1  0.70280000  0.60240000  0.34850000  1.0 0.1195504993
H  H419  1  0.79720000  0.39760000  0.84850000  1.0 0.1195504993
H  H420  1  0.20280000  0.89760000  0.65150000  1.0 0.1195504993
H  H421  1  0.84850000  0.70280000  0.89760000  1.0 0.1195504993
H  H422  1  0.65150000  0.29720000  0.39760000  1.0 0.1195504993
H  H423  1  0.15150000  0.20280000  0.60240000  1.0 0.1195504993
H  H424  1  0.34850000  0.79720000  0.10240000  1.0 0.1195504993
H  H425  1  0.89760000  0.84850000  0.70280000  1.0 0.1195504993
H  H426  1  0.39760000  0.65150000  0.29720000  1.0 0.1195504993
H  H427  1  0.60240000  0.15150000  0.20280000  1.0 0.1195504993
H  H428  1  0.10240000  0.34850000  0.79720000  1.0 0.1195504993
H  H429  1  0.70280000  0.89760000  0.84850000  1.0 0.1195504993
H  H430  1  0.29720000  0.39760000  0.65150000  1.0 0.1195504993
H  H431  1  0.20280000  0.60240000  0.15150000  1.0 0.1195504993
H  H432  1  0.79720000  0.10240000  0.34850000  1.0 0.1195504993
H  H433  1  0.03700000  0.40370000  0.14040000  1.0 0.1091847888
H  H434  1  0.46300000  0.59630000  0.64040000  1.0 0.1091847888
H  H435  1  0.96300000  0.90370000  0.35960000  1.0 0.1091847888
H  H436  1  0.53700000  0.09630000  0.85960000  1.0 0.1091847888
H  H437  1  0.14040000  0.03700000  0.40370000  1.0 0.1091847888
H  H438  1  0.64040000  0.46300000  0.59630000  1.0 0.1091847888
H  H439  1  0.35960000  0.96300000  0.90370000  1.0 0.1091847888
H  H440  1  0.85960000  0.53700000  0.09630000  1.0 0.1091847888
H  H441  1  0.40370000  0.14040000  0.03700000  1.0 0.1091847888
H  H442  1  0.59630000  0.64040000  0.46300000  1.0 0.1091847888
H  H443  1  0.90370000  0.35960000  0.96300000  1.0 0.1091847888
H  H444  1  0.09630000  0.85960000  0.53700000  1.0 0.1091847888
H  H445  1  0.96300000  0.59630000  0.85960000  1.0 0.1091847888
H  H446  1  0.53700000  0.40370000  0.35960000  1.0 0.1091847888
H  H447  1  0.03700000  0.09630000  0.64040000  1.0 0.1091847888
H  H448  1  0.46300000  0.90370000  0.14040000  1.0 0.1091847888
H  H449  1  0.85960000  0.96300000  0.59630000  1.0 0.1091847888
H  H450  1  0.35960000  0.53700000  0.40370000  1.0 0.1091847888
H  H451  1  0.64040000  0.03700000  0.09630000  1.0 0.1091847888
H  H452  1  0.14040000  0.46300000  0.90370000  1.0 0.1091847888
H  H453  1  0.59630000  0.85960000  0.96300000  1.0 0.1091847888
H  H454  1  0.40370000  0.35960000  0.53700000  1.0 0.1091847888
H  H455  1  0.09630000  0.64040000  0.03700000  1.0 0.1091847888
H  H456  1  0.90370000  0.14040000  0.46300000  1.0 0.1091847888
H  H457  1  0.08290000  0.40200000  0.13010000  1.0 0.1005633496
H  H458  1  0.41710000  0.59800000  0.63010000  1.0 0.1005633496
H  H459  1  0.91710000  0.90200000  0.36990000  1.0 0.1005633496
H  H460  1  0.58290000  0.09800000  0.86990000  1.0 0.1005633496
H  H461  1  0.13010000  0.08290000  0.40200000  1.0 0.1005633496
H  H462  1  0.63010000  0.41710000  0.59800000  1.0 0.1005633496
H  H463  1  0.36990000  0.91710000  0.90200000  1.0 0.1005633496
H  H464  1  0.86990000  0.58290000  0.09800000  1.0 0.1005633496
H  H465  1  0.40200000  0.13010000  0.08290000  1.0 0.1005633496
H  H466  1  0.59800000  0.63010000  0.41710000  1.0 0.1005633496
H  H467  1  0.90200000  0.36990000  0.91710000  1.0 0.1005633496
H  H468  1  0.09800000  0.86990000  0.58290000  1.0 0.1005633496
H  H469  1  0.91710000  0.59800000  0.86990000  1.0 0.1005633496
H  H470  1  0.58290000  0.40200000  0.36990000  1.0 0.1005633496
H  H471  1  0.08290000  0.09800000  0.63010000  1.0 0.1005633496
H  H472  1  0.41710000  0.90200000  0.13010000  1.0 0.1005633496
H  H473  1  0.86990000  0.91710000  0.59800000  1.0 0.1005633496
H  H474  1  0.36990000  0.58290000  0.40200000  1.0 0.1005633496
H  H475  1  0.63010000  0.08290000  0.09800000  1.0 0.1005633496
H  H476  1  0.13010000  0.41710000  0.90200000  1.0 0.1005633496
H  H477  1  0.59800000  0.86990000  0.91710000  1.0 0.1005633496
H  H478  1  0.40200000  0.36990000  0.58290000  1.0 0.1005633496
H  H479  1  0.09800000  0.63010000  0.08290000  1.0 0.1005633496
H  H480  1  0.90200000  0.13010000  0.41710000  1.0 0.1005633496
H  H481  1  0.11580000  0.21760000  0.21960000  1.0 0.1195504993
H  H482  1  0.38420000  0.78240000  0.71960000  1.0 0.1195504993
H  H483  1  0.88420000  0.71760000  0.28040000  1.0 0.1195504993
H  H484  1  0.61580000  0.28240000  0.78040000  1.0 0.1195504993
H  H485  1  0.21960000  0.11580000  0.21760000  1.0 0.1195504993
H  H486  1  0.71960000  0.38420000  0.78240000  1.0 0.1195504993
H  H487  1  0.28040000  0.88420000  0.71760000  1.0 0.1195504993
H  H488  1  0.78040000  0.61580000  0.28240000  1.0 0.1195504993
H  H489  1  0.21760000  0.21960000  0.11580000  1.0 0.1195504993
H  H490  1  0.78240000  0.71960000  0.38420000  1.0 0.1195504993
H  H491  1  0.71760000  0.28040000  0.88420000  1.0 0.1195504993
H  H492  1  0.28240000  0.78040000  0.61580000  1.0 0.1195504993
H  H493  1  0.88420000  0.78240000  0.78040000  1.0 0.1195504993
H  H494  1  0.61580000  0.21760000  0.28040000  1.0 0.1195504993
H  H495  1  0.11580000  0.28240000  0.71960000  1.0 0.1195504993
H  H496  1  0.38420000  0.71760000  0.21960000  1.0 0.1195504993
H  H497  1  0.78040000  0.88420000  0.78240000  1.0 0.1195504993
H  H498  1  0.28040000  0.61580000  0.21760000  1.0 0.1195504993
H  H499  1  0.71960000  0.11580000  0.28240000  1.0 0.1195504993
H  H500  1  0.21960000  0.38420000  0.71760000  1.0 0.1195504993
H  H501  1  0.78240000  0.78040000  0.88420000  1.0 0.1195504993
H  H502  1  0.21760000  0.28040000  0.61580000  1.0 0.1195504993
H  H503  1  0.28240000  0.71960000  0.11580000  1.0 0.1195504993
H  H504  1  0.71760000  0.21960000  0.38420000  1.0 0.1195504993
H  H505  1  0.10360000  0.24470000  0.25600000  1.0 0.1005633496
H  H506  1  0.39640000  0.75530000  0.75600000  1.0 0.1005633496
H  H507  1  0.89640000  0.74470000  0.24400000  1.0 0.1005633496
H  H508  1  0.60360000  0.25530000  0.74400000  1.0 0.1005633496
H  H509  1  0.25600000  0.10360000  0.24470000  1.0 0.1005633496
H  H510  1  0.75600000  0.39640000  0.75530000  1.0 0.1005633496
H  H511  1  0.24400000  0.89640000  0.74470000  1.0 0.1005633496
H  H512  1  0.74400000  0.60360000  0.25530000  1.0 0.1005633496
H  H513  1  0.24470000  0.25600000  0.10360000  1.0 0.1005633496
H  H514  1  0.75530000  0.75600000  0.39640000  1.0 0.1005633496
H  H515  1  0.74470000  0.24400000  0.89640000  1.0 0.1005633496
H  H516  1  0.25530000  0.74400000  0.60360000  1.0 0.1005633496
H  H517  1  0.89640000  0.75530000  0.74400000  1.0 0.1005633496
H  H518  1  0.60360000  0.24470000  0.24400000  1.0 0.1005633496
H  H519  1  0.10360000  0.25530000  0.75600000  1.0 0.1005633496
H  H520  1  0.39640000  0.74470000  0.25600000  1.0 0.1005633496
H  H521  1  0.74400000  0.89640000  0.75530000  1.0 0.1005633496
H  H522  1  0.24400000  0.60360000  0.24470000  1.0 0.1005633496
H  H523  1  0.75600000  0.10360000  0.25530000  1.0 0.1005633496
H  H524  1  0.25600000  0.39640000  0.74470000  1.0 0.1005633496
H  H525  1  0.75530000  0.74400000  0.89640000  1.0 0.1005633496
H  H526  1  0.24470000  0.24400000  0.60360000  1.0 0.1005633496
H  H527  1  0.25530000  0.75600000  0.10360000  1.0 0.1005633496
H  H528  1  0.74470000  0.25600000  0.39640000  1.0 0.1005633496
H  H529  1  0.00340000  0.32710000  0.25830000  1.0 0.1195504993
H  H530  1  0.49660000  0.67290000  0.75830000  1.0 0.1195504993
H  H531  1  0.99660000  0.82710000  0.24170000  1.0 0.1195504993
H  H532  1  0.50340000  0.17290000  0.74170000  1.0 0.1195504993
H  H533  1  0.25830000  0.00340000  0.32710000  1.0 0.1195504993
H  H534  1  0.75830000  0.49660000  0.67290000  1.0 0.1195504993
H  H535  1  0.24170000  0.99660000  0.82710000  1.0 0.1195504993
H  H536  1  0.74170000  0.50340000  0.17290000  1.0 0.1195504993
H  H537  1  0.32710000  0.25830000  0.00340000  1.0 0.1195504993
H  H538  1  0.67290000  0.75830000  0.49660000  1.0 0.1195504993
H  H539  1  0.82710000  0.24170000  0.99660000  1.0 0.1195504993
H  H540  1  0.17290000  0.74170000  0.50340000  1.0 0.1195504993
H  H541  1  0.99660000  0.67290000  0.74170000  1.0 0.1195504993
H  H542  1  0.50340000  0.32710000  0.24170000  1.0 0.1195504993
H  H543  1  0.00340000  0.17290000  0.75830000  1.0 0.1195504993
H  H544  1  0.49660000  0.82710000  0.25830000  1.0 0.1195504993
H  H545  1  0.74170000  0.99660000  0.67290000  1.0 0.1195504993
H  H546  1  0.24170000  0.50340000  0.32710000  1.0 0.1195504993
H  H547  1  0.75830000  0.00340000  0.17290000  1.0 0.1195504993
H  H548  1  0.25830000  0.49660000  0.82710000  1.0 0.1195504993
H  H549  1  0.67290000  0.74170000  0.99660000  1.0 0.1195504993
H  H550  1  0.32710000  0.24170000  0.50340000  1.0 0.1195504993
H  H551  1  0.17290000  0.75830000  0.00340000  1.0 0.1195504993
H  H552  1  0.82710000  0.25830000  0.49660000  1.0 0.1195504993
H  H553  1  0.04070000  0.30620000  0.27760000  1.0 0.1091847888
H  H554  1  0.45930000  0.69380000  0.77760000  1.0 0.1091847888
H  H555  1  0.95930000  0.80620000  0.22240000  1.0 0.1091847888
H  H556  1  0.54070000  0.19380000  0.72240000  1.0 0.1091847888
H  H557  1  0.27760000  0.04070000  0.30620000  1.0 0.1091847888
H  H558  1  0.77760000  0.45930000  0.69380000  1.0 0.1091847888
H  H559  1  0.22240000  0.95930000  0.80620000  1.0 0.1091847888
H  H560  1  0.72240000  0.54070000  0.19380000  1.0 0.1091847888
H  H561  1  0.30620000  0.27760000  0.04070000  1.0 0.1091847888
H  H562  1  0.69380000  0.77760000  0.45930000  1.0 0.1091847888
H  H563  1  0.80620000  0.22240000  0.95930000  1.0 0.1091847888
H  H564  1  0.19380000  0.72240000  0.54070000  1.0 0.1091847888
H  H565  1  0.95930000  0.69380000  0.72240000  1.0 0.1091847888
H  H566  1  0.54070000  0.30620000  0.22240000  1.0 0.1091847888
H  H567  1  0.04070000  0.19380000  0.77760000  1.0 0.1091847888
H  H568  1  0.45930000  0.80620000  0.27760000  1.0 0.1091847888
H  H569  1  0.72240000  0.95930000  0.69380000  1.0 0.1091847888
H  H570  1  0.22240000  0.54070000  0.30620000  1.0 0.1091847888
H  H571  1  0.77760000  0.04070000  0.19380000  1.0 0.1091847888
H  H572  1  0.27760000  0.45930000  0.80620000  1.0 0.1091847888
H  H573  1  0.69380000  0.72240000  0.95930000  1.0 0.1091847888
H  H574  1  0.30620000  0.22240000  0.54070000  1.0 0.1091847888
H  H575  1  0.19380000  0.77760000  0.04070000  1.0 0.1091847888
H  H576  1  0.80620000  0.27760000  0.45930000  1.0 0.1091847888
H  H577  1  0.05670000  0.24960000  0.30560000  1.0 0.1195504993
H  H578  1  0.44330000  0.75040000  0.80560000  1.0 0.1195504993
H  H579  1  0.94330000  0.74960000  0.19440000  1.0 0.1195504993
H  H580  1  0.55670000  0.25040000  0.69440000  1.0 0.1195504993
H  H581  1  0.30560000  0.05670000  0.24960000  1.0 0.1195504993
H  H582  1  0.80560000  0.44330000  0.75040000  1.0 0.1195504993
H  H583  1  0.19440000  0.94330000  0.74960000  1.0 0.1195504993
H  H584  1  0.69440000  0.55670000  0.25040000  1.0 0.1195504993
H  H585  1  0.24960000  0.30560000  0.05670000  1.0 0.1195504993
H  H586  1  0.75040000  0.80560000  0.44330000  1.0 0.1195504993
H  H587  1  0.74960000  0.19440000  0.94330000  1.0 0.1195504993
H  H588  1  0.25040000  0.69440000  0.55670000  1.0 0.1195504993
H  H589  1  0.94330000  0.75040000  0.69440000  1.0 0.1195504993
H  H590  1  0.55670000  0.24960000  0.19440000  1.0 0.1195504993
H  H591  1  0.05670000  0.25040000  0.80560000  1.0 0.1195504993
H  H592  1  0.44330000  0.74960000  0.30560000  1.0 0.1195504993
H  H593  1  0.69440000  0.94330000  0.75040000  1.0 0.1195504993
H  H594  1  0.19440000  0.55670000  0.24960000  1.0 0.1195504993
H  H595  1  0.80560000  0.05670000  0.25040000  1.0 0.1195504993
H  H596  1  0.30560000  0.44330000  0.74960000  1.0 0.1195504993
H  H597  1  0.75040000  0.69440000  0.94330000  1.0 0.1195504993
H  H598  1  0.24960000  0.19440000  0.55670000  1.0 0.1195504993
H  H599  1  0.25040000  0.80560000  0.05670000  1.0 0.1195504993
H  H600  1  0.74960000  0.30560000  0.44330000  1.0 0.1195504993
H  H601  1  0.05320000  0.20280000  0.30400000  1.0 0.1195504993
H  H602  1  0.44680000  0.79720000  0.80400000  1.0 0.1195504993
H  H603  1  0.94680000  0.70280000  0.19600000  1.0 0.1195504993
H  H604  1  0.55320000  0.29720000  0.69600000  1.0 0.1195504993
H  H605  1  0.30400000  0.05320000  0.20280000  1.0 0.1195504993
H  H606  1  0.80400000  0.44680000  0.79720000  1.0 0.1195504993
H  H607  1  0.19600000  0.94680000  0.70280000  1.0 0.1195504993
H  H608  1  0.69600000  0.55320000  0.29720000  1.0 0.1195504993
H  H609  1  0.20280000  0.30400000  0.05320000  1.0 0.1195504993
H  H610  1  0.79720000  0.80400000  0.44680000  1.0 0.1195504993
H  H611  1  0.70280000  0.19600000  0.94680000  1.0 0.1195504993
H  H612  1  0.29720000  0.69600000  0.55320000  1.0 0.1195504993
H  H613  1  0.94680000  0.79720000  0.69600000  1.0 0.1195504993
H  H614  1  0.55320000  0.20280000  0.19600000  1.0 0.1195504993
H  H615  1  0.05320000  0.29720000  0.80400000  1.0 0.1195504993
H  H616  1  0.44680000  0.70280000  0.30400000  1.0 0.1195504993
H  H617  1  0.69600000  0.94680000  0.79720000  1.0 0.1195504993
H  H618  1  0.19600000  0.55320000  0.20280000  1.0 0.1195504993
H  H619  1  0.80400000  0.05320000  0.29720000  1.0 0.1195504993
H  H620  1  0.30400000  0.44680000  0.70280000  1.0 0.1195504993
H  H621  1  0.79720000  0.69600000  0.94680000  1.0 0.1195504993
H  H622  1  0.20280000  0.19600000  0.55320000  1.0 0.1195504993
H  H623  1  0.29720000  0.80400000  0.05320000  1.0 0.1195504993
H  H624  1  0.70280000  0.30400000  0.44680000  1.0 0.1195504993
H  H625  1  0.01190000  0.22250000  0.35640000  1.0 0.1091847888
H  H626  1  0.48810000  0.77750000  0.85640000  1.0 0.1091847888
H  H627  1  0.98810000  0.72250000  0.14360000  1.0 0.1091847888
H  H628  1  0.51190000  0.27750000  0.64360000  1.0 0.1091847888
H  H629  1  0.35640000  0.01190000  0.22250000  1.0 0.1091847888
H  H630  1  0.85640000  0.48810000  0.77750000  1.0 0.1091847888
H  H631  1  0.14360000  0.98810000  0.72250000  1.0 0.1091847888
H  H632  1  0.64360000  0.51190000  0.27750000  1.0 0.1091847888
H  H633  1  0.22250000  0.35640000  0.01190000  1.0 0.1091847888
H  H634  1  0.77750000  0.85640000  0.48810000  1.0 0.1091847888
H  H635  1  0.72250000  0.14360000  0.98810000  1.0 0.1091847888
H  H636  1  0.27750000  0.64360000  0.51190000  1.0 0.1091847888
H  H637  1  0.98810000  0.77750000  0.64360000  1.0 0.1091847888
H  H638  1  0.51190000  0.22250000  0.14360000  1.0 0.1091847888
H  H639  1  0.01190000  0.27750000  0.85640000  1.0 0.1091847888
H  H640  1  0.48810000  0.72250000  0.35640000  1.0 0.1091847888
H  H641  1  0.64360000  0.98810000  0.77750000  1.0 0.1091847888
H  H642  1  0.14360000  0.51190000  0.22250000  1.0 0.1091847888
H  H643  1  0.85640000  0.01190000  0.27750000  1.0 0.1091847888
H  H644  1  0.35640000  0.48810000  0.72250000  1.0 0.1091847888
H  H645  1  0.77750000  0.64360000  0.98810000  1.0 0.1091847888
H  H646  1  0.22250000  0.14360000  0.51190000  1.0 0.1091847888
H  H647  1  0.27750000  0.85640000  0.01190000  1.0 0.1091847888
H  H648  1  0.72250000  0.35640000  0.48810000  1.0 0.1091847888
H  H649  1  0.99210000  0.25640000  0.33050000  1.0 0.1091847888
H  H650  1  0.50790000  0.74360000  0.83050000  1.0 0.1091847888
H  H651  1  0.00790000  0.75640000  0.16950000  1.0 0.1091847888
H  H652  1  0.49210000  0.24360000  0.66950000  1.0 0.1091847888
H  H653  1  0.33050000  0.99210000  0.25640000  1.0 0.1091847888
H  H654  1  0.83050000  0.50790000  0.74360000  1.0 0.1091847888
H  H655  1  0.16950000  0.00790000  0.75640000  1.0 0.1091847888
H  H656  1  0.66950000  0.49210000  0.24360000  1.0 0.1091847888
H  H657  1  0.25640000  0.33050000  0.99210000  1.0 0.1091847888
H  H658  1  0.74360000  0.83050000  0.50790000  1.0 0.1091847888
H  H659  1  0.75640000  0.16950000  0.00790000  1.0 0.1091847888
H  H660  1  0.24360000  0.66950000  0.49210000  1.0 0.1091847888
H  H661  1  0.00790000  0.74360000  0.66950000  1.0 0.1091847888
H  H662  1  0.49210000  0.25640000  0.16950000  1.0 0.1091847888
H  H663  1  0.99210000  0.24360000  0.83050000  1.0 0.1091847888
H  H664  1  0.50790000  0.75640000  0.33050000  1.0 0.1091847888
H  H665  1  0.66950000  0.00790000  0.74360000  1.0 0.1091847888
H  H666  1  0.16950000  0.49210000  0.25640000  1.0 0.1091847888
H  H667  1  0.83050000  0.99210000  0.24360000  1.0 0.1091847888
H  H668  1  0.33050000  0.50790000  0.75640000  1.0 0.1091847888
H  H669  1  0.74360000  0.66950000  0.00790000  1.0 0.1091847888
H  H670  1  0.25640000  0.16950000  0.49210000  1.0 0.1091847888
H  H671  1  0.24360000  0.83050000  0.99210000  1.0 0.1091847888
H  H672  1  0.75640000  0.33050000  0.50790000  1.0 0.1091847888
H  H673  1  0.96240000  0.18270000  0.34030000  1.0 0.1005633496
H  H674  1  0.53760000  0.81730000  0.84030000  1.0 0.1005633496
H  H675  1  0.03760000  0.68270000  0.15970000  1.0 0.1005633496
H  H676  1  0.46240000  0.31730000  0.65970000  1.0 0.1005633496
H  H677  1  0.34030000  0.96240000  0.18270000  1.0 0.1005633496
H  H678  1  0.84030000  0.53760000  0.81730000  1.0 0.1005633496
H  H679  1  0.15970000  0.03760000  0.68270000  1.0 0.1005633496
H  H680  1  0.65970000  0.46240000  0.31730000  1.0 0.1005633496
H  H681  1  0.18270000  0.34030000  0.96240000  1.0 0.1005633496
H  H682  1  0.81730000  0.84030000  0.53760000  1.0 0.1005633496
H  H683  1  0.68270000  0.15970000  0.03760000  1.0 0.1005633496
H  H684  1  0.31730000  0.65970000  0.46240000  1.0 0.1005633496
H  H685  1  0.03760000  0.81730000  0.65970000  1.0 0.1005633496
H  H686  1  0.46240000  0.18270000  0.15970000  1.0 0.1005633496
H  H687  1  0.96240000  0.31730000  0.84030000  1.0 0.1005633496
H  H688  1  0.53760000  0.68270000  0.34030000  1.0 0.1005633496
H  H689  1  0.65970000  0.03760000  0.81730000  1.0 0.1005633496
H  H690  1  0.15970000  0.46240000  0.18270000  1.0 0.1005633496
H  H691  1  0.84030000  0.96240000  0.31730000  1.0 0.1005633496
H  H692  1  0.34030000  0.53760000  0.68270000  1.0 0.1005633496
H  H693  1  0.81730000  0.65970000  0.03760000  1.0 0.1005633496
H  H694  1  0.18270000  0.15970000  0.46240000  1.0 0.1005633496
H  H695  1  0.31730000  0.84030000  0.96240000  1.0 0.1005633496
H  H696  1  0.68270000  0.34030000  0.53760000  1.0 0.1005633496
H  H697  1  0.94430000  0.21550000  0.31190000  1.0 0.092274618
H  H698  1  0.55570000  0.78450000  0.81190000  1.0 0.092274618
H  H699  1  0.05570000  0.71550000  0.18810000  1.0 0.092274618
H  H700  1  0.44430000  0.28450000  0.68810000  1.0 0.092274618
H  H701  1  0.31190000  0.94430000  0.21550000  1.0 0.092274618
H  H702  1  0.81190000  0.55570000  0.78450000  1.0 0.092274618
H  H703  1  0.18810000  0.05570000  0.71550000  1.0 0.092274618
H  H704  1  0.68810000  0.44430000  0.28450000  1.0 0.092274618
H  H705  1  0.21550000  0.31190000  0.94430000  1.0 0.092274618
H  H706  1  0.78450000  0.81190000  0.55570000  1.0 0.092274618
H  H707  1  0.71550000  0.18810000  0.05570000  1.0 0.092274618
H  H708  1  0.28450000  0.68810000  0.44430000  1.0 0.092274618
H  H709  1  0.05570000  0.78450000  0.68810000  1.0 0.092274618
H  H710  1  0.44430000  0.21550000  0.18810000  1.0 0.092274618
H  H711  1  0.94430000  0.28450000  0.81190000  1.0 0.092274618
H  H712  1  0.55570000  0.71550000  0.31190000  1.0 0.092274618
H  H713  1  0.68810000  0.05570000  0.78450000  1.0 0.092274618
H  H714  1  0.18810000  0.44430000  0.21550000  1.0 0.092274618
H  H715  1  0.81190000  0.94430000  0.28450000  1.0 0.092274618
H  H716  1  0.31190000  0.55570000  0.71550000  1.0 0.092274618
H  H717  1  0.78450000  0.68810000  0.05570000  1.0 0.092274618
H  H718  1  0.21550000  0.18810000  0.44430000  1.0 0.092274618
H  H719  1  0.28450000  0.81190000  0.94430000  1.0 0.092274618
H  H720  1  0.71550000  0.31190000  0.55570000  1.0 0.092274618
H  H721  1  0.95480000  0.15850000  0.27420000  1.0 0.1195504993
H  H722  1  0.54520000  0.84150000  0.77420000  1.0 0.1195504993
H  H723  1  0.04520000  0.65850000  0.22580000  1.0 0.1195504993
H  H724  1  0.45480000  0.34150000  0.72580000  1.0 0.1195504993
H  H725  1  0.27420000  0.95480000  0.15850000  1.0 0.1195504993
H  H726  1  0.77420000  0.54520000  0.84150000  1.0 0.1195504993
H  H727  1  0.22580000  0.04520000  0.65850000  1.0 0.1195504993
H  H728  1  0.72580000  0.45480000  0.34150000  1.0 0.1195504993
H  H729  1  0.15850000  0.27420000  0.95480000  1.0 0.1195504993
H  H730  1  0.84150000  0.77420000  0.54520000  1.0 0.1195504993
H  H731  1  0.65850000  0.22580000  0.04520000  1.0 0.1195504993
H  H732  1  0.34150000  0.72580000  0.45480000  1.0 0.1195504993
H  H733  1  0.04520000  0.84150000  0.72580000  1.0 0.1195504993
H  H734  1  0.45480000  0.15850000  0.22580000  1.0 0.1195504993
H  H735  1  0.95480000  0.34150000  0.77420000  1.0 0.1195504993
H  H736  1  0.54520000  0.65850000  0.27420000  1.0 0.1195504993
H  H737  1  0.72580000  0.04520000  0.84150000  1.0 0.1195504993
H  H738  1  0.22580000  0.45480000  0.15850000  1.0 0.1195504993
H  H739  1  0.77420000  0.95480000  0.34150000  1.0 0.1195504993
H  H740  1  0.27420000  0.54520000  0.65850000  1.0 0.1195504993
H  H741  1  0.84150000  0.72580000  0.04520000  1.0 0.1195504993
H  H742  1  0.15850000  0.22580000  0.45480000  1.0 0.1195504993
H  H743  1  0.34150000  0.77420000  0.95480000  1.0 0.1195504993
H  H744  1  0.65850000  0.27420000  0.54520000  1.0 0.1195504993
H  H745  1  0.99960000  0.15570000  0.28850000  1.0 0.1195504993
H  H746  1  0.50040000  0.84430000  0.78850000  1.0 0.1195504993
H  H747  1  0.00040000  0.65570000  0.21150000  1.0 0.1195504993
H  H748  1  0.49960000  0.34430000  0.71150000  1.0 0.1195504993
H  H749  1  0.28850000  0.99960000  0.15570000  1.0 0.1195504993
H  H750  1  0.78850000  0.50040000  0.84430000  1.0 0.1195504993
H  H751  1  0.21150000  0.00040000  0.65570000  1.0 0.1195504993
H  H752  1  0.71150000  0.49960000  0.34430000  1.0 0.1195504993
H  H753  1  0.15570000  0.28850000  0.99960000  1.0 0.1195504993
H  H754  1  0.84430000  0.78850000  0.50040000  1.0 0.1195504993
H  H755  1  0.65570000  0.21150000  0.00040000  1.0 0.1195504993
H  H756  1  0.34430000  0.71150000  0.49960000  1.0 0.1195504993
H  H757  1  0.00040000  0.84430000  0.71150000  1.0 0.1195504993
H  H758  1  0.49960000  0.15570000  0.21150000  1.0 0.1195504993
H  H759  1  0.99960000  0.34430000  0.78850000  1.0 0.1195504993
H  H760  1  0.50040000  0.65570000  0.28850000  1.0 0.1195504993
H  H761  1  0.71150000  0.00040000  0.84430000  1.0 0.1195504993
H  H762  1  0.21150000  0.49960000  0.15570000  1.0 0.1195504993
H  H763  1  0.78850000  0.99960000  0.34430000  1.0 0.1195504993
H  H764  1  0.28850000  0.50040000  0.65570000  1.0 0.1195504993
H  H765  1  0.84430000  0.71150000  0.00040000  1.0 0.1195504993
H  H766  1  0.15570000  0.21150000  0.49960000  1.0 0.1195504993
H  H767  1  0.34430000  0.78850000  0.99960000  1.0 0.1195504993
H  H768  1  0.65570000  0.28850000  0.50040000  1.0 0.1195504993
H  H769  1  0.89690000  0.23320000  0.97690000  1.0 0.1091847888
H  H770  1  0.60310000  0.76680000  0.47690000  1.0 0.1091847888
H  H771  1  0.10310000  0.73320000  0.52310000  1.0 0.1091847888
H  H772  1  0.39690000  0.26680000  0.02310000  1.0 0.1091847888
H  H773  1  0.97690000  0.89690000  0.23320000  1.0 0.1091847888
H  H774  1  0.47690000  0.60310000  0.76680000  1.0 0.1091847888
H  H775  1  0.52310000  0.10310000  0.73320000  1.0 0.1091847888
H  H776  1  0.02310000  0.39690000  0.26680000  1.0 0.1091847888
H  H777  1  0.23320000  0.97690000  0.89690000  1.0 0.1091847888
H  H778  1  0.76680000  0.47690000  0.60310000  1.0 0.1091847888
H  H779  1  0.73320000  0.52310000  0.10310000  1.0 0.1091847888
H  H780  1  0.26680000  0.02310000  0.39690000  1.0 0.1091847888
H  H781  1  0.10310000  0.76680000  0.02310000  1.0 0.1091847888
H  H782  1  0.39690000  0.23320000  0.52310000  1.0 0.1091847888
H  H783  1  0.89690000  0.26680000  0.47690000  1.0 0.1091847888
H  H784  1  0.60310000  0.73320000  0.97690000  1.0 0.1091847888
H  H785  1  0.02310000  0.10310000  0.76680000  1.0 0.1091847888
H  H786  1  0.52310000  0.39690000  0.23320000  1.0 0.1091847888
H  H787  1  0.47690000  0.89690000  0.26680000  1.0 0.1091847888
H  H788  1  0.97690000  0.60310000  0.73320000  1.0 0.1091847888
H  H789  1  0.76680000  0.02310000  0.10310000  1.0 0.1091847888
H  H790  1  0.23320000  0.52310000  0.39690000  1.0 0.1091847888
H  H791  1  0.26680000  0.47690000  0.89690000  1.0 0.1091847888
H  H792  1  0.73320000  0.97690000  0.60310000  1.0 0.1091847888
H  H793  1  0.90230000  0.18990000  0.99470000  1.0 0.1195504993
H  H794  1  0.59770000  0.81010000  0.49470000  1.0 0.1195504993
H  H795  1  0.09770000  0.68990000  0.50530000  1.0 0.1195504993
H  H796  1  0.40230000  0.31010000  0.00530000  1.0 0.1195504993
H  H797  1  0.99470000  0.90230000  0.18990000  1.0 0.1195504993
H  H798  1  0.49470000  0.59770000  0.81010000  1.0 0.1195504993
H  H799  1  0.50530000  0.09770000  0.68990000  1.0 0.1195504993
H  H800  1  0.00530000  0.40230000  0.31010000  1.0 0.1195504993
H  H801  1  0.18990000  0.99470000  0.90230000  1.0 0.1195504993
H  H802  1  0.81010000  0.49470000  0.59770000  1.0 0.1195504993
H  H803  1  0.68990000  0.50530000  0.09770000  1.0 0.1195504993
H  H804  1  0.31010000  0.00530000  0.40230000  1.0 0.1195504993
H  H805  1  0.09770000  0.81010000  0.00530000  1.0 0.1195504993
H  H806  1  0.40230000  0.18990000  0.50530000  1.0 0.1195504993
H  H807  1  0.90230000  0.31010000  0.49470000  1.0 0.1195504993
H  H808  1  0.59770000  0.68990000  0.99470000  1.0 0.1195504993
H  H809  1  0.00530000  0.09770000  0.81010000  1.0 0.1195504993
H  H810  1  0.50530000  0.40230000  0.18990000  1.0 0.1195504993
H  H811  1  0.49470000  0.90230000  0.31010000  1.0 0.1195504993
H  H812  1  0.99470000  0.59770000  0.68990000  1.0 0.1195504993
H  H813  1  0.81010000  0.00530000  0.09770000  1.0 0.1195504993
H  H814  1  0.18990000  0.50530000  0.40230000  1.0 0.1195504993
H  H815  1  0.31010000  0.49470000  0.90230000  1.0 0.1195504993
H  H816  1  0.68990000  0.99470000  0.59770000  1.0 0.1195504993
H  H817  1  0.92250000  0.19220000  0.92560000  1.0 0.1091847888
H  H818  1  0.57750000  0.80780000  0.42560000  1.0 0.1091847888
H  H819  1  0.07750000  0.69220000  0.57440000  1.0 0.1091847888
H  H820  1  0.42250000  0.30780000  0.07440000  1.0 0.1091847888
H  H821  1  0.92560000  0.92250000  0.19220000  1.0 0.1091847888
H  H822  1  0.42560000  0.57750000  0.80780000  1.0 0.1091847888
H  H823  1  0.57440000  0.07750000  0.69220000  1.0 0.1091847888
H  H824  1  0.07440000  0.42250000  0.30780000  1.0 0.1091847888
H  H825  1  0.19220000  0.92560000  0.92250000  1.0 0.1091847888
H  H826  1  0.80780000  0.42560000  0.57750000  1.0 0.1091847888
H  H827  1  0.69220000  0.57440000  0.07750000  1.0 0.1091847888
H  H828  1  0.30780000  0.07440000  0.42250000  1.0 0.1091847888
H  H829  1  0.07750000  0.80780000  0.07440000  1.0 0.1091847888
H  H830  1  0.42250000  0.19220000  0.57440000  1.0 0.1091847888
H  H831  1  0.92250000  0.30780000  0.42560000  1.0 0.1091847888
H  H832  1  0.57750000  0.69220000  0.92560000  1.0 0.1091847888
H  H833  1  0.07440000  0.07750000  0.80780000  1.0 0.1091847888
H  H834  1  0.57440000  0.42250000  0.19220000  1.0 0.1091847888
H  H835  1  0.42560000  0.92250000  0.30780000  1.0 0.1091847888
H  H836  1  0.92560000  0.57750000  0.69220000  1.0 0.1091847888
H  H837  1  0.80780000  0.07440000  0.07750000  1.0 0.1091847888
H  H838  1  0.19220000  0.57440000  0.42250000  1.0 0.1091847888
H  H839  1  0.30780000  0.42560000  0.92250000  1.0 0.1091847888
H  H840  1  0.69220000  0.92560000  0.57750000  1.0 0.1091847888
H  H841  1  0.95780000  0.17780000  0.95320000  1.0 0.1005633496
H  H842  1  0.54220000  0.82220000  0.45320000  1.0 0.1005633496
H  H843  1  0.04220000  0.67780000  0.54680000  1.0 0.1005633496
H  H844  1  0.45780000  0.32220000  0.04680000  1.0 0.1005633496
H  H845  1  0.95320000  0.95780000  0.17780000  1.0 0.1005633496
H  H846  1  0.45320000  0.54220000  0.82220000  1.0 0.1005633496
H  H847  1  0.54680000  0.04220000  0.67780000  1.0 0.1005633496
H  H848  1  0.04680000  0.45780000  0.32220000  1.0 0.1005633496
H  H849  1  0.17780000  0.95320000  0.95780000  1.0 0.1005633496
H  H850  1  0.82220000  0.45320000  0.54220000  1.0 0.1005633496
H  H851  1  0.67780000  0.54680000  0.04220000  1.0 0.1005633496
H  H852  1  0.32220000  0.04680000  0.45780000  1.0 0.1005633496
H  H853  1  0.04220000  0.82220000  0.04680000  1.0 0.1005633496
H  H854  1  0.45780000  0.17780000  0.54680000  1.0 0.1005633496
H  H855  1  0.95780000  0.32220000  0.45320000  1.0 0.1005633496
H  H856  1  0.54220000  0.67780000  0.95320000  1.0 0.1005633496
H  H857  1  0.04680000  0.04220000  0.82220000  1.0 0.1005633496
H  H858  1  0.54680000  0.45780000  0.17780000  1.0 0.1005633496
H  H859  1  0.45320000  0.95780000  0.32220000  1.0 0.1005633496
H  H860  1  0.95320000  0.54220000  0.67780000  1.0 0.1005633496
H  H861  1  0.82220000  0.04680000  0.04220000  1.0 0.1005633496
H  H862  1  0.17780000  0.54680000  0.45780000  1.0 0.1005633496
H  H863  1  0.32220000  0.45320000  0.95780000  1.0 0.1005633496
H  H864  1  0.67780000  0.95320000  0.54220000  1.0 0.1005633496
H  H865  1  0.99560000  0.22720000  0.93010000  1.0 0.1005633496
H  H866  1  0.50440000  0.77280000  0.43010000  1.0 0.1005633496
H  H867  1  0.00440000  0.72720000  0.56990000  1.0 0.1005633496
H  H868  1  0.49560000  0.27280000  0.06990000  1.0 0.1005633496
H  H869  1  0.93010000  0.99560000  0.22720000  1.0 0.1005633496
H  H870  1  0.43010000  0.50440000  0.77280000  1.0 0.1005633496
H  H871  1  0.56990000  0.00440000  0.72720000  1.0 0.1005633496
H  H872  1  0.06990000  0.49560000  0.27280000  1.0 0.1005633496
H  H873  1  0.22720000  0.93010000  0.99560000  1.0 0.1005633496
H  H874  1  0.77280000  0.43010000  0.50440000  1.0 0.1005633496
H  H875  1  0.72720000  0.56990000  0.00440000  1.0 0.1005633496
H  H876  1  0.27280000  0.06990000  0.49560000  1.0 0.1005633496
H  H877  1  0.00440000  0.77280000  0.06990000  1.0 0.1005633496
H  H878  1  0.49560000  0.22720000  0.56990000  1.0 0.1005633496
H  H879  1  0.99560000  0.27280000  0.43010000  1.0 0.1005633496
H  H880  1  0.50440000  0.72720000  0.93010000  1.0 0.1005633496
H  H881  1  0.06990000  0.00440000  0.77280000  1.0 0.1005633496
H  H882  1  0.56990000  0.49560000  0.22720000  1.0 0.1005633496
H  H883  1  0.43010000  0.99560000  0.27280000  1.0 0.1005633496
H  H884  1  0.93010000  0.50440000  0.72720000  1.0 0.1005633496
H  H885  1  0.77280000  0.06990000  0.00440000  1.0 0.1005633496
H  H886  1  0.22720000  0.56990000  0.49560000  1.0 0.1005633496
H  H887  1  0.27280000  0.43010000  0.99560000  1.0 0.1005633496
H  H888  1  0.72720000  0.93010000  0.50440000  1.0 0.1005633496
H  H889  1  0.96000000  0.24210000  0.90320000  1.0 0.1005633496
H  H890  1  0.54000000  0.75790000  0.40320000  1.0 0.1005633496
H  H891  1  0.04000000  0.74210000  0.59680000  1.0 0.1005633496
H  H892  1  0.46000000  0.25790000  0.09680000  1.0 0.1005633496
H  H893  1  0.90320000  0.96000000  0.24210000  1.0 0.1005633496
H  H894  1  0.40320000  0.54000000  0.75790000  1.0 0.1005633496
H  H895  1  0.59680000  0.04000000  0.74210000  1.0 0.1005633496
H  H896  1  0.09680000  0.46000000  0.25790000  1.0 0.1005633496
H  H897  1  0.24210000  0.90320000  0.96000000  1.0 0.1005633496
H  H898  1  0.75790000  0.40320000  0.54000000  1.0 0.1005633496
H  H899  1  0.74210000  0.59680000  0.04000000  1.0 0.1005633496
H  H900  1  0.25790000  0.09680000  0.46000000  1.0 0.1005633496
H  H901  1  0.04000000  0.75790000  0.09680000  1.0 0.1005633496
H  H902  1  0.46000000  0.24210000  0.59680000  1.0 0.1005633496
H  H903  1  0.96000000  0.25790000  0.40320000  1.0 0.1005633496
H  H904  1  0.54000000  0.74210000  0.90320000  1.0 0.1005633496
H  H905  1  0.09680000  0.04000000  0.75790000  1.0 0.1005633496
H  H906  1  0.59680000  0.46000000  0.24210000  1.0 0.1005633496
H  H907  1  0.40320000  0.96000000  0.25790000  1.0 0.1005633496
H  H908  1  0.90320000  0.54000000  0.74210000  1.0 0.1005633496
H  H909  1  0.75790000  0.09680000  0.04000000  1.0 0.1005633496
H  H910  1  0.24210000  0.59680000  0.46000000  1.0 0.1005633496
H  H911  1  0.25790000  0.40320000  0.96000000  1.0 0.1005633496
H  H912  1  0.74210000  0.90320000  0.54000000  1.0 0.1005633496
H  H913  1  0.93730000  0.28400000  0.95310000  1.0 0.1195504993
H  H914  1  0.56270000  0.71600000  0.45310000  1.0 0.1195504993
H  H915  1  0.06270000  0.78400000  0.54690000  1.0 0.1195504993
H  H916  1  0.43730000  0.21600000  0.04690000  1.0 0.1195504993
H  H917  1  0.95310000  0.93730000  0.28400000  1.0 0.1195504993
H  H918  1  0.45310000  0.56270000  0.71600000  1.0 0.1195504993
H  H919  1  0.54690000  0.06270000  0.78400000  1.0 0.1195504993
H  H920  1  0.04690000  0.43730000  0.21600000  1.0 0.1195504993
H  H921  1  0.28400000  0.95310000  0.93730000  1.0 0.1195504993
H  H922  1  0.71600000  0.45310000  0.56270000  1.0 0.1195504993
H  H923  1  0.78400000  0.54690000  0.06270000  1.0 0.1195504993
H  H924  1  0.21600000  0.04690000  0.43730000  1.0 0.1195504993
H  H925  1  0.06270000  0.71600000  0.04690000  1.0 0.1195504993
H  H926  1  0.43730000  0.28400000  0.54690000  1.0 0.1195504993
H  H927  1  0.93730000  0.21600000  0.45310000  1.0 0.1195504993
H  H928  1  0.56270000  0.78400000  0.95310000  1.0 0.1195504993
H  H929  1  0.04690000  0.06270000  0.71600000  1.0 0.1195504993
H  H930  1  0.54690000  0.43730000  0.28400000  1.0 0.1195504993
H  H931  1  0.45310000  0.93730000  0.21600000  1.0 0.1195504993
H  H932  1  0.95310000  0.56270000  0.78400000  1.0 0.1195504993
H  H933  1  0.71600000  0.04690000  0.06270000  1.0 0.1195504993
H  H934  1  0.28400000  0.54690000  0.43730000  1.0 0.1195504993
H  H935  1  0.21600000  0.45310000  0.93730000  1.0 0.1195504993
H  H936  1  0.78400000  0.95310000  0.56270000  1.0 0.1195504993
H  H937  1  0.98300000  0.29300000  0.94640000  1.0 0.1091847888
H  H938  1  0.51700000  0.70700000  0.44640000  1.0 0.1091847888
H  H939  1  0.01700000  0.79300000  0.55360000  1.0 0.1091847888
H  H940  1  0.48300000  0.20700000  0.05360000  1.0 0.1091847888
H  H941  1  0.94640000  0.98300000  0.29300000  1.0 0.1091847888
H  H942  1  0.44640000  0.51700000  0.70700000  1.0 0.1091847888
H  H943  1  0.55360000  0.01700000  0.79300000  1.0 0.1091847888
H  H944  1  0.05360000  0.48300000  0.20700000  1.0 0.1091847888
H  H945  1  0.29300000  0.94640000  0.98300000  1.0 0.1091847888
H  H946  1  0.70700000  0.44640000  0.51700000  1.0 0.1091847888
H  H947  1  0.79300000  0.55360000  0.01700000  1.0 0.1091847888
H  H948  1  0.20700000  0.05360000  0.48300000  1.0 0.1091847888
H  H949  1  0.01700000  0.70700000  0.05360000  1.0 0.1091847888
H  H950  1  0.48300000  0.29300000  0.55360000  1.0 0.1091847888
H  H951  1  0.98300000  0.20700000  0.44640000  1.0 0.1091847888
H  H952  1  0.51700000  0.79300000  0.94640000  1.0 0.1091847888
H  H953  1  0.05360000  0.01700000  0.70700000  1.0 0.1091847888
H  H954  1  0.55360000  0.48300000  0.29300000  1.0 0.1091847888
H  H955  1  0.44640000  0.98300000  0.20700000  1.0 0.1091847888
H  H956  1  0.94640000  0.51700000  0.79300000  1.0 0.1091847888
H  H957  1  0.70700000  0.05360000  0.01700000  1.0 0.1091847888
H  H958  1  0.29300000  0.55360000  0.48300000  1.0 0.1091847888
H  H959  1  0.20700000  0.44640000  0.98300000  1.0 0.1091847888
H  H960  1  0.79300000  0.94640000  0.51700000  1.0 0.1091847888
H  H961  1  0.14360000  0.38380000  0.16450000  1.0 0.1195504993
H  H962  1  0.35640000  0.61620000  0.66450000  1.0 0.1195504993
H  H963  1  0.85640000  0.88380000  0.33550000  1.0 0.1195504993
H  H964  1  0.64360000  0.11620000  0.83550000  1.0 0.1195504993
H  H965  1  0.16450000  0.14360000  0.38380000  1.0 0.1195504993
H  H966  1  0.66450000  0.35640000  0.61620000  1.0 0.1195504993
H  H967  1  0.33550000  0.85640000  0.88380000  1.0 0.1195504993
H  H968  1  0.83550000  0.64360000  0.11620000  1.0 0.1195504993
H  H969  1  0.38380000  0.16450000  0.14360000  1.0 0.1195504993
H  H970  1  0.61620000  0.66450000  0.35640000  1.0 0.1195504993
H  H971  1  0.88380000  0.33550000  0.85640000  1.0 0.1195504993
H  H972  1  0.11620000  0.83550000  0.64360000  1.0 0.1195504993
H  H973  1  0.85640000  0.61620000  0.83550000  1.0 0.1195504993
H  H974  1  0.64360000  0.38380000  0.33550000  1.0 0.1195504993
H  H975  1  0.14360000  0.11620000  0.66450000  1.0 0.1195504993
H  H976  1  0.35640000  0.88380000  0.16450000  1.0 0.1195504993
H  H977  1  0.83550000  0.85640000  0.61620000  1.0 0.1195504993
H  H978  1  0.33550000  0.64360000  0.38380000  1.0 0.1195504993
H  H979  1  0.66450000  0.14360000  0.11620000  1.0 0.1195504993
H  H980  1  0.16450000  0.35640000  0.88380000  1.0 0.1195504993
H  H981  1  0.61620000  0.83550000  0.85640000  1.0 0.1195504993
H  H982  1  0.38380000  0.33550000  0.64360000  1.0 0.1195504993
H  H983  1  0.11620000  0.66450000  0.14360000  1.0 0.1195504993
H  H984  1  0.88380000  0.16450000  0.35640000  1.0 0.1195504993
H  H985  1  0.12410000  0.38970000  0.20680000  1.0 0.1303111883
H  H986  1  0.37590000  0.61030000  0.70680000  1.0 0.1303111883
H  H987  1  0.87590000  0.88970000  0.29320000  1.0 0.1303111883
H  H988  1  0.62410000  0.11030000  0.79320000  1.0 0.1303111883
H  H989  1  0.20680000  0.12410000  0.38970000  1.0 0.1303111883
H  H990  1  0.70680000  0.37590000  0.61030000  1.0 0.1303111883
H  H991  1  0.29320000  0.87590000  0.88970000  1.0 0.1303111883
H  H992  1  0.79320000  0.62410000  0.11030000  1.0 0.1303111883
H  H993  1  0.38970000  0.20680000  0.12410000  1.0 0.1303111883
H  H994  1  0.61030000  0.70680000  0.37590000  1.0 0.1303111883
H  H995  1  0.88970000  0.29320000  0.87590000  1.0 0.1303111883
H  H996  1  0.11030000  0.79320000  0.62410000  1.0 0.1303111883
H  H997  1  0.87590000  0.61030000  0.79320000  1.0 0.1303111883
H  H998  1  0.62410000  0.38970000  0.29320000  1.0 0.1303111883
H  H999  1  0.12410000  0.11030000  0.70680000  1.0 0.1303111883
H  H1000  1  0.37590000  0.88970000  0.20680000  1.0 0.1303111883
H  H1001  1  0.79320000  0.87590000  0.61030000  1.0 0.1303111883
H  H1002  1  0.29320000  0.62410000  0.38970000  1.0 0.1303111883
H  H1003  1  0.70680000  0.12410000  0.11030000  1.0 0.1303111883
H  H1004  1  0.20680000  0.37590000  0.88970000  1.0 0.1303111883
H  H1005  1  0.61030000  0.79320000  0.87590000  1.0 0.1303111883
H  H1006  1  0.38970000  0.29320000  0.62410000  1.0 0.1303111883
H  H1007  1  0.11030000  0.70680000  0.12410000  1.0 0.1303111883
H  H1008  1  0.88970000  0.20680000  0.37590000  1.0 0.1303111883
H  H1009  1  0.18810000  0.37410000  0.21860000  1.0 0.1195504993
H  H1010  1  0.31190000  0.62590000  0.71860000  1.0 0.1195504993
H  H1011  1  0.81190000  0.87410000  0.28140000  1.0 0.1195504993
H  H1012  1  0.68810000  0.12590000  0.78140000  1.0 0.1195504993
H  H1013  1  0.21860000  0.18810000  0.37410000  1.0 0.1195504993
H  H1014  1  0.71860000  0.31190000  0.62590000  1.0 0.1195504993
H  H1015  1  0.28140000  0.81190000  0.87410000  1.0 0.1195504993
H  H1016  1  0.78140000  0.68810000  0.12590000  1.0 0.1195504993
H  H1017  1  0.37410000  0.21860000  0.18810000  1.0 0.1195504993
H  H1018  1  0.62590000  0.71860000  0.31190000  1.0 0.1195504993
H  H1019  1  0.87410000  0.28140000  0.81190000  1.0 0.1195504993
H  H1020  1  0.12590000  0.78140000  0.68810000  1.0 0.1195504993
H  H1021  1  0.81190000  0.62590000  0.78140000  1.0 0.1195504993
H  H1022  1  0.68810000  0.37410000  0.28140000  1.0 0.1195504993
H  H1023  1  0.18810000  0.12590000  0.71860000  1.0 0.1195504993
H  H1024  1  0.31190000  0.87410000  0.21860000  1.0 0.1195504993
H  H1025  1  0.78140000  0.81190000  0.62590000  1.0 0.1195504993
H  H1026  1  0.28140000  0.68810000  0.37410000  1.0 0.1195504993
H  H1027  1  0.71860000  0.18810000  0.12590000  1.0 0.1195504993
H  H1028  1  0.21860000  0.31190000  0.87410000  1.0 0.1195504993
H  H1029  1  0.62590000  0.78140000  0.81190000  1.0 0.1195504993
H  H1030  1  0.37410000  0.28140000  0.68810000  1.0 0.1195504993
H  H1031  1  0.12590000  0.71860000  0.18810000  1.0 0.1195504993
H  H1032  1  0.87410000  0.21860000  0.31190000  1.0 0.1195504993
H  H1033  1  0.18740000  0.33860000  0.18770000  1.0 0.1091847888
H  H1034  1  0.31260000  0.66140000  0.68770000  1.0 0.1091847888
H  H1035  1  0.81260000  0.83860000  0.31230000  1.0 0.1091847888
H  H1036  1  0.68740000  0.16140000  0.81230000  1.0 0.1091847888
H  H1037  1  0.18770000  0.18740000  0.33860000  1.0 0.1091847888
H  H1038  1  0.68770000  0.31260000  0.66140000  1.0 0.1091847888
H  H1039  1  0.31230000  0.81260000  0.83860000  1.0 0.1091847888
H  H1040  1  0.81230000  0.68740000  0.16140000  1.0 0.1091847888
H  H1041  1  0.33860000  0.18770000  0.18740000  1.0 0.1091847888
H  H1042  1  0.66140000  0.68770000  0.31260000  1.0 0.1091847888
H  H1043  1  0.83860000  0.31230000  0.81260000  1.0 0.1091847888
H  H1044  1  0.16140000  0.81230000  0.68740000  1.0 0.1091847888
H  H1045  1  0.81260000  0.66140000  0.81230000  1.0 0.1091847888
H  H1046  1  0.68740000  0.33860000  0.31230000  1.0 0.1091847888
H  H1047  1  0.18740000  0.16140000  0.68770000  1.0 0.1091847888
H  H1048  1  0.31260000  0.83860000  0.18770000  1.0 0.1091847888
H  H1049  1  0.81230000  0.81260000  0.66140000  1.0 0.1091847888
H  H1050  1  0.31230000  0.68740000  0.33860000  1.0 0.1091847888
H  H1051  1  0.68770000  0.18740000  0.16140000  1.0 0.1091847888
H  H1052  1  0.18770000  0.31260000  0.83860000  1.0 0.1091847888
H  H1053  1  0.66140000  0.81230000  0.81260000  1.0 0.1091847888
H  H1054  1  0.33860000  0.31230000  0.68740000  1.0 0.1091847888
H  H1055  1  0.16140000  0.68770000  0.18740000  1.0 0.1091847888
H  H1056  1  0.83860000  0.18770000  0.31260000  1.0 0.1091847888
H  H1057  1  0.17720000  0.33050000  0.26370000  1.0 0.1195504993
H  H1058  1  0.32280000  0.66950000  0.76370000  1.0 0.1195504993
H  H1059  1  0.82280000  0.83050000  0.23630000  1.0 0.1195504993
H  H1060  1  0.67720000  0.16950000  0.73630000  1.0 0.1195504993
H  H1061  1  0.26370000  0.17720000  0.33050000  1.0 0.1195504993
H  H1062  1  0.76370000  0.32280000  0.66950000  1.0 0.1195504993
H  H1063  1  0.23630000  0.82280000  0.83050000  1.0 0.1195504993
H  H1064  1  0.73630000  0.67720000  0.16950000  1.0 0.1195504993
H  H1065  1  0.33050000  0.26370000  0.17720000  1.0 0.1195504993
H  H1066  1  0.66950000  0.76370000  0.32280000  1.0 0.1195504993
H  H1067  1  0.83050000  0.23630000  0.82280000  1.0 0.1195504993
H  H1068  1  0.16950000  0.73630000  0.67720000  1.0 0.1195504993
H  H1069  1  0.82280000  0.66950000  0.73630000  1.0 0.1195504993
H  H1070  1  0.67720000  0.33050000  0.23630000  1.0 0.1195504993
H  H1071  1  0.17720000  0.16950000  0.76370000  1.0 0.1195504993
H  H1072  1  0.32280000  0.83050000  0.26370000  1.0 0.1195504993
H  H1073  1  0.73630000  0.82280000  0.66950000  1.0 0.1195504993
H  H1074  1  0.23630000  0.67720000  0.33050000  1.0 0.1195504993
H  H1075  1  0.76370000  0.17720000  0.16950000  1.0 0.1195504993
H  H1076  1  0.26370000  0.32280000  0.83050000  1.0 0.1195504993
H  H1077  1  0.66950000  0.73630000  0.82280000  1.0 0.1195504993
H  H1078  1  0.33050000  0.23630000  0.67720000  1.0 0.1195504993
H  H1079  1  0.16950000  0.76370000  0.17720000  1.0 0.1195504993
H  H1080  1  0.83050000  0.26370000  0.32280000  1.0 0.1195504993
H  H1081  1  0.16740000  0.29740000  0.23190000  1.0 0.092274618
H  H1082  1  0.33260000  0.70260000  0.73190000  1.0 0.092274618
H  H1083  1  0.83260000  0.79740000  0.26810000  1.0 0.092274618
H  H1084  1  0.66740000  0.20260000  0.76810000  1.0 0.092274618
H  H1085  1  0.23190000  0.16740000  0.29740000  1.0 0.092274618
H  H1086  1  0.73190000  0.33260000  0.70260000  1.0 0.092274618
H  H1087  1  0.26810000  0.83260000  0.79740000  1.0 0.092274618
H  H1088  1  0.76810000  0.66740000  0.20260000  1.0 0.092274618
H  H1089  1  0.29740000  0.23190000  0.16740000  1.0 0.092274618
H  H1090  1  0.70260000  0.73190000  0.33260000  1.0 0.092274618
H  H1091  1  0.79740000  0.26810000  0.83260000  1.0 0.092274618
H  H1092  1  0.20260000  0.76810000  0.66740000  1.0 0.092274618
H  H1093  1  0.83260000  0.70260000  0.76810000  1.0 0.092274618
H  H1094  1  0.66740000  0.29740000  0.26810000  1.0 0.092274618
H  H1095  1  0.16740000  0.20260000  0.73190000  1.0 0.092274618
H  H1096  1  0.33260000  0.79740000  0.23190000  1.0 0.092274618
H  H1097  1  0.76810000  0.83260000  0.70260000  1.0 0.092274618
H  H1098  1  0.26810000  0.66740000  0.29740000  1.0 0.092274618
H  H1099  1  0.73190000  0.16740000  0.20260000  1.0 0.092274618
H  H1100  1  0.23190000  0.33260000  0.79740000  1.0 0.092274618
H  H1101  1  0.70260000  0.76810000  0.83260000  1.0 0.092274618
H  H1102  1  0.29740000  0.26810000  0.66740000  1.0 0.092274618
H  H1103  1  0.20260000  0.73190000  0.16740000  1.0 0.092274618
H  H1104  1  0.79740000  0.23190000  0.33260000  1.0 0.092274618
H  H1105  1  0.11210000  0.30690000  0.27460000  1.0 0.1195504993
H  H1106  1  0.38790000  0.69310000  0.77460000  1.0 0.1195504993
H  H1107  1  0.88790000  0.80690000  0.22540000  1.0 0.1195504993
H  H1108  1  0.61210000  0.19310000  0.72540000  1.0 0.1195504993
H  H1109  1  0.27460000  0.11210000  0.30690000  1.0 0.1195504993
H  H1110  1  0.77460000  0.38790000  0.69310000  1.0 0.1195504993
H  H1111  1  0.22540000  0.88790000  0.80690000  1.0 0.1195504993
H  H1112  1  0.72540000  0.61210000  0.19310000  1.0 0.1195504993
H  H1113  1  0.30690000  0.27460000  0.11210000  1.0 0.1195504993
H  H1114  1  0.69310000  0.77460000  0.38790000  1.0 0.1195504993
H  H1115  1  0.80690000  0.22540000  0.88790000  1.0 0.1195504993
H  H1116  1  0.19310000  0.72540000  0.61210000  1.0 0.1195504993
H  H1117  1  0.88790000  0.69310000  0.72540000  1.0 0.1195504993
H  H1118  1  0.61210000  0.30690000  0.22540000  1.0 0.1195504993
H  H1119  1  0.11210000  0.19310000  0.77460000  1.0 0.1195504993
H  H1120  1  0.38790000  0.80690000  0.27460000  1.0 0.1195504993
H  H1121  1  0.72540000  0.88790000  0.69310000  1.0 0.1195504993
H  H1122  1  0.22540000  0.61210000  0.30690000  1.0 0.1195504993
H  H1123  1  0.77460000  0.11210000  0.19310000  1.0 0.1195504993
H  H1124  1  0.27460000  0.38790000  0.80690000  1.0 0.1195504993
H  H1125  1  0.69310000  0.72540000  0.88790000  1.0 0.1195504993
H  H1126  1  0.30690000  0.22540000  0.61210000  1.0 0.1195504993
H  H1127  1  0.19310000  0.77460000  0.11210000  1.0 0.1195504993
H  H1128  1  0.80690000  0.27460000  0.38790000  1.0 0.1195504993
H  H1129  1  0.10970000  0.35230000  0.26190000  1.0 0.1303111883
H  H1130  1  0.39030000  0.64770000  0.76190000  1.0 0.1303111883
H  H1131  1  0.89030000  0.85230000  0.23810000  1.0 0.1303111883
H  H1132  1  0.60970000  0.14770000  0.73810000  1.0 0.1303111883
H  H1133  1  0.26190000  0.10970000  0.35230000  1.0 0.1303111883
H  H1134  1  0.76190000  0.39030000  0.64770000  1.0 0.1303111883
H  H1135  1  0.23810000  0.89030000  0.85230000  1.0 0.1303111883
H  H1136  1  0.73810000  0.60970000  0.14770000  1.0 0.1303111883
H  H1137  1  0.35230000  0.26190000  0.10970000  1.0 0.1303111883
H  H1138  1  0.64770000  0.76190000  0.39030000  1.0 0.1303111883
H  H1139  1  0.85230000  0.23810000  0.89030000  1.0 0.1303111883
H  H1140  1  0.14770000  0.73810000  0.60970000  1.0 0.1303111883
H  H1141  1  0.89030000  0.64770000  0.73810000  1.0 0.1303111883
H  H1142  1  0.60970000  0.35230000  0.23810000  1.0 0.1303111883
H  H1143  1  0.10970000  0.14770000  0.76190000  1.0 0.1303111883
H  H1144  1  0.39030000  0.85230000  0.26190000  1.0 0.1303111883
H  H1145  1  0.73810000  0.89030000  0.64770000  1.0 0.1303111883
H  H1146  1  0.23810000  0.60970000  0.35230000  1.0 0.1303111883
H  H1147  1  0.76190000  0.10970000  0.14770000  1.0 0.1303111883
H  H1148  1  0.26190000  0.39030000  0.85230000  1.0 0.1303111883
H  H1149  1  0.64770000  0.73810000  0.89030000  1.0 0.1303111883
H  H1150  1  0.35230000  0.23810000  0.60970000  1.0 0.1303111883
H  H1151  1  0.14770000  0.76190000  0.10970000  1.0 0.1303111883
H  H1152  1  0.85230000  0.26190000  0.39030000  1.0 0.1303111883
C  C1  1  0.04805000  0.18792000  0.20530000  1.0 0.5477102032
C  C2  1  0.45195000  0.81208000  0.70530000  1.0 0.5477102032
C  C3  1  0.95195000  0.68792000  0.29470000  1.0 0.5477102032
C  C4  1  0.54805000  0.31208000  0.79470000  1.0 0.5477102032
C  C5  1  0.20530000  0.04805000  0.18792000  1.0 0.5477102032
C  C6  1  0.70530000  0.45195000  0.81208000  1.0 0.5477102032
C  C7  1  0.29470000  0.95195000  0.68792000  1.0 0.5477102032
C  C8  1  0.79470000  0.54805000  0.31208000  1.0 0.5477102032
C  C9  1  0.18792000  0.20530000  0.04805000  1.0 0.5477102032
C  C10  1  0.81208000  0.70530000  0.45195000  1.0 0.5477102032
C  C11  1  0.68792000  0.29470000  0.95195000  1.0 0.5477102032
C  C12  1  0.31208000  0.79470000  0.54805000  1.0 0.5477102032
C  C13  1  0.95195000  0.81208000  0.79470000  1.0 0.5477102032
C  C14  1  0.54805000  0.18792000  0.29470000  1.0 0.5477102032
C  C15  1  0.04805000  0.31208000  0.70530000  1.0 0.5477102032
C  C16  1  0.45195000  0.68792000  0.20530000  1.0 0.5477102032
C  C17  1  0.79470000  0.95195000  0.81208000  1.0 0.5477102032
C  C18  1  0.29470000  0.54805000  0.18792000  1.0 0.5477102032
C  C19  1  0.70530000  0.04805000  0.31208000  1.0 0.5477102032
C  C20  1  0.20530000  0.45195000  0.68792000  1.0 0.5477102032
C  C21  1  0.81208000  0.79470000  0.95195000  1.0 0.5477102032
C  C22  1  0.18792000  0.29470000  0.54805000  1.0 0.5477102032
C  C23  1  0.31208000  0.70530000  0.04805000  1.0 0.5477102032
C  C24  1  0.68792000  0.20530000  0.45195000  1.0 0.5477102032
C  C25  1  0.02527000  0.23016000  0.25626000  1.0 0.2373521271
C  C26  1  0.47473000  0.76984000  0.75626000  1.0 0.2373521271
C  C27  1  0.97473000  0.73016000  0.24374000  1.0 0.2373521271
C  C28  1  0.52527000  0.26984000  0.74374000  1.0 0.2373521271
C  C29  1  0.25626000  0.02527000  0.23016000  1.0 0.2373521271
C  C30  1  0.75626000  0.47473000  0.76984000  1.0 0.2373521271
C  C31  1  0.24374000  0.97473000  0.73016000  1.0 0.2373521271
C  C32  1  0.74374000  0.52527000  0.26984000  1.0 0.2373521271
C  C33  1  0.23016000  0.25626000  0.02527000  1.0 0.2373521271
C  C34  1  0.76984000  0.75626000  0.47473000  1.0 0.2373521271
C  C35  1  0.73016000  0.24374000  0.97473000  1.0 0.2373521271
C  C36  1  0.26984000  0.74374000  0.52527000  1.0 0.2373521271
C  C37  1  0.97473000  0.76984000  0.74374000  1.0 0.2373521271
C  C38  1  0.52527000  0.23016000  0.24374000  1.0 0.2373521271
C  C39  1  0.02527000  0.26984000  0.75626000  1.0 0.2373521271
C  C40  1  0.47473000  0.73016000  0.25626000  1.0 0.2373521271
C  C41  1  0.74374000  0.97473000  0.76984000  1.0 0.2373521271
C  C42  1  0.24374000  0.52527000  0.23016000  1.0 0.2373521271
C  C43  1  0.75626000  0.02527000  0.26984000  1.0 0.2373521271
C  C44  1  0.25626000  0.47473000  0.73016000  1.0 0.2373521271
C  C45  1  0.76984000  0.74374000  0.97473000  1.0 0.2373521271
C  C46  1  0.23016000  0.24374000  0.52527000  1.0 0.2373521271
C  C47  1  0.26984000  0.75626000  0.02527000  1.0 0.2373521271
C  C48  1  0.73016000  0.25626000  0.47473000  1.0 0.2373521271
C  C49  1  0.99131000  0.19989000  0.24536000  1.0 0.2512788393
C  C50  1  0.50869000  0.80011000  0.74536000  1.0 0.2512788393
C  C51  1  0.00869000  0.69989000  0.25464000  1.0 0.2512788393
C  C52  1  0.49131000  0.30011000  0.75464000  1.0 0.2512788393
C  C53  1  0.24536000  0.99131000  0.19989000  1.0 0.2512788393
C  C54  1  0.74536000  0.50869000  0.80011000  1.0 0.2512788393
C  C55  1  0.25464000  0.00869000  0.69989000  1.0 0.2512788393
C  C56  1  0.75464000  0.49131000  0.30011000  1.0 0.2512788393
C  C57  1  0.19989000  0.24536000  0.99131000  1.0 0.2512788393
C  C58  1  0.80011000  0.74536000  0.50869000  1.0 0.2512788393
C  C59  1  0.69989000  0.25464000  0.00869000  1.0 0.2512788393
C  C60  1  0.30011000  0.75464000  0.49131000  1.0 0.2512788393
C  C61  1  0.00869000  0.80011000  0.75464000  1.0 0.2512788393
C  C62  1  0.49131000  0.19989000  0.25464000  1.0 0.2512788393
C  C63  1  0.99131000  0.30011000  0.74536000  1.0 0.2512788393
C  C64  1  0.50869000  0.69989000  0.24536000  1.0 0.2512788393
C  C65  1  0.75464000  0.00869000  0.80011000  1.0 0.2512788393
C  C66  1  0.25464000  0.49131000  0.19989000  1.0 0.2512788393
C  C67  1  0.74536000  0.99131000  0.30011000  1.0 0.2512788393
C  C68  1  0.24536000  0.50869000  0.69989000  1.0 0.2512788393
C  C69  1  0.80011000  0.75464000  0.00869000  1.0 0.2512788393
C  C70  1  0.19989000  0.25464000  0.49131000  1.0 0.2512788393
C  C71  1  0.30011000  0.74536000  0.99131000  1.0 0.2512788393
C  C72  1  0.69989000  0.24536000  0.50869000  1.0 0.2512788393
C  C73  1  0.96772000  0.26535000  0.23321000  1.0 0.5477102032
C  C74  1  0.53228000  0.73465000  0.73321000  1.0 0.5477102032
C  C75  1  0.03228000  0.76535000  0.26679000  1.0 0.5477102032
C  C76  1  0.46772000  0.23465000  0.76679000  1.0 0.5477102032
C  C77  1  0.23321000  0.96772000  0.26535000  1.0 0.5477102032
C  C78  1  0.73321000  0.53228000  0.73465000  1.0 0.5477102032
C  C79  1  0.26679000  0.03228000  0.76535000  1.0 0.5477102032
C  C80  1  0.76679000  0.46772000  0.23465000  1.0 0.5477102032
C  C81  1  0.26535000  0.23321000  0.96772000  1.0 0.5477102032
C  C82  1  0.73465000  0.73321000  0.53228000  1.0 0.5477102032
C  C83  1  0.76535000  0.26679000  0.03228000  1.0 0.5477102032
C  C84  1  0.23465000  0.76679000  0.46772000  1.0 0.5477102032
C  C85  1  0.03228000  0.73465000  0.76679000  1.0 0.5477102032
C  C86  1  0.46772000  0.26535000  0.26679000  1.0 0.5477102032
C  C87  1  0.96772000  0.23465000  0.73321000  1.0 0.5477102032
C  C88  1  0.53228000  0.76535000  0.23321000  1.0 0.5477102032
C  C89  1  0.76679000  0.03228000  0.73465000  1.0 0.5477102032
C  C90  1  0.26679000  0.46772000  0.26535000  1.0 0.5477102032
C  C91  1  0.73321000  0.96772000  0.23465000  1.0 0.5477102032
C  C92  1  0.23321000  0.53228000  0.76535000  1.0 0.5477102032
C  C93  1  0.73465000  0.76679000  0.03228000  1.0 0.5477102032
C  C94  1  0.26535000  0.26679000  0.46772000  1.0 0.5477102032
C  C95  1  0.23465000  0.73321000  0.96772000  1.0 0.5477102032
C  C96  1  0.76535000  0.23321000  0.53228000  1.0 0.5477102032
C  C97  1  0.99118000  0.14196000  0.19260000  1.0 0.0385522709
C  C98  1  0.50882000  0.85804000  0.69260000  1.0 0.0385522709
C  C99  1  0.00882000  0.64196000  0.30740000  1.0 0.0385522709
C  C100  1  0.49118000  0.35804000  0.80740000  1.0 0.0385522709
C  C101  1  0.19260000  0.99118000  0.14196000  1.0 0.0385522709
C  C102  1  0.69260000  0.50882000  0.85804000  1.0 0.0385522709
C  C103  1  0.30740000  0.00882000  0.64196000  1.0 0.0385522709
C  C104  1  0.80740000  0.49118000  0.35804000  1.0 0.0385522709
C  C105  1  0.14196000  0.19260000  0.99118000  1.0 0.0385522709
C  C106  1  0.85804000  0.69260000  0.50882000  1.0 0.0385522709
C  C107  1  0.64196000  0.30740000  0.00882000  1.0 0.0385522709
C  C108  1  0.35804000  0.80740000  0.49118000  1.0 0.0385522709
C  C109  1  0.00882000  0.85804000  0.80740000  1.0 0.0385522709
C  C110  1  0.49118000  0.14196000  0.30740000  1.0 0.0385522709
C  C111  1  0.99118000  0.35804000  0.69260000  1.0 0.0385522709
C  C112  1  0.50882000  0.64196000  0.19260000  1.0 0.0385522709
C  C113  1  0.80740000  0.00882000  0.85804000  1.0 0.0385522709
C  C114  1  0.30740000  0.49118000  0.14196000  1.0 0.0385522709
C  C115  1  0.69260000  0.99118000  0.35804000  1.0 0.0385522709
C  C116  1  0.19260000  0.50882000  0.64196000  1.0 0.0385522709
C  C117  1  0.85804000  0.80740000  0.00882000  1.0 0.0385522709
C  C118  1  0.14196000  0.30740000  0.49118000  1.0 0.0385522709
C  C119  1  0.35804000  0.69260000  0.99118000  1.0 0.0385522709
C  C120  1  0.64196000  0.19260000  0.50882000  1.0 0.0385522709
C  C121  1  0.92012000  0.21180000  0.21598000  1.0 0.0296208982
C  C122  1  0.57988000  0.78820000  0.71598000  1.0 0.0296208982
C  C123  1  0.07988000  0.71180000  0.28402000  1.0 0.0296208982
C  C124  1  0.42012000  0.28820000  0.78402000  1.0 0.0296208982
C  C125  1  0.21598000  0.92012000  0.21180000  1.0 0.0296208982
C  C126  1  0.71598000  0.57988000  0.78820000  1.0 0.0296208982
C  C127  1  0.28402000  0.07988000  0.71180000  1.0 0.0296208982
C  C128  1  0.78402000  0.42012000  0.28820000  1.0 0.0296208982
C  C129  1  0.21180000  0.21598000  0.92012000  1.0 0.0296208982
C  C130  1  0.78820000  0.71598000  0.57988000  1.0 0.0296208982
C  C131  1  0.71180000  0.28402000  0.07988000  1.0 0.0296208982
C  C132  1  0.28820000  0.78402000  0.42012000  1.0 0.0296208982
C  C133  1  0.07988000  0.78820000  0.78402000  1.0 0.0296208982
C  C134  1  0.42012000  0.21180000  0.28402000  1.0 0.0296208982
C  C135  1  0.92012000  0.28820000  0.71598000  1.0 0.0296208982
C  C136  1  0.57988000  0.71180000  0.21598000  1.0 0.0296208982
C  C137  1  0.78402000  0.07988000  0.78820000  1.0 0.0296208982
C  C138  1  0.28402000  0.42012000  0.21180000  1.0 0.0296208982
C  C139  1  0.71598000  0.92012000  0.28820000  1.0 0.0296208982
C  C140  1  0.21598000  0.57988000  0.71180000  1.0 0.0296208982
C  C141  1  0.78820000  0.78402000  0.07988000  1.0 0.0296208982
C  C142  1  0.21180000  0.28402000  0.42012000  1.0 0.0296208982
C  C143  1  0.28820000  0.71598000  0.92012000  1.0 0.0296208982
C  C144  1  0.71180000  0.21598000  0.57988000  1.0 0.0296208982
C  C145  1  0.98533000  0.15177000  0.11894000  1.0 0.5333310421
C  C146  1  0.51467000  0.84823000  0.61894000  1.0 0.5333310421
C  C147  1  0.01467000  0.65177000  0.38106000  1.0 0.5333310421
C  C148  1  0.48533000  0.34823000  0.88106000  1.0 0.5333310421
C  C149  1  0.11894000  0.98533000  0.15177000  1.0 0.5333310421
C  C150  1  0.61894000  0.51467000  0.84823000  1.0 0.5333310421
C  C151  1  0.38106000  0.01467000  0.65177000  1.0 0.5333310421
C  C152  1  0.88106000  0.48533000  0.34823000  1.0 0.5333310421
C  C153  1  0.15177000  0.11894000  0.98533000  1.0 0.5333310421
C  C154  1  0.84823000  0.61894000  0.51467000  1.0 0.5333310421
C  C155  1  0.65177000  0.38106000  0.01467000  1.0 0.5333310421
C  C156  1  0.34823000  0.88106000  0.48533000  1.0 0.5333310421
C  C157  1  0.01467000  0.84823000  0.88106000  1.0 0.5333310421
C  C158  1  0.48533000  0.15177000  0.38106000  1.0 0.5333310421
C  C159  1  0.98533000  0.34823000  0.61894000  1.0 0.5333310421
C  C160  1  0.51467000  0.65177000  0.11894000  1.0 0.5333310421
C  C161  1  0.88106000  0.01467000  0.84823000  1.0 0.5333310421
C  C162  1  0.38106000  0.48533000  0.15177000  1.0 0.5333310421
C  C163  1  0.61894000  0.98533000  0.34823000  1.0 0.5333310421
C  C164  1  0.11894000  0.51467000  0.65177000  1.0 0.5333310421
C  C165  1  0.84823000  0.88106000  0.01467000  1.0 0.5333310421
C  C166  1  0.15177000  0.38106000  0.48533000  1.0 0.5333310421
C  C167  1  0.34823000  0.61894000  0.98533000  1.0 0.5333310421
C  C168  1  0.65177000  0.11894000  0.51467000  1.0 0.5333310421
C  C169  1  0.92837000  0.16497000  0.15633000  1.0 0.092274618
C  C170  1  0.57163000  0.83503000  0.65633000  1.0 0.092274618
C  C171  1  0.07163000  0.66497000  0.34367000  1.0 0.092274618
C  C172  1  0.42837000  0.33503000  0.84367000  1.0 0.092274618
C  C173  1  0.15633000  0.92837000  0.16497000  1.0 0.092274618
C  C174  1  0.65633000  0.57163000  0.83503000  1.0 0.092274618
C  C175  1  0.34367000  0.07163000  0.66497000  1.0 0.092274618
C  C176  1  0.84367000  0.42837000  0.33503000  1.0 0.092274618
C  C177  1  0.16497000  0.15633000  0.92837000  1.0 0.092274618
C  C178  1  0.83503000  0.65633000  0.57163000  1.0 0.092274618
C  C179  1  0.66497000  0.34367000  0.07163000  1.0 0.092274618
C  C180  1  0.33503000  0.84367000  0.42837000  1.0 0.092274618
C  C181  1  0.07163000  0.83503000  0.84367000  1.0 0.092274618
C  C182  1  0.42837000  0.16497000  0.34367000  1.0 0.092274618
C  C183  1  0.92837000  0.33503000  0.65633000  1.0 0.092274618
C  C184  1  0.57163000  0.66497000  0.15633000  1.0 0.092274618
C  C185  1  0.84367000  0.07163000  0.83503000  1.0 0.092274618
C  C186  1  0.34367000  0.42837000  0.16497000  1.0 0.092274618
C  C187  1  0.65633000  0.92837000  0.33503000  1.0 0.092274618
C  C188  1  0.15633000  0.57163000  0.66497000  1.0 0.092274618
C  C189  1  0.83503000  0.84367000  0.07163000  1.0 0.092274618
C  C190  1  0.16497000  0.34367000  0.42837000  1.0 0.092274618
C  C191  1  0.33503000  0.65633000  0.92837000  1.0 0.092274618
C  C192  1  0.66497000  0.15633000  0.57163000  1.0 0.092274618
C  C193  1  0.91968000  0.17070000  0.11167000  1.0 0.092274618
C  C194  1  0.58032000  0.82930000  0.61167000  1.0 0.092274618
C  C195  1  0.08032000  0.67070000  0.38833000  1.0 0.092274618
C  C196  1  0.41968000  0.32930000  0.88833000  1.0 0.092274618
C  C197  1  0.11167000  0.91968000  0.17070000  1.0 0.092274618
C  C198  1  0.61167000  0.58032000  0.82930000  1.0 0.092274618
C  C199  1  0.38833000  0.08032000  0.67070000  1.0 0.092274618
C  C200  1  0.88833000  0.41968000  0.32930000  1.0 0.092274618
C  C201  1  0.17070000  0.11167000  0.91968000  1.0 0.092274618
C  C202  1  0.82930000  0.61167000  0.58032000  1.0 0.092274618
C  C203  1  0.67070000  0.38833000  0.08032000  1.0 0.092274618
C  C204  1  0.32930000  0.88833000  0.41968000  1.0 0.092274618
C  C205  1  0.08032000  0.82930000  0.88833000  1.0 0.092274618
C  C206  1  0.41968000  0.17070000  0.38833000  1.0 0.092274618
C  C207  1  0.91968000  0.32930000  0.61167000  1.0 0.092274618
C  C208  1  0.58032000  0.67070000  0.11167000  1.0 0.092274618
C  C209  1  0.88833000  0.08032000  0.82930000  1.0 0.092274618
C  C210  1  0.38833000  0.41968000  0.17070000  1.0 0.092274618
C  C211  1  0.61167000  0.91968000  0.32930000  1.0 0.092274618
C  C212  1  0.11167000  0.58032000  0.67070000  1.0 0.092274618
C  C213  1  0.82930000  0.88833000  0.08032000  1.0 0.092274618
C  C214  1  0.17070000  0.38833000  0.41968000  1.0 0.092274618
C  C215  1  0.32930000  0.61167000  0.91968000  1.0 0.092274618
C  C216  1  0.67070000  0.11167000  0.58032000  1.0 0.092274618
C  C217  1  0.90445000  0.22999000  0.14617000  1.0 0.5411025676
C  C218  1  0.59555000  0.77001000  0.64617000  1.0 0.5411025676
C  C219  1  0.09555000  0.72999000  0.35383000  1.0 0.5411025676
C  C220  1  0.40445000  0.27001000  0.85383000  1.0 0.5411025676
C  C221  1  0.14617000  0.90445000  0.22999000  1.0 0.5411025676
C  C222  1  0.64617000  0.59555000  0.77001000  1.0 0.5411025676
C  C223  1  0.35383000  0.09555000  0.72999000  1.0 0.5411025676
C  C224  1  0.85383000  0.40445000  0.27001000  1.0 0.5411025676
C  C225  1  0.22999000  0.14617000  0.90445000  1.0 0.5411025676
C  C226  1  0.77001000  0.64617000  0.59555000  1.0 0.5411025676
C  C227  1  0.72999000  0.35383000  0.09555000  1.0 0.5411025676
C  C228  1  0.27001000  0.85383000  0.40445000  1.0 0.5411025676
C  C229  1  0.09555000  0.77001000  0.85383000  1.0 0.5411025676
C  C230  1  0.40445000  0.22999000  0.35383000  1.0 0.5411025676
C  C231  1  0.90445000  0.27001000  0.64617000  1.0 0.5411025676
C  C232  1  0.59555000  0.72999000  0.14617000  1.0 0.5411025676
C  C233  1  0.85383000  0.09555000  0.77001000  1.0 0.5411025676
C  C234  1  0.35383000  0.40445000  0.22999000  1.0 0.5411025676
C  C235  1  0.64617000  0.90445000  0.27001000  1.0 0.5411025676
C  C236  1  0.14617000  0.59555000  0.72999000  1.0 0.5411025676
C  C237  1  0.77001000  0.85383000  0.09555000  1.0 0.5411025676
C  C238  1  0.22999000  0.35383000  0.40445000  1.0 0.5411025676
C  C239  1  0.27001000  0.64617000  0.90445000  1.0 0.5411025676
C  C240  1  0.72999000  0.14617000  0.59555000  1.0 0.5411025676
C  C241  1  0.96359000  0.16137000  0.04903000  1.0 0.0170602878
C  C242  1  0.53641000  0.83863000  0.54903000  1.0 0.0170602878
C  C243  1  0.03641000  0.66137000  0.45097000  1.0 0.0170602878
C  C244  1  0.46359000  0.33863000  0.95097000  1.0 0.0170602878
C  C245  1  0.04903000  0.96359000  0.16137000  1.0 0.0170602878
C  C246  1  0.54903000  0.53641000  0.83863000  1.0 0.0170602878
C  C247  1  0.45097000  0.03641000  0.66137000  1.0 0.0170602878
C  C248  1  0.95097000  0.46359000  0.33863000  1.0 0.0170602878
C  C249  1  0.16137000  0.04903000  0.96359000  1.0 0.0170602878
C  C250  1  0.83863000  0.54903000  0.53641000  1.0 0.0170602878
C  C251  1  0.66137000  0.45097000  0.03641000  1.0 0.0170602878
C  C252  1  0.33863000  0.95097000  0.46359000  1.0 0.0170602878
C  C253  1  0.03641000  0.83863000  0.95097000  1.0 0.0170602878
C  C254  1  0.46359000  0.16137000  0.45097000  1.0 0.0170602878
C  C255  1  0.96359000  0.33863000  0.54903000  1.0 0.0170602878
C  C256  1  0.53641000  0.66137000  0.04903000  1.0 0.0170602878
C  C257  1  0.95097000  0.03641000  0.83863000  1.0 0.0170602878
C  C258  1  0.45097000  0.46359000  0.16137000  1.0 0.0170602878
C  C259  1  0.54903000  0.96359000  0.33863000  1.0 0.0170602878
C  C260  1  0.04903000  0.53641000  0.66137000  1.0 0.0170602878
C  C261  1  0.83863000  0.95097000  0.03641000  1.0 0.0170602878
C  C262  1  0.16137000  0.45097000  0.46359000  1.0 0.0170602878
C  C263  1  0.33863000  0.54903000  0.96359000  1.0 0.0170602878
C  C264  1  0.66137000  0.04903000  0.53641000  1.0 0.0170602878
C  C265  1  0.89078000  0.23083000  0.07250000  1.0 0.0385522709
C  C266  1  0.60922000  0.76917000  0.57250000  1.0 0.0385522709
C  C267  1  0.10922000  0.73083000  0.42750000  1.0 0.0385522709
C  C268  1  0.39078000  0.26917000  0.92750000  1.0 0.0385522709
C  C269  1  0.07250000  0.89078000  0.23083000  1.0 0.0385522709
C  C270  1  0.57250000  0.60922000  0.76917000  1.0 0.0385522709
C  C271  1  0.42750000  0.10922000  0.73083000  1.0 0.0385522709
C  C272  1  0.92750000  0.39078000  0.26917000  1.0 0.0385522709
C  C273  1  0.23083000  0.07250000  0.89078000  1.0 0.0385522709
C  C274  1  0.76917000  0.57250000  0.60922000  1.0 0.0385522709
C  C275  1  0.73083000  0.42750000  0.10922000  1.0 0.0385522709
C  C276  1  0.26917000  0.92750000  0.39078000  1.0 0.0385522709
C  C277  1  0.10922000  0.76917000  0.92750000  1.0 0.0385522709
C  C278  1  0.39078000  0.23083000  0.42750000  1.0 0.0385522709
C  C279  1  0.89078000  0.26917000  0.57250000  1.0 0.0385522709
C  C280  1  0.60922000  0.73083000  0.07250000  1.0 0.0385522709
C  C281  1  0.92750000  0.10922000  0.76917000  1.0 0.0385522709
C  C282  1  0.42750000  0.39078000  0.23083000  1.0 0.0385522709
C  C283  1  0.57250000  0.89078000  0.26917000  1.0 0.0385522709
C  C284  1  0.07250000  0.60922000  0.73083000  1.0 0.0385522709
C  C285  1  0.76917000  0.92750000  0.10922000  1.0 0.0385522709
C  C286  1  0.23083000  0.42750000  0.39078000  1.0 0.0385522709
C  C287  1  0.26917000  0.57250000  0.89078000  1.0 0.0385522709
C  C288  1  0.73083000  0.07250000  0.60922000  1.0 0.0385522709
C  C289  1  0.01193000  0.21238000  0.02456000  1.0 0.5411025676
C  C290  1  0.48807000  0.78762000  0.52456000  1.0 0.5411025676
C  C291  1  0.98807000  0.71238000  0.47544000  1.0 0.5411025676
C  C292  1  0.51193000  0.28762000  0.97544000  1.0 0.5411025676
C  C293  1  0.02456000  0.01193000  0.21238000  1.0 0.5411025676
C  C294  1  0.52456000  0.48807000  0.78762000  1.0 0.5411025676
C  C295  1  0.47544000  0.98807000  0.71238000  1.0 0.5411025676
C  C296  1  0.97544000  0.51193000  0.28762000  1.0 0.5411025676
C  C297  1  0.21238000  0.02456000  0.01193000  1.0 0.5411025676
C  C298  1  0.78762000  0.52456000  0.48807000  1.0 0.5411025676
C  C299  1  0.71238000  0.47544000  0.98807000  1.0 0.5411025676
C  C300  1  0.28762000  0.97544000  0.51193000  1.0 0.5411025676
C  C301  1  0.98807000  0.78762000  0.97544000  1.0 0.5411025676
C  C302  1  0.51193000  0.21238000  0.47544000  1.0 0.5411025676
C  C303  1  0.01193000  0.28762000  0.52456000  1.0 0.5411025676
C  C304  1  0.48807000  0.71238000  0.02456000  1.0 0.5411025676
C  C305  1  0.97544000  0.98807000  0.78762000  1.0 0.5411025676
C  C306  1  0.47544000  0.51193000  0.21238000  1.0 0.5411025676
C  C307  1  0.52456000  0.01193000  0.28762000  1.0 0.5411025676
C  C308  1  0.02456000  0.48807000  0.71238000  1.0 0.5411025676
C  C309  1  0.78762000  0.97544000  0.98807000  1.0 0.5411025676
C  C310  1  0.21238000  0.47544000  0.51193000  1.0 0.5411025676
C  C311  1  0.28762000  0.52456000  0.01193000  1.0 0.5411025676
C  C312  1  0.71238000  0.02456000  0.48807000  1.0 0.5411025676
C  C313  1  0.94449000  0.22990000  0.01660000  1.0 0.2512788393
C  C314  1  0.55551000  0.77010000  0.51660000  1.0 0.2512788393
C  C315  1  0.05551000  0.72990000  0.48340000  1.0 0.2512788393
C  C316  1  0.44449000  0.27010000  0.98340000  1.0 0.2512788393
C  C317  1  0.01660000  0.94449000  0.22990000  1.0 0.2512788393
C  C318  1  0.51660000  0.55551000  0.77010000  1.0 0.2512788393
C  C319  1  0.48340000  0.05551000  0.72990000  1.0 0.2512788393
C  C320  1  0.98340000  0.44449000  0.27010000  1.0 0.2512788393
C  C321  1  0.22990000  0.01660000  0.94449000  1.0 0.2512788393
C  C322  1  0.77010000  0.51660000  0.55551000  1.0 0.2512788393
C  C323  1  0.72990000  0.48340000  0.05551000  1.0 0.2512788393
C  C324  1  0.27010000  0.98340000  0.44449000  1.0 0.2512788393
C  C325  1  0.05551000  0.77010000  0.98340000  1.0 0.2512788393
C  C326  1  0.44449000  0.22990000  0.48340000  1.0 0.2512788393
C  C327  1  0.94449000  0.27010000  0.51660000  1.0 0.2512788393
C  C328  1  0.55551000  0.72990000  0.01660000  1.0 0.2512788393
C  C329  1  0.98340000  0.05551000  0.77010000  1.0 0.2512788393
C  C330  1  0.48340000  0.44449000  0.22990000  1.0 0.2512788393
C  C331  1  0.51660000  0.94449000  0.27010000  1.0 0.2512788393
C  C332  1  0.01660000  0.55551000  0.72990000  1.0 0.2512788393
C  C333  1  0.77010000  0.98340000  0.05551000  1.0 0.2512788393
C  C334  1  0.22990000  0.48340000  0.44449000  1.0 0.2512788393
C  C335  1  0.27010000  0.51660000  0.94449000  1.0 0.2512788393
C  C336  1  0.72990000  0.01660000  0.55551000  1.0 0.2512788393
C  C337  1  0.97236000  0.26428000  0.00027000  1.0 0.2512788393
C  C338  1  0.52764000  0.73572000  0.50027000  1.0 0.2512788393
C  C339  1  0.02764000  0.76428000  0.49973000  1.0 0.2512788393
C  C340  1  0.47236000  0.23572000  0.99973000  1.0 0.2512788393
C  C341  1  0.00027000  0.97236000  0.26428000  1.0 0.2512788393
C  C342  1  0.50027000  0.52764000  0.73572000  1.0 0.2512788393
C  C343  1  0.49973000  0.02764000  0.76428000  1.0 0.2512788393
C  C344  1  0.99973000  0.47236000  0.23572000  1.0 0.2512788393
C  C345  1  0.26428000  0.00027000  0.97236000  1.0 0.2512788393
C  C346  1  0.73572000  0.50027000  0.52764000  1.0 0.2512788393
C  C347  1  0.76428000  0.49973000  0.02764000  1.0 0.2512788393
C  C348  1  0.23572000  0.99973000  0.47236000  1.0 0.2512788393
C  C349  1  0.02764000  0.73572000  0.99973000  1.0 0.2512788393
C  C350  1  0.47236000  0.26428000  0.49973000  1.0 0.2512788393
C  C351  1  0.97236000  0.23572000  0.50027000  1.0 0.2512788393
C  C352  1  0.52764000  0.76428000  0.00027000  1.0 0.2512788393
C  C353  1  0.99973000  0.02764000  0.73572000  1.0 0.2512788393
C  C354  1  0.49973000  0.47236000  0.26428000  1.0 0.2512788393
C  C355  1  0.50027000  0.97236000  0.23572000  1.0 0.2512788393
C  C356  1  0.00027000  0.52764000  0.76428000  1.0 0.2512788393
C  C357  1  0.73572000  0.99973000  0.02764000  1.0 0.2512788393
C  C358  1  0.26428000  0.49973000  0.47236000  1.0 0.2512788393
C  C359  1  0.23572000  0.50027000  0.97236000  1.0 0.2512788393
C  C360  1  0.76428000  0.00027000  0.52764000  1.0 0.2512788393
C  C361  1  0.93259000  0.28903000  0.05368000  1.0 0.5477102032
C  C362  1  0.56741000  0.71097000  0.55368000  1.0 0.5477102032
C  C363  1  0.06741000  0.78903000  0.44632000  1.0 0.5477102032
C  C364  1  0.43259000  0.21097000  0.94632000  1.0 0.5477102032
C  C365  1  0.05368000  0.93259000  0.28903000  1.0 0.5477102032
C  C366  1  0.55368000  0.56741000  0.71097000  1.0 0.5477102032
C  C367  1  0.44632000  0.06741000  0.78903000  1.0 0.5477102032
C  C368  1  0.94632000  0.43259000  0.21097000  1.0 0.5477102032
C  C369  1  0.28903000  0.05368000  0.93259000  1.0 0.5477102032
C  C370  1  0.71097000  0.55368000  0.56741000  1.0 0.5477102032
C  C371  1  0.78903000  0.44632000  0.06741000  1.0 0.5477102032
C  C372  1  0.21097000  0.94632000  0.43259000  1.0 0.5477102032
C  C373  1  0.06741000  0.71097000  0.94632000  1.0 0.5477102032
C  C374  1  0.43259000  0.28903000  0.44632000  1.0 0.5477102032
C  C375  1  0.93259000  0.21097000  0.55368000  1.0 0.5477102032
C  C376  1  0.56741000  0.78903000  0.05368000  1.0 0.5477102032
C  C377  1  0.94632000  0.06741000  0.71097000  1.0 0.5477102032
C  C378  1  0.44632000  0.43259000  0.28903000  1.0 0.5477102032
C  C379  1  0.55368000  0.93259000  0.21097000  1.0 0.5477102032
C  C380  1  0.05368000  0.56741000  0.78903000  1.0 0.5477102032
C  C381  1  0.71097000  0.94632000  0.06741000  1.0 0.5477102032
C  C382  1  0.28903000  0.44632000  0.43259000  1.0 0.5477102032
C  C383  1  0.21097000  0.55368000  0.93259000  1.0 0.5477102032
C  C384  1  0.78903000  0.05368000  0.56741000  1.0 0.5477102032
C  C385  1  0.04909000  0.26849000  0.99735000  1.0 0.0296208982
C  C386  1  0.45091000  0.73151000  0.49735000  1.0 0.0296208982
C  C387  1  0.95091000  0.76849000  0.50265000  1.0 0.0296208982
C  C388  1  0.54909000  0.23151000  0.00265000  1.0 0.0296208982
C  C389  1  0.99735000  0.04909000  0.26849000  1.0 0.0296208982
C  C390  1  0.49735000  0.45091000  0.73151000  1.0 0.0296208982
C  C391  1  0.50265000  0.95091000  0.76849000  1.0 0.0296208982
C  C392  1  0.00265000  0.54909000  0.23151000  1.0 0.0296208982
C  C393  1  0.26849000  0.99735000  0.04909000  1.0 0.0296208982
C  C394  1  0.73151000  0.49735000  0.45091000  1.0 0.0296208982
C  C395  1  0.76849000  0.50265000  0.95091000  1.0 0.0296208982
C  C396  1  0.23151000  0.00265000  0.54909000  1.0 0.0296208982
C  C397  1  0.95091000  0.73151000  0.00265000  1.0 0.0296208982
C  C398  1  0.54909000  0.26849000  0.50265000  1.0 0.0296208982
C  C399  1  0.04909000  0.23151000  0.49735000  1.0 0.0296208982
C  C400  1  0.45091000  0.76849000  0.99735000  1.0 0.0296208982
C  C401  1  0.00265000  0.95091000  0.73151000  1.0 0.0296208982
C  C402  1  0.50265000  0.54909000  0.26849000  1.0 0.0296208982
C  C403  1  0.49735000  0.04909000  0.23151000  1.0 0.0296208982
C  C404  1  0.99735000  0.45091000  0.76849000  1.0 0.0296208982
C  C405  1  0.73151000  0.00265000  0.95091000  1.0 0.0296208982
C  C406  1  0.26849000  0.50265000  0.54909000  1.0 0.0296208982
C  C407  1  0.23151000  0.49735000  0.04909000  1.0 0.0296208982
C  C408  1  0.76849000  0.99735000  0.45091000  1.0 0.0296208982
C  C409  1  0.97711000  0.33852000  0.02305000  1.0 0.0296208982
C  C410  1  0.52289000  0.66148000  0.52305000  1.0 0.0296208982
C  C411  1  0.02289000  0.83852000  0.47695000  1.0 0.0296208982
C  C412  1  0.47711000  0.16148000  0.97695000  1.0 0.0296208982
C  C413  1  0.02305000  0.97711000  0.33852000  1.0 0.0296208982
C  C414  1  0.52305000  0.52289000  0.66148000  1.0 0.0296208982
C  C415  1  0.47695000  0.02289000  0.83852000  1.0 0.0296208982
C  C416  1  0.97695000  0.47711000  0.16148000  1.0 0.0296208982
C  C417  1  0.33852000  0.02305000  0.97711000  1.0 0.0296208982
C  C418  1  0.66148000  0.52305000  0.52289000  1.0 0.0296208982
C  C419  1  0.83852000  0.47695000  0.02289000  1.0 0.0296208982
C  C420  1  0.16148000  0.97695000  0.47711000  1.0 0.0296208982
C  C421  1  0.02289000  0.66148000  0.97695000  1.0 0.0296208982
C  C422  1  0.47711000  0.33852000  0.47695000  1.0 0.0296208982
C  C423  1  0.97711000  0.16148000  0.52305000  1.0 0.0296208982
C  C424  1  0.52289000  0.83852000  0.02305000  1.0 0.0296208982
C  C425  1  0.97695000  0.02289000  0.66148000  1.0 0.0296208982
C  C426  1  0.47695000  0.47711000  0.33852000  1.0 0.0296208982
C  C427  1  0.52305000  0.97711000  0.16148000  1.0 0.0296208982
C  C428  1  0.02305000  0.52289000  0.83852000  1.0 0.0296208982
C  C429  1  0.66148000  0.97695000  0.02289000  1.0 0.0296208982
C  C430  1  0.33852000  0.47695000  0.47711000  1.0 0.0296208982
C  C431  1  0.16148000  0.52305000  0.97711000  1.0 0.0296208982
C  C432  1  0.83852000  0.02305000  0.52289000  1.0 0.0296208982
C  C433  1  0.09194000  0.28444000  0.05536000  1.0 0.5229195014
C  C434  1  0.40806000  0.71556000  0.55536000  1.0 0.5229195014
C  C435  1  0.90806000  0.78444000  0.44464000  1.0 0.5229195014
C  C436  1  0.59194000  0.21556000  0.94464000  1.0 0.5229195014
C  C437  1  0.05536000  0.09194000  0.28444000  1.0 0.5229195014
C  C438  1  0.55536000  0.40806000  0.71556000  1.0 0.5229195014
C  C439  1  0.44464000  0.90806000  0.78444000  1.0 0.5229195014
C  C440  1  0.94464000  0.59194000  0.21556000  1.0 0.5229195014
C  C441  1  0.28444000  0.05536000  0.09194000  1.0 0.5229195014
C  C442  1  0.71556000  0.55536000  0.40806000  1.0 0.5229195014
C  C443  1  0.78444000  0.44464000  0.90806000  1.0 0.5229195014
C  C444  1  0.21556000  0.94464000  0.59194000  1.0 0.5229195014
C  C445  1  0.90806000  0.71556000  0.94464000  1.0 0.5229195014
C  C446  1  0.59194000  0.28444000  0.44464000  1.0 0.5229195014
C  C447  1  0.09194000  0.21556000  0.55536000  1.0 0.5229195014
C  C448  1  0.40806000  0.78444000  0.05536000  1.0 0.5229195014
C  C449  1  0.94464000  0.90806000  0.71556000  1.0 0.5229195014
C  C450  1  0.44464000  0.59194000  0.28444000  1.0 0.5229195014
C  C451  1  0.55536000  0.09194000  0.21556000  1.0 0.5229195014
C  C452  1  0.05536000  0.40806000  0.78444000  1.0 0.5229195014
C  C453  1  0.71556000  0.94464000  0.90806000  1.0 0.5229195014
C  C454  1  0.28444000  0.44464000  0.59194000  1.0 0.5229195014
C  C455  1  0.21556000  0.55536000  0.09194000  1.0 0.5229195014
C  C456  1  0.78444000  0.05536000  0.40806000  1.0 0.5229195014
C  C457  1  0.05292000  0.33885000  0.03293000  1.0 0.092274618
C  C458  1  0.44708000  0.66115000  0.53293000  1.0 0.092274618
C  C459  1  0.94708000  0.83885000  0.46707000  1.0 0.092274618
C  C460  1  0.55292000  0.16115000  0.96707000  1.0 0.092274618
C  C461  1  0.03293000  0.05292000  0.33885000  1.0 0.092274618
C  C462  1  0.53293000  0.44708000  0.66115000  1.0 0.092274618
C  C463  1  0.46707000  0.94708000  0.83885000  1.0 0.092274618
C  C464  1  0.96707000  0.55292000  0.16115000  1.0 0.092274618
C  C465  1  0.33885000  0.03293000  0.05292000  1.0 0.092274618
C  C466  1  0.66115000  0.53293000  0.44708000  1.0 0.092274618
C  C467  1  0.83885000  0.46707000  0.94708000  1.0 0.092274618
C  C468  1  0.16115000  0.96707000  0.55292000  1.0 0.092274618
C  C469  1  0.94708000  0.66115000  0.96707000  1.0 0.092274618
C  C470  1  0.55292000  0.33885000  0.46707000  1.0 0.092274618
C  C471  1  0.05292000  0.16115000  0.53293000  1.0 0.092274618
C  C472  1  0.44708000  0.83885000  0.03293000  1.0 0.092274618
C  C473  1  0.96707000  0.94708000  0.66115000  1.0 0.092274618
C  C474  1  0.46707000  0.55292000  0.33885000  1.0 0.092274618
C  C475  1  0.53293000  0.05292000  0.16115000  1.0 0.092274618
C  C476  1  0.03293000  0.44708000  0.83885000  1.0 0.092274618
C  C477  1  0.66115000  0.96707000  0.94708000  1.0 0.092274618
C  C478  1  0.33885000  0.46707000  0.55292000  1.0 0.092274618
C  C479  1  0.16115000  0.53293000  0.05292000  1.0 0.092274618
C  C480  1  0.83885000  0.03293000  0.44708000  1.0 0.092274618
C  C481  1  0.07873000  0.35348000  0.06805000  1.0 0.1005633496
C  C482  1  0.42127000  0.64652000  0.56805000  1.0 0.1005633496
C  C483  1  0.92127000  0.85348000  0.43195000  1.0 0.1005633496
C  C484  1  0.57873000  0.14652000  0.93195000  1.0 0.1005633496
C  C485  1  0.06805000  0.07873000  0.35348000  1.0 0.1005633496
C  C486  1  0.56805000  0.42127000  0.64652000  1.0 0.1005633496
C  C487  1  0.43195000  0.92127000  0.85348000  1.0 0.1005633496
C  C488  1  0.93195000  0.57873000  0.14652000  1.0 0.1005633496
C  C489  1  0.35348000  0.06805000  0.07873000  1.0 0.1005633496
C  C490  1  0.64652000  0.56805000  0.42127000  1.0 0.1005633496
C  C491  1  0.85348000  0.43195000  0.92127000  1.0 0.1005633496
C  C492  1  0.14652000  0.93195000  0.57873000  1.0 0.1005633496
C  C493  1  0.92127000  0.64652000  0.93195000  1.0 0.1005633496
C  C494  1  0.57873000  0.35348000  0.43195000  1.0 0.1005633496
C  C495  1  0.07873000  0.14652000  0.56805000  1.0 0.1005633496
C  C496  1  0.42127000  0.85348000  0.06805000  1.0 0.1005633496
C  C497  1  0.93195000  0.92127000  0.64652000  1.0 0.1005633496
C  C498  1  0.43195000  0.57873000  0.35348000  1.0 0.1005633496
C  C499  1  0.56805000  0.07873000  0.14652000  1.0 0.1005633496
C  C500  1  0.06805000  0.42127000  0.85348000  1.0 0.1005633496
C  C501  1  0.64652000  0.93195000  0.92127000  1.0 0.1005633496
C  C502  1  0.35348000  0.43195000  0.57873000  1.0 0.1005633496
C  C503  1  0.14652000  0.56805000  0.07873000  1.0 0.1005633496
C  C504  1  0.85348000  0.06805000  0.42127000  1.0 0.1005633496
C  C505  1  0.01136000  0.36334000  0.08361000  1.0 0.5143116817
C  C506  1  0.48864000  0.63666000  0.58361000  1.0 0.5143116817
C  C507  1  0.98864000  0.86334000  0.41639000  1.0 0.5143116817
C  C508  1  0.51136000  0.13666000  0.91639000  1.0 0.5143116817
C  C509  1  0.08361000  0.01136000  0.36334000  1.0 0.5143116817
C  C510  1  0.58361000  0.48864000  0.63666000  1.0 0.5143116817
C  C511  1  0.41639000  0.98864000  0.86334000  1.0 0.5143116817
C  C512  1  0.91639000  0.51136000  0.13666000  1.0 0.5143116817
C  C513  1  0.36334000  0.08361000  0.01136000  1.0 0.5143116817
C  C514  1  0.63666000  0.58361000  0.48864000  1.0 0.5143116817
C  C515  1  0.86334000  0.41639000  0.98864000  1.0 0.5143116817
C  C516  1  0.13666000  0.91639000  0.51136000  1.0 0.5143116817
C  C517  1  0.98864000  0.63666000  0.91639000  1.0 0.5143116817
C  C518  1  0.51136000  0.36334000  0.41639000  1.0 0.5143116817
C  C519  1  0.01136000  0.13666000  0.58361000  1.0 0.5143116817
C  C520  1  0.48864000  0.86334000  0.08361000  1.0 0.5143116817
C  C521  1  0.91639000  0.98864000  0.63666000  1.0 0.5143116817
C  C522  1  0.41639000  0.51136000  0.36334000  1.0 0.5143116817
C  C523  1  0.58361000  0.01136000  0.13666000  1.0 0.5143116817
C  C524  1  0.08361000  0.48864000  0.86334000  1.0 0.5143116817
C  C525  1  0.63666000  0.91639000  0.98864000  1.0 0.5143116817
C  C526  1  0.36334000  0.41639000  0.51136000  1.0 0.5143116817
C  C527  1  0.13666000  0.58361000  0.01136000  1.0 0.5143116817
C  C528  1  0.86334000  0.08361000  0.48864000  1.0 0.5143116817
C  C529  1  0.13162000  0.31732000  0.10915000  1.0 0.0385522709
C  C530  1  0.36838000  0.68268000  0.60915000  1.0 0.0385522709
C  C531  1  0.86838000  0.81732000  0.39085000  1.0 0.0385522709
C  C532  1  0.63162000  0.18268000  0.89085000  1.0 0.0385522709
C  C533  1  0.10915000  0.13162000  0.31732000  1.0 0.0385522709
C  C534  1  0.60915000  0.36838000  0.68268000  1.0 0.0385522709
C  C535  1  0.39085000  0.86838000  0.81732000  1.0 0.0385522709
C  C536  1  0.89085000  0.63162000  0.18268000  1.0 0.0385522709
C  C537  1  0.31732000  0.10915000  0.13162000  1.0 0.0385522709
C  C538  1  0.68268000  0.60915000  0.36838000  1.0 0.0385522709
C  C539  1  0.81732000  0.39085000  0.86838000  1.0 0.0385522709
C  C540  1  0.18268000  0.89085000  0.63162000  1.0 0.0385522709
C  C541  1  0.86838000  0.68268000  0.89085000  1.0 0.0385522709
C  C542  1  0.63162000  0.31732000  0.39085000  1.0 0.0385522709
C  C543  1  0.13162000  0.18268000  0.60915000  1.0 0.0385522709
C  C544  1  0.36838000  0.81732000  0.10915000  1.0 0.0385522709
C  C545  1  0.89085000  0.86838000  0.68268000  1.0 0.0385522709
C  C546  1  0.39085000  0.63162000  0.31732000  1.0 0.0385522709
C  C547  1  0.60915000  0.13162000  0.18268000  1.0 0.0385522709
C  C548  1  0.10915000  0.36838000  0.81732000  1.0 0.0385522709
C  C549  1  0.68268000  0.89085000  0.86838000  1.0 0.0385522709
C  C550  1  0.31732000  0.39085000  0.63162000  1.0 0.0385522709
C  C551  1  0.18268000  0.60915000  0.13162000  1.0 0.0385522709
C  C552  1  0.81732000  0.10915000  0.36838000  1.0 0.0385522709
C  C553  1  0.05899000  0.38575000  0.13397000  1.0 0.0296208982
C  C554  1  0.44101000  0.61425000  0.63397000  1.0 0.0296208982
C  C555  1  0.94101000  0.88575000  0.36603000  1.0 0.0296208982
C  C556  1  0.55899000  0.11425000  0.86603000  1.0 0.0296208982
C  C557  1  0.13397000  0.05899000  0.38575000  1.0 0.0296208982
C  C558  1  0.63397000  0.44101000  0.61425000  1.0 0.0296208982
C  C559  1  0.36603000  0.94101000  0.88575000  1.0 0.0296208982
C  C560  1  0.86603000  0.55899000  0.11425000  1.0 0.0296208982
C  C561  1  0.38575000  0.13397000  0.05899000  1.0 0.0296208982
C  C562  1  0.61425000  0.63397000  0.44101000  1.0 0.0296208982
C  C563  1  0.88575000  0.36603000  0.94101000  1.0 0.0296208982
C  C564  1  0.11425000  0.86603000  0.55899000  1.0 0.0296208982
C  C565  1  0.94101000  0.61425000  0.86603000  1.0 0.0296208982
C  C566  1  0.55899000  0.38575000  0.36603000  1.0 0.0296208982
C  C567  1  0.05899000  0.11425000  0.63397000  1.0 0.0296208982
C  C568  1  0.44101000  0.88575000  0.13397000  1.0 0.0296208982
C  C569  1  0.86603000  0.94101000  0.61425000  1.0 0.0296208982
C  C570  1  0.36603000  0.55899000  0.38575000  1.0 0.0296208982
C  C571  1  0.63397000  0.05899000  0.11425000  1.0 0.0296208982
C  C572  1  0.13397000  0.44101000  0.88575000  1.0 0.0296208982
C  C573  1  0.61425000  0.86603000  0.94101000  1.0 0.0296208982
C  C574  1  0.38575000  0.36603000  0.55899000  1.0 0.0296208982
C  C575  1  0.11425000  0.63397000  0.05899000  1.0 0.0296208982
C  C576  1  0.88575000  0.13397000  0.44101000  1.0 0.0296208982
C  C577  1  0.11613000  0.27072000  0.16593000  1.0 0.5229195014
C  C578  1  0.38387000  0.72928000  0.66593000  1.0 0.5229195014
C  C579  1  0.88387000  0.77072000  0.33407000  1.0 0.5229195014
C  C580  1  0.61613000  0.22928000  0.83407000  1.0 0.5229195014
C  C581  1  0.16593000  0.11613000  0.27072000  1.0 0.5229195014
C  C582  1  0.66593000  0.38387000  0.72928000  1.0 0.5229195014
C  C583  1  0.33407000  0.88387000  0.77072000  1.0 0.5229195014
C  C584  1  0.83407000  0.61613000  0.22928000  1.0 0.5229195014
C  C585  1  0.27072000  0.16593000  0.11613000  1.0 0.5229195014
C  C586  1  0.72928000  0.66593000  0.38387000  1.0 0.5229195014
C  C587  1  0.77072000  0.33407000  0.88387000  1.0 0.5229195014
C  C588  1  0.22928000  0.83407000  0.61613000  1.0 0.5229195014
C  C589  1  0.88387000  0.72928000  0.83407000  1.0 0.5229195014
C  C590  1  0.61613000  0.27072000  0.33407000  1.0 0.5229195014
C  C591  1  0.11613000  0.22928000  0.66593000  1.0 0.5229195014
C  C592  1  0.38387000  0.77072000  0.16593000  1.0 0.5229195014
C  C593  1  0.83407000  0.88387000  0.72928000  1.0 0.5229195014
C  C594  1  0.33407000  0.61613000  0.27072000  1.0 0.5229195014
C  C595  1  0.66593000  0.11613000  0.22928000  1.0 0.5229195014
C  C596  1  0.16593000  0.38387000  0.77072000  1.0 0.5229195014
C  C597  1  0.72928000  0.83407000  0.88387000  1.0 0.5229195014
C  C598  1  0.27072000  0.33407000  0.61613000  1.0 0.5229195014
C  C599  1  0.22928000  0.66593000  0.11613000  1.0 0.5229195014
C  C600  1  0.77072000  0.16593000  0.38387000  1.0 0.5229195014
C  C601  1  0.10317000  0.33934000  0.17816000  1.0 0.2373521271
C  C602  1  0.39683000  0.66066000  0.67816000  1.0 0.2373521271
C  C603  1  0.89683000  0.83934000  0.32184000  1.0 0.2373521271
C  C604  1  0.60317000  0.16066000  0.82184000  1.0 0.2373521271
C  C605  1  0.17816000  0.10317000  0.33934000  1.0 0.2373521271
C  C606  1  0.67816000  0.39683000  0.66066000  1.0 0.2373521271
C  C607  1  0.32184000  0.89683000  0.83934000  1.0 0.2373521271
C  C608  1  0.82184000  0.60317000  0.16066000  1.0 0.2373521271
C  C609  1  0.33934000  0.17816000  0.10317000  1.0 0.2373521271
C  C610  1  0.66066000  0.67816000  0.39683000  1.0 0.2373521271
C  C611  1  0.83934000  0.32184000  0.89683000  1.0 0.2373521271
C  C612  1  0.16066000  0.82184000  0.60317000  1.0 0.2373521271
C  C613  1  0.89683000  0.66066000  0.82184000  1.0 0.2373521271
C  C614  1  0.60317000  0.33934000  0.32184000  1.0 0.2373521271
C  C615  1  0.10317000  0.16066000  0.67816000  1.0 0.2373521271
C  C616  1  0.39683000  0.83934000  0.17816000  1.0 0.2373521271
C  C617  1  0.82184000  0.89683000  0.66066000  1.0 0.2373521271
C  C618  1  0.32184000  0.60317000  0.33934000  1.0 0.2373521271
C  C619  1  0.67816000  0.10317000  0.16066000  1.0 0.2373521271
C  C620  1  0.17816000  0.39683000  0.83934000  1.0 0.2373521271
C  C621  1  0.66066000  0.82184000  0.89683000  1.0 0.2373521271
C  C622  1  0.33934000  0.32184000  0.60317000  1.0 0.2373521271
C  C623  1  0.16066000  0.67816000  0.10317000  1.0 0.2373521271
C  C624  1  0.83934000  0.17816000  0.39683000  1.0 0.2373521271
C  C625  1  0.09114000  0.31412000  0.21663000  1.0 0.2290336694
C  C626  1  0.40886000  0.68588000  0.71663000  1.0 0.2290336694
C  C627  1  0.90886000  0.81412000  0.28337000  1.0 0.2290336694
C  C628  1  0.59114000  0.18588000  0.78337000  1.0 0.2290336694
C  C629  1  0.21663000  0.09114000  0.31412000  1.0 0.2290336694
C  C630  1  0.71663000  0.40886000  0.68588000  1.0 0.2290336694
C  C631  1  0.28337000  0.90886000  0.81412000  1.0 0.2290336694
C  C632  1  0.78337000  0.59114000  0.18588000  1.0 0.2290336694
C  C633  1  0.31412000  0.21663000  0.09114000  1.0 0.2290336694
C  C634  1  0.68588000  0.71663000  0.40886000  1.0 0.2290336694
C  C635  1  0.81412000  0.28337000  0.90886000  1.0 0.2290336694
C  C636  1  0.18588000  0.78337000  0.59114000  1.0 0.2290336694
C  C637  1  0.90886000  0.68588000  0.78337000  1.0 0.2290336694
C  C638  1  0.59114000  0.31412000  0.28337000  1.0 0.2290336694
C  C639  1  0.09114000  0.18588000  0.71663000  1.0 0.2290336694
C  C640  1  0.40886000  0.81412000  0.21663000  1.0 0.2290336694
C  C641  1  0.78337000  0.90886000  0.68588000  1.0 0.2290336694
C  C642  1  0.28337000  0.59114000  0.31412000  1.0 0.2290336694
C  C643  1  0.71663000  0.09114000  0.18588000  1.0 0.2290336694
C  C644  1  0.21663000  0.40886000  0.81412000  1.0 0.2290336694
C  C645  1  0.68588000  0.78337000  0.90886000  1.0 0.2290336694
C  C646  1  0.31412000  0.28337000  0.59114000  1.0 0.2290336694
C  C647  1  0.18588000  0.71663000  0.09114000  1.0 0.2290336694
C  C648  1  0.81412000  0.21663000  0.40886000  1.0 0.2290336694
C  C649  1  0.03558000  0.34878000  0.19360000  1.0 0.5333310421
C  C650  1  0.46442000  0.65122000  0.69360000  1.0 0.5333310421
C  C651  1  0.96442000  0.84878000  0.30640000  1.0 0.5333310421
C  C652  1  0.53558000  0.15122000  0.80640000  1.0 0.5333310421
C  C653  1  0.19360000  0.03558000  0.34878000  1.0 0.5333310421
C  C654  1  0.69360000  0.46442000  0.65122000  1.0 0.5333310421
C  C655  1  0.30640000  0.96442000  0.84878000  1.0 0.5333310421
C  C656  1  0.80640000  0.53558000  0.15122000  1.0 0.5333310421
C  C657  1  0.34878000  0.19360000  0.03558000  1.0 0.5333310421
C  C658  1  0.65122000  0.69360000  0.46442000  1.0 0.5333310421
C  C659  1  0.84878000  0.30640000  0.96442000  1.0 0.5333310421
C  C660  1  0.15122000  0.80640000  0.53558000  1.0 0.5333310421
C  C661  1  0.96442000  0.65122000  0.80640000  1.0 0.5333310421
C  C662  1  0.53558000  0.34878000  0.30640000  1.0 0.5333310421
C  C663  1  0.03558000  0.15122000  0.69360000  1.0 0.5333310421
C  C664  1  0.46442000  0.84878000  0.19360000  1.0 0.5333310421
C  C665  1  0.80640000  0.96442000  0.65122000  1.0 0.5333310421
C  C666  1  0.30640000  0.53558000  0.34878000  1.0 0.5333310421
C  C667  1  0.69360000  0.03558000  0.15122000  1.0 0.5333310421
C  C668  1  0.19360000  0.46442000  0.84878000  1.0 0.5333310421
C  C669  1  0.65122000  0.80640000  0.96442000  1.0 0.5333310421
C  C670  1  0.34878000  0.30640000  0.53558000  1.0 0.5333310421
C  C671  1  0.15122000  0.69360000  0.03558000  1.0 0.5333310421
C  C672  1  0.84878000  0.19360000  0.46442000  1.0 0.5333310421
C  C673  1  0.09652000  0.23737000  0.22879000  1.0 0.0296208982
C  C674  1  0.40348000  0.76263000  0.72879000  1.0 0.0296208982
C  C675  1  0.90348000  0.73737000  0.27121000  1.0 0.0296208982
C  C676  1  0.59652000  0.26263000  0.77121000  1.0 0.0296208982
C  C677  1  0.22879000  0.09652000  0.23737000  1.0 0.0296208982
C  C678  1  0.72879000  0.40348000  0.76263000  1.0 0.0296208982
C  C679  1  0.27121000  0.90348000  0.73737000  1.0 0.0296208982
C  C680  1  0.77121000  0.59652000  0.26263000  1.0 0.0296208982
C  C681  1  0.23737000  0.22879000  0.09652000  1.0 0.0296208982
C  C682  1  0.76263000  0.72879000  0.40348000  1.0 0.0296208982
C  C683  1  0.73737000  0.27121000  0.90348000  1.0 0.0296208982
C  C684  1  0.26263000  0.77121000  0.59652000  1.0 0.0296208982
C  C685  1  0.90348000  0.76263000  0.77121000  1.0 0.0296208982
C  C686  1  0.59652000  0.23737000  0.27121000  1.0 0.0296208982
C  C687  1  0.09652000  0.26263000  0.72879000  1.0 0.0296208982
C  C688  1  0.40348000  0.73737000  0.22879000  1.0 0.0296208982
C  C689  1  0.77121000  0.90348000  0.76263000  1.0 0.0296208982
C  C690  1  0.27121000  0.59652000  0.23737000  1.0 0.0296208982
C  C691  1  0.72879000  0.09652000  0.26263000  1.0 0.0296208982
C  C692  1  0.22879000  0.40348000  0.73737000  1.0 0.0296208982
C  C693  1  0.76263000  0.77121000  0.90348000  1.0 0.0296208982
C  C694  1  0.23737000  0.27121000  0.59652000  1.0 0.0296208982
C  C695  1  0.26263000  0.72879000  0.09652000  1.0 0.0296208982
C  C696  1  0.73737000  0.22879000  0.40348000  1.0 0.0296208982
C  C697  1  0.02457000  0.30777000  0.25342000  1.0 0.0385522709
C  C698  1  0.47543000  0.69223000  0.75342000  1.0 0.0385522709
C  C699  1  0.97543000  0.80777000  0.24658000  1.0 0.0385522709
C  C700  1  0.52457000  0.19223000  0.74658000  1.0 0.0385522709
C  C701  1  0.25342000  0.02457000  0.30777000  1.0 0.0385522709
C  C702  1  0.75342000  0.47543000  0.69223000  1.0 0.0385522709
C  C703  1  0.24658000  0.97543000  0.80777000  1.0 0.0385522709
C  C704  1  0.74658000  0.52457000  0.19223000  1.0 0.0385522709
C  C705  1  0.30777000  0.25342000  0.02457000  1.0 0.0385522709
C  C706  1  0.69223000  0.75342000  0.47543000  1.0 0.0385522709
C  C707  1  0.80777000  0.24658000  0.97543000  1.0 0.0385522709
C  C708  1  0.19223000  0.74658000  0.52457000  1.0 0.0385522709
C  C709  1  0.97543000  0.69223000  0.74658000  1.0 0.0385522709
C  C710  1  0.52457000  0.30777000  0.24658000  1.0 0.0385522709
C  C711  1  0.02457000  0.19223000  0.75342000  1.0 0.0385522709
C  C712  1  0.47543000  0.80777000  0.25342000  1.0 0.0385522709
C  C713  1  0.74658000  0.97543000  0.69223000  1.0 0.0385522709
C  C714  1  0.24658000  0.52457000  0.30777000  1.0 0.0385522709
C  C715  1  0.75342000  0.02457000  0.19223000  1.0 0.0385522709
C  C716  1  0.25342000  0.47543000  0.80777000  1.0 0.0385522709
C  C717  1  0.69223000  0.74658000  0.97543000  1.0 0.0385522709
C  C718  1  0.30777000  0.24658000  0.52457000  1.0 0.0385522709
C  C719  1  0.19223000  0.75342000  0.02457000  1.0 0.0385522709
C  C720  1  0.80777000  0.25342000  0.47543000  1.0 0.0385522709
C  C721  1  0.03857000  0.22761000  0.29990000  1.0 -0.2904480977
C  C722  1  0.46143000  0.77239000  0.79990000  1.0 -0.2904480977
C  C723  1  0.96143000  0.72761000  0.20010000  1.0 -0.2823663845
C  C724  1  0.53857000  0.27239000  0.70010000  1.0 -0.2904480977
C  C725  1  0.29990000  0.03857000  0.22761000  1.0 -0.2904480977
C  C726  1  0.79990000  0.46143000  0.77239000  1.0 -0.2823663845
C  C727  1  0.20010000  0.96143000  0.72761000  1.0 -0.2904480977
C  C728  1  0.70010000  0.53857000  0.27239000  1.0 -0.2904480977
C  C729  1  0.22761000  0.29990000  0.03857000  1.0 -0.2823663845
C  C730  1  0.77239000  0.79990000  0.46143000  1.0 -0.2904480977
C  C731  1  0.72761000  0.20010000  0.96143000  1.0 -0.2904480977
C  C732  1  0.27239000  0.70010000  0.53857000  1.0 -0.2904480977
C  C733  1  0.96143000  0.77239000  0.70010000  1.0 -0.2823663845
C  C734  1  0.53857000  0.22761000  0.20010000  1.0 -0.2823663845
C  C735  1  0.03857000  0.27239000  0.79990000  1.0 -0.2904480977
C  C736  1  0.46143000  0.72761000  0.29990000  1.0 -0.2904480977
C  C737  1  0.70010000  0.96143000  0.77239000  1.0 -0.2904480977
C  C738  1  0.20010000  0.53857000  0.22761000  1.0 -0.2904480977
C  C739  1  0.79990000  0.03857000  0.27239000  1.0 -0.2823663845
C  C740  1  0.29990000  0.46143000  0.72761000  1.0 -0.2904480977
C  C741  1  0.77239000  0.70010000  0.96143000  1.0 -0.2904480977
C  C742  1  0.22761000  0.20010000  0.53857000  1.0 -0.2904480977
C  C743  1  0.27239000  0.79990000  0.03857000  1.0 -0.2904480977
C  C744  1  0.72761000  0.29990000  0.46143000  1.0 -0.2823663845
C  C745  1  0.00254000  0.22925000  0.32965000  1.0 -0.1395537252
C  C746  1  0.49746000  0.77075000  0.82965000  1.0 -0.1395537252
C  C747  1  0.99746000  0.72925000  0.17035000  1.0 -0.1395537252
C  C748  1  0.50254000  0.27075000  0.67035000  1.0 -0.1395537252
C  C749  1  0.32965000  0.00254000  0.22925000  1.0 -0.1395537252
C  C750  1  0.82965000  0.49746000  0.77075000  1.0 -0.1395537252
C  C751  1  0.17035000  0.99746000  0.72925000  1.0 -0.1395537252
C  C752  1  0.67035000  0.50254000  0.27075000  1.0 -0.1395537252
C  C753  1  0.22925000  0.32965000  0.00254000  1.0 -0.1395537252
C  C754  1  0.77075000  0.82965000  0.49746000  1.0 -0.1395537252
C  C755  1  0.72925000  0.17035000  0.99746000  1.0 -0.1395537252
C  C756  1  0.27075000  0.67035000  0.50254000  1.0 -0.1395537252
C  C757  1  0.99746000  0.77075000  0.67035000  1.0 -0.1395537252
C  C758  1  0.50254000  0.22925000  0.17035000  1.0 -0.1395537252
C  C759  1  0.00254000  0.27075000  0.82965000  1.0 -0.1395537252
C  C760  1  0.49746000  0.72925000  0.32965000  1.0 -0.1395537252
C  C761  1  0.67035000  0.99746000  0.77075000  1.0 -0.1395537252
C  C762  1  0.17035000  0.50254000  0.22925000  1.0 -0.1395537252
C  C763  1  0.82965000  0.00254000  0.27075000  1.0 -0.1395537252
C  C764  1  0.32965000  0.49746000  0.72925000  1.0 -0.1395537252
C  C765  1  0.77075000  0.67035000  0.99746000  1.0 -0.1395537252
C  C766  1  0.22925000  0.17035000  0.50254000  1.0 -0.1395537252
C  C767  1  0.27075000  0.82965000  0.00254000  1.0 -0.1395537252
C  C768  1  0.72925000  0.32965000  0.49746000  1.0 -0.1395537252
C  C769  1  0.96828000  0.20001000  0.31765000  1.0 -0.1395537252
C  C770  1  0.53172000  0.79999000  0.81765000  1.0 -0.1395537252
C  C771  1  0.03172000  0.70001000  0.18235000  1.0 -0.1395537252
C  C772  1  0.46828000  0.29999000  0.68235000  1.0 -0.1395537252
C  C773  1  0.31765000  0.96828000  0.20001000  1.0 -0.1395537252
C  C774  1  0.81765000  0.53172000  0.79999000  1.0 -0.1395537252
C  C775  1  0.18235000  0.03172000  0.70001000  1.0 -0.1395537252
C  C776  1  0.68235000  0.46828000  0.29999000  1.0 -0.1395537252
C  C777  1  0.20001000  0.31765000  0.96828000  1.0 -0.1395537252
C  C778  1  0.79999000  0.81765000  0.53172000  1.0 -0.1395537252
C  C779  1  0.70001000  0.18235000  0.03172000  1.0 -0.1395537252
C  C780  1  0.29999000  0.68235000  0.46828000  1.0 -0.1395537252
C  C781  1  0.03172000  0.79999000  0.68235000  1.0 -0.1395537252
C  C782  1  0.46828000  0.20001000  0.18235000  1.0 -0.1395537252
C  C783  1  0.96828000  0.29999000  0.81765000  1.0 -0.1395537252
C  C784  1  0.53172000  0.70001000  0.31765000  1.0 -0.1395537252
C  C785  1  0.68235000  0.03172000  0.79999000  1.0 -0.1395537252
C  C786  1  0.18235000  0.46828000  0.20001000  1.0 -0.1395537252
C  C787  1  0.81765000  0.96828000  0.29999000  1.0 -0.1395537252
C  C788  1  0.31765000  0.53172000  0.70001000  1.0 -0.1395537252
C  C789  1  0.79999000  0.68235000  0.03172000  1.0 -0.1395537252
C  C790  1  0.20001000  0.18235000  0.46828000  1.0 -0.1395537252
C  C791  1  0.29999000  0.81765000  0.96828000  1.0 -0.1395537252
C  C792  1  0.70001000  0.31765000  0.53172000  1.0 -0.1395537252
C  C793  1  0.97821000  0.17420000  0.28153000  1.0 -0.2904480977
C  C794  1  0.52179000  0.82580000  0.78153000  1.0 -0.2904480977
C  C795  1  0.02179000  0.67420000  0.21847000  1.0 -0.2904480977
C  C796  1  0.47821000  0.32580000  0.71847000  1.0 -0.2904480977
C  C797  1  0.28153000  0.97821000  0.17420000  1.0 -0.2904480977
C  C798  1  0.78153000  0.52179000  0.82580000  1.0 -0.2904480977
C  C799  1  0.21847000  0.02179000  0.67420000  1.0 -0.2904480977
C  C800  1  0.71847000  0.47821000  0.32580000  1.0 -0.2904480977
C  C801  1  0.17420000  0.28153000  0.97821000  1.0 -0.2904480977
C  C802  1  0.82580000  0.78153000  0.52179000  1.0 -0.2904480977
C  C803  1  0.67420000  0.21847000  0.02179000  1.0 -0.2904480977
C  C804  1  0.32580000  0.71847000  0.47821000  1.0 -0.2904480977
C  C805  1  0.02179000  0.82580000  0.71847000  1.0 -0.2904480977
C  C806  1  0.47821000  0.17420000  0.21847000  1.0 -0.2904480977
C  C807  1  0.97821000  0.32580000  0.78153000  1.0 -0.2904480977
C  C808  1  0.52179000  0.67420000  0.28153000  1.0 -0.2904480977
C  C809  1  0.71847000  0.02179000  0.82580000  1.0 -0.2904480977
C  C810  1  0.21847000  0.47821000  0.17420000  1.0 -0.2904480977
C  C811  1  0.78153000  0.97821000  0.32580000  1.0 -0.2904480977
C  C812  1  0.28153000  0.52179000  0.67420000  1.0 -0.2904480977
C  C813  1  0.82580000  0.71847000  0.02179000  1.0 -0.2904480977
C  C814  1  0.17420000  0.21847000  0.47821000  1.0 -0.2904480977
C  C815  1  0.32580000  0.78153000  0.97821000  1.0 -0.2904480977
C  C816  1  0.67420000  0.28153000  0.52179000  1.0 -0.2904480977
C  C817  1  0.91654000  0.21301000  0.98421000  1.0 -0.2904480977
C  C818  1  0.58346000  0.78699000  0.48421000  1.0 -0.2904480977
C  C819  1  0.08346000  0.71301000  0.51579000  1.0 -0.2904480977
C  C820  1  0.41654000  0.28699000  0.01579000  1.0 -0.2904480977
C  C821  1  0.98421000  0.91654000  0.21301000  1.0 -0.2904480977
C  C822  1  0.48421000  0.58346000  0.78699000  1.0 -0.2904480977
C  C823  1  0.51579000  0.08346000  0.71301000  1.0 -0.2904480977
C  C824  1  0.01579000  0.41654000  0.28699000  1.0 -0.2904480977
C  C825  1  0.21301000  0.98421000  0.91654000  1.0 -0.2904480977
C  C826  1  0.78699000  0.48421000  0.58346000  1.0 -0.2904480977
C  C827  1  0.71301000  0.51579000  0.08346000  1.0 -0.2904480977
C  C828  1  0.28699000  0.01579000  0.41654000  1.0 -0.2904480977
C  C829  1  0.08346000  0.78699000  0.01579000  1.0 -0.2904480977
C  C830  1  0.41654000  0.21301000  0.51579000  1.0 -0.2904480977
C  C831  1  0.91654000  0.28699000  0.48421000  1.0 -0.2904480977
C  C832  1  0.58346000  0.71301000  0.98421000  1.0 -0.2904480977
C  C833  1  0.01579000  0.08346000  0.78699000  1.0 -0.2904480977
C  C834  1  0.51579000  0.41654000  0.21301000  1.0 -0.2904480977
C  C835  1  0.48421000  0.91654000  0.28699000  1.0 -0.2904480977
C  C836  1  0.98421000  0.58346000  0.71301000  1.0 -0.2904480977
C  C837  1  0.78699000  0.01579000  0.08346000  1.0 -0.2904480977
C  C838  1  0.21301000  0.51579000  0.41654000  1.0 -0.2904480977
C  C839  1  0.28699000  0.48421000  0.91654000  1.0 -0.2904480977
C  C840  1  0.71301000  0.98421000  0.58346000  1.0 -0.2904480977
C  C841  1  0.94085000  0.20054000  0.94655000  1.0 -0.1395537252
C  C842  1  0.55915000  0.79946000  0.44655000  1.0 -0.1395537252
C  C843  1  0.05915000  0.70054000  0.55345000  1.0 -0.1395537252
C  C844  1  0.44085000  0.29946000  0.05345000  1.0 -0.1395537252
C  C845  1  0.94655000  0.94085000  0.20054000  1.0 -0.1395537252
C  C846  1  0.44655000  0.55915000  0.79946000  1.0 -0.1395537252
C  C847  1  0.55345000  0.05915000  0.70054000  1.0 -0.1395537252
C  C848  1  0.05345000  0.44085000  0.29946000  1.0 -0.1395537252
C  C849  1  0.20054000  0.94655000  0.94085000  1.0 -0.1395537252
C  C850  1  0.79946000  0.44655000  0.55915000  1.0 -0.1395537252
C  C851  1  0.70054000  0.55345000  0.05915000  1.0 -0.1395537252
C  C852  1  0.29946000  0.05345000  0.44085000  1.0 -0.1395537252
C  C853  1  0.05915000  0.79946000  0.05345000  1.0 -0.1395537252
C  C854  1  0.44085000  0.20054000  0.55345000  1.0 -0.1395537252
C  C855  1  0.94085000  0.29946000  0.44655000  1.0 -0.1395537252
C  C856  1  0.55915000  0.70054000  0.94655000  1.0 -0.1395537252
C  C857  1  0.05345000  0.05915000  0.79946000  1.0 -0.1395537252
C  C858  1  0.55345000  0.44085000  0.20054000  1.0 -0.1395537252
C  C859  1  0.44655000  0.94085000  0.29946000  1.0 -0.1395537252
C  C860  1  0.94655000  0.55915000  0.70054000  1.0 -0.1395537252
C  C861  1  0.79946000  0.05345000  0.05915000  1.0 -0.1395537252
C  C862  1  0.20054000  0.55345000  0.44085000  1.0 -0.1395537252
C  C863  1  0.29946000  0.44655000  0.94085000  1.0 -0.1395537252
C  C864  1  0.70054000  0.94655000  0.55915000  1.0 -0.1395537252
C  C865  1  0.96780000  0.23580000  0.93051000  1.0 -0.1327441797
C  C866  1  0.53220000  0.76420000  0.43051000  1.0 -0.1327441797
C  C867  1  0.03220000  0.73580000  0.56949000  1.0 -0.1327441797
C  C868  1  0.46780000  0.26420000  0.06949000  1.0 -0.1327441797
C  C869  1  0.93051000  0.96780000  0.23580000  1.0 -0.1327441797
C  C870  1  0.43051000  0.53220000  0.76420000  1.0 -0.1327441797
C  C871  1  0.56949000  0.03220000  0.73580000  1.0 -0.1327441797
C  C872  1  0.06949000  0.46780000  0.26420000  1.0 -0.1327441797
C  C873  1  0.23580000  0.93051000  0.96780000  1.0 -0.1327441797
C  C874  1  0.76420000  0.43051000  0.53220000  1.0 -0.1327441797
C  C875  1  0.73580000  0.56949000  0.03220000  1.0 -0.1327441797
C  C876  1  0.26420000  0.06949000  0.46780000  1.0 -0.1327441797
C  C877  1  0.03220000  0.76420000  0.06949000  1.0 -0.1327441797
C  C878  1  0.46780000  0.23580000  0.56949000  1.0 -0.1327441797
C  C879  1  0.96780000  0.26420000  0.43051000  1.0 -0.1327441797
C  C880  1  0.53220000  0.73580000  0.93051000  1.0 -0.1327441797
C  C881  1  0.06949000  0.03220000  0.76420000  1.0 -0.1327441797
C  C882  1  0.56949000  0.46780000  0.23580000  1.0 -0.1327441797
C  C883  1  0.43051000  0.96780000  0.26420000  1.0 -0.1327441797
C  C884  1  0.93051000  0.53220000  0.73580000  1.0 -0.1327441797
C  C885  1  0.76420000  0.06949000  0.03220000  1.0 -0.1327441797
C  C886  1  0.23580000  0.56949000  0.46780000  1.0 -0.1327441797
C  C887  1  0.26420000  0.43051000  0.96780000  1.0 -0.1327441797
C  C888  1  0.73580000  0.93051000  0.53220000  1.0 -0.1327441797
C  C889  1  0.96413000  0.27305000  0.95590000  1.0 -0.3002302662
C  C890  1  0.53587000  0.72695000  0.45590000  1.0 -0.3002302662
C  C891  1  0.03587000  0.77305000  0.54410000  1.0 -0.3002302662
C  C892  1  0.46413000  0.22695000  0.04410000  1.0 -0.3002302662
C  C893  1  0.95590000  0.96413000  0.27305000  1.0 -0.3002302662
C  C894  1  0.45590000  0.53587000  0.72695000  1.0 -0.3002302662
C  C895  1  0.54410000  0.03587000  0.77305000  1.0 -0.3002302662
C  C896  1  0.04410000  0.46413000  0.22695000  1.0 -0.3002302662
C  C897  1  0.27305000  0.95590000  0.96413000  1.0 -0.3002302662
C  C898  1  0.72695000  0.45590000  0.53587000  1.0 -0.3002302662
C  C899  1  0.77305000  0.54410000  0.03587000  1.0 -0.3002302662
C  C900  1  0.22695000  0.04410000  0.46413000  1.0 -0.3002302662
C  C901  1  0.03587000  0.72695000  0.04410000  1.0 -0.3002302662
C  C902  1  0.46413000  0.27305000  0.54410000  1.0 -0.3002302662
C  C903  1  0.96413000  0.22695000  0.45590000  1.0 -0.3002302662
C  C904  1  0.53587000  0.77305000  0.95590000  1.0 -0.3002302662
C  C905  1  0.04410000  0.03587000  0.72695000  1.0 -0.3002302662
C  C906  1  0.54410000  0.46413000  0.27305000  1.0 -0.3002302662
C  C907  1  0.45590000  0.96413000  0.22695000  1.0 -0.3002302662
C  C908  1  0.95590000  0.53587000  0.77305000  1.0 -0.3002302662
C  C909  1  0.72695000  0.04410000  0.03587000  1.0 -0.3002302662
C  C910  1  0.27305000  0.54410000  0.46413000  1.0 -0.3002302662
C  C911  1  0.22695000  0.45590000  0.96413000  1.0 -0.3002302662
C  C912  1  0.77305000  0.95590000  0.53587000  1.0 -0.3002302662
C  C913  1  0.13554000  0.36993000  0.18880000  1.0 -0.3002302662
C  C914  1  0.36446000  0.63007000  0.68880000  1.0 -0.3002302662
C  C915  1  0.86446000  0.86993000  0.31120000  1.0 -0.3002302662
C  C916  1  0.63554000  0.13007000  0.81120000  1.0 -0.3002302662
C  C917  1  0.18880000  0.13554000  0.36993000  1.0 -0.3002302662
C  C918  1  0.68880000  0.36446000  0.63007000  1.0 -0.3002302662
C  C919  1  0.31120000  0.86446000  0.86993000  1.0 -0.3002302662
C  C920  1  0.81120000  0.63554000  0.13007000  1.0 -0.3002302662
C  C921  1  0.36993000  0.18880000  0.13554000  1.0 -0.3002302662
C  C922  1  0.63007000  0.68880000  0.36446000  1.0 -0.3002302662
C  C923  1  0.86993000  0.31120000  0.86446000  1.0 -0.3002302662
C  C924  1  0.13007000  0.81120000  0.63554000  1.0 -0.3002302662
C  C925  1  0.86446000  0.63007000  0.81120000  1.0 -0.3002302662
C  C926  1  0.63554000  0.36993000  0.31120000  1.0 -0.3002302662
C  C927  1  0.13554000  0.13007000  0.68880000  1.0 -0.3002302662
C  C928  1  0.36446000  0.86993000  0.18880000  1.0 -0.3002302662
C  C929  1  0.81120000  0.86446000  0.63007000  1.0 -0.3002302662
C  C930  1  0.31120000  0.63554000  0.36993000  1.0 -0.3002302662
C  C931  1  0.68880000  0.13554000  0.13007000  1.0 -0.3002302662
C  C932  1  0.18880000  0.36446000  0.86993000  1.0 -0.3002302662
C  C933  1  0.63007000  0.81120000  0.86446000  1.0 -0.3002302662
C  C934  1  0.36993000  0.31120000  0.63554000  1.0 -0.3002302662
C  C935  1  0.13007000  0.68880000  0.13554000  1.0 -0.3002302662
C  C936  1  0.86993000  0.18880000  0.36446000  1.0 -0.3002302662
C  C937  1  0.17167000  0.35267000  0.20780000  1.0 -0.1327441797
C  C938  1  0.32833000  0.64733000  0.70780000  1.0 -0.1327441797
C  C939  1  0.82833000  0.85267000  0.29220000  1.0 -0.1327441797
C  C940  1  0.67167000  0.14733000  0.79220000  1.0 -0.1327441797
C  C941  1  0.20780000  0.17167000  0.35267000  1.0 -0.1327441797
C  C942  1  0.70780000  0.32833000  0.64733000  1.0 -0.1327441797
C  C943  1  0.29220000  0.82833000  0.85267000  1.0 -0.1327441797
C  C944  1  0.79220000  0.67167000  0.14733000  1.0 -0.1327441797
C  C945  1  0.35267000  0.20780000  0.17167000  1.0 -0.1327441797
C  C946  1  0.64733000  0.70780000  0.32833000  1.0 -0.1327441797
C  C947  1  0.85267000  0.29220000  0.82833000  1.0 -0.1327441797
C  C948  1  0.14733000  0.79220000  0.67167000  1.0 -0.1327441797
C  C949  1  0.82833000  0.64733000  0.79220000  1.0 -0.1327441797
C  C950  1  0.67167000  0.35267000  0.29220000  1.0 -0.1327441797
C  C951  1  0.17167000  0.14733000  0.70780000  1.0 -0.1327441797
C  C952  1  0.32833000  0.85267000  0.20780000  1.0 -0.1327441797
C  C953  1  0.79220000  0.82833000  0.64733000  1.0 -0.1327441797
C  C954  1  0.29220000  0.67167000  0.35267000  1.0 -0.1327441797
C  C955  1  0.70780000  0.17167000  0.14733000  1.0 -0.1327441797
C  C956  1  0.20780000  0.32833000  0.85267000  1.0 -0.1327441797
C  C957  1  0.64733000  0.79220000  0.82833000  1.0 -0.1327441797
C  C958  1  0.35267000  0.29220000  0.67167000  1.0 -0.1327441797
C  C959  1  0.14733000  0.70780000  0.17167000  1.0 -0.1327441797
C  C960  1  0.85267000  0.20780000  0.32833000  1.0 -0.1327441797
C  C961  1  0.16085000  0.32448000  0.24041000  1.0 -0.1327441797
C  C962  1  0.33915000  0.67552000  0.74041000  1.0 -0.1327441797
C  C963  1  0.83915000  0.82448000  0.25959000  1.0 -0.1327441797
C  C964  1  0.66085000  0.17552000  0.75959000  1.0 -0.1327441797
C  C965  1  0.24041000  0.16085000  0.32448000  1.0 -0.1327441797
C  C966  1  0.74041000  0.33915000  0.67552000  1.0 -0.1327441797
C  C967  1  0.25959000  0.83915000  0.82448000  1.0 -0.1327441797
C  C968  1  0.75959000  0.66085000  0.17552000  1.0 -0.1327441797
C  C969  1  0.32448000  0.24041000  0.16085000  1.0 -0.1327441797
C  C970  1  0.67552000  0.74041000  0.33915000  1.0 -0.1327441797
C  C971  1  0.82448000  0.25959000  0.83915000  1.0 -0.1327441797
C  C972  1  0.17552000  0.75959000  0.66085000  1.0 -0.1327441797
C  C973  1  0.83915000  0.67552000  0.75959000  1.0 -0.1327441797
C  C974  1  0.66085000  0.32448000  0.25959000  1.0 -0.1327441797
C  C975  1  0.16085000  0.17552000  0.74041000  1.0 -0.1327441797
C  C976  1  0.33915000  0.82448000  0.24041000  1.0 -0.1327441797
C  C977  1  0.75959000  0.83915000  0.67552000  1.0 -0.1327441797
C  C978  1  0.25959000  0.66085000  0.32448000  1.0 -0.1327441797
C  C979  1  0.74041000  0.16085000  0.17552000  1.0 -0.1327441797
C  C980  1  0.24041000  0.33915000  0.82448000  1.0 -0.1327441797
C  C981  1  0.67552000  0.75959000  0.83915000  1.0 -0.1327441797
C  C982  1  0.32448000  0.25959000  0.66085000  1.0 -0.1327441797
C  C983  1  0.17552000  0.74041000  0.16085000  1.0 -0.1327441797
C  C984  1  0.82448000  0.24041000  0.33915000  1.0 -0.1327441797
C  C985  1  0.11679000  0.32561000  0.25281000  1.0 -0.2904480977
C  C986  1  0.38321000  0.67439000  0.75281000  1.0 -0.2904480977
C  C987  1  0.88321000  0.82561000  0.24719000  1.0 -0.2904480977
C  C988  1  0.61679000  0.17439000  0.74719000  1.0 -0.2904480977
C  C989  1  0.25281000  0.11679000  0.32561000  1.0 -0.2904480977
C  C990  1  0.75281000  0.38321000  0.67439000  1.0 -0.2904480977
C  C991  1  0.24719000  0.88321000  0.82561000  1.0 -0.2904480977
C  C992  1  0.74719000  0.61679000  0.17439000  1.0 -0.2904480977
C  C993  1  0.32561000  0.25281000  0.11679000  1.0 -0.2904480977
C  C994  1  0.67439000  0.75281000  0.38321000  1.0 -0.2904480977
C  C995  1  0.82561000  0.24719000  0.88321000  1.0 -0.2904480977
C  C996  1  0.17439000  0.74719000  0.61679000  1.0 -0.2904480977
C  C997  1  0.88321000  0.67439000  0.74719000  1.0 -0.2904480977
C  C998  1  0.61679000  0.32561000  0.24719000  1.0 -0.2904480977
C  C999  1  0.11679000  0.17439000  0.75281000  1.0 -0.2904480977
C  C1000  1  0.38321000  0.82561000  0.25281000  1.0 -0.2904480977
C  C1001  1  0.74719000  0.88321000  0.67439000  1.0 -0.2904480977
C  C1002  1  0.24719000  0.61679000  0.32561000  1.0 -0.2904480977
C  C1003  1  0.75281000  0.11679000  0.17439000  1.0 -0.2904480977
C  C1004  1  0.25281000  0.38321000  0.82561000  1.0 -0.2904480977
C  C1005  1  0.67439000  0.74719000  0.88321000  1.0 -0.2904480977
C  C1006  1  0.32561000  0.24719000  0.61679000  1.0 -0.2904480977
C  C1007  1  0.17439000  0.75281000  0.11679000  1.0 -0.2904480977
C  C1008  1  0.82561000  0.25281000  0.38321000  1.0 -0.2904480977
N  N1  1  0.05699000  0.21954000  0.22888000  1.0 -0.2398760372
N  N2  1  0.44301000  0.78046000  0.72888000  1.0 -0.2398760372
N  N3  1  0.94301000  0.71954000  0.27112000  1.0 -0.2398760372
N  N4  1  0.55699000  0.28046000  0.77112000  1.0 -0.2398760372
N  N5  1  0.22888000  0.05699000  0.21954000  1.0 -0.2398760372
N  N6  1  0.72888000  0.44301000  0.78046000  1.0 -0.2398760372
N  N7  1  0.27112000  0.94301000  0.71954000  1.0 -0.2398760372
N  N8  1  0.77112000  0.55699000  0.28046000  1.0 -0.2398760372
N  N9  1  0.21954000  0.22888000  0.05699000  1.0 -0.2398760372
N  N10  1  0.78046000  0.72888000  0.44301000  1.0 -0.2398760372
N  N11  1  0.71954000  0.27112000  0.94301000  1.0 -0.2398760372
N  N12  1  0.28046000  0.77112000  0.55699000  1.0 -0.2398760372
N  N13  1  0.94301000  0.78046000  0.77112000  1.0 -0.2398760372
N  N14  1  0.55699000  0.21954000  0.27112000  1.0 -0.2398760372
N  N15  1  0.05699000  0.28046000  0.72888000  1.0 -0.2398760372
N  N16  1  0.44301000  0.71954000  0.22888000  1.0 -0.2398760372
N  N17  1  0.77112000  0.94301000  0.78046000  1.0 -0.2398760372
N  N18  1  0.27112000  0.55699000  0.21954000  1.0 -0.2398760372
N  N19  1  0.72888000  0.05699000  0.28046000  1.0 -0.2398760372
N  N20  1  0.22888000  0.44301000  0.71954000  1.0 -0.2398760372
N  N21  1  0.78046000  0.77112000  0.94301000  1.0 -0.2398760372
N  N22  1  0.21954000  0.27112000  0.55699000  1.0 -0.2398760372
N  N23  1  0.28046000  0.72888000  0.05699000  1.0 -0.2398760372
N  N24  1  0.71954000  0.22888000  0.44301000  1.0 -0.2398760372
N  N25  1  0.00951000  0.17625000  0.21325000  1.0 -0.2823663845
N  N26  1  0.49049000  0.82375000  0.71325000  1.0 -0.2823663845
N  N27  1  0.99049000  0.67625000  0.28675000  1.0 -0.2823663845
N  N28  1  0.50951000  0.32375000  0.78675000  1.0 -0.2823663845
N  N29  1  0.21325000  0.00951000  0.17625000  1.0 -0.2823663845
N  N30  1  0.71325000  0.49049000  0.82375000  1.0 -0.2823663845
N  N31  1  0.28675000  0.99049000  0.67625000  1.0 -0.2823663845
N  N32  1  0.78675000  0.50951000  0.32375000  1.0 -0.2823663845
N  N33  1  0.17625000  0.21325000  0.00951000  1.0 -0.2823663845
N  N34  1  0.82375000  0.71325000  0.49049000  1.0 -0.2823663845
N  N35  1  0.67625000  0.28675000  0.99049000  1.0 -0.2823663845
N  N36  1  0.32375000  0.78675000  0.50951000  1.0 -0.2823663845
N  N37  1  0.99049000  0.82375000  0.78675000  1.0 -0.2823663845
N  N38  1  0.50951000  0.17625000  0.28675000  1.0 -0.2823663845
N  N39  1  0.00951000  0.32375000  0.71325000  1.0 -0.2823663845
N  N40  1  0.49049000  0.67625000  0.21325000  1.0 -0.2823663845
N  N41  1  0.78675000  0.99049000  0.82375000  1.0 -0.2823663845
N  N42  1  0.28675000  0.50951000  0.17625000  1.0 -0.2823663845
N  N43  1  0.71325000  0.00951000  0.32375000  1.0 -0.2823663845
N  N44  1  0.21325000  0.49049000  0.67625000  1.0 -0.2823663845
N  N45  1  0.82375000  0.78675000  0.99049000  1.0 -0.2823663845
N  N46  1  0.17625000  0.28675000  0.50951000  1.0 -0.2823663845
N  N47  1  0.32375000  0.71325000  0.00951000  1.0 -0.2823663845
N  N48  1  0.67625000  0.21325000  0.49049000  1.0 -0.2823663845
N  N49  1  0.00647000  0.26914000  0.24665000  1.0 -0.2285145807
N  N50  1  0.49353000  0.73086000  0.74665000  1.0 -0.2285145807
N  N51  1  0.99353000  0.76914000  0.25335000  1.0 -0.2285145807
N  N52  1  0.50647000  0.23086000  0.75335000  1.0 -0.2285145807
N  N53  1  0.24665000  0.00647000  0.26914000  1.0 -0.2285145807
N  N54  1  0.74665000  0.49353000  0.73086000  1.0 -0.2285145807
N  N55  1  0.25335000  0.99353000  0.76914000  1.0 -0.2285145807
N  N56  1  0.75335000  0.50647000  0.23086000  1.0 -0.2285145807
N  N57  1  0.26914000  0.24665000  0.00647000  1.0 -0.2285145807
N  N58  1  0.73086000  0.74665000  0.49353000  1.0 -0.2285145807
N  N59  1  0.76914000  0.25335000  0.99353000  1.0 -0.2285145807
N  N60  1  0.23086000  0.75335000  0.50647000  1.0 -0.2285145807
N  N61  1  0.99353000  0.73086000  0.75335000  1.0 -0.2285145807
N  N62  1  0.50647000  0.26914000  0.25335000  1.0 -0.2285145807
N  N63  1  0.00647000  0.23086000  0.74665000  1.0 -0.2285145807
N  N64  1  0.49353000  0.76914000  0.24665000  1.0 -0.2285145807
N  N65  1  0.75335000  0.99353000  0.73086000  1.0 -0.2285145807
N  N66  1  0.25335000  0.50647000  0.26914000  1.0 -0.2285145807
N  N67  1  0.74665000  0.00647000  0.23086000  1.0 -0.2285145807
N  N68  1  0.24665000  0.49353000  0.76914000  1.0 -0.2285145807
N  N69  1  0.73086000  0.75335000  0.99353000  1.0 -0.2285145807
N  N70  1  0.26914000  0.25335000  0.50647000  1.0 -0.2285145807
N  N71  1  0.23086000  0.74665000  0.00647000  1.0 -0.2285145807
N  N72  1  0.76914000  0.24665000  0.49353000  1.0 -0.2285145807
N  N73  1  0.95852000  0.22549000  0.23171000  1.0 -0.2609323506
N  N74  1  0.54148000  0.77451000  0.73171000  1.0 -0.2609323506
N  N75  1  0.04148000  0.72549000  0.26829000  1.0 -0.2609323506
N  N76  1  0.45852000  0.27451000  0.76829000  1.0 -0.2609323506
N  N77  1  0.23171000  0.95852000  0.22549000  1.0 -0.2609323506
N  N78  1  0.73171000  0.54148000  0.77451000  1.0 -0.2609323506
N  N79  1  0.26829000  0.04148000  0.72549000  1.0 -0.2609323506
N  N80  1  0.76829000  0.45852000  0.27451000  1.0 -0.2609323506
N  N81  1  0.22549000  0.23171000  0.95852000  1.0 -0.2609323506
N  N82  1  0.77451000  0.73171000  0.54148000  1.0 -0.2609323506
N  N83  1  0.72549000  0.26829000  0.04148000  1.0 -0.2609323506
N  N84  1  0.27451000  0.76829000  0.45852000  1.0 -0.2609323506
N  N85  1  0.04148000  0.77451000  0.76829000  1.0 -0.2609323506
N  N86  1  0.45852000  0.22549000  0.26829000  1.0 -0.2609323506
N  N87  1  0.95852000  0.27451000  0.73171000  1.0 -0.2609323506
N  N88  1  0.54148000  0.72549000  0.23171000  1.0 -0.2609323506
N  N89  1  0.76829000  0.04148000  0.77451000  1.0 -0.2609323506
N  N90  1  0.26829000  0.45852000  0.22549000  1.0 -0.2609323506
N  N91  1  0.73171000  0.95852000  0.27451000  1.0 -0.2609323506
N  N92  1  0.23171000  0.54148000  0.72549000  1.0 -0.2609323506
N  N93  1  0.77451000  0.76829000  0.04148000  1.0 -0.2609323506
N  N94  1  0.22549000  0.26829000  0.45852000  1.0 -0.2609323506
N  N95  1  0.27451000  0.73171000  0.95852000  1.0 -0.2609323506
N  N96  1  0.72549000  0.23171000  0.54148000  1.0 -0.2609323506
N  N97  1  0.97001000  0.15266000  0.15660000  1.0 -0.2285145807
N  N98  1  0.52999000  0.84734000  0.65660000  1.0 -0.2285145807
N  N99  1  0.02999000  0.65266000  0.34340000  1.0 -0.2285145807
N  N100  1  0.47001000  0.34734000  0.84340000  1.0 -0.2285145807
N  N101  1  0.15660000  0.97001000  0.15266000  1.0 -0.2285145807
N  N102  1  0.65660000  0.52999000  0.84734000  1.0 -0.2285145807
N  N103  1  0.34340000  0.02999000  0.65266000  1.0 -0.2285145807
N  N104  1  0.84340000  0.47001000  0.34734000  1.0 -0.2285145807
N  N105  1  0.15266000  0.15660000  0.97001000  1.0 -0.2285145807
N  N106  1  0.84734000  0.65660000  0.52999000  1.0 -0.2285145807
N  N107  1  0.65266000  0.34340000  0.02999000  1.0 -0.2285145807
N  N108  1  0.34734000  0.84340000  0.47001000  1.0 -0.2285145807
N  N109  1  0.02999000  0.84734000  0.84340000  1.0 -0.2285145807
N  N110  1  0.47001000  0.15266000  0.34340000  1.0 -0.2285145807
N  N111  1  0.97001000  0.34734000  0.65660000  1.0 -0.2285145807
N  N112  1  0.52999000  0.65266000  0.15660000  1.0 -0.2285145807
N  N113  1  0.84340000  0.02999000  0.84734000  1.0 -0.2285145807
N  N114  1  0.34340000  0.47001000  0.15266000  1.0 -0.2285145807
N  N115  1  0.65660000  0.97001000  0.34734000  1.0 -0.2285145807
N  N116  1  0.15660000  0.52999000  0.65266000  1.0 -0.2285145807
N  N117  1  0.84734000  0.84340000  0.02999000  1.0 -0.2285145807
N  N118  1  0.15266000  0.34340000  0.47001000  1.0 -0.2285145807
N  N119  1  0.34734000  0.65660000  0.97001000  1.0 -0.2285145807
N  N120  1  0.65266000  0.15660000  0.52999000  1.0 -0.2285145807
N  N121  1  0.95779000  0.16408000  0.09275000  1.0 -0.219691294
N  N122  1  0.54221000  0.83592000  0.59275000  1.0 -0.219691294
N  N123  1  0.04221000  0.66408000  0.40725000  1.0 -0.219691294
N  N124  1  0.45779000  0.33592000  0.90725000  1.0 -0.219691294
N  N125  1  0.09275000  0.95779000  0.16408000  1.0 -0.219691294
N  N126  1  0.59275000  0.54221000  0.83592000  1.0 -0.219691294
N  N127  1  0.40725000  0.04221000  0.66408000  1.0 -0.219691294
N  N128  1  0.90725000  0.45779000  0.33592000  1.0 -0.219691294
N  N129  1  0.16408000  0.09275000  0.95779000  1.0 -0.219691294
N  N130  1  0.83592000  0.59275000  0.54221000  1.0 -0.219691294
N  N131  1  0.66408000  0.40725000  0.04221000  1.0 -0.219691294
N  N132  1  0.33592000  0.90725000  0.45779000  1.0 -0.219691294
N  N133  1  0.04221000  0.83592000  0.90725000  1.0 -0.219691294
N  N134  1  0.45779000  0.16408000  0.40725000  1.0 -0.219691294
N  N135  1  0.95779000  0.33592000  0.59275000  1.0 -0.219691294
N  N136  1  0.54221000  0.66408000  0.09275000  1.0 -0.219691294
N  N137  1  0.90725000  0.04221000  0.83592000  1.0 -0.219691294
N  N138  1  0.40725000  0.45779000  0.16408000  1.0 -0.219691294
N  N139  1  0.59275000  0.95779000  0.33592000  1.0 -0.219691294
N  N140  1  0.09275000  0.54221000  0.66408000  1.0 -0.219691294
N  N141  1  0.83592000  0.90725000  0.04221000  1.0 -0.219691294
N  N142  1  0.16408000  0.40725000  0.45779000  1.0 -0.219691294
N  N143  1  0.33592000  0.59275000  0.95779000  1.0 -0.219691294
N  N144  1  0.66408000  0.09275000  0.54221000  1.0 -0.219691294
N  N145  1  0.92031000  0.20354000  0.17407000  1.0 -0.248611607
N  N146  1  0.57969000  0.79646000  0.67407000  1.0 -0.248611607
N  N147  1  0.07969000  0.70354000  0.32593000  1.0 -0.248611607
N  N148  1  0.42031000  0.29646000  0.82593000  1.0 -0.248611607
N  N149  1  0.17407000  0.92031000  0.20354000  1.0 -0.248611607
N  N150  1  0.67407000  0.57969000  0.79646000  1.0 -0.248611607
N  N151  1  0.32593000  0.07969000  0.70354000  1.0 -0.248611607
N  N152  1  0.82593000  0.42031000  0.29646000  1.0 -0.248611607
N  N153  1  0.20354000  0.17407000  0.92031000  1.0 -0.248611607
N  N154  1  0.79646000  0.67407000  0.57969000  1.0 -0.248611607
N  N155  1  0.70354000  0.32593000  0.07969000  1.0 -0.248611607
N  N156  1  0.29646000  0.82593000  0.42031000  1.0 -0.248611607
N  N157  1  0.07969000  0.79646000  0.82593000  1.0 -0.248611607
N  N158  1  0.42031000  0.20354000  0.32593000  1.0 -0.248611607
N  N159  1  0.92031000  0.29646000  0.67407000  1.0 -0.248611607
N  N160  1  0.57969000  0.70354000  0.17407000  1.0 -0.248611607
N  N161  1  0.82593000  0.07969000  0.79646000  1.0 -0.248611607
N  N162  1  0.32593000  0.42031000  0.20354000  1.0 -0.248611607
N  N163  1  0.67407000  0.92031000  0.29646000  1.0 -0.248611607
N  N164  1  0.17407000  0.57969000  0.70354000  1.0 -0.248611607
N  N165  1  0.79646000  0.82593000  0.07969000  1.0 -0.248611607
N  N166  1  0.20354000  0.32593000  0.42031000  1.0 -0.248611607
N  N167  1  0.29646000  0.67407000  0.92031000  1.0 -0.248611607
N  N168  1  0.70354000  0.17407000  0.57969000  1.0 -0.248611607
N  N169  1  0.90551000  0.21166000  0.10909000  1.0 -0.248611607
N  N170  1  0.59449000  0.78834000  0.60909000  1.0 -0.248611607
N  N171  1  0.09449000  0.71166000  0.39091000  1.0 -0.248611607
N  N172  1  0.40551000  0.28834000  0.89091000  1.0 -0.248611607
N  N173  1  0.10909000  0.90551000  0.21166000  1.0 -0.248611607
N  N174  1  0.60909000  0.59449000  0.78834000  1.0 -0.248611607
N  N175  1  0.39091000  0.09449000  0.71166000  1.0 -0.248611607
N  N176  1  0.89091000  0.40551000  0.28834000  1.0 -0.248611607
N  N177  1  0.21166000  0.10909000  0.90551000  1.0 -0.248611607
N  N178  1  0.78834000  0.60909000  0.59449000  1.0 -0.248611607
N  N179  1  0.71166000  0.39091000  0.09449000  1.0 -0.248611607
N  N180  1  0.28834000  0.89091000  0.40551000  1.0 -0.248611607
N  N181  1  0.09449000  0.78834000  0.89091000  1.0 -0.248611607
N  N182  1  0.40551000  0.21166000  0.39091000  1.0 -0.248611607
N  N183  1  0.90551000  0.28834000  0.60909000  1.0 -0.248611607
N  N184  1  0.59449000  0.71166000  0.10909000  1.0 -0.248611607
N  N185  1  0.89091000  0.09449000  0.78834000  1.0 -0.248611607
N  N186  1  0.39091000  0.40551000  0.21166000  1.0 -0.248611607
N  N187  1  0.60909000  0.90551000  0.28834000  1.0 -0.248611607
N  N188  1  0.10909000  0.59449000  0.71166000  1.0 -0.248611607
N  N189  1  0.78834000  0.89091000  0.09449000  1.0 -0.248611607
N  N190  1  0.21166000  0.39091000  0.40551000  1.0 -0.248611607
N  N191  1  0.28834000  0.60909000  0.90551000  1.0 -0.248611607
N  N192  1  0.71166000  0.10909000  0.59449000  1.0 -0.248611607
N  N193  1  0.97393000  0.20004000  0.03088000  1.0 -0.2398760372
N  N194  1  0.52607000  0.79996000  0.53088000  1.0 -0.2398760372
N  N195  1  0.02607000  0.70004000  0.46912000  1.0 -0.2398760372
N  N196  1  0.47393000  0.29996000  0.96912000  1.0 -0.2398760372
N  N197  1  0.03088000  0.97393000  0.20004000  1.0 -0.2398760372
N  N198  1  0.53088000  0.52607000  0.79996000  1.0 -0.2398760372
N  N199  1  0.46912000  0.02607000  0.70004000  1.0 -0.2398760372
N  N200  1  0.96912000  0.47393000  0.29996000  1.0 -0.2398760372
N  N201  1  0.20004000  0.03088000  0.97393000  1.0 -0.2398760372
N  N202  1  0.79996000  0.53088000  0.52607000  1.0 -0.2398760372
N  N203  1  0.70004000  0.46912000  0.02607000  1.0 -0.2398760372
N  N204  1  0.29996000  0.96912000  0.47393000  1.0 -0.2398760372
N  N205  1  0.02607000  0.79996000  0.96912000  1.0 -0.2398760372
N  N206  1  0.47393000  0.20004000  0.46912000  1.0 -0.2398760372
N  N207  1  0.97393000  0.29996000  0.53088000  1.0 -0.2398760372
N  N208  1  0.52607000  0.70004000  0.03088000  1.0 -0.2398760372
N  N209  1  0.96912000  0.02607000  0.79996000  1.0 -0.2398760372
N  N210  1  0.46912000  0.47393000  0.20004000  1.0 -0.2398760372
N  N211  1  0.53088000  0.97393000  0.29996000  1.0 -0.2398760372
N  N212  1  0.03088000  0.52607000  0.70004000  1.0 -0.2398760372
N  N213  1  0.79996000  0.96912000  0.02607000  1.0 -0.2398760372
N  N214  1  0.20004000  0.46912000  0.47393000  1.0 -0.2398760372
N  N215  1  0.29996000  0.53088000  0.97393000  1.0 -0.2398760372
N  N216  1  0.70004000  0.03088000  0.52607000  1.0 -0.2398760372
N  N217  1  0.01191000  0.24854000  0.00702000  1.0 -0.2398760372
N  N218  1  0.48809000  0.75146000  0.50702000  1.0 -0.2398760372
N  N219  1  0.98809000  0.74854000  0.49298000  1.0 -0.2285145807
N  N220  1  0.51191000  0.25146000  0.99298000  1.0 -0.2285145807
N  N221  1  0.00702000  0.01191000  0.24854000  1.0 -0.2398760372
N  N222  1  0.50702000  0.48809000  0.75146000  1.0 -0.2398760372
N  N223  1  0.49298000  0.98809000  0.74854000  1.0 -0.2398760372
N  N224  1  0.99298000  0.51191000  0.25146000  1.0 -0.2285145807
N  N225  1  0.24854000  0.00702000  0.01191000  1.0 -0.2398760372
N  N226  1  0.75146000  0.50702000  0.48809000  1.0 -0.2398760372
N  N227  1  0.74854000  0.49298000  0.98809000  1.0 -0.2285145807
N  N228  1  0.25146000  0.99298000  0.51191000  1.0 -0.2398760372
N  N229  1  0.98809000  0.75146000  0.99298000  1.0 -0.2285145807
N  N230  1  0.51191000  0.24854000  0.49298000  1.0 -0.2398760372
N  N231  1  0.01191000  0.25146000  0.50702000  1.0 -0.2398760372
N  N232  1  0.48809000  0.74854000  0.00702000  1.0 -0.2398760372
N  N233  1  0.99298000  0.98809000  0.75146000  1.0 -0.2285145807
N  N234  1  0.49298000  0.51191000  0.24854000  1.0 -0.2398760372
N  N235  1  0.50702000  0.01191000  0.25146000  1.0 -0.2398760372
N  N236  1  0.00702000  0.48809000  0.74854000  1.0 -0.2398760372
N  N237  1  0.75146000  0.99298000  0.98809000  1.0 -0.2398760372
N  N238  1  0.24854000  0.49298000  0.51191000  1.0 -0.2398760372
N  N239  1  0.25146000  0.50702000  0.01191000  1.0 -0.2398760372
N  N240  1  0.74854000  0.00702000  0.48809000  1.0 -0.2285145807
N  N241  1  0.92273000  0.24895000  0.04918000  1.0 -0.2904480977
N  N242  1  0.57727000  0.75105000  0.54918000  1.0 -0.2904480977
N  N243  1  0.07727000  0.74895000  0.45082000  1.0 -0.2904480977
N  N244  1  0.42273000  0.25105000  0.95082000  1.0 -0.2904480977
N  N245  1  0.04918000  0.92273000  0.24895000  1.0 -0.2904480977
N  N246  1  0.54918000  0.57727000  0.75105000  1.0 -0.2904480977
N  N247  1  0.45082000  0.07727000  0.74895000  1.0 -0.2904480977
N  N248  1  0.95082000  0.42273000  0.25105000  1.0 -0.2904480977
N  N249  1  0.24895000  0.04918000  0.92273000  1.0 -0.2904480977
N  N250  1  0.75105000  0.54918000  0.57727000  1.0 -0.2904480977
N  N251  1  0.74895000  0.45082000  0.07727000  1.0 -0.2904480977
N  N252  1  0.25105000  0.95082000  0.42273000  1.0 -0.2904480977
N  N253  1  0.07727000  0.75105000  0.95082000  1.0 -0.2904480977
N  N254  1  0.42273000  0.24895000  0.45082000  1.0 -0.2904480977
N  N255  1  0.92273000  0.25105000  0.54918000  1.0 -0.2904480977
N  N256  1  0.57727000  0.74895000  0.04918000  1.0 -0.2904480977
N  N257  1  0.95082000  0.07727000  0.75105000  1.0 -0.2904480977
N  N258  1  0.45082000  0.42273000  0.24895000  1.0 -0.2904480977
N  N259  1  0.54918000  0.92273000  0.25105000  1.0 -0.2904480977
N  N260  1  0.04918000  0.57727000  0.74895000  1.0 -0.2904480977
N  N261  1  0.75105000  0.95082000  0.07727000  1.0 -0.2904480977
N  N262  1  0.24895000  0.45082000  0.42273000  1.0 -0.2904480977
N  N263  1  0.25105000  0.54918000  0.92273000  1.0 -0.2904480977
N  N264  1  0.74895000  0.04918000  0.57727000  1.0 -0.2904480977
N  N265  1  0.96249000  0.29787000  0.02654000  1.0 -0.3002302662
N  N266  1  0.53751000  0.70213000  0.52654000  1.0 -0.3002302662
N  N267  1  0.03751000  0.79787000  0.47346000  1.0 -0.3002302662
N  N268  1  0.46249000  0.20213000  0.97346000  1.0 -0.3002302662
N  N269  1  0.02654000  0.96249000  0.29787000  1.0 -0.3002302662
N  N270  1  0.52654000  0.53751000  0.70213000  1.0 -0.3002302662
N  N271  1  0.47346000  0.03751000  0.79787000  1.0 -0.3002302662
N  N272  1  0.97346000  0.46249000  0.20213000  1.0 -0.3002302662
N  N273  1  0.29787000  0.02654000  0.96249000  1.0 -0.3002302662
N  N274  1  0.70213000  0.52654000  0.53751000  1.0 -0.3002302662
N  N275  1  0.79787000  0.47346000  0.03751000  1.0 -0.3002302662
N  N276  1  0.20213000  0.97346000  0.46249000  1.0 -0.3002302662
N  N277  1  0.03751000  0.70213000  0.97346000  1.0 -0.3002302662
N  N278  1  0.46249000  0.29787000  0.47346000  1.0 -0.3002302662
N  N279  1  0.96249000  0.20213000  0.52654000  1.0 -0.3002302662
N  N280  1  0.53751000  0.79787000  0.02654000  1.0 -0.3002302662
N  N281  1  0.97346000  0.03751000  0.70213000  1.0 -0.3002302662
N  N282  1  0.47346000  0.46249000  0.29787000  1.0 -0.3002302662
N  N283  1  0.52654000  0.96249000  0.20213000  1.0 -0.3002302662
N  N284  1  0.02654000  0.53751000  0.79787000  1.0 -0.3002302662
N  N285  1  0.70213000  0.97346000  0.03751000  1.0 -0.3002302662
N  N286  1  0.29787000  0.47346000  0.46249000  1.0 -0.3002302662
N  N287  1  0.20213000  0.52654000  0.96249000  1.0 -0.3002302662
N  N288  1  0.79787000  0.02654000  0.53751000  1.0 -0.3002302662
N  N289  1  0.06288000  0.29527000  0.02900000  1.0 -0.2285145807
N  N290  1  0.43712000  0.70473000  0.52900000  1.0 -0.2285145807
N  N291  1  0.93712000  0.79527000  0.47100000  1.0 -0.2285145807
N  N292  1  0.56288000  0.20473000  0.97100000  1.0 -0.2285145807
N  N293  1  0.02900000  0.06288000  0.29527000  1.0 -0.2285145807
N  N294  1  0.52900000  0.43712000  0.70473000  1.0 -0.2285145807
N  N295  1  0.47100000  0.93712000  0.79527000  1.0 -0.2285145807
N  N296  1  0.97100000  0.56288000  0.20473000  1.0 -0.2285145807
N  N297  1  0.29527000  0.02900000  0.06288000  1.0 -0.2285145807
N  N298  1  0.70473000  0.52900000  0.43712000  1.0 -0.2285145807
N  N299  1  0.79527000  0.47100000  0.93712000  1.0 -0.2285145807
N  N300  1  0.20473000  0.97100000  0.56288000  1.0 -0.2285145807
N  N301  1  0.93712000  0.70473000  0.97100000  1.0 -0.2285145807
N  N302  1  0.56288000  0.29527000  0.47100000  1.0 -0.2285145807
N  N303  1  0.06288000  0.20473000  0.52900000  1.0 -0.2285145807
N  N304  1  0.43712000  0.79527000  0.02900000  1.0 -0.2285145807
N  N305  1  0.97100000  0.93712000  0.70473000  1.0 -0.2285145807
N  N306  1  0.47100000  0.56288000  0.29527000  1.0 -0.2285145807
N  N307  1  0.52900000  0.06288000  0.20473000  1.0 -0.2285145807
N  N308  1  0.02900000  0.43712000  0.79527000  1.0 -0.2285145807
N  N309  1  0.70473000  0.97100000  0.93712000  1.0 -0.2285145807
N  N310  1  0.29527000  0.47100000  0.56288000  1.0 -0.2285145807
N  N311  1  0.20473000  0.52900000  0.06288000  1.0 -0.2285145807
N  N312  1  0.79527000  0.02900000  0.43712000  1.0 -0.2285145807
N  N313  1  0.10215000  0.31767000  0.07920000  1.0 -0.248611607
N  N314  1  0.39785000  0.68233000  0.57920000  1.0 -0.248611607
N  N315  1  0.89785000  0.81767000  0.42080000  1.0 -0.248611607
N  N316  1  0.60215000  0.18233000  0.92080000  1.0 -0.248611607
N  N317  1  0.07920000  0.10215000  0.31767000  1.0 -0.248611607
N  N318  1  0.57920000  0.39785000  0.68233000  1.0 -0.248611607
N  N319  1  0.42080000  0.89785000  0.81767000  1.0 -0.248611607
N  N320  1  0.92080000  0.60215000  0.18233000  1.0 -0.248611607
N  N321  1  0.31767000  0.07920000  0.10215000  1.0 -0.248611607
N  N322  1  0.68233000  0.57920000  0.39785000  1.0 -0.248611607
N  N323  1  0.81767000  0.42080000  0.89785000  1.0 -0.248611607
N  N324  1  0.18233000  0.92080000  0.60215000  1.0 -0.248611607
N  N325  1  0.89785000  0.68233000  0.92080000  1.0 -0.248611607
N  N326  1  0.60215000  0.31767000  0.42080000  1.0 -0.248611607
N  N327  1  0.10215000  0.18233000  0.57920000  1.0 -0.248611607
N  N328  1  0.39785000  0.81767000  0.07920000  1.0 -0.248611607
N  N329  1  0.92080000  0.89785000  0.68233000  1.0 -0.248611607
N  N330  1  0.42080000  0.60215000  0.31767000  1.0 -0.248611607
N  N331  1  0.57920000  0.10215000  0.18233000  1.0 -0.248611607
N  N332  1  0.07920000  0.39785000  0.81767000  1.0 -0.248611607
N  N333  1  0.68233000  0.92080000  0.89785000  1.0 -0.248611607
N  N334  1  0.31767000  0.42080000  0.60215000  1.0 -0.248611607
N  N335  1  0.18233000  0.57920000  0.10215000  1.0 -0.248611607
N  N336  1  0.81767000  0.07920000  0.39785000  1.0 -0.248611607
N  N337  1  0.01257000  0.34641000  0.04582000  1.0 -0.2136575425
N  N338  1  0.48743000  0.65359000  0.54582000  1.0 -0.2136575425
N  N339  1  0.98743000  0.84641000  0.45418000  1.0 -0.2136575425
N  N340  1  0.51257000  0.15359000  0.95418000  1.0 -0.2136575425
N  N341  1  0.04582000  0.01257000  0.34641000  1.0 -0.2136575425
N  N342  1  0.54582000  0.48743000  0.65359000  1.0 -0.2136575425
N  N343  1  0.45418000  0.98743000  0.84641000  1.0 -0.2136575425
N  N344  1  0.95418000  0.51257000  0.15359000  1.0 -0.2136575425
N  N345  1  0.34641000  0.04582000  0.01257000  1.0 -0.2136575425
N  N346  1  0.65359000  0.54582000  0.48743000  1.0 -0.2136575425
N  N347  1  0.84641000  0.45418000  0.98743000  1.0 -0.2136575425
N  N348  1  0.15359000  0.95418000  0.51257000  1.0 -0.2136575425
N  N349  1  0.98743000  0.65359000  0.95418000  1.0 -0.2136575425
N  N350  1  0.51257000  0.34641000  0.45418000  1.0 -0.2136575425
N  N351  1  0.01257000  0.15359000  0.54582000  1.0 -0.2136575425
N  N352  1  0.48743000  0.84641000  0.04582000  1.0 -0.2136575425
N  N353  1  0.95418000  0.98743000  0.65359000  1.0 -0.2136575425
N  N354  1  0.45418000  0.51257000  0.34641000  1.0 -0.2136575425
N  N355  1  0.54582000  0.01257000  0.15359000  1.0 -0.2136575425
N  N356  1  0.04582000  0.48743000  0.84641000  1.0 -0.2136575425
N  N357  1  0.65359000  0.95418000  0.98743000  1.0 -0.2136575425
N  N358  1  0.34641000  0.45418000  0.51257000  1.0 -0.2136575425
N  N359  1  0.15359000  0.54582000  0.01257000  1.0 -0.2136575425
N  N360  1  0.84641000  0.04582000  0.48743000  1.0 -0.2136575425
N  N361  1  0.04996000  0.36540000  0.09702000  1.0 -0.219691294
N  N362  1  0.45004000  0.63460000  0.59702000  1.0 -0.219691294
N  N363  1  0.95004000  0.86540000  0.40298000  1.0 -0.219691294
N  N364  1  0.54996000  0.13460000  0.90298000  1.0 -0.219691294
N  N365  1  0.09702000  0.04996000  0.36540000  1.0 -0.219691294
N  N366  1  0.59702000  0.45004000  0.63460000  1.0 -0.219691294
N  N367  1  0.40298000  0.95004000  0.86540000  1.0 -0.219691294
N  N368  1  0.90298000  0.54996000  0.13460000  1.0 -0.219691294
N  N369  1  0.36540000  0.09702000  0.04996000  1.0 -0.219691294
N  N370  1  0.63460000  0.59702000  0.45004000  1.0 -0.219691294
N  N371  1  0.86540000  0.40298000  0.95004000  1.0 -0.219691294
N  N372  1  0.13460000  0.90298000  0.54996000  1.0 -0.219691294
N  N373  1  0.95004000  0.63460000  0.90298000  1.0 -0.219691294
N  N374  1  0.54996000  0.36540000  0.40298000  1.0 -0.219691294
N  N375  1  0.04996000  0.13460000  0.59702000  1.0 -0.219691294
N  N376  1  0.45004000  0.86540000  0.09702000  1.0 -0.219691294
N  N377  1  0.90298000  0.95004000  0.63460000  1.0 -0.219691294
N  N378  1  0.40298000  0.54996000  0.36540000  1.0 -0.219691294
N  N379  1  0.59702000  0.04996000  0.13460000  1.0 -0.219691294
N  N380  1  0.09702000  0.45004000  0.86540000  1.0 -0.219691294
N  N381  1  0.63460000  0.90298000  0.95004000  1.0 -0.219691294
N  N382  1  0.36540000  0.40298000  0.54996000  1.0 -0.219691294
N  N383  1  0.13460000  0.59702000  0.04996000  1.0 -0.219691294
N  N384  1  0.86540000  0.09702000  0.45004000  1.0 -0.219691294
N  N385  1  0.11637000  0.30898000  0.14977000  1.0 -0.2904480977
N  N386  1  0.38363000  0.69102000  0.64977000  1.0 -0.2904480977
N  N387  1  0.88363000  0.80898000  0.35023000  1.0 -0.2904480977
N  N388  1  0.61637000  0.19102000  0.85023000  1.0 -0.2904480977
N  N389  1  0.14977000  0.11637000  0.30898000  1.0 -0.2904480977
N  N390  1  0.64977000  0.38363000  0.69102000  1.0 -0.2904480977
N  N391  1  0.35023000  0.88363000  0.80898000  1.0 -0.2904480977
N  N392  1  0.85023000  0.61637000  0.19102000  1.0 -0.2904480977
N  N393  1  0.30898000  0.14977000  0.11637000  1.0 -0.2904480977
N  N394  1  0.69102000  0.64977000  0.38363000  1.0 -0.2904480977
N  N395  1  0.80898000  0.35023000  0.88363000  1.0 -0.2904480977
N  N396  1  0.19102000  0.85023000  0.61637000  1.0 -0.2904480977
N  N397  1  0.88363000  0.69102000  0.85023000  1.0 -0.2904480977
N  N398  1  0.61637000  0.30898000  0.35023000  1.0 -0.2904480977
N  N399  1  0.11637000  0.19102000  0.64977000  1.0 -0.2904480977
N  N400  1  0.38363000  0.80898000  0.14977000  1.0 -0.2904480977
N  N401  1  0.85023000  0.88363000  0.69102000  1.0 -0.2904480977
N  N402  1  0.35023000  0.61637000  0.30898000  1.0 -0.2904480977
N  N403  1  0.64977000  0.11637000  0.19102000  1.0 -0.2904480977
N  N404  1  0.14977000  0.38363000  0.80898000  1.0 -0.2904480977
N  N405  1  0.69102000  0.85023000  0.88363000  1.0 -0.2904480977
N  N406  1  0.30898000  0.35023000  0.61637000  1.0 -0.2904480977
N  N407  1  0.19102000  0.64977000  0.11637000  1.0 -0.2904480977
N  N408  1  0.80898000  0.14977000  0.38363000  1.0 -0.2904480977
N  N409  1  0.09958000  0.27316000  0.20315000  1.0 -0.2659534235
N  N410  1  0.40042000  0.72684000  0.70315000  1.0 -0.2659534235
N  N411  1  0.90042000  0.77316000  0.29685000  1.0 -0.2659534235
N  N412  1  0.59958000  0.22684000  0.79685000  1.0 -0.2659534235
N  N413  1  0.20315000  0.09958000  0.27316000  1.0 -0.2659534235
N  N414  1  0.70315000  0.40042000  0.72684000  1.0 -0.2659534235
N  N415  1  0.29685000  0.90042000  0.77316000  1.0 -0.2659534235
N  N416  1  0.79685000  0.59958000  0.22684000  1.0 -0.2659534235
N  N417  1  0.27316000  0.20315000  0.09958000  1.0 -0.2659534235
N  N418  1  0.72684000  0.70315000  0.40042000  1.0 -0.2659534235
N  N419  1  0.77316000  0.29685000  0.90042000  1.0 -0.2659534235
N  N420  1  0.22684000  0.79685000  0.59958000  1.0 -0.2659534235
N  N421  1  0.90042000  0.72684000  0.79685000  1.0 -0.2659534235
N  N422  1  0.59958000  0.27316000  0.29685000  1.0 -0.2659534235
N  N423  1  0.09958000  0.22684000  0.70315000  1.0 -0.2659534235
N  N424  1  0.40042000  0.77316000  0.20315000  1.0 -0.2659534235
N  N425  1  0.79685000  0.90042000  0.72684000  1.0 -0.2659534235
N  N426  1  0.29685000  0.59958000  0.27316000  1.0 -0.2659534235
N  N427  1  0.70315000  0.09958000  0.22684000  1.0 -0.2659534235
N  N428  1  0.20315000  0.40042000  0.77316000  1.0 -0.2659534235
N  N429  1  0.72684000  0.79685000  0.90042000  1.0 -0.2659534235
N  N430  1  0.27316000  0.29685000  0.59958000  1.0 -0.2659534235
N  N431  1  0.22684000  0.70315000  0.09958000  1.0 -0.2659534235
N  N432  1  0.77316000  0.20315000  0.40042000  1.0 -0.2659534235
N  N433  1  0.06549000  0.35891000  0.16780000  1.0 -0.3078224704
N  N434  1  0.43451000  0.64109000  0.66780000  1.0 -0.3078224704
N  N435  1  0.93451000  0.85891000  0.33220000  1.0 -0.3078224704
N  N436  1  0.56549000  0.14109000  0.83220000  1.0 -0.3078224704
N  N437  1  0.16780000  0.06549000  0.35891000  1.0 -0.3078224704
N  N438  1  0.66780000  0.43451000  0.64109000  1.0 -0.3078224704
N  N439  1  0.33220000  0.93451000  0.85891000  1.0 -0.3078224704
N  N440  1  0.83220000  0.56549000  0.14109000  1.0 -0.3078224704
N  N441  1  0.35891000  0.16780000  0.06549000  1.0 -0.3078224704
N  N442  1  0.64109000  0.66780000  0.43451000  1.0 -0.3078224704
N  N443  1  0.85891000  0.33220000  0.93451000  1.0 -0.3078224704
N  N444  1  0.14109000  0.83220000  0.56549000  1.0 -0.3078224704
N  N445  1  0.93451000  0.64109000  0.83220000  1.0 -0.3078224704
N  N446  1  0.56549000  0.35891000  0.33220000  1.0 -0.3078224704
N  N447  1  0.06549000  0.14109000  0.66780000  1.0 -0.3078224704
N  N448  1  0.43451000  0.85891000  0.16780000  1.0 -0.3078224704
N  N449  1  0.83220000  0.93451000  0.64109000  1.0 -0.3078224704
N  N450  1  0.33220000  0.56549000  0.35891000  1.0 -0.3078224704
N  N451  1  0.66780000  0.06549000  0.14109000  1.0 -0.3078224704
N  N452  1  0.16780000  0.43451000  0.85891000  1.0 -0.3078224704
N  N453  1  0.64109000  0.83220000  0.93451000  1.0 -0.3078224704
N  N454  1  0.35891000  0.33220000  0.56549000  1.0 -0.3078224704
N  N455  1  0.14109000  0.66780000  0.06549000  1.0 -0.3078224704
N  N456  1  0.85891000  0.16780000  0.43451000  1.0 -0.3078224704
N  N457  1  0.04936000  0.32259000  0.22142000  1.0 -0.2398760372
N  N458  1  0.45064000  0.67741000  0.72142000  1.0 -0.2398760372
N  N459  1  0.95064000  0.82259000  0.27858000  1.0 -0.2398760372
N  N460  1  0.54936000  0.17741000  0.77858000  1.0 -0.2398760372
N  N461  1  0.22142000  0.04936000  0.32259000  1.0 -0.2398760372
N  N462  1  0.72142000  0.45064000  0.67741000  1.0 -0.2398760372
N  N463  1  0.27858000  0.95064000  0.82259000  1.0 -0.2398760372
N  N464  1  0.77858000  0.54936000  0.17741000  1.0 -0.2398760372
N  N465  1  0.32259000  0.22142000  0.04936000  1.0 -0.2398760372
N  N466  1  0.67741000  0.72142000  0.45064000  1.0 -0.2398760372
N  N467  1  0.82259000  0.27858000  0.95064000  1.0 -0.2398760372
N  N468  1  0.17741000  0.77858000  0.54936000  1.0 -0.2398760372
N  N469  1  0.95064000  0.67741000  0.77858000  1.0 -0.2398760372
N  N470  1  0.54936000  0.32259000  0.27858000  1.0 -0.2398760372
N  N471  1  0.04936000  0.17741000  0.72142000  1.0 -0.2398760372
N  N472  1  0.45064000  0.82259000  0.22142000  1.0 -0.2398760372
N  N473  1  0.77858000  0.95064000  0.67741000  1.0 -0.2398760372
N  N474  1  0.27858000  0.54936000  0.32259000  1.0 -0.2398760372
N  N475  1  0.72142000  0.04936000  0.17741000  1.0 -0.2398760372
N  N476  1  0.22142000  0.45064000  0.82259000  1.0 -0.248611607
N  N477  1  0.67741000  0.77858000  0.95064000  1.0 -0.248611607
N  N478  1  0.32259000  0.27858000  0.54936000  1.0 -0.2398760372
N  N479  1  0.17741000  0.72142000  0.04936000  1.0 -0.2398760372
N  N480  1  0.82259000  0.22142000  0.45064000  1.0 -0.2398760372
Cl  Cl1  1  0.90007000  0.10290000  0.25210000  1.0 -0.6642099787
Cl  Cl2  1  0.59993000  0.89710000  0.75210000  1.0 -0.6642099787
Cl  Cl3  1  0.09993000  0.60290000  0.24790000  1.0 -0.6642099787
Cl  Cl4  1  0.40007000  0.39710000  0.74790000  1.0 -0.6642099787
Cl  Cl5  1  0.25210000  0.90007000  0.10290000  1.0 -0.6642099787
Cl  Cl6  1  0.75210000  0.59993000  0.89710000  1.0 -0.6642099787
Cl  Cl7  1  0.24790000  0.09993000  0.60290000  1.0 -0.6642099787
Cl  Cl8  1  0.74790000  0.40007000  0.39710000  1.0 -0.6642099787
Cl  Cl9  1  0.10290000  0.25210000  0.90007000  1.0 -0.6642099787
Cl  Cl10  1  0.89710000  0.75210000  0.59993000  1.0 -0.6642099787
Cl  Cl11  1  0.60290000  0.24790000  0.09993000  1.0 -0.6642099787
Cl  Cl12  1  0.39710000  0.74790000  0.40007000  1.0 -0.6642099787
Cl  Cl13  1  0.09993000  0.89710000  0.74790000  1.0 -0.6642099787
Cl  Cl14  1  0.40007000  0.10290000  0.24790000  1.0 -0.6642099787
Cl  Cl15  1  0.90007000  0.39710000  0.75210000  1.0 -0.6642099787
Cl  Cl16  1  0.59993000  0.60290000  0.25210000  1.0 -0.6642099787
Cl  Cl17  1  0.74790000  0.09993000  0.89710000  1.0 -0.6642099787
Cl  Cl18  1  0.24790000  0.40007000  0.10290000  1.0 -0.6642099787
Cl  Cl19  1  0.75210000  0.90007000  0.39710000  1.0 -0.6642099787
Cl  Cl20  1  0.25210000  0.59993000  0.60290000  1.0 -0.6642099787
Cl  Cl21  1  0.89710000  0.74790000  0.09993000  1.0 -0.6642099787
Cl  Cl22  1  0.10290000  0.24790000  0.40007000  1.0 -0.6642099787
Cl  Cl23  1  0.39710000  0.75210000  0.90007000  1.0 -0.6642099787
Cl  Cl24  1  0.60290000  0.25210000  0.59993000  1.0 -0.6642099787
Cl  Cl25  1  0.84451000  0.14470000  0.02732000  1.0 -0.5930580144
Cl  Cl26  1  0.65549000  0.85530000  0.52732000  1.0 -0.5930580144
Cl  Cl27  1  0.15549000  0.64470000  0.47268000  1.0 -0.5930580144
Cl  Cl28  1  0.34451000  0.35530000  0.97268000  1.0 -0.5930580144
Cl  Cl29  1  0.02732000  0.84451000  0.14470000  1.0 -0.5930580144
Cl  Cl30  1  0.52732000  0.65549000  0.85530000  1.0 -0.5930580144
Cl  Cl31  1  0.47268000  0.15549000  0.64470000  1.0 -0.5930580144
Cl  Cl32  1  0.97268000  0.34451000  0.35530000  1.0 -0.5930580144
Cl  Cl33  1  0.14470000  0.02732000  0.84451000  1.0 -0.5930580144
Cl  Cl34  1  0.85530000  0.52732000  0.65549000  1.0 -0.5930580144
Cl  Cl35  1  0.64470000  0.47268000  0.15549000  1.0 -0.5930580144
Cl  Cl36  1  0.35530000  0.97268000  0.34451000  1.0 -0.5930580144
Cl  Cl37  1  0.15549000  0.85530000  0.97268000  1.0 -0.5930580144
Cl  Cl38  1  0.34451000  0.14470000  0.47268000  1.0 -0.5930580144
Cl  Cl39  1  0.84451000  0.35530000  0.52732000  1.0 -0.5930580144
Cl  Cl40  1  0.65549000  0.64470000  0.02732000  1.0 -0.5930580144
Cl  Cl41  1  0.97268000  0.15549000  0.85530000  1.0 -0.5930580144
Cl  Cl42  1  0.47268000  0.34451000  0.14470000  1.0 -0.5930580144
Cl  Cl43  1  0.52732000  0.84451000  0.35530000  1.0 -0.5930580144
Cl  Cl44  1  0.02732000  0.65549000  0.64470000  1.0 -0.5930580144
Cl  Cl45  1  0.85530000  0.97268000  0.15549000  1.0 -0.5930580144
Cl  Cl46  1  0.14470000  0.47268000  0.34451000  1.0 -0.5930580144
Cl  Cl47  1  0.35530000  0.52732000  0.84451000  1.0 -0.5930580144
Cl  Cl48  1  0.64470000  0.02732000  0.65549000  1.0 -0.5930580144
O  O1  1  0.07008000  0.17220000  0.18047000  1.0 -0.5593370541
O  O2  1  0.42992000  0.82780000  0.68047000  1.0 -0.5593370541
O  O3  1  0.92992000  0.67220000  0.31953000  1.0 -0.5593370541
O  O4  1  0.57008000  0.32780000  0.81953000  1.0 -0.5593370541
O  O5  1  0.18047000  0.07008000  0.17220000  1.0 -0.5593370541
O  O6  1  0.68047000  0.42992000  0.82780000  1.0 -0.5593370541
O  O7  1  0.31953000  0.92992000  0.67220000  1.0 -0.5593370541
O  O8  1  0.81953000  0.57008000  0.32780000  1.0 -0.5593370541
O  O9  1  0.17220000  0.18047000  0.07008000  1.0 -0.5593370541
O  O10  1  0.82780000  0.68047000  0.42992000  1.0 -0.5593370541
O  O11  1  0.67220000  0.31953000  0.92992000  1.0 -0.5593370541
O  O12  1  0.32780000  0.81953000  0.57008000  1.0 -0.5593370541
O  O13  1  0.92992000  0.82780000  0.81953000  1.0 -0.5593370541
O  O14  1  0.57008000  0.17220000  0.31953000  1.0 -0.5593370541
O  O15  1  0.07008000  0.32780000  0.68047000  1.0 -0.5593370541
O  O16  1  0.42992000  0.67220000  0.18047000  1.0 -0.5593370541
O  O17  1  0.81953000  0.92992000  0.82780000  1.0 -0.5593370541
O  O18  1  0.31953000  0.57008000  0.17220000  1.0 -0.5593370541
O  O19  1  0.68047000  0.07008000  0.32780000  1.0 -0.5593370541
O  O20  1  0.18047000  0.42992000  0.67220000  1.0 -0.5593370541
O  O21  1  0.82780000  0.81953000  0.92992000  1.0 -0.5593370541
O  O22  1  0.17220000  0.31953000  0.57008000  1.0 -0.5593370541
O  O23  1  0.32780000  0.68047000  0.07008000  1.0 -0.5593370541
O  O24  1  0.67220000  0.18047000  0.42992000  1.0 -0.5593370541
O  O25  1  0.02037000  0.14037000  0.11054000  1.0 -0.5593370541
O  O26  1  0.47963000  0.85963000  0.61054000  1.0 -0.5593370541
O  O27  1  0.97963000  0.64037000  0.38946000  1.0 -0.5593370541
O  O28  1  0.52037000  0.35963000  0.88946000  1.0 -0.5593370541
O  O29  1  0.11054000  0.02037000  0.14037000  1.0 -0.5593370541
O  O30  1  0.61054000  0.47963000  0.85963000  1.0 -0.5593370541
O  O31  1  0.38946000  0.97963000  0.64037000  1.0 -0.5593370541
O  O32  1  0.88946000  0.52037000  0.35963000  1.0 -0.5593370541
O  O33  1  0.14037000  0.11054000  0.02037000  1.0 -0.5593370541
O  O34  1  0.85963000  0.61054000  0.47963000  1.0 -0.5593370541
O  O35  1  0.64037000  0.38946000  0.97963000  1.0 -0.5593370541
O  O36  1  0.35963000  0.88946000  0.52037000  1.0 -0.5593370541
O  O37  1  0.97963000  0.85963000  0.88946000  1.0 -0.5593370541
O  O38  1  0.52037000  0.14037000  0.38946000  1.0 -0.5593370541
O  O39  1  0.02037000  0.35963000  0.61054000  1.0 -0.5593370541
O  O40  1  0.47963000  0.64037000  0.11054000  1.0 -0.5593370541
O  O41  1  0.88946000  0.97963000  0.85963000  1.0 -0.5593370541
O  O42  1  0.38946000  0.52037000  0.14037000  1.0 -0.5593370541
O  O43  1  0.61054000  0.02037000  0.35963000  1.0 -0.5593370541
O  O44  1  0.11054000  0.47963000  0.64037000  1.0 -0.5593370541
O  O45  1  0.85963000  0.88946000  0.97963000  1.0 -0.5593370541
O  O46  1  0.14037000  0.38946000  0.52037000  1.0 -0.5593370541
O  O47  1  0.35963000  0.61054000  0.02037000  1.0 -0.5593370541
O  O48  1  0.64037000  0.11054000  0.47963000  1.0 -0.5593370541
O  O49  1  0.04266000  0.19218000  0.03264000  1.0 -0.5793264006
O  O50  1  0.45734000  0.80782000  0.53264000  1.0 -0.5793264006
O  O51  1  0.95734000  0.69218000  0.46736000  1.0 -0.5793264006
O  O52  1  0.54266000  0.30782000  0.96736000  1.0 -0.5793264006
O  O53  1  0.03264000  0.04266000  0.19218000  1.0 -0.5793264006
O  O54  1  0.53264000  0.45734000  0.80782000  1.0 -0.5793264006
O  O55  1  0.46736000  0.95734000  0.69218000  1.0 -0.5793264006
O  O56  1  0.96736000  0.54266000  0.30782000  1.0 -0.5793264006
O  O57  1  0.19218000  0.03264000  0.04266000  1.0 -0.5793264006
O  O58  1  0.80782000  0.53264000  0.45734000  1.0 -0.5793264006
O  O59  1  0.69218000  0.46736000  0.95734000  1.0 -0.5793264006
O  O60  1  0.30782000  0.96736000  0.54266000  1.0 -0.5793264006
O  O61  1  0.95734000  0.80782000  0.96736000  1.0 -0.5793264006
O  O62  1  0.54266000  0.19218000  0.46736000  1.0 -0.5793264006
O  O63  1  0.04266000  0.30782000  0.53264000  1.0 -0.5793264006
O  O64  1  0.45734000  0.69218000  0.03264000  1.0 -0.5793264006
O  O65  1  0.96736000  0.95734000  0.80782000  1.0 -0.5793264006
O  O66  1  0.46736000  0.54266000  0.19218000  1.0 -0.5793264006
O  O67  1  0.53264000  0.04266000  0.30782000  1.0 -0.5793264006
O  O68  1  0.03264000  0.45734000  0.69218000  1.0 -0.5793264006
O  O69  1  0.80782000  0.96736000  0.95734000  1.0 -0.5793264006
O  O70  1  0.19218000  0.46736000  0.54266000  1.0 -0.5793264006
O  O71  1  0.30782000  0.53264000  0.04266000  1.0 -0.5793264006
O  O72  1  0.69218000  0.03264000  0.45734000  1.0 -0.5793264006
O  O73  1  0.10763000  0.25185000  0.05836000  1.0 -0.541465113
O  O74  1  0.39237000  0.74815000  0.55836000  1.0 -0.541465113
O  O75  1  0.89237000  0.75185000  0.44164000  1.0 -0.541465113
O  O76  1  0.60763000  0.24815000  0.94164000  1.0 -0.541465113
O  O77  1  0.05836000  0.10763000  0.25185000  1.0 -0.541465113
O  O78  1  0.55836000  0.39237000  0.74815000  1.0 -0.541465113
O  O79  1  0.44164000  0.89237000  0.75185000  1.0 -0.541465113
O  O80  1  0.94164000  0.60763000  0.24815000  1.0 -0.541465113
O  O81  1  0.25185000  0.05836000  0.10763000  1.0 -0.541465113
O  O82  1  0.74815000  0.55836000  0.39237000  1.0 -0.541465113
O  O83  1  0.75185000  0.44164000  0.89237000  1.0 -0.541465113
O  O84  1  0.24815000  0.94164000  0.60763000  1.0 -0.541465113
O  O85  1  0.89237000  0.74815000  0.94164000  1.0 -0.541465113
O  O86  1  0.60763000  0.25185000  0.44164000  1.0 -0.541465113
O  O87  1  0.10763000  0.24815000  0.55836000  1.0 -0.541465113
O  O88  1  0.39237000  0.75185000  0.05836000  1.0 -0.541465113
O  O89  1  0.94164000  0.89237000  0.74815000  1.0 -0.541465113
O  O90  1  0.44164000  0.60763000  0.25185000  1.0 -0.541465113
O  O91  1  0.55836000  0.10763000  0.24815000  1.0 -0.541465113
O  O92  1  0.05836000  0.39237000  0.75185000  1.0 -0.541465113
O  O93  1  0.74815000  0.94164000  0.89237000  1.0 -0.541465113
O  O94  1  0.25185000  0.44164000  0.60763000  1.0 -0.541465113
O  O95  1  0.24815000  0.55836000  0.10763000  1.0 -0.541465113
O  O96  1  0.75185000  0.05836000  0.39237000  1.0 -0.541465113
O  O97  1  0.12802000  0.24131000  0.14890000  1.0 -0.5122098321
O  O98  1  0.37198000  0.75869000  0.64890000  1.0 -0.5122098321
O  O99  1  0.87198000  0.74131000  0.35110000  1.0 -0.5122098321
O  O100  1  0.62802000  0.25869000  0.85110000  1.0 -0.5122098321
O  O101  1  0.14890000  0.12802000  0.24131000  1.0 -0.5122098321
O  O102  1  0.64890000  0.37198000  0.75869000  1.0 -0.5122098321
O  O103  1  0.35110000  0.87198000  0.74131000  1.0 -0.5122098321
O  O104  1  0.85110000  0.62802000  0.25869000  1.0 -0.5122098321
O  O105  1  0.24131000  0.14890000  0.12802000  1.0 -0.5122098321
O  O106  1  0.75869000  0.64890000  0.37198000  1.0 -0.5122098321
O  O107  1  0.74131000  0.35110000  0.87198000  1.0 -0.5122098321
O  O108  1  0.25869000  0.85110000  0.62802000  1.0 -0.5122098321
O  O109  1  0.87198000  0.75869000  0.85110000  1.0 -0.5122098321
O  O110  1  0.62802000  0.24131000  0.35110000  1.0 -0.5122098321
O  O111  1  0.12802000  0.25869000  0.64890000  1.0 -0.5122098321
O  O112  1  0.37198000  0.74131000  0.14890000  1.0 -0.5122098321
O  O113  1  0.85110000  0.87198000  0.75869000  1.0 -0.5122098321
O  O114  1  0.35110000  0.62802000  0.24131000  1.0 -0.5122098321
O  O115  1  0.64890000  0.12802000  0.25869000  1.0 -0.5122098321
O  O116  1  0.14890000  0.37198000  0.74131000  1.0 -0.5122098321
O  O117  1  0.75869000  0.85110000  0.87198000  1.0 -0.5122098321
O  O118  1  0.24131000  0.35110000  0.62802000  1.0 -0.5122098321
O  O119  1  0.25869000  0.64890000  0.12802000  1.0 -0.5122098321
O  O120  1  0.74131000  0.14890000  0.37198000  1.0 -0.5122098321
O  O121  1  0.94528000  0.29352000  0.22505000  1.0 -0.549193332
O  O122  1  0.55472000  0.70648000  0.72505000  1.0 -0.549193332
O  O123  1  0.05472000  0.79352000  0.27495000  1.0 -0.549193332
O  O124  1  0.44528000  0.20648000  0.77495000  1.0 -0.549193332
O  O125  1  0.22505000  0.94528000  0.29352000  1.0 -0.549193332
O  O126  1  0.72505000  0.55472000  0.70648000  1.0 -0.549193332
O  O127  1  0.27495000  0.05472000  0.79352000  1.0 -0.549193332
O  O128  1  0.77495000  0.44528000  0.20648000  1.0 -0.549193332
O  O129  1  0.29352000  0.22505000  0.94528000  1.0 -0.549193332
O  O130  1  0.70648000  0.72505000  0.55472000  1.0 -0.549193332
O  O131  1  0.79352000  0.27495000  0.05472000  1.0 -0.549193332
O  O132  1  0.20648000  0.77495000  0.44528000  1.0 -0.549193332
O  O133  1  0.05472000  0.70648000  0.77495000  1.0 -0.549193332
O  O134  1  0.44528000  0.29352000  0.27495000  1.0 -0.549193332
O  O135  1  0.94528000  0.20648000  0.72505000  1.0 -0.549193332
O  O136  1  0.55472000  0.79352000  0.22505000  1.0 -0.549193332
O  O137  1  0.77495000  0.05472000  0.70648000  1.0 -0.549193332
O  O138  1  0.27495000  0.44528000  0.29352000  1.0 -0.549193332
O  O139  1  0.72505000  0.94528000  0.20648000  1.0 -0.549193332
O  O140  1  0.22505000  0.55472000  0.79352000  1.0 -0.549193332
O  O141  1  0.70648000  0.77495000  0.05472000  1.0 -0.549193332
O  O142  1  0.29352000  0.27495000  0.44528000  1.0 -0.549193332
O  O143  1  0.20648000  0.72505000  0.94528000  1.0 -0.549193332
O  O144  1  0.79352000  0.22505000  0.55472000  1.0 -0.549193332
O  O145  1  0.89209000  0.26398000  0.15368000  1.0 -0.5277423555
O  O146  1  0.60791000  0.73602000  0.65368000  1.0 -0.5277423555
O  O147  1  0.10791000  0.76398000  0.34632000  1.0 -0.5277423555
O  O148  1  0.39209000  0.23602000  0.84632000  1.0 -0.5277423555
O  O149  1  0.15368000  0.89209000  0.26398000  1.0 -0.5277423555
O  O150  1  0.65368000  0.60791000  0.73602000  1.0 -0.5277423555
O  O151  1  0.34632000  0.10791000  0.76398000  1.0 -0.5277423555
O  O152  1  0.84632000  0.39209000  0.23602000  1.0 -0.5277423555
O  O153  1  0.26398000  0.15368000  0.89209000  1.0 -0.5277423555
O  O154  1  0.73602000  0.65368000  0.60791000  1.0 -0.5277423555
O  O155  1  0.76398000  0.34632000  0.10791000  1.0 -0.5277423555
O  O156  1  0.23602000  0.84632000  0.39209000  1.0 -0.5277423555
O  O157  1  0.10791000  0.73602000  0.84632000  1.0 -0.5277423555
O  O158  1  0.39209000  0.26398000  0.34632000  1.0 -0.5277423555
O  O159  1  0.89209000  0.23602000  0.65368000  1.0 -0.5277423555
O  O160  1  0.60791000  0.76398000  0.15368000  1.0 -0.5277423555
O  O161  1  0.84632000  0.10791000  0.73602000  1.0 -0.5277423555
O  O162  1  0.34632000  0.39209000  0.26398000  1.0 -0.5277423555
O  O163  1  0.65368000  0.89209000  0.23602000  1.0 -0.5277423555
O  O164  1  0.15368000  0.60791000  0.76398000  1.0 -0.5277423555
O  O165  1  0.73602000  0.84632000  0.10791000  1.0 -0.5277423555
O  O166  1  0.26398000  0.34632000  0.39209000  1.0 -0.5277423555
O  O167  1  0.23602000  0.65368000  0.89209000  1.0 -0.5277423555
O  O168  1  0.76398000  0.15368000  0.60791000  1.0 -0.5277423555
O  O169  1  0.91705000  0.31172000  0.07753000  1.0 -0.549193332
O  O170  1  0.58295000  0.68828000  0.57753000  1.0 -0.549193332
O  O171  1  0.08295000  0.81172000  0.42247000  1.0 -0.549193332
O  O172  1  0.41705000  0.18828000  0.92247000  1.0 -0.549193332
O  O173  1  0.07753000  0.91705000  0.31172000  1.0 -0.549193332
O  O174  1  0.57753000  0.58295000  0.68828000  1.0 -0.549193332
O  O175  1  0.42247000  0.08295000  0.81172000  1.0 -0.549193332
O  O176  1  0.92247000  0.41705000  0.18828000  1.0 -0.549193332
O  O177  1  0.31172000  0.07753000  0.91705000  1.0 -0.549193332
O  O178  1  0.68828000  0.57753000  0.58295000  1.0 -0.549193332
O  O179  1  0.81172000  0.42247000  0.08295000  1.0 -0.549193332
O  O180  1  0.18828000  0.92247000  0.41705000  1.0 -0.549193332
O  O181  1  0.08295000  0.68828000  0.92247000  1.0 -0.549193332
O  O182  1  0.41705000  0.31172000  0.42247000  1.0 -0.549193332
O  O183  1  0.91705000  0.18828000  0.57753000  1.0 -0.549193332
O  O184  1  0.58295000  0.81172000  0.07753000  1.0 -0.549193332
O  O185  1  0.92247000  0.08295000  0.68828000  1.0 -0.549193332
O  O186  1  0.42247000  0.41705000  0.31172000  1.0 -0.549193332
O  O187  1  0.57753000  0.91705000  0.18828000  1.0 -0.549193332
O  O188  1  0.07753000  0.58295000  0.81172000  1.0 -0.549193332
O  O189  1  0.68828000  0.92247000  0.08295000  1.0 -0.549193332
O  O190  1  0.31172000  0.42247000  0.41705000  1.0 -0.549193332
O  O191  1  0.18828000  0.57753000  0.91705000  1.0 -0.549193332
O  O192  1  0.81172000  0.07753000  0.58295000  1.0 -0.549193332
O  O193  1  0.98147000  0.37506000  0.10105000  1.0 -0.5122098321
O  O194  1  0.51853000  0.62494000  0.60105000  1.0 -0.5122098321
O  O195  1  0.01853000  0.87506000  0.39895000  1.0 -0.5122098321
O  O196  1  0.48147000  0.12494000  0.89895000  1.0 -0.5122098321
O  O197  1  0.10105000  0.98147000  0.37506000  1.0 -0.5122098321
O  O198  1  0.60105000  0.51853000  0.62494000  1.0 -0.5122098321
O  O199  1  0.39895000  0.01853000  0.87506000  1.0 -0.5122098321
O  O200  1  0.89895000  0.48147000  0.12494000  1.0 -0.5122098321
O  O201  1  0.37506000  0.10105000  0.98147000  1.0 -0.5122098321
O  O202  1  0.62494000  0.60105000  0.51853000  1.0 -0.5122098321
O  O203  1  0.87506000  0.39895000  0.01853000  1.0 -0.5122098321
O  O204  1  0.12494000  0.89895000  0.48147000  1.0 -0.5122098321
O  O205  1  0.01853000  0.62494000  0.89895000  1.0 -0.5122098321
O  O206  1  0.48147000  0.37506000  0.39895000  1.0 -0.5122098321
O  O207  1  0.98147000  0.12494000  0.60105000  1.0 -0.5122098321
O  O208  1  0.51853000  0.87506000  0.10105000  1.0 -0.5122098321
O  O209  1  0.89895000  0.01853000  0.62494000  1.0 -0.5122098321
O  O210  1  0.39895000  0.48147000  0.37506000  1.0 -0.5122098321
O  O211  1  0.60105000  0.98147000  0.12494000  1.0 -0.5122098321
O  O212  1  0.10105000  0.51853000  0.87506000  1.0 -0.5122098321
O  O213  1  0.62494000  0.89895000  0.01853000  1.0 -0.5122098321
O  O214  1  0.37506000  0.39895000  0.48147000  1.0 -0.5122098321
O  O215  1  0.12494000  0.60105000  0.98147000  1.0 -0.5122098321
O  O216  1  0.87506000  0.10105000  0.51853000  1.0 -0.5122098321
O  O217  1  0.00067000  0.36205000  0.19212000  1.0 -0.5742699201
O  O218  1  0.49933000  0.63795000  0.69212000  1.0 -0.5742699201
O  O219  1  0.99933000  0.86205000  0.30788000  1.0 -0.5742699201
O  O220  1  0.50067000  0.13795000  0.80788000  1.0 -0.5742699201
O  O221  1  0.19212000  0.00067000  0.36205000  1.0 -0.5742699201
O  O222  1  0.69212000  0.49933000  0.63795000  1.0 -0.5742699201
O  O223  1  0.30788000  0.99933000  0.86205000  1.0 -0.5742699201
O  O224  1  0.80788000  0.50067000  0.13795000  1.0 -0.5742699201
O  O225  1  0.36205000  0.19212000  0.00067000  1.0 -0.5742699201
O  O226  1  0.63795000  0.69212000  0.49933000  1.0 -0.5742699201
O  O227  1  0.86205000  0.30788000  0.99933000  1.0 -0.5742699201
O  O228  1  0.13795000  0.80788000  0.50067000  1.0 -0.5742699201
O  O229  1  0.99933000  0.63795000  0.80788000  1.0 -0.5742699201
O  O230  1  0.50067000  0.36205000  0.30788000  1.0 -0.5742699201
O  O231  1  0.00067000  0.13795000  0.69212000  1.0 -0.5742699201
O  O232  1  0.49933000  0.86205000  0.19212000  1.0 -0.5742699201
O  O233  1  0.80788000  0.99933000  0.63795000  1.0 -0.5742699201
O  O234  1  0.30788000  0.50067000  0.36205000  1.0 -0.5742699201
O  O235  1  0.69212000  0.00067000  0.13795000  1.0 -0.5742699201
O  O236  1  0.19212000  0.49933000  0.86205000  1.0 -0.5742699201
O  O237  1  0.63795000  0.80788000  0.99933000  1.0 -0.5742699201
O  O238  1  0.36205000  0.30788000  0.50067000  1.0 -0.5742699201
O  O239  1  0.13795000  0.69212000  0.00067000  1.0 -0.5742699201
O  O240  1  0.86205000  0.19212000  0.49933000  1.0 -0.5742699201
O  O241  1  0.90041000  0.40041000  0.09959000  1.0 -0.1327441797
O  O242  1  0.59959000  0.59959000  0.59959000  1.0 -0.1216682724
O  O243  1  0.09959000  0.90041000  0.40041000  1.0 -0.1216682724
O  O244  1  0.40041000  0.09959000  0.90041000  1.0 -0.1216682724
O  O245  1  0.09959000  0.59959000  0.90041000  1.0 -0.1216682724
O  O246  1  0.40041000  0.40041000  0.40041000  1.0 -0.1216682724
O  O247  1  0.90041000  0.09959000  0.59959000  1.0 -0.1216682724
O  O248  1  0.59959000  0.90041000  0.09959000  1.0 -0.1327441797
O  O249  1  0.84116000  0.34116000  0.15884000  1.0 -0.2904480977
O  O250  1  0.65884000  0.65884000  0.65884000  1.0 -0.2904480977
O  O251  1  0.15884000  0.84116000  0.34116000  1.0 -0.2904480977
O  O252  1  0.34116000  0.15884000  0.84116000  1.0 -0.2823663845
O  O253  1  0.15884000  0.65884000  0.84116000  1.0 -0.2823663845
O  O254  1  0.34116000  0.34116000  0.34116000  1.0 -0.2904480977
O  O255  1  0.84116000  0.15884000  0.65884000  1.0 -0.2904480977
O  O256  1  0.65884000  0.84116000  0.15884000  1.0 -0.2904480977
O  O257  1  0.15904000  0.15904000  0.15904000  1.0 0.0385522709
O  O258  1  0.34096000  0.84096000  0.65904000  1.0 0.0385522709
O  O259  1  0.84096000  0.65904000  0.34096000  1.0 0.0385522709
O  O260  1  0.65904000  0.34096000  0.84096000  1.0 0.0385522709
O  O261  1  0.84096000  0.84096000  0.84096000  1.0 0.0385522709
O  O262  1  0.65904000  0.15904000  0.34096000  1.0 0.0385522709
O  O263  1  0.15904000  0.34096000  0.65904000  1.0 0.0385522709
O  O264  1  0.34096000  0.65904000  0.15904000  1.0 0.0385522709
O  O265  1  0.09761000  0.09761000  0.09761000  1.0 -0.3897324894
O  O266  1  0.40239000  0.90239000  0.59761000  1.0 -0.3897324894
O  O267  1  0.90239000  0.59761000  0.40239000  1.0 -0.3897324894
O  O268  1  0.59761000  0.40239000  0.90239000  1.0 -0.3897324894
O  O269  1  0.90239000  0.90239000  0.90239000  1.0 -0.3897324894
O  O270  1  0.59761000  0.09761000  0.40239000  1.0 -0.3897324894
O  O271  1  0.09761000  0.40239000  0.59761000  1.0 -0.3897324894
O  O272  1  0.40239000  0.59761000  0.09761000  1.0 -0.3897324894
