# DDEC6 charges by PACMAN v1.1 (https://github.com/mtap-research/PACMAN-charge/)
data_GOLDAO_FSR_pacman
_symmetry_space_group_name_H-M   'P 1'
_cell_length_a   15.97310000
_cell_length_b   15.97310000
_cell_length_c   18.41490000
_cell_angle_alpha   90.00000000
_cell_angle_beta   90.00000000
_cell_angle_gamma   120.00000000
_symmetry_Int_Tables_number   1
_chemical_formula_structural   CaP2H26PdC3O13
_chemical_formula_sum   'Ca12 P24 H312 Pd12 C36 O156'
_cell_volume   4068.91312780
_cell_formula_units_Z   12
loop_
 _symmetry_equiv_pos_site_id
 _symmetry_equiv_pos_as_xyz
  1  'x, y, z'
loop_
 _atom_site_type_symbol
 _atom_site_label
 _atom_site_symmetry_multiplicity
 _atom_site_fract_x
 _atom_site_fract_y
 _atom_site_fract_z
 _atom_site_occupancy
 _atom_site_charge
Ca  Ca1  1  0.37002000  0.37002000  0.25000000  1.0 1.3771692011
Ca  Ca2  1  0.62998000  0.62998000  0.25000000  1.0 1.3771692011
Ca  Ca3  1  0.00000000  0.62998000  0.25000000  1.0 1.3771692011
Ca  Ca4  1  0.00000000  0.37002000  0.25000000  1.0 1.3771692011
Ca  Ca5  1  0.37002000  0.00000000  0.25000000  1.0 1.3771692011
Ca  Ca6  1  0.62998000  0.00000000  0.25000000  1.0 1.3771692011
Ca  Ca7  1  0.62998000  0.62998000  0.75000000  1.0 1.3771692011
Ca  Ca8  1  0.37002000  0.37002000  0.75000000  1.0 1.3771692011
Ca  Ca9  1  0.00000000  0.37002000  0.75000000  1.0 1.3771692011
Ca  Ca10  1  0.00000000  0.62998000  0.75000000  1.0 1.3771692011
Ca  Ca11  1  0.62998000  0.00000000  0.75000000  1.0 1.3771692011
Ca  Ca12  1  0.37002000  0.00000000  0.75000000  1.0 1.3771692011
P  P1  1  0.45030000  0.28992000  0.08236000  1.0 0.7581742945
P  P2  1  0.54970000  0.71008000  0.08236000  1.0 0.7537993211
P  P3  1  0.71008000  0.54970000  0.41764000  1.0 0.7537993211
P  P4  1  0.28992000  0.45030000  0.41764000  1.0 0.7537993211
P  P5  1  0.16038000  0.71008000  0.41764000  1.0 0.7537993211
P  P6  1  0.83962000  0.28992000  0.41764000  1.0 0.7581742945
P  P7  1  0.45030000  0.16038000  0.41764000  1.0 0.7537993211
P  P8  1  0.54970000  0.83962000  0.41764000  1.0 0.7537993211
P  P9  1  0.71008000  0.16038000  0.08236000  1.0 0.7581742945
P  P10  1  0.28992000  0.83962000  0.08236000  1.0 0.7537993211
P  P11  1  0.16038000  0.45030000  0.08236000  1.0 0.7537993211
P  P12  1  0.83962000  0.54970000  0.08236000  1.0 0.7581742945
P  P13  1  0.54970000  0.71008000  0.91764000  1.0 0.7537993211
P  P14  1  0.45030000  0.28992000  0.91764000  1.0 0.7581742945
P  P15  1  0.28992000  0.45030000  0.58236000  1.0 0.7537993211
P  P16  1  0.71008000  0.54970000  0.58236000  1.0 0.7537993211
P  P17  1  0.83962000  0.28992000  0.58236000  1.0 0.7581742945
P  P18  1  0.16038000  0.71008000  0.58236000  1.0 0.7537993211
P  P19  1  0.54970000  0.83962000  0.58236000  1.0 0.7537993211
P  P20  1  0.45030000  0.16038000  0.58236000  1.0 0.7537993211
P  P21  1  0.28992000  0.83962000  0.91764000  1.0 0.7537993211
P  P22  1  0.71008000  0.16038000  0.91764000  1.0 0.7581742945
P  P23  1  0.83962000  0.54970000  0.91764000  1.0 0.7581742945
P  P24  1  0.16038000  0.45030000  0.91764000  1.0 0.7537993211
H  H1  1  0.32700000  0.50700000  0.17640000  1.0 0.34162114
H  H2  1  0.67300000  0.49300000  0.17640000  1.0 0.34162114
H  H3  1  0.49300000  0.67300000  0.32360000  1.0 0.34162114
H  H4  1  0.50700000  0.32700000  0.32360000  1.0 0.34162114
H  H5  1  0.82000000  0.49300000  0.32360000  1.0 0.34162114
H  H6  1  0.18000000  0.50700000  0.32360000  1.0 0.34162114
H  H7  1  0.32700000  0.82000000  0.32360000  1.0 0.34162114
H  H8  1  0.67300000  0.18000000  0.32360000  1.0 0.34162114
H  H9  1  0.49300000  0.82000000  0.17640000  1.0 0.34162114
H  H10  1  0.50700000  0.18000000  0.17640000  1.0 0.34162114
H  H11  1  0.82000000  0.32700000  0.17640000  1.0 0.34162114
H  H12  1  0.18000000  0.67300000  0.17640000  1.0 0.34162114
H  H13  1  0.67300000  0.49300000  0.82360000  1.0 0.34162114
H  H14  1  0.32700000  0.50700000  0.82360000  1.0 0.34162114
H  H15  1  0.50700000  0.32700000  0.67640000  1.0 0.34162114
H  H16  1  0.49300000  0.67300000  0.67640000  1.0 0.34162114
H  H17  1  0.18000000  0.50700000  0.67640000  1.0 0.34162114
H  H18  1  0.82000000  0.49300000  0.67640000  1.0 0.34162114
H  H19  1  0.67300000  0.18000000  0.67640000  1.0 0.34162114
H  H20  1  0.32700000  0.82000000  0.67640000  1.0 0.34162114
H  H21  1  0.50700000  0.18000000  0.82360000  1.0 0.34162114
H  H22  1  0.49300000  0.82000000  0.82360000  1.0 0.34162114
H  H23  1  0.18000000  0.67300000  0.82360000  1.0 0.34162114
H  H24  1  0.82000000  0.32700000  0.82360000  1.0 0.34162114
H  H25  1  0.36700000  0.55540000  0.23840000  1.0 0.2114810142
H  H26  1  0.63300000  0.44460000  0.23840000  1.0 0.2114810142
H  H27  1  0.44460000  0.63300000  0.26160000  1.0 0.2114810142
H  H28  1  0.55540000  0.36700000  0.26160000  1.0 0.2114810142
H  H29  1  0.81160000  0.44460000  0.26160000  1.0 0.2114810142
H  H30  1  0.18840000  0.55540000  0.26160000  1.0 0.2114810142
H  H31  1  0.36700000  0.81160000  0.26160000  1.0 0.2114810142
H  H32  1  0.63300000  0.18840000  0.26160000  1.0 0.2114810142
H  H33  1  0.44460000  0.81160000  0.23840000  1.0 0.2114810142
H  H34  1  0.55540000  0.18840000  0.23840000  1.0 0.2114810142
H  H35  1  0.81160000  0.36700000  0.23840000  1.0 0.2114810142
H  H36  1  0.18840000  0.63300000  0.23840000  1.0 0.2114810142
H  H37  1  0.63300000  0.44460000  0.76160000  1.0 0.2114810142
H  H38  1  0.36700000  0.55540000  0.76160000  1.0 0.2114810142
H  H39  1  0.55540000  0.36700000  0.73840000  1.0 0.2114810142
H  H40  1  0.44460000  0.63300000  0.73840000  1.0 0.2114810142
H  H41  1  0.18840000  0.55540000  0.73840000  1.0 0.2114810142
H  H42  1  0.81160000  0.44460000  0.73840000  1.0 0.2114810142
H  H43  1  0.63300000  0.18840000  0.73840000  1.0 0.2114810142
H  H44  1  0.36700000  0.81160000  0.73840000  1.0 0.2114810142
H  H45  1  0.55540000  0.18840000  0.76160000  1.0 0.2114810142
H  H46  1  0.44460000  0.81160000  0.76160000  1.0 0.2114810142
H  H47  1  0.18840000  0.63300000  0.76160000  1.0 0.2114810142
H  H48  1  0.81160000  0.36700000  0.76160000  1.0 0.2114810142
H  H49  1  0.48400000  0.52600000  0.14070000  1.0 0.282369788
H  H50  1  0.51600000  0.47400000  0.14070000  1.0 0.282369788
H  H51  1  0.47400000  0.51600000  0.35930000  1.0 0.282369788
H  H52  1  0.52600000  0.48400000  0.35930000  1.0 0.282369788
H  H53  1  0.95800000  0.47400000  0.35930000  1.0 0.282369788
H  H54  1  0.04200000  0.52600000  0.35930000  1.0 0.282369788
H  H55  1  0.48400000  0.95800000  0.35930000  1.0 0.282369788
H  H56  1  0.51600000  0.04200000  0.35930000  1.0 0.282369788
H  H57  1  0.47400000  0.95800000  0.14070000  1.0 0.282369788
H  H58  1  0.52600000  0.04200000  0.14070000  1.0 0.282369788
H  H59  1  0.95800000  0.48400000  0.14070000  1.0 0.282369788
H  H60  1  0.04200000  0.51600000  0.14070000  1.0 0.282369788
H  H61  1  0.51600000  0.47400000  0.85930000  1.0 0.282369788
H  H62  1  0.48400000  0.52600000  0.85930000  1.0 0.282369788
H  H63  1  0.52600000  0.48400000  0.64070000  1.0 0.282369788
H  H64  1  0.47400000  0.51600000  0.64070000  1.0 0.282369788
H  H65  1  0.04200000  0.52600000  0.64070000  1.0 0.282369788
H  H66  1  0.95800000  0.47400000  0.64070000  1.0 0.282369788
H  H67  1  0.51600000  0.04200000  0.64070000  1.0 0.282369788
H  H68  1  0.48400000  0.95800000  0.64070000  1.0 0.282369788
H  H69  1  0.52600000  0.04200000  0.85930000  1.0 0.282369788
H  H70  1  0.47400000  0.95800000  0.85930000  1.0 0.282369788
H  H71  1  0.04200000  0.51600000  0.85930000  1.0 0.282369788
H  H72  1  0.95800000  0.48400000  0.85930000  1.0 0.282369788
H  H73  1  0.18200000  0.31800000  0.18400000  1.0 0.3235649261
H  H74  1  0.81800000  0.68200000  0.18400000  1.0 0.3235649261
H  H75  1  0.68200000  0.81800000  0.31600000  1.0 0.3235649261
H  H76  1  0.31800000  0.18200000  0.31600000  1.0 0.3235649261
H  H77  1  0.86400000  0.68200000  0.31600000  1.0 0.3235649261
H  H78  1  0.13600000  0.31800000  0.31600000  1.0 0.3235649261
H  H79  1  0.18200000  0.86400000  0.31600000  1.0 0.3235649261
H  H80  1  0.81800000  0.13600000  0.31600000  1.0 0.3235649261
H  H81  1  0.68200000  0.86400000  0.18400000  1.0 0.3235649261
H  H82  1  0.31800000  0.13600000  0.18400000  1.0 0.3235649261
H  H83  1  0.86400000  0.18200000  0.18400000  1.0 0.3235649261
H  H84  1  0.13600000  0.81800000  0.18400000  1.0 0.3235649261
H  H85  1  0.81800000  0.68200000  0.81600000  1.0 0.3235649261
H  H86  1  0.18200000  0.31800000  0.81600000  1.0 0.3235649261
H  H87  1  0.31800000  0.18200000  0.68400000  1.0 0.3235649261
H  H88  1  0.68200000  0.81800000  0.68400000  1.0 0.3235649261
H  H89  1  0.13600000  0.31800000  0.68400000  1.0 0.3235649261
H  H90  1  0.86400000  0.68200000  0.68400000  1.0 0.3235649261
H  H91  1  0.81800000  0.13600000  0.68400000  1.0 0.3235649261
H  H92  1  0.18200000  0.86400000  0.68400000  1.0 0.3235649261
H  H93  1  0.31800000  0.13600000  0.81600000  1.0 0.3235649261
H  H94  1  0.68200000  0.86400000  0.81600000  1.0 0.3235649261
H  H95  1  0.13600000  0.81800000  0.81600000  1.0 0.3235649261
H  H96  1  0.86400000  0.18200000  0.81600000  1.0 0.3235649261
H  H97  1  0.23800000  0.29100000  0.14930000  1.0 0.282369788
H  H98  1  0.76200000  0.70900000  0.14930000  1.0 0.282369788
H  H99  1  0.70900000  0.76200000  0.35070000  1.0 0.282369788
H  H100  1  0.29100000  0.23800000  0.35070000  1.0 0.282369788
H  H101  1  0.94700000  0.70900000  0.35070000  1.0 0.282369788
H  H102  1  0.05300000  0.29100000  0.35070000  1.0 0.282369788
H  H103  1  0.23800000  0.94700000  0.35070000  1.0 0.282369788
H  H104  1  0.76200000  0.05300000  0.35070000  1.0 0.282369788
H  H105  1  0.70900000  0.94700000  0.14930000  1.0 0.282369788
H  H106  1  0.29100000  0.05300000  0.14930000  1.0 0.282369788
H  H107  1  0.94700000  0.23800000  0.14930000  1.0 0.282369788
H  H108  1  0.05300000  0.76200000  0.14930000  1.0 0.282369788
H  H109  1  0.76200000  0.70900000  0.85070000  1.0 0.282369788
H  H110  1  0.23800000  0.29100000  0.85070000  1.0 0.282369788
H  H111  1  0.29100000  0.23800000  0.64930000  1.0 0.282369788
H  H112  1  0.70900000  0.76200000  0.64930000  1.0 0.282369788
H  H113  1  0.05300000  0.29100000  0.64930000  1.0 0.282369788
H  H114  1  0.94700000  0.70900000  0.64930000  1.0 0.282369788
H  H115  1  0.76200000  0.05300000  0.64930000  1.0 0.282369788
H  H116  1  0.23800000  0.94700000  0.64930000  1.0 0.282369788
H  H117  1  0.29100000  0.05300000  0.85070000  1.0 0.282369788
H  H118  1  0.70900000  0.94700000  0.85070000  1.0 0.282369788
H  H119  1  0.05300000  0.76200000  0.85070000  1.0 0.282369788
H  H120  1  0.94700000  0.23800000  0.85070000  1.0 0.282369788
H  H121  1  0.32510000  0.36000000  0.95840000  1.0 0.1434876605
H  H122  1  0.67490000  0.64000000  0.95840000  1.0 0.1434876605
H  H123  1  0.64000000  0.67490000  0.54160000  1.0 0.1434876605
H  H124  1  0.36000000  0.32510000  0.54160000  1.0 0.1434876605
H  H125  1  0.96510000  0.64000000  0.54160000  1.0 0.1434876605
H  H126  1  0.03490000  0.36000000  0.54160000  1.0 0.1434876605
H  H127  1  0.32510000  0.96510000  0.54160000  1.0 0.1434876605
H  H128  1  0.67490000  0.03490000  0.54160000  1.0 0.1434876605
H  H129  1  0.64000000  0.96510000  0.95840000  1.0 0.1434876605
H  H130  1  0.36000000  0.03490000  0.95840000  1.0 0.1434876605
H  H131  1  0.96510000  0.32510000  0.95840000  1.0 0.1434876605
H  H132  1  0.03490000  0.67490000  0.95840000  1.0 0.1434876605
H  H133  1  0.67490000  0.64000000  0.04160000  1.0 0.1434876605
H  H134  1  0.32510000  0.36000000  0.04160000  1.0 0.1434876605
H  H135  1  0.36000000  0.32510000  0.45840000  1.0 0.1434876605
H  H136  1  0.64000000  0.67490000  0.45840000  1.0 0.1434876605
H  H137  1  0.03490000  0.36000000  0.45840000  1.0 0.1434876605
H  H138  1  0.96510000  0.64000000  0.45840000  1.0 0.1434876605
H  H139  1  0.67490000  0.03490000  0.45840000  1.0 0.1434876605
H  H140  1  0.32510000  0.96510000  0.45840000  1.0 0.1434876605
H  H141  1  0.36000000  0.03490000  0.04160000  1.0 0.1434876605
H  H142  1  0.64000000  0.96510000  0.04160000  1.0 0.1434876605
H  H143  1  0.03490000  0.67490000  0.04160000  1.0 0.1434876605
H  H144  1  0.96510000  0.32510000  0.04160000  1.0 0.1434876605
H  H145  1  0.33990000  0.13100000  0.97810000  1.0 0.045351522
H  H146  1  0.66010000  0.86900000  0.97810000  1.0 0.0449341554
H  H147  1  0.86900000  0.66010000  0.52190000  1.0 0.0449341554
H  H148  1  0.13100000  0.33990000  0.52190000  1.0 0.045351522
H  H149  1  0.20890000  0.86900000  0.52190000  1.0 0.045351522
H  H150  1  0.79110000  0.13100000  0.52190000  1.0 0.0449341554
H  H151  1  0.33990000  0.20890000  0.52190000  1.0 0.045351522
H  H152  1  0.66010000  0.79110000  0.52190000  1.0 0.0449341554
H  H153  1  0.86900000  0.20890000  0.97810000  1.0 0.045351522
H  H154  1  0.13100000  0.79110000  0.97810000  1.0 0.045351522
H  H155  1  0.20890000  0.33990000  0.97810000  1.0 0.045351522
H  H156  1  0.79110000  0.66010000  0.97810000  1.0 0.0449341554
H  H157  1  0.66010000  0.86900000  0.02190000  1.0 0.0449341554
H  H158  1  0.33990000  0.13100000  0.02190000  1.0 0.045351522
H  H159  1  0.13100000  0.33990000  0.47810000  1.0 0.045351522
H  H160  1  0.86900000  0.66010000  0.47810000  1.0 0.0449341554
H  H161  1  0.79110000  0.13100000  0.47810000  1.0 0.0449341554
H  H162  1  0.20890000  0.86900000  0.47810000  1.0 0.045351522
H  H163  1  0.66010000  0.79110000  0.47810000  1.0 0.0449341554
H  H164  1  0.33990000  0.20890000  0.47810000  1.0 0.045351522
H  H165  1  0.13100000  0.79110000  0.02190000  1.0 0.0449341554
H  H166  1  0.86900000  0.20890000  0.02190000  1.0 0.0449341554
H  H167  1  0.79110000  0.66010000  0.02190000  1.0 0.0449341554
H  H168  1  0.20890000  0.33990000  0.02190000  1.0 0.045351522
H  H169  1  0.29800000  0.32100000  0.96700000  1.0 0.0705386902
H  H170  1  0.70200000  0.67900000  0.96700000  1.0 0.0705386902
H  H171  1  0.67900000  0.70200000  0.53300000  1.0 0.0705386902
H  H172  1  0.32100000  0.29800000  0.53300000  1.0 0.0705386902
H  H173  1  0.97700000  0.67900000  0.53300000  1.0 0.0705386902
H  H174  1  0.02300000  0.32100000  0.53300000  1.0 0.0705386902
H  H175  1  0.29800000  0.97700000  0.53300000  1.0 0.0705386902
H  H176  1  0.70200000  0.02300000  0.53300000  1.0 0.0705386902
H  H177  1  0.67900000  0.97700000  0.96700000  1.0 0.0705386902
H  H178  1  0.32100000  0.02300000  0.96700000  1.0 0.0705386902
H  H179  1  0.97700000  0.29800000  0.96700000  1.0 0.0705386902
H  H180  1  0.02300000  0.70200000  0.96700000  1.0 0.0705386902
H  H181  1  0.70200000  0.67900000  0.03300000  1.0 0.0705386902
H  H182  1  0.29800000  0.32100000  0.03300000  1.0 0.0705386902
H  H183  1  0.32100000  0.29800000  0.46700000  1.0 0.0705386902
H  H184  1  0.67900000  0.70200000  0.46700000  1.0 0.0705386902
H  H185  1  0.02300000  0.32100000  0.46700000  1.0 0.0705386902
H  H186  1  0.97700000  0.67900000  0.46700000  1.0 0.0705386902
H  H187  1  0.70200000  0.02300000  0.46700000  1.0 0.0705386902
H  H188  1  0.29800000  0.97700000  0.46700000  1.0 0.0705386902
H  H189  1  0.32100000  0.02300000  0.03300000  1.0 0.0705386902
H  H190  1  0.67900000  0.97700000  0.03300000  1.0 0.0705386902
H  H191  1  0.02300000  0.70200000  0.03300000  1.0 0.0705386902
H  H192  1  0.97700000  0.29800000  0.03300000  1.0 0.0705386902
H  H193  1  0.32910000  0.36260000  0.04340000  1.0 0.1434876605
H  H194  1  0.67090000  0.63740000  0.04340000  1.0 0.1434876605
H  H195  1  0.63740000  0.67090000  0.45660000  1.0 0.1434876605
H  H196  1  0.36260000  0.32910000  0.45660000  1.0 0.1434876605
H  H197  1  0.96650000  0.63740000  0.45660000  1.0 0.1434876605
H  H198  1  0.03350000  0.36260000  0.45660000  1.0 0.1434876605
H  H199  1  0.32910000  0.96650000  0.45660000  1.0 0.1434876605
H  H200  1  0.67090000  0.03350000  0.45660000  1.0 0.1434876605
H  H201  1  0.63740000  0.96650000  0.04340000  1.0 0.1434876605
H  H202  1  0.36260000  0.03350000  0.04340000  1.0 0.1434876605
H  H203  1  0.96650000  0.32910000  0.04340000  1.0 0.1434876605
H  H204  1  0.03350000  0.67090000  0.04340000  1.0 0.1434876605
H  H205  1  0.67090000  0.63740000  0.95660000  1.0 0.1434876605
H  H206  1  0.32910000  0.36260000  0.95660000  1.0 0.1434876605
H  H207  1  0.36260000  0.32910000  0.54340000  1.0 0.1434876605
H  H208  1  0.63740000  0.67090000  0.54340000  1.0 0.1434876605
H  H209  1  0.03350000  0.36260000  0.54340000  1.0 0.1434876605
H  H210  1  0.96650000  0.63740000  0.54340000  1.0 0.1434876605
H  H211  1  0.67090000  0.03350000  0.54340000  1.0 0.1434876605
H  H212  1  0.32910000  0.96650000  0.54340000  1.0 0.1434876605
H  H213  1  0.36260000  0.03350000  0.95660000  1.0 0.1434876605
H  H214  1  0.63740000  0.96650000  0.95660000  1.0 0.1434876605
H  H215  1  0.03350000  0.67090000  0.95660000  1.0 0.1434876605
H  H216  1  0.96650000  0.32910000  0.95660000  1.0 0.1434876605
H  H217  1  0.42420000  0.42180000  0.99820000  1.0 0.150727693
H  H218  1  0.57580000  0.57820000  0.99820000  1.0 0.150727693
H  H219  1  0.57820000  0.57580000  0.50180000  1.0 0.150727693
H  H220  1  0.42180000  0.42420000  0.50180000  1.0 0.150727693
H  H221  1  0.00240000  0.57820000  0.50180000  1.0 0.150727693
H  H222  1  0.99760000  0.42180000  0.50180000  1.0 0.150727693
H  H223  1  0.42420000  0.00240000  0.50180000  1.0 0.150727693
H  H224  1  0.57580000  0.99760000  0.50180000  1.0 0.150727693
H  H225  1  0.57820000  0.00240000  0.99820000  1.0 0.150727693
H  H226  1  0.42180000  0.99760000  0.99820000  1.0 0.150727693
H  H227  1  0.00240000  0.42420000  0.99820000  1.0 0.150727693
H  H228  1  0.99760000  0.57580000  0.99820000  1.0 0.150727693
H  H229  1  0.57580000  0.57820000  0.00180000  1.0 0.150727693
H  H230  1  0.42420000  0.42180000  0.00180000  1.0 0.150727693
H  H231  1  0.42180000  0.42420000  0.49820000  1.0 0.150727693
H  H232  1  0.57820000  0.57580000  0.49820000  1.0 0.150727693
H  H233  1  0.99760000  0.42180000  0.49820000  1.0 0.150727693
H  H234  1  0.00240000  0.57820000  0.49820000  1.0 0.150727693
H  H235  1  0.57580000  0.99760000  0.49820000  1.0 0.150727693
H  H236  1  0.42420000  0.00240000  0.49820000  1.0 0.150727693
H  H237  1  0.42180000  0.99760000  0.00180000  1.0 0.150727693
H  H238  1  0.57820000  0.00240000  0.00180000  1.0 0.150727693
H  H239  1  0.99760000  0.57580000  0.00180000  1.0 0.150727693
H  H240  1  0.00240000  0.42420000  0.00180000  1.0 0.150727693
H  H241  1  0.29100000  0.14030000  0.04910000  1.0 0.0927543584
H  H242  1  0.70900000  0.85970000  0.04910000  1.0 0.0927543584
H  H243  1  0.85970000  0.70900000  0.45090000  1.0 0.0927543584
H  H244  1  0.14030000  0.29100000  0.45090000  1.0 0.0927543584
H  H245  1  0.15070000  0.85970000  0.45090000  1.0 0.0927543584
H  H246  1  0.84930000  0.14030000  0.45090000  1.0 0.0927543584
H  H247  1  0.29100000  0.15070000  0.45090000  1.0 0.0927543584
H  H248  1  0.70900000  0.84930000  0.45090000  1.0 0.0927543584
H  H249  1  0.85970000  0.15070000  0.04910000  1.0 0.0927543584
H  H250  1  0.14030000  0.84930000  0.04910000  1.0 0.0927543584
H  H251  1  0.15070000  0.29100000  0.04910000  1.0 0.0927543584
H  H252  1  0.84930000  0.70900000  0.04910000  1.0 0.0927543584
H  H253  1  0.70900000  0.85970000  0.95090000  1.0 0.0927543584
H  H254  1  0.29100000  0.14030000  0.95090000  1.0 0.0927543584
H  H255  1  0.14030000  0.29100000  0.54910000  1.0 0.0927543584
H  H256  1  0.85970000  0.70900000  0.54910000  1.0 0.0927543584
H  H257  1  0.84930000  0.14030000  0.54910000  1.0 0.0927543584
H  H258  1  0.15070000  0.85970000  0.54910000  1.0 0.0927543584
H  H259  1  0.70900000  0.84930000  0.54910000  1.0 0.0927543584
H  H260  1  0.29100000  0.15070000  0.54910000  1.0 0.0927543584
H  H261  1  0.14030000  0.84930000  0.95090000  1.0 0.0927543584
H  H262  1  0.85970000  0.15070000  0.95090000  1.0 0.0927543584
H  H263  1  0.84930000  0.70900000  0.95090000  1.0 0.0927543584
H  H264  1  0.15070000  0.29100000  0.95090000  1.0 0.0927543584
H  H265  1  0.25150000  0.14780000  0.97290000  1.0 0.0760425996
H  H266  1  0.74850000  0.85220000  0.97290000  1.0 0.0760425996
H  H267  1  0.85220000  0.74850000  0.52710000  1.0 0.0760425996
H  H268  1  0.14780000  0.25150000  0.52710000  1.0 0.0760425996
H  H269  1  0.10370000  0.85220000  0.52710000  1.0 0.0760425996
H  H270  1  0.89630000  0.14780000  0.52710000  1.0 0.0760425996
H  H271  1  0.25150000  0.10370000  0.52710000  1.0 0.0760425996
H  H272  1  0.74850000  0.89630000  0.52710000  1.0 0.0760425996
H  H273  1  0.85220000  0.10370000  0.97290000  1.0 0.0760425996
H  H274  1  0.14780000  0.89630000  0.97290000  1.0 0.0760425996
H  H275  1  0.10370000  0.25150000  0.97290000  1.0 0.0760425996
H  H276  1  0.89630000  0.74850000  0.97290000  1.0 0.0760425996
H  H277  1  0.74850000  0.85220000  0.02710000  1.0 0.0760425996
H  H278  1  0.25150000  0.14780000  0.02710000  1.0 0.0760425996
H  H279  1  0.14780000  0.25150000  0.47290000  1.0 0.0760425996
H  H280  1  0.85220000  0.74850000  0.47290000  1.0 0.0760425996
H  H281  1  0.89630000  0.14780000  0.47290000  1.0 0.0760425996
H  H282  1  0.10370000  0.85220000  0.47290000  1.0 0.0760425996
H  H283  1  0.74850000  0.89630000  0.47290000  1.0 0.0760425996
H  H284  1  0.25150000  0.10370000  0.47290000  1.0 0.0760425996
H  H285  1  0.14780000  0.89630000  0.02710000  1.0 0.0760425996
H  H286  1  0.85220000  0.10370000  0.02710000  1.0 0.0760425996
H  H287  1  0.89630000  0.74850000  0.02710000  1.0 0.0760425996
H  H288  1  0.10370000  0.25150000  0.02710000  1.0 0.0760425996
H  H289  1  0.25300000  0.18500000  0.96900000  1.0 0.0760425996
H  H290  1  0.74700000  0.81500000  0.96900000  1.0 0.0760425996
H  H291  1  0.81500000  0.74700000  0.53100000  1.0 0.0760425996
H  H292  1  0.18500000  0.25300000  0.53100000  1.0 0.0760425996
H  H293  1  0.06800000  0.81500000  0.53100000  1.0 0.0760425996
H  H294  1  0.93200000  0.18500000  0.53100000  1.0 0.0760425996
H  H295  1  0.25300000  0.06800000  0.53100000  1.0 0.0760425996
H  H296  1  0.74700000  0.93200000  0.53100000  1.0 0.0760425996
H  H297  1  0.81500000  0.06800000  0.96900000  1.0 0.0760425996
H  H298  1  0.18500000  0.93200000  0.96900000  1.0 0.0760425996
H  H299  1  0.06800000  0.25300000  0.96900000  1.0 0.0760425996
H  H300  1  0.93200000  0.74700000  0.96900000  1.0 0.0760425996
H  H301  1  0.74700000  0.81500000  0.03100000  1.0 0.0760425996
H  H302  1  0.25300000  0.18500000  0.03100000  1.0 0.0760425996
H  H303  1  0.18500000  0.25300000  0.46900000  1.0 0.0760425996
H  H304  1  0.81500000  0.74700000  0.46900000  1.0 0.0760425996
H  H305  1  0.93200000  0.18500000  0.46900000  1.0 0.0760425996
H  H306  1  0.06800000  0.81500000  0.46900000  1.0 0.0760425996
H  H307  1  0.74700000  0.93200000  0.46900000  1.0 0.0760425996
H  H308  1  0.25300000  0.06800000  0.46900000  1.0 0.0760425996
H  H309  1  0.18500000  0.93200000  0.03100000  1.0 0.0760425996
H  H310  1  0.81500000  0.06800000  0.03100000  1.0 0.0760425996
H  H311  1  0.93200000  0.74700000  0.03100000  1.0 0.0760425996
H  H312  1  0.06800000  0.25300000  0.03100000  1.0 0.0760425996
Pd  Pd1  1  0.63688000  0.44960000  0.00000000  1.0 0.5476770792
Pd  Pd2  1  0.36312000  0.55040000  0.00000000  1.0 0.5476770792
Pd  Pd3  1  0.55040000  0.36312000  0.50000000  1.0 0.5476770792
Pd  Pd4  1  0.44960000  0.63688000  0.50000000  1.0 0.5476770792
Pd  Pd5  1  0.18728000  0.55040000  0.50000000  1.0 0.5476770792
Pd  Pd6  1  0.81272000  0.44960000  0.50000000  1.0 0.5476770792
Pd  Pd7  1  0.63688000  0.18728000  0.50000000  1.0 0.5476770792
Pd  Pd8  1  0.36312000  0.81272000  0.50000000  1.0 0.5476770792
Pd  Pd9  1  0.55040000  0.18728000  0.00000000  1.0 0.5476770792
Pd  Pd10  1  0.44960000  0.81272000  0.00000000  1.0 0.5476770792
Pd  Pd11  1  0.18728000  0.63688000  0.00000000  1.0 0.5476770792
Pd  Pd12  1  0.81272000  0.36312000  0.00000000  1.0 0.5476770792
C  C1  1  0.37870000  0.27400000  0.00000000  1.0 0.0705386902
C  C2  1  0.62130000  0.72600000  0.00000000  1.0 0.0705386902
C  C3  1  0.72600000  0.62130000  0.50000000  1.0 0.0705386902
C  C4  1  0.27400000  0.37870000  0.50000000  1.0 0.0705386902
C  C5  1  0.10470000  0.72600000  0.50000000  1.0 0.0705386902
C  C6  1  0.89530000  0.27400000  0.50000000  1.0 0.0705386902
C  C7  1  0.37870000  0.10470000  0.50000000  1.0 0.0705386902
C  C8  1  0.62130000  0.89530000  0.50000000  1.0 0.0705386902
C  C9  1  0.72600000  0.10470000  0.00000000  1.0 0.0705386902
C  C10  1  0.27400000  0.89530000  0.00000000  1.0 0.0705386902
C  C11  1  0.10470000  0.37870000  0.00000000  1.0 0.0705386902
C  C12  1  0.89530000  0.62130000  0.00000000  1.0 0.0705386902
C  C13  1  0.36270000  0.36330000  0.00000000  1.0 -0.3396928739
C  C14  1  0.63730000  0.63670000  0.00000000  1.0 -0.3396928739
C  C15  1  0.63670000  0.63730000  0.50000000  1.0 -0.3396928739
C  C16  1  0.36330000  0.36270000  0.50000000  1.0 -0.3396928739
C  C17  1  0.99940000  0.63670000  0.50000000  1.0 -0.3396928739
C  C18  1  0.00060000  0.36330000  0.50000000  1.0 -0.3396928739
C  C19  1  0.36270000  0.99940000  0.50000000  1.0 -0.3396928739
C  C20  1  0.63730000  0.00060000  0.50000000  1.0 -0.3396928739
C  C21  1  0.63670000  0.99940000  0.00000000  1.0 -0.3396928739
C  C22  1  0.36330000  0.00060000  0.00000000  1.0 -0.3396928739
C  C23  1  0.99940000  0.36270000  0.00000000  1.0 -0.3396928739
C  C24  1  0.00060000  0.63730000  0.00000000  1.0 -0.3396928739
C  C25  1  0.30850000  0.16260000  0.00000000  1.0 -0.1938617286
C  C26  1  0.69150000  0.83740000  0.00000000  1.0 -0.1938617286
C  C27  1  0.83740000  0.69150000  0.50000000  1.0 -0.1938617286
C  C28  1  0.16260000  0.30850000  0.50000000  1.0 -0.1938617286
C  C29  1  0.14590000  0.83740000  0.50000000  1.0 -0.1938617286
C  C30  1  0.85410000  0.16260000  0.50000000  1.0 -0.1938617286
C  C31  1  0.30850000  0.14590000  0.50000000  1.0 -0.1938617286
C  C32  1  0.69150000  0.85410000  0.50000000  1.0 -0.1938617286
C  C33  1  0.83740000  0.14590000  0.00000000  1.0 -0.1938617286
C  C34  1  0.16260000  0.85410000  0.00000000  1.0 -0.1938617286
C  C35  1  0.14590000  0.30850000  0.00000000  1.0 -0.1938617286
C  C36  1  0.85410000  0.69150000  0.00000000  1.0 -0.1938617286
O  O1  1  0.48149000  0.21370000  0.08028000  1.0 -0.578969899
O  O2  1  0.51851000  0.78630000  0.08028000  1.0 -0.578969899
O  O3  1  0.78630000  0.51851000  0.41972000  1.0 -0.578969899
O  O4  1  0.21370000  0.48149000  0.41972000  1.0 -0.578969899
O  O5  1  0.26779000  0.78630000  0.41972000  1.0 -0.578969899
O  O6  1  0.73221000  0.21370000  0.41972000  1.0 -0.578969899
O  O7  1  0.48149000  0.26779000  0.41972000  1.0 -0.578969899
O  O8  1  0.51851000  0.73221000  0.41972000  1.0 -0.578969899
O  O9  1  0.78630000  0.26779000  0.08028000  1.0 -0.578969899
O  O10  1  0.21370000  0.73221000  0.08028000  1.0 -0.578969899
O  O11  1  0.26779000  0.48149000  0.08028000  1.0 -0.578969899
O  O12  1  0.73221000  0.51851000  0.08028000  1.0 -0.578969899
O  O13  1  0.51851000  0.78630000  0.91972000  1.0 -0.578969899
O  O14  1  0.48149000  0.21370000  0.91972000  1.0 -0.578969899
O  O15  1  0.21370000  0.48149000  0.58028000  1.0 -0.578969899
O  O16  1  0.78630000  0.51851000  0.58028000  1.0 -0.578969899
O  O17  1  0.73221000  0.21370000  0.58028000  1.0 -0.578969899
O  O18  1  0.26779000  0.78630000  0.58028000  1.0 -0.578969899
O  O19  1  0.51851000  0.73221000  0.58028000  1.0 -0.578969899
O  O20  1  0.48149000  0.26779000  0.58028000  1.0 -0.578969899
O  O21  1  0.21370000  0.73221000  0.91972000  1.0 -0.578969899
O  O22  1  0.78630000  0.26779000  0.91972000  1.0 -0.578969899
O  O23  1  0.73221000  0.51851000  0.91972000  1.0 -0.578969899
O  O24  1  0.26779000  0.48149000  0.91972000  1.0 -0.578969899
O  O25  1  0.53726000  0.39316000  0.07897000  1.0 -0.578969899
O  O26  1  0.46274000  0.60684000  0.07897000  1.0 -0.578969899
O  O27  1  0.60684000  0.46274000  0.42103000  1.0 -0.578969899
O  O28  1  0.39316000  0.53726000  0.42103000  1.0 -0.578969899
O  O29  1  0.14410000  0.60684000  0.42103000  1.0 -0.578969899
O  O30  1  0.85590000  0.39316000  0.42103000  1.0 -0.578969899
O  O31  1  0.53726000  0.14410000  0.42103000  1.0 -0.578969899
O  O32  1  0.46274000  0.85590000  0.42103000  1.0 -0.578969899
O  O33  1  0.60684000  0.14410000  0.07897000  1.0 -0.578969899
O  O34  1  0.39316000  0.85590000  0.07897000  1.0 -0.578969899
O  O35  1  0.14410000  0.53726000  0.07897000  1.0 -0.578969899
O  O36  1  0.85590000  0.46274000  0.07897000  1.0 -0.578969899
O  O37  1  0.46274000  0.60684000  0.92103000  1.0 -0.578969899
O  O38  1  0.53726000  0.39316000  0.92103000  1.0 -0.578969899
O  O39  1  0.39316000  0.53726000  0.57897000  1.0 -0.578969899
O  O40  1  0.60684000  0.46274000  0.57897000  1.0 -0.578969899
O  O41  1  0.85590000  0.39316000  0.57897000  1.0 -0.578969899
O  O42  1  0.14410000  0.60684000  0.57897000  1.0 -0.578969899
O  O43  1  0.46274000  0.85590000  0.57897000  1.0 -0.578969899
O  O44  1  0.53726000  0.14410000  0.57897000  1.0 -0.578969899
O  O45  1  0.39316000  0.85590000  0.92103000  1.0 -0.578969899
O  O46  1  0.60684000  0.14410000  0.92103000  1.0 -0.578969899
O  O47  1  0.85590000  0.46274000  0.92103000  1.0 -0.578969899
O  O48  1  0.14410000  0.53726000  0.92103000  1.0 -0.578969899
O  O49  1  0.38931000  0.27739000  0.14777000  1.0 -0.6401709958
O  O50  1  0.61069000  0.72261000  0.14777000  1.0 -0.6401709958
O  O51  1  0.72261000  0.61069000  0.35223000  1.0 -0.6401709958
O  O52  1  0.27739000  0.38931000  0.35223000  1.0 -0.6401709958
O  O53  1  0.11192000  0.72261000  0.35223000  1.0 -0.6401709958
O  O54  1  0.88808000  0.27739000  0.35223000  1.0 -0.6401709958
O  O55  1  0.38931000  0.11192000  0.35223000  1.0 -0.6401709958
O  O56  1  0.61069000  0.88808000  0.35223000  1.0 -0.6401709958
O  O57  1  0.72261000  0.11192000  0.14777000  1.0 -0.6401709958
O  O58  1  0.27739000  0.88808000  0.14777000  1.0 -0.6401709958
O  O59  1  0.11192000  0.38931000  0.14777000  1.0 -0.6401709958
O  O60  1  0.88808000  0.61069000  0.14777000  1.0 -0.6401709958
O  O61  1  0.61069000  0.72261000  0.85223000  1.0 -0.6401709958
O  O62  1  0.38931000  0.27739000  0.85223000  1.0 -0.6401709958
O  O63  1  0.27739000  0.38931000  0.64777000  1.0 -0.6401709958
O  O64  1  0.72261000  0.61069000  0.64777000  1.0 -0.6401709958
O  O65  1  0.88808000  0.27739000  0.64777000  1.0 -0.6401709958
O  O66  1  0.11192000  0.72261000  0.64777000  1.0 -0.6401709958
O  O67  1  0.61069000  0.88808000  0.64777000  1.0 -0.6401709958
O  O68  1  0.38931000  0.11192000  0.64777000  1.0 -0.6401709958
O  O69  1  0.27739000  0.88808000  0.85223000  1.0 -0.6401709958
O  O70  1  0.72261000  0.11192000  0.85223000  1.0 -0.6401709958
O  O71  1  0.88808000  0.61069000  0.85223000  1.0 -0.6401709958
O  O72  1  0.11192000  0.38931000  0.85223000  1.0 -0.6401709958
O  O73  1  0.33373000  0.50409000  0.22123000  1.0 -0.6401709958
O  O74  1  0.66627000  0.49591000  0.22123000  1.0 -0.6401709958
O  O75  1  0.49591000  0.66627000  0.27877000  1.0 -0.6401709958
O  O76  1  0.50409000  0.33373000  0.27877000  1.0 -0.6401709958
O  O77  1  0.82964000  0.49591000  0.27877000  1.0 -0.6401709958
O  O78  1  0.17036000  0.50409000  0.27877000  1.0 -0.6401709958
O  O79  1  0.33373000  0.82964000  0.27877000  1.0 -0.6401709958
O  O80  1  0.66627000  0.17036000  0.27877000  1.0 -0.6401709958
O  O81  1  0.49591000  0.82964000  0.22123000  1.0 -0.6401709958
O  O82  1  0.50409000  0.17036000  0.22123000  1.0 -0.6401709958
O  O83  1  0.82964000  0.33373000  0.22123000  1.0 -0.6401709958
O  O84  1  0.17036000  0.66627000  0.22123000  1.0 -0.6401709958
O  O85  1  0.66627000  0.49591000  0.77877000  1.0 -0.6401709958
O  O86  1  0.33373000  0.50409000  0.77877000  1.0 -0.6401709958
O  O87  1  0.50409000  0.33373000  0.72123000  1.0 -0.6401709958
O  O88  1  0.49591000  0.66627000  0.72123000  1.0 -0.6401709958
O  O89  1  0.17036000  0.50409000  0.72123000  1.0 -0.6401709958
O  O90  1  0.82964000  0.49591000  0.72123000  1.0 -0.6401709958
O  O91  1  0.66627000  0.17036000  0.72123000  1.0 -0.6401709958
O  O92  1  0.33373000  0.82964000  0.72123000  1.0 -0.6401709958
O  O93  1  0.50409000  0.17036000  0.77877000  1.0 -0.6401709958
O  O94  1  0.49591000  0.82964000  0.77877000  1.0 -0.6401709958
O  O95  1  0.17036000  0.66627000  0.77877000  1.0 -0.6401709958
O  O96  1  0.82964000  0.33373000  0.77877000  1.0 -0.6401709958
O  O97  1  0.50000000  0.50000000  0.17187000  1.0 -0.7223456707
O  O98  1  0.50000000  0.50000000  0.32813000  1.0 -0.7223456707
O  O99  1  0.00000000  0.50000000  0.32813000  1.0 -0.7223456707
O  O100  1  0.50000000  0.00000000  0.32813000  1.0 -0.7223456707
O  O101  1  0.50000000  0.00000000  0.17187000  1.0 -0.7223456707
O  O102  1  0.00000000  0.50000000  0.17187000  1.0 -0.7223456707
O  O103  1  0.50000000  0.50000000  0.82813000  1.0 -0.7223456707
O  O104  1  0.50000000  0.50000000  0.67187000  1.0 -0.7223456707
O  O105  1  0.00000000  0.50000000  0.67187000  1.0 -0.7223456707
O  O106  1  0.50000000  0.00000000  0.67187000  1.0 -0.7223456707
O  O107  1  0.50000000  0.00000000  0.82813000  1.0 -0.7223456707
O  O108  1  0.00000000  0.50000000  0.82813000  1.0 -0.7223456707
O  O109  1  0.21570000  0.29330000  0.18857000  1.0 -0.6743672323
O  O110  1  0.78430000  0.70670000  0.18857000  1.0 -0.6743672323
O  O111  1  0.70670000  0.78430000  0.31143000  1.0 -0.6743672323
O  O112  1  0.29330000  0.21570000  0.31143000  1.0 -0.6743672323
O  O113  1  0.92240000  0.70670000  0.31143000  1.0 -0.6743672323
O  O114  1  0.07760000  0.29330000  0.31143000  1.0 -0.6743672323
O  O115  1  0.21570000  0.92240000  0.31143000  1.0 -0.6743672323
O  O116  1  0.78430000  0.07760000  0.31143000  1.0 -0.6743672323
O  O117  1  0.70670000  0.92240000  0.18857000  1.0 -0.6743672323
O  O118  1  0.29330000  0.07760000  0.18857000  1.0 -0.6743672323
O  O119  1  0.92240000  0.21570000  0.18857000  1.0 -0.6743672323
O  O120  1  0.07760000  0.78430000  0.18857000  1.0 -0.6743672323
O  O121  1  0.78430000  0.70670000  0.81143000  1.0 -0.6743672323
O  O122  1  0.21570000  0.29330000  0.81143000  1.0 -0.6743672323
O  O123  1  0.29330000  0.21570000  0.68857000  1.0 -0.6743672323
O  O124  1  0.70670000  0.78430000  0.68857000  1.0 -0.6743672323
O  O125  1  0.07760000  0.29330000  0.68857000  1.0 -0.6743672323
O  O126  1  0.92240000  0.70670000  0.68857000  1.0 -0.6743672323
O  O127  1  0.78430000  0.07760000  0.68857000  1.0 -0.6743672323
O  O128  1  0.21570000  0.92240000  0.68857000  1.0 -0.6743672323
O  O129  1  0.29330000  0.07760000  0.81143000  1.0 -0.6743672323
O  O130  1  0.70670000  0.92240000  0.81143000  1.0 -0.6743672323
O  O131  1  0.07760000  0.78430000  0.81143000  1.0 -0.6743672323
O  O132  1  0.92240000  0.21570000  0.81143000  1.0 -0.6743672323
O  O133  1  0.28830000  0.18360000  0.00000000  1.0 -0.2091424336
O  O134  1  0.71170000  0.81640000  0.00000000  1.0 -0.2091424336
O  O135  1  0.81640000  0.71170000  0.50000000  1.0 -0.2091424336
O  O136  1  0.18360000  0.28830000  0.50000000  1.0 -0.2091424336
O  O137  1  0.10470000  0.81640000  0.50000000  1.0 -0.2091424336
O  O138  1  0.89530000  0.18360000  0.50000000  1.0 -0.2091424336
O  O139  1  0.28830000  0.10470000  0.50000000  1.0 -0.2091424336
O  O140  1  0.71170000  0.89530000  0.50000000  1.0 -0.2091424336
O  O141  1  0.81640000  0.10470000  0.00000000  1.0 -0.2091424336
O  O142  1  0.18360000  0.89530000  0.00000000  1.0 -0.2091424336
O  O143  1  0.10470000  0.28830000  0.00000000  1.0 -0.2091424336
O  O144  1  0.89530000  0.71170000  0.00000000  1.0 -0.2091424336
O  O145  1  0.33860000  0.33700000  0.00000000  1.0 -0.2947214451
O  O146  1  0.66140000  0.66300000  0.00000000  1.0 -0.2947214451
O  O147  1  0.66300000  0.66140000  0.50000000  1.0 -0.2947214451
O  O148  1  0.33700000  0.33860000  0.50000000  1.0 -0.2947214451
O  O149  1  0.00160000  0.66300000  0.50000000  1.0 -0.2947214451
O  O150  1  0.99840000  0.33700000  0.50000000  1.0 -0.2950201836
O  O151  1  0.33860000  0.00160000  0.50000000  1.0 -0.2950201836
O  O152  1  0.66140000  0.99840000  0.50000000  1.0 -0.2947214451
O  O153  1  0.66300000  0.00160000  0.00000000  1.0 -0.2950201836
O  O154  1  0.33700000  0.99840000  0.00000000  1.0 -0.2947214451
O  O155  1  0.00160000  0.33860000  0.00000000  1.0 -0.2947214451
O  O156  1  0.99840000  0.66140000  0.00000000  1.0 -0.2950201836
