# DDEC6 charges by PACMAN v1.1 (https://github.com/mtap-research/PACMAN-charge/)
data_GOLYUD_ASR_pacman
_symmetry_space_group_name_H-M   'P 1'
_cell_length_a   14.22690000
_cell_length_b   14.76920000
_cell_length_c   21.69120000
_cell_angle_alpha   90.39100000
_cell_angle_beta   94.35700000
_cell_angle_gamma   118.23300000
_symmetry_Int_Tables_number   1
_chemical_formula_structural   Co3H46C74S3N4O19
_chemical_formula_sum   'Co6 H92 C148 S6 N8 O38'
_cell_volume   3999.17151854
_cell_formula_units_Z   2
loop_
 _symmetry_equiv_pos_site_id
 _symmetry_equiv_pos_as_xyz
  1  'x, y, z'
loop_
 _atom_site_type_symbol
 _atom_site_label
 _atom_site_symmetry_multiplicity
 _atom_site_fract_x
 _atom_site_fract_y
 _atom_site_fract_z
 _atom_site_occupancy
 _atom_site_charge
Co  Co1  1  0.06255000  0.22425000  0.11240000  1.0 0.8631208548
Co  Co2  1  0.93745000  0.77575000  0.88760000  1.0 0.8631208548
Co  Co3  1  0.28625000  0.45382000  0.39971000  1.0 0.8361979136
Co  Co4  1  0.71375000  0.54618000  0.60029000  1.0 0.8361979136
Co  Co5  1  0.22151000  0.28000000  0.27108000  1.0 1.0844416031
Co  Co6  1  0.77849000  0.72000000  0.72892000  1.0 1.0860156426
H  H1  1  0.95620000  0.04670000  0.01040000  1.0 0.110009102
H  H2  1  0.04380000  0.95330000  0.98960000  1.0 0.110009102
H  H3  1  0.85600000  0.00990000  0.91580000  1.0 0.1293073568
H  H4  1  0.14400000  0.99010000  0.08420000  1.0 0.1293073568
H  H5  1  0.84570000  0.27600000  0.93350000  1.0 0.1212041218
H  H6  1  0.15430000  0.72400000  0.06650000  1.0 0.1212041218
H  H7  1  0.94030000  0.30780000  0.02910000  1.0 0.110009102
H  H8  1  0.05970000  0.69220000  0.97090000  1.0 0.110009102
H  H9  1  0.71880000  0.96540000  0.84870000  1.0 0.146575797
H  H10  1  0.28120000  0.03460000  0.15130000  1.0 0.146575797
H  H11  1  0.62140000  0.06110000  0.69670000  1.0 0.1382258816
H  H12  1  0.37860000  0.93890000  0.30330000  1.0 0.1382258816
H  H13  1  0.82160000  0.26590000  0.83130000  1.0 0.110009102
H  H14  1  0.17840000  0.73410000  0.16870000  1.0 0.110009102
H  H15  1  0.86400000  0.50730000  0.69960000  1.0 0.110009102
H  H16  1  0.13600000  0.49270000  0.30040000  1.0 0.110009102
H  H17  1  0.86510000  0.37700000  0.75640000  1.0 0.1212041218
H  H18  1  0.13490000  0.62300000  0.24360000  1.0 0.1212041218
H  H19  1  0.57510000  0.18050000  0.67370000  1.0 0.1382258816
H  H20  1  0.42490000  0.81950000  0.32630000  1.0 0.1382258816
H  H21  1  0.57630000  0.31280000  0.61660000  1.0 0.0996760195
H  H22  1  0.42370000  0.68720000  0.38340000  1.0 0.0996760195
H  H23  1  0.43810000  0.88830000  0.79450000  1.0 0.146575797
H  H24  1  0.56190000  0.11170000  0.20550000  1.0 0.146575797
H  H25  1  0.22000000  0.66630000  0.67490000  1.0 0.110009102
H  H26  1  0.78000000  0.33370000  0.32510000  1.0 0.110009102
H  H27  1  0.53380000  0.78290000  0.65390000  1.0 0.1293073568
H  H28  1  0.46620000  0.21710000  0.34610000  1.0 0.1293073568
H  H29  1  0.98800000  0.62370000  0.81170000  1.0 0.110009102
H  H30  1  0.01200000  0.37630000  0.18830000  1.0 0.110009102
H  H31  1  0.12290000  0.62370000  0.75870000  1.0 0.1293073568
H  H32  1  0.87710000  0.37630000  0.24130000  1.0 0.1293073568
H  H33  1  0.30300000  0.92340000  0.80300000  1.0 0.1293073568
H  H34  1  0.69700000  0.07660000  0.19700000  1.0 0.1293073568
H  H35  1  0.16430000  0.92360000  0.85160000  1.0 0.110009102
H  H36  1  0.83570000  0.07640000  0.14840000  1.0 0.110009102
H  H37  1  0.46430000  0.58060000  0.49560000  1.0 0.1212041218
H  H38  1  0.53570000  0.41940000  0.50440000  1.0 0.1212041218
H  H39  1  0.50160000  0.67390000  0.58050000  1.0 0.1293073568
H  H40  1  0.49840000  0.32610000  0.41950000  1.0 0.1293073568
H  H41  1  0.18460000  0.58440000  0.58750000  1.0 0.1293073568
H  H42  1  0.81540000  0.41560000  0.41250000  1.0 0.1293073568
H  H43  1  0.15130000  0.48420000  0.49840000  1.0 0.1212041218
H  H44  1  0.84870000  0.51580000  0.50160000  1.0 0.1212041218
H  H45  1  0.08670000  0.98480000  0.29970000  1.0 0.1293073568
H  H46  1  0.91330000  0.01520000  0.70030000  1.0 0.1293073568
H  H47  1  0.02620000  0.81600000  0.32410000  1.0 0.1293073568
H  H48  1  0.97380000  0.18400000  0.67590000  1.0 0.1293073568
H  H49  1  0.87430000  0.72310000  0.15390000  1.0 0.1212041218
H  H50  1  0.12570000  0.27690000  0.84610000  1.0 0.1212041218
H  H51  1  0.93120000  0.89240000  0.13030000  1.0 0.1212041218
H  H52  1  0.06880000  0.10760000  0.86970000  1.0 0.1212041218
H  H53  1  0.80950000  0.68060000  0.35550000  1.0 0.1293073568
H  H54  1  0.19050000  0.31940000  0.64450000  1.0 0.1293073568
H  H55  1  0.63690000  0.62940000  0.38550000  1.0 0.1212041218
H  H56  1  0.36310000  0.37060000  0.61450000  1.0 0.1212041218
H  H57  1  0.51250000  0.42080000  0.24220000  1.0 0.1293073568
H  H58  1  0.48750000  0.57920000  0.75780000  1.0 0.1293073568
H  H59  1  0.68460000  0.47810000  0.20990000  1.0 0.1293073568
H  H60  1  0.31540000  0.52190000  0.79010000  1.0 0.1293073568
H  H61  1  0.03700000  0.67100000  0.55270000  1.0 0.1212041218
H  H62  1  0.96300000  0.32900000  0.44730000  1.0 0.1212041218
H  H63  1  0.21050000  0.77770000  0.52650000  1.0 0.1293073568
H  H64  1  0.78950000  0.22230000  0.47350000  1.0 0.1293073568
H  H65  1  0.25650000  0.97160000  0.67090000  1.0 0.1382258816
H  H66  1  0.74350000  0.02840000  0.32910000  1.0 0.1382258816
H  H67  1  0.08580000  0.86450000  0.69660000  1.0 0.1293073568
H  H68  1  0.91420000  0.13550000  0.30340000  1.0 0.1293073568
H  H69  1  0.32580000  0.96490000  0.44280000  1.0 0.1293073568
H  H70  1  0.67420000  0.03510000  0.55720000  1.0 0.1293073568
H  H71  1  0.28110000  0.06510000  0.37960000  1.0 0.1293073568
H  H72  1  0.71890000  0.93490000  0.62040000  1.0 0.1293073568
H  H73  1  0.33050000  0.25720000  0.52610000  1.0 0.1212041218
H  H74  1  0.66950000  0.74280000  0.47390000  1.0 0.1212041218
H  H75  1  0.37460000  0.15290000  0.58930000  1.0 0.1293073568
H  H76  1  0.62540000  0.84710000  0.41070000  1.0 0.1293073568
H  H77  1  0.21820000  0.57550000  0.09260000  1.0 0.1212041218
H  H78  1  0.78180000  0.42450000  0.90740000  1.0 0.1212041218
H  H79  1  0.35410000  0.74570000  0.10250000  1.0 0.1212041218
H  H80  1  0.64590000  0.25430000  0.89750000  1.0 0.1212041218
H  H81  1  0.52040000  0.66360000  0.22730000  1.0 0.1212041218
H  H82  1  0.47960000  0.33640000  0.77270000  1.0 0.1212041218
H  H83  1  0.38890000  0.49430000  0.21480000  1.0 0.1212041218
H  H84  1  0.61110000  0.50570000  0.78520000  1.0 0.1212041218
H  H85  1  0.56310000  0.91060000  0.04650000  1.0 0.1293073568
H  H86  1  0.43690000  0.08940000  0.95350000  1.0 0.1293073568
H  H87  1  0.63550000  0.88980000  0.95830000  1.0 0.1212041218
H  H88  1  0.36450000  0.11020000  0.04170000  1.0 0.1212041218
H  H89  1  0.77940000  0.75430000  0.05530000  1.0 0.1212041218
H  H90  1  0.22060000  0.24570000  0.94470000  1.0 0.1212041218
H  H91  1  0.70580000  0.77150000  0.14380000  1.0 0.1212041218
H  H92  1  0.29420000  0.22850000  0.85620000  1.0 0.1212041218
C  C1  1  0.93270000  0.09200000  0.99524000  1.0 0.0813126193
C  C2  1  0.06730000  0.90800000  0.00476000  1.0 0.0813126193
C  C3  1  0.87380000  0.07090000  0.93793000  1.0 -0.1786852321
C  C4  1  0.12620000  0.92910000  0.06207000  1.0 -0.1786852321
C  C5  1  0.84040000  0.14020000  0.91250000  1.0 0.1212041218
C  C6  1  0.15960000  0.85980000  0.08750000  1.0 0.1212041218
C  C7  1  0.86670000  0.22880000  0.94837000  1.0 -0.1973418194
C  C8  1  0.13330000  0.77120000  0.05163000  1.0 -0.1973418194
C  C9  1  0.92370000  0.24800000  0.00600000  1.0 0.0813126193
C  C10  1  0.07630000  0.75200000  0.99400000  1.0 0.0813126193
C  C11  1  0.77950000  0.11860000  0.84988000  1.0 0.0911197671
C  C12  1  0.22050000  0.88140000  0.15012000  1.0 0.0911197671
C  C13  1  0.71870000  0.01900000  0.82642000  1.0 -0.2244728571
C  C14  1  0.28130000  0.98100000  0.17358000  1.0 -0.2244728571
C  C15  1  0.65710000  0.99690000  0.77007000  1.0 0.2756989756
C  C16  1  0.34290000  0.00310000  0.22993000  1.0 0.2756989756
C  C17  1  0.65990000  0.07580000  0.73537000  1.0 -0.2422646387
C  C18  1  0.34010000  0.92420000  0.26463000  1.0 -0.2422646387
C  C19  1  0.72040000  0.17790000  0.75804000  1.0 0.0996760195
C  C20  1  0.27960000  0.82210000  0.24196000  1.0 0.0996760195
C  C21  1  0.78060000  0.19830000  0.81577000  1.0 -0.1973418194
C  C22  1  0.21940000  0.80170000  0.18423000  1.0 -0.1973418194
C  C23  1  0.80590000  0.44140000  0.69421000  1.0 0.0996760195
C  C24  1  0.19410000  0.55860000  0.30579000  1.0 0.0996760195
C  C25  1  0.80640000  0.36310000  0.72852000  1.0 -0.1786852321
C  C26  1  0.19360000  0.63690000  0.27148000  1.0 -0.1786852321
C  C27  1  0.71960000  0.26250000  0.72208000  1.0 0.110009102
C  C28  1  0.28040000  0.73750000  0.27792000  1.0 0.110009102
C  C29  1  0.63370000  0.24590000  0.67929000  1.0 -0.1721348456
C  C30  1  0.36630000  0.75410000  0.32071000  1.0 -0.1721348456
C  C31  1  0.63430000  0.32540000  0.64480000  1.0 0.0813126193
C  C32  1  0.36570000  0.67460000  0.35520000  1.0 0.0813126193
C  C33  1  0.50353000  0.84679000  0.72749000  1.0 0.2756989756
C  C34  1  0.49647000  0.15321000  0.27251000  1.0 0.2756989756
C  C35  1  0.42175000  0.84453000  0.75976000  1.0 -0.2343235454
C  C36  1  0.57825000  0.15547000  0.24024000  1.0 -0.2343235454
C  C37  1  0.31553000  0.77689000  0.74005000  1.0 0.0996760195
C  C38  1  0.68447000  0.22311000  0.25995000  1.0 0.0996760195
C  C39  1  0.29109000  0.71151000  0.68808000  1.0 -0.1973418194
C  C40  1  0.70891000  0.28849000  0.31192000  1.0 -0.1973418194
C  C41  1  0.37287000  0.71377000  0.65581000  1.0 0.0813126193
C  C42  1  0.62713000  0.28623000  0.34419000  1.0 0.0813126193
C  C43  1  0.47909000  0.78140000  0.67552000  1.0 -0.2422646387
C  C44  1  0.52091000  0.21860000  0.32448000  1.0 -0.2422646387
C  C45  1  0.05140000  0.68470000  0.80946000  1.0 0.0911197671
C  C46  1  0.94860000  0.31530000  0.19054000  1.0 0.0911197671
C  C47  1  0.13240000  0.68440000  0.77783000  1.0 -0.1786852321
C  C48  1  0.86760000  0.31560000  0.22217000  1.0 -0.1786852321
C  C49  1  0.22830000  0.77530000  0.77470000  1.0 0.110009102
C  C50  1  0.77170000  0.22470000  0.22530000  1.0 0.110009102
C  C51  1  0.23900000  0.86260000  0.80358000  1.0 -0.1786852321
C  C52  1  0.76100000  0.13740000  0.19642000  1.0 -0.1786852321
C  C53  1  0.15610000  0.86250000  0.83383000  1.0 0.0911197671
C  C54  1  0.84390000  0.13750000  0.16617000  1.0 0.0911197671
C  C55  1  0.40870000  0.58230000  0.51460000  1.0 0.0745052369
C  C56  1  0.59130000  0.41770000  0.48540000  1.0 0.0745052369
C  C57  1  0.43050000  0.63750000  0.56430000  1.0 -0.1786852321
C  C58  1  0.56950000  0.36250000  0.43570000  1.0 -0.1786852321
C  C59  1  0.34680000  0.64630000  0.59781000  1.0 0.146575797
C  C60  1  0.65320000  0.35370000  0.40219000  1.0 0.146575797
C  C61  1  0.24190000  0.58460000  0.56940000  1.0 -0.1973418194
C  C62  1  0.75810000  0.41540000  0.43060000  1.0 -0.1973418194
C  C63  1  0.22120000  0.52460000  0.51570000  1.0 0.0813126193
C  C64  1  0.77880000  0.47540000  0.48430000  1.0 0.0813126193
C  C65  1  0.05380000  0.06710000  0.19653000  1.0 0.5743152508
C  C66  1  0.94620000  0.93290000  0.80347000  1.0 0.5743152508
C  C67  1  0.01560000  0.95570000  0.21216000  1.0 0.0014615518
C  C68  1  0.98440000  0.04430000  0.78784000  1.0 0.0014615518
C  C69  1  0.04350000  0.93210000  0.27050000  1.0 -0.0905364787
C  C70  1  0.95650000  0.06790000  0.72950000  1.0 -0.0905364787
C  C71  1  0.00720000  0.83100000  0.28500000  1.0 -0.1007484239
C  C72  1  0.99280000  0.16900000  0.71500000  1.0 -0.1007484239
C  C73  1  0.94280000  0.75140000  0.24220000  1.0 -0.1007484239
C  C74  1  0.05720000  0.24860000  0.75780000  1.0 -0.1007484239
C  C75  1  0.91600000  0.77560000  0.18340000  1.0 -0.1087682549
C  C76  1  0.08400000  0.22440000  0.81660000  1.0 -0.1087682549
C  C77  1  0.95110000  0.87700000  0.16900000  1.0 -0.1007484239
C  C78  1  0.04890000  0.12300000  0.83100000  1.0 -0.1007484239
C  C79  1  0.76160000  0.58520000  0.27890000  1.0 -0.0905364787
C  C80  1  0.23840000  0.41480000  0.72110000  1.0 -0.0905364787
C  C81  1  0.74970000  0.62990000  0.33230000  1.0 -0.1087682549
C  C82  1  0.25030000  0.37010000  0.66770000  1.0 -0.1087682549
C  C83  1  0.64610000  0.59770000  0.35100000  1.0 -0.1007484239
C  C84  1  0.35390000  0.40230000  0.64900000  1.0 -0.1007484239
C  C85  1  0.55860000  0.51860000  0.31774000  1.0 -0.0211048821
C  C86  1  0.44140000  0.48140000  0.68226000  1.0 -0.0211048821
C  C87  1  0.57170000  0.47340000  0.26469000  1.0 -0.1007484239
C  C88  1  0.42830000  0.52660000  0.73531000  1.0 -0.1007484239
C  C89  1  0.67520000  0.50780000  0.24530000  1.0 -0.1007484239
C  C90  1  0.32480000  0.49220000  0.75470000  1.0 -0.1007484239
C  C91  1  0.44930000  0.48360000  0.33953000  1.0 0.5590022215
C  C92  1  0.55070000  0.51640000  0.66047000  1.0 0.5590022215
C  C93  1  0.93220000  0.69060000  0.64195000  1.0 0.5785330245
C  C94  1  0.06780000  0.30940000  0.35805000  1.0 0.5785330245
C  C95  1  0.04310000  0.75860000  0.62717000  1.0 -0.0357759027
C  C96  1  0.95690000  0.24140000  0.37283000  1.0 -0.0357759027
C  C97  1  0.08110000  0.73160000  0.57607000  1.0 -0.1007484239
C  C98  1  0.91890000  0.26840000  0.42393000  1.0 -0.1007484239
C  C99  1  0.18470000  0.79540000  0.56010000  1.0 -0.1188821561
C  C100  1  0.81530000  0.20460000  0.43990000  1.0 -0.1188821561
C  C101  1  0.24850000  0.88580000  0.59540000  1.0 -0.0743190675
C  C102  1  0.75150000  0.11420000  0.40460000  1.0 -0.0743190675
C  C103  1  0.21230000  0.91170000  0.64694000  1.0 -0.1007484239
C  C104  1  0.78770000  0.08830000  0.35306000  1.0 -0.1007484239
C  C105  1  0.11020000  0.84750000  0.66204000  1.0 -0.0837282754
C  C106  1  0.88980000  0.15250000  0.33796000  1.0 -0.0837282754
C  C107  1  0.35400000  0.04940000  0.52124000  1.0 -0.064492303
C  C108  1  0.64600000  0.95060000  0.47876000  1.0 -0.064492303
C  C109  1  0.32640000  0.02350000  0.45940000  1.0 -0.0905364787
C  C110  1  0.67360000  0.97650000  0.54060000  1.0 -0.0905364787
C  C111  1  0.29980000  0.08320000  0.42165000  1.0 -0.0905364787
C  C112  1  0.70020000  0.91680000  0.57835000  1.0 -0.0905364787
C  C113  1  0.30040000  0.17100000  0.44580000  1.0 -0.0211048821
C  C114  1  0.69960000  0.82900000  0.55420000  1.0 -0.0211048821
C  C115  1  0.32930000  0.19840000  0.50947000  1.0 -0.1087682549
C  C116  1  0.67070000  0.80160000  0.49053000  1.0 -0.1087682549
C  C117  1  0.35580000  0.13620000  0.54713000  1.0 -0.1087682549
C  C118  1  0.64420000  0.86380000  0.45287000  1.0 -0.1087682549
C  C119  1  0.27620000  0.24120000  0.40548000  1.0 0.5785330245
C  C120  1  0.72380000  0.75880000  0.59452000  1.0 0.5785330245
C  C121  1  0.19980000  0.40950000  0.14775000  1.0 0.5590022215
C  C122  1  0.80020000  0.59050000  0.85225000  1.0 0.5590022215
C  C123  1  0.28920000  0.52010000  0.15386000  1.0 0.0014615518
C  C124  1  0.71080000  0.47990000  0.84614000  1.0 0.0014615518
C  C125  1  0.27920000  0.59360000  0.11950000  1.0 -0.1087682549
C  C126  1  0.72080000  0.40640000  0.88050000  1.0 -0.1087682549
C  C127  1  0.36060000  0.69530000  0.12500000  1.0 -0.1188821561
C  C128  1  0.63940000  0.30470000  0.87500000  1.0 -0.1188821561
C  C129  1  0.45290000  0.72060000  0.16527000  1.0 -0.0837282754
C  C130  1  0.54710000  0.27940000  0.83473000  1.0 -0.0837282754
C  C131  1  0.46060000  0.64570000  0.19953000  1.0 -0.1007484239
C  C132  1  0.53940000  0.35430000  0.80047000  1.0 -0.1007484239
C  C133  1  0.38130000  0.54500000  0.19321000  1.0 -0.0905364787
C  C134  1  0.61870000  0.45500000  0.80679000  1.0 -0.0905364787
C  C135  1  0.62690000  0.84240000  0.10380000  1.0 -0.0905364787
C  C136  1  0.37310000  0.15760000  0.89620000  1.0 -0.0905364787
C  C137  1  0.60570000  0.87840000  0.04840000  1.0 -0.1007484239
C  C138  1  0.39430000  0.12160000  0.95160000  1.0 -0.1007484239
C  C139  1  0.64910000  0.86560000  0.99560000  1.0 -0.1007484239
C  C140  1  0.35090000  0.13440000  0.00440000  1.0 -0.1007484239
C  C141  1  0.71180000  0.81760000  0.99803000  1.0 -0.012658868
C  C142  1  0.28820000  0.18240000  0.00197000  1.0 -0.012658868
C  C143  1  0.73480000  0.78430000  0.05340000  1.0 -0.1007484239
C  C144  1  0.26520000  0.21570000  0.94660000  1.0 -0.1007484239
C  C145  1  0.69150000  0.79540000  0.10663000  1.0 -0.1087682549
C  C146  1  0.30850000  0.20460000  0.89337000  1.0 -0.1087682549
C  C147  1  0.75690000  0.80220000  0.94029000  1.0 0.5590022215
C  C148  1  0.24310000  0.19780000  0.05971000  1.0 0.5590022215
S  S1  1  0.89369000  0.62301000  0.25979000  1.0 0.9715407201
S  S2  1  0.10631000  0.37699000  0.74021000  1.0 0.9715407201
S  S3  1  0.37839000  0.96516000  0.57102000  1.0 0.9776944378
S  S4  1  0.62161000  0.03484000  0.42898000  1.0 0.9776944378
S  S5  1  0.56020000  0.84534000  0.16842000  1.0 0.9776944378
S  S6  1  0.43980000  0.15466000  0.83158000  1.0 0.9776944378
N  N1  1  0.95610000  0.18020000  0.02961000  1.0 -0.263349413
N  N2  1  0.04390000  0.81980000  0.97039000  1.0 -0.263349413
N  N3  1  0.72100000  0.42320000  0.65244000  1.0 -0.2779487959
N  N4  1  0.27900000  0.57680000  0.34756000  1.0 -0.2779487959
N  N5  1  0.06290000  0.77340000  0.83756000  1.0 -0.2732512644
N  N6  1  0.93710000  0.22660000  0.16244000  1.0 -0.2732512644
N  N7  1  0.30650000  0.52570000  0.48827000  1.0 -0.2732512644
N  N8  1  0.69350000  0.47430000  0.51173000  1.0 -0.2732512644
O  O1  1  0.61370000  0.89790000  0.74494000  1.0 -0.2099902323
O  O2  1  0.38630000  0.10210000  0.25506000  1.0 -0.2099902323
O  O3  1  0.02810000  0.08350000  0.14277000  1.0 -0.5482142976
O  O4  1  0.97190000  0.91650000  0.85723000  1.0 -0.5482142976
O  O5  1  0.10160000  0.13286000  0.23867000  1.0 -0.5409852258
O  O6  1  0.89840000  0.86714000  0.76133000  1.0 -0.5409852258
O  O7  1  0.88540000  0.56330000  0.20684000  1.0 -0.5196297558
O  O8  1  0.11460000  0.43670000  0.79316000  1.0 -0.5196297558
O  O9  1  0.95450000  0.61850000  0.31543000  1.0 -0.5409852258
O  O10  1  0.04550000  0.38150000  0.68457000  1.0 -0.5409852258
O  O11  1  0.36534000  0.42349000  0.30793000  1.0 -0.5846154682
O  O12  1  0.63466000  0.57651000  0.69207000  1.0 -0.5846154682
O  O13  1  0.44860000  0.52000000  0.39190000  1.0 -0.5338872215
O  O14  1  0.55140000  0.48000000  0.60810000  1.0 -0.5338872215
O  O15  1  0.13180000  0.38367000  0.10043000  1.0 -0.5338872215
O  O16  1  0.86820000  0.61633000  0.89957000  1.0 -0.5338872215
O  O17  1  0.19646000  0.34344000  0.18369000  1.0 -0.5594949118
O  O18  1  0.80354000  0.65656000  0.81631000  1.0 -0.5594949118
O  O19  1  0.51660000  0.91740000  0.15612000  1.0 -0.5482142976
O  O20  1  0.48340000  0.08260000  0.84388000  1.0 -0.5482142976
O  O21  1  0.62830000  0.85940000  0.22448000  1.0 -0.5196297558
O  O22  1  0.37170000  0.14060000  0.77552000  1.0 -0.5196297558
O  O23  1  0.71260000  0.81180000  0.89057000  1.0 -0.5482142976
O  O24  1  0.28740000  0.18820000  0.10943000  1.0 -0.5482142976
O  O25  1  0.82770000  0.77460000  0.94639000  1.0 -0.5482142976
O  O26  1  0.17230000  0.22540000  0.05361000  1.0 -0.5482142976
O  O27  1  0.25270000  0.21448000  0.34912000  1.0 -0.5594949118
O  O28  1  0.74730000  0.78552000  0.65088000  1.0 -0.5594949118
O  O29  1  0.28640000  0.32289000  0.43019000  1.0 -0.5482142976
O  O30  1  0.71360000  0.67711000  0.56981000  1.0 -0.5482142976
O  O31  1  0.40750000  0.90220000  0.53409000  1.0 -0.5091038636
O  O32  1  0.59250000  0.09780000  0.46591000  1.0 -0.5091038636
O  O33  1  0.44420000  0.02580000  0.62564000  1.0 -0.5196297558
O  O34  1  0.55580000  0.97420000  0.37436000  1.0 -0.5196297558
O  O35  1  0.87440000  0.61700000  0.60224000  1.0 -0.5594949118
O  O36  1  0.12560000  0.38300000  0.39776000  1.0 -0.5594949118
O  O37  1  0.90033000  0.70732000  0.69094000  1.0 -0.5730589023
O  O38  1  0.09967000  0.29268000  0.30906000  1.0 -0.5730589023
