# DDEC6 charges by PACMAN v1.1 (https://github.com/mtap-research/PACMAN-charge/)
data_GOPLUS_ASR_pacman
_symmetry_space_group_name_H-M   'P 1'
_cell_length_a   8.08500000
_cell_length_b   14.31600000
_cell_length_c   29.77500000
_cell_angle_alpha   90.00000000
_cell_angle_beta   103.04000000
_cell_angle_gamma   90.00000000
_symmetry_Int_Tables_number   1
_chemical_formula_structural   PrH30C18(NO2)3
_chemical_formula_sum   'Pr4 H120 C72 N12 O24'
_cell_volume   3357.43263403
_cell_formula_units_Z   4
loop_
 _symmetry_equiv_pos_site_id
 _symmetry_equiv_pos_as_xyz
  1  'x, y, z'
loop_
 _atom_site_type_symbol
 _atom_site_label
 _atom_site_symmetry_multiplicity
 _atom_site_fract_x
 _atom_site_fract_y
 _atom_site_fract_z
 _atom_site_occupancy
 _atom_site_charge
Pr  Pr1  1  0.26321000  0.96666000  0.51763000  1.0 2.1009311338
Pr  Pr2  1  0.73688000  0.02808000  0.48239000  1.0 2.1050902664
Pr  Pr3  1  0.21986000  0.46490000  0.98241000  1.0 2.1009311338
Pr  Pr4  1  0.74970000  0.53529000  0.01726000  1.0 2.1009311338
H  H1  1  0.94624000  0.03686000  0.36235000  1.0 0.1194297194
H  H2  1  0.05467000  0.96323000  0.63769000  1.0 0.1194297194
H  H3  1  0.55739000  0.53666000  0.13860000  1.0 0.1108722662
H  H4  1  0.44504000  0.46236000  0.86247000  1.0 0.1194297194
H  H5  1  0.85696000  0.92555000  0.36772000  1.0 0.1108722662
H  H6  1  0.14450000  0.07449000  0.63238000  1.0 0.1108722662
H  H7  1  0.63741000  0.42441000  0.12941000  1.0 0.1108722662
H  H8  1  0.35166000  0.57336000  0.86595000  1.0 0.1108722662
H  H9  1  0.21161000  0.96307000  0.34626000  1.0 0.0900298354
H  H10  1  0.78970000  0.03598000  0.65368000  1.0 0.0900298354
H  H11  1  0.28799000  0.46304000  0.15398000  1.0 0.0900298354
H  H12  1  0.70907000  0.53548000  0.84631000  1.0 0.0900298354
H  H13  1  0.14158000  0.85076000  0.35999000  1.0 0.0995492977
H  H14  1  0.85796000  0.14880000  0.63993000  1.0 0.0995492977
H  H15  1  0.35877000  0.35108000  0.13986000  1.0 0.0995492977
H  H16  1  0.64026000  0.64823000  0.85989000  1.0 0.0900298354
H  H17  1  0.12181000  0.02362000  0.26882000  1.0 0.0809922945
H  H18  1  0.87865000  0.97769000  0.73226000  1.0 0.0809922945
H  H19  1  0.37848000  0.52284000  0.23164000  1.0 0.0809922945
H  H20  1  0.62139000  0.47701000  0.76786000  1.0 0.0809922945
H  H21  1  0.91025000  0.03707000  0.28113000  1.0 0.0809922945
H  H22  1  0.08868000  0.96289000  0.71961000  1.0 0.0809922945
H  H23  1  0.58940000  0.53707000  0.21937000  1.0 0.0809922945
H  H24  1  0.41049000  0.46248000  0.78019000  1.0 0.0809922945
H  H25  1  0.77396000  0.98832000  0.20688000  1.0 0.0900298354
H  H26  1  0.22820000  0.01440000  0.79315000  1.0 0.0900298354
H  H27  1  0.72732000  0.48694000  0.29300000  1.0 0.0995492977
H  H28  1  0.27256000  0.51380000  0.70655000  1.0 0.0900298354
H  H29  1  0.98102000  0.00110000  0.19172000  1.0 0.0900298354
H  H30  1  0.02346000  0.00058000  0.80900000  1.0 0.0900298354
H  H31  1  0.52188000  0.50083000  0.30864000  1.0 0.0995492977
H  H32  1  0.47790000  0.50000000  0.69089000  1.0 0.0900298354
H  H33  1  0.75881000  0.89993000  0.29203000  1.0 0.0809922945
H  H34  1  0.24136000  0.10014000  0.70798000  1.0 0.0809922945
H  H35  1  0.74161000  0.39996000  0.20796000  1.0 0.0809922945
H  H36  1  0.25797000  0.60003000  0.79161000  1.0 0.0809922945
H  H37  1  0.87017000  0.79085000  0.31075000  1.0 0.0995492977
H  H38  1  0.13007000  0.20893000  0.68872000  1.0 0.0900298354
H  H39  1  0.63013000  0.29097000  0.18925000  1.0 0.0900298354
H  H40  1  0.36976000  0.70875000  0.81084000  1.0 0.0900298354
H  H41  1  0.83283000  0.73751000  0.23434000  1.0 0.0900298354
H  H42  1  0.16694000  0.26408000  0.76475000  1.0 0.0900298354
H  H43  1  0.66747000  0.23715000  0.26551000  1.0 0.0900298354
H  H44  1  0.33333333  0.76350000  0.73487000  1.0 0.0900298354
H  H45  1  0.67413000  0.82998000  0.22048000  1.0 0.0900298354
H  H46  1  0.32550000  0.17204000  0.77920000  1.0 0.0900298354
H  H47  1  0.82606000  0.32964000  0.27954000  1.0 0.0900298354
H  H48  1  0.17478000  0.67142000  0.72037000  1.0 0.0900298354
H  H49  1  0.15479000  0.77307000  0.29455000  1.0 0.0900298354
H  H50  1  0.84618000  0.22760000  0.70527000  1.0 0.0900298354
H  H51  1  0.34670000  0.27288000  0.20551000  1.0 0.0900298354
H  H52  1  0.65359000  0.72704000  0.79470000  1.0 0.0900298354
H  H53  1  0.27543000  0.87726000  0.28668000  1.0 0.0809922945
H  H54  1  0.72423000  0.12374000  0.71281000  1.0 0.0809922945
H  H55  1  0.22478000  0.37678000  0.21310000  1.0 0.0809922945
H  H56  1  0.77566000  0.62325000  0.78719000  1.0 0.0809922945
H  H57  1  0.17620000  0.87651000  0.20709000  1.0 0.0900298354
H  H58  1  0.82457000  0.12271000  0.79256000  1.0 0.0900298354
H  H59  1  0.32397000  0.37758000  0.29267000  1.0 0.0900298354
H  H60  1  0.67660000  0.62268000  0.70744000  1.0 0.0900298354
H  H61  1  0.10839000  0.75734000  0.21455000  1.0 0.0900298354
H  H62  1  0.88777000  0.24273000  0.78537000  1.0 0.0900298354
H  H63  1  0.38944000  0.25775000  0.28561000  1.0 0.0900298354
H  H64  1  0.61242000  0.74251000  0.71472000  1.0 0.0900298354
H  H65  1  0.93967000  0.88061000  0.13911000  1.0 0.0809922945
H  H66  1  0.05956000  0.12582000  0.86098000  1.0 0.0900298354
H  H67  1  0.56001000  0.37740000  0.36159000  1.0 0.0900298354
H  H68  1  0.44080000  0.62405000  0.63867000  1.0 0.0900298354
H  H69  1  0.72549000  0.87944000  0.14657000  1.0 0.0900298354
H  H70  1  0.27430000  0.12757000  0.85419000  1.0 0.0900298354
H  H71  1  0.77413000  0.37644000  0.35457000  1.0 0.0995492977
H  H72  1  0.22660000  0.62526000  0.64578000  1.0 0.0995492977
H  H73  1  0.73738000  0.70531000  0.15836000  1.0 0.0809922945
H  H74  1  0.25378000  0.30148000  0.83824000  1.0 0.0809922945
H  H75  1  0.75983000  0.20236000  0.34057000  1.0 0.0809922945
H  H76  1  0.24318000  0.79894000  0.66094000  1.0 0.0809922945
H  H77  1  0.95538000  0.70158000  0.15767000  1.0 0.0900298354
H  H78  1  0.03771000  0.30291000  0.84194000  1.0 0.0995492977
H  H79  1  0.54267000  0.19907000  0.34266000  1.0 0.0900298354
H  H80  1  0.46022000  0.80181000  0.65854000  1.0 0.0900298354
H  H81  1  0.51087000  0.24604000  0.46992000  1.0 0.1194297194
H  H82  1  0.50248000  0.74007000  0.53093000  1.0 0.1194297194
H  H83  1  0.99562000  0.75360000  0.03227000  1.0 0.1194297194
H  H84  1  0.92951000  0.24775000  0.96533000  1.0 0.1108722662
H  H85  1  0.55258000  0.26596000  0.53022000  1.0 0.1194297194
H  H86  1  0.46480000  0.72125000  0.47103000  1.0 0.1194297194
H  H87  1  0.96670000  0.77602000  0.97216000  1.0 0.1194297194
H  H88  1  0.98955000  0.22737000  0.02444000  1.0 0.0995492977
H  H89  1  0.24182000  0.32521000  0.51919000  1.0 0.0700995422
H  H90  1  0.77766000  0.67319000  0.48006000  1.0 0.0809922945
H  H91  1  0.29401000  0.80627000  0.98782000  1.0 0.0995492977
H  H92  1  0.66741000  0.17972000  0.02086000  1.0 0.0995492977
H  H93  1  0.22830000  0.32254000  0.45853000  1.0 0.0700995422
H  H94  1  0.79970000  0.67497000  0.54077000  1.0 0.0700995422
H  H95  1  0.29422000  0.80549000  0.04770000  1.0 0.0995492977
H  H96  1  0.63931000  0.18311000  0.95893000  1.0 0.1108722662
H  H97  1  0.61262000  0.40339000  0.55185000  1.0 0.0382581561
H  H98  1  0.42532000  0.58218000  0.44899000  1.0 0.0471429722
H  H99  1  0.95318000  0.90966000  0.95468000  1.0 0.0900298354
H  H100  1  0.08974000  0.08216000  0.07738000  1.0 0.0700995422
H  H101  1  0.41587000  0.43736000  0.56640000  1.0 0.0612960461
H  H102  1  0.62733000  0.55422000  0.43550000  1.0 0.0612960461
H  H103  1  0.15217000  0.92932000  0.93834000  1.0 0.0900298354
H  H104  1  0.89475000  0.07368000  0.03290000  1.0 0.0700995422
H  H105  1  0.40996000  0.42432000  0.42501000  1.0 0.0471429722
H  H106  1  0.64193000  0.56228000  0.57619000  1.0 0.0471429722
H  H107  1  0.12307000  0.91868000  0.07854000  1.0 0.0809922945
H  H108  1  0.89779000  0.07220000  0.95833000  1.0 0.0809922945
H  H109  1  0.60794000  0.39353000  0.46348000  1.0 0.0612960461
H  H110  1  0.43735000  0.59473000  0.54059000  1.0 0.0612960461
H  H111  1  0.93679000  0.90634000  0.03296000  1.0 0.0995492977
H  H112  1  0.09111000  0.09314000  0.93750000  1.0 0.0809922945
H  H113  1  0.00974000  0.48692000  0.49036000  1.0 0.1108722662
H  H114  1  0.41037000  0.95254000  0.99814000  1.0 0.0995492977
H  H115  1  0.04652000  0.48307000  0.43046000  1.0 0.0900298354
H  H116  1  0.40105000  0.95107000  0.05781000  1.0 0.0900298354
H  H117  1  0.09704000  0.65584000  0.49624000  1.0 0.1194297194
H  H118  1  0.35249000  0.11512000  0.99462000  1.0 0.0995492977
H  H119  1  0.12718000  0.65015000  0.43534000  1.0 0.0995492977
H  H120  1  0.34891000  0.11498000  0.05401000  1.0 0.0700995422
C  C1  1  0.06543000  0.95905000  0.42313000  1.0 0.6620863288
C  C2  1  0.93613000  0.03990000  0.57678000  1.0 0.6620863288
C  C3  1  0.42565000  0.46621000  0.07690000  1.0 0.6620863288
C  C4  1  0.55594000  0.54258000  0.92284000  1.0 0.6620863288
C  C5  1  0.97939000  0.96320000  0.37238000  1.0 -0.3336579256
C  C6  1  0.02190000  0.03688000  0.62764000  1.0 -0.3336579256
C  C7  1  0.51849000  0.46461000  0.12729000  1.0 -0.3336579256
C  C8  1  0.47502000  0.53657000  0.87171000  1.0 -0.3336579256
C  C9  1  0.09761000  0.91951000  0.34511000  1.0 -0.0799735981
C  C10  1  0.90292000  0.08022000  0.65483000  1.0 -0.0704215691
C  C11  1  0.40224000  0.41981000  0.15488000  1.0 -0.0704215691
C  C12  1  0.59560000  0.57965000  0.84492000  1.0 -0.0704215691
C  C13  1  0.99425000  0.99160000  0.26556000  1.0 -0.1284776884
C  C14  1  0.00598000  0.00961000  0.73496000  1.0 -0.1211612598
C  C15  1  0.50589000  0.49072000  0.23469000  1.0 -0.1211612598
C  C16  1  0.49386000  0.50891000  0.76489000  1.0 -0.1211612598
C  C17  1  0.91043000  0.96842000  0.21574000  1.0 -0.1407525443
C  C18  1  0.09174000  0.03399000  0.78467000  1.0 -0.1407525443
C  C19  1  0.59089000  0.46702000  0.28459000  1.0 -0.1407525443
C  C20  1  0.40912000  0.53324000  0.71514000  1.0 -0.1407525443
C  C21  1  0.85637000  0.84952000  0.28592000  1.0 -0.1284776884
C  C22  1  0.14396000  0.15077000  0.71386000  1.0 -0.1284776884
C  C23  1  0.64410000  0.34958000  0.21414000  1.0 -0.1284776884
C  C24  1  0.35588000  0.65040000  0.78578000  1.0 -0.1284776884
C  C25  1  0.80982000  0.81356000  0.23622000  1.0 -0.1284776884
C  C26  1  0.19011000  0.18799000  0.76336000  1.0 -0.1284776884
C  C27  1  0.69046000  0.31321000  0.26386000  1.0 -0.1284776884
C  C28  1  0.31022000  0.68740000  0.73625000  1.0 -0.1284776884
C  C29  1  0.14955000  0.84145000  0.27679000  1.0 -0.1284776884
C  C30  1  0.85021000  0.15918000  0.72295000  1.0 -0.1284776884
C  C31  1  0.35095000  0.34131000  0.22320000  1.0 -0.1211612598
C  C32  1  0.64957000  0.65863000  0.77697000  1.0 -0.1284776884
C  C33  1  0.09749000  0.83120000  0.22449000  1.0 -0.1284776884
C  C34  1  0.90135000  0.16925000  0.77528000  1.0 -0.1284776884
C  C35  1  0.40216000  0.33139000  0.27558000  1.0 -0.1284776884
C  C36  1  0.59896000  0.66888000  0.72464000  1.0 -0.1284776884
C  C37  1  0.85018000  0.84396000  0.15624000  1.0 -0.0897568355
C  C38  1  0.14875000  0.16167000  0.84347000  1.0 -0.0799735981
C  C39  1  0.64955000  0.34110000  0.34435000  1.0 -0.0799735981
C  C40  1  0.35167000  0.66006000  0.65615000  1.0 -0.0799735981
C  C41  1  0.83640000  0.74082000  0.14410000  1.0 -0.3336579256
C  C42  1  0.15944000  0.26566000  0.85427000  1.0 -0.3362668395
C  C43  1  0.66284000  0.23727000  0.35591000  1.0 -0.3336579256
C  C44  1  0.33955000  0.76405000  0.64532000  1.0 -0.3336579256
C  C45  1  0.78933000  0.72639000  0.09144000  1.0 0.6429590046
C  C46  1  0.21597000  0.28082000  0.90676000  1.0 0.6429590046
C  C47  1  0.71636000  0.21934000  0.40849000  1.0 0.6429590046
C  C48  1  0.28588000  0.78091000  0.59290000  1.0 0.6459114015
C  C49  1  0.38956000  0.15416000  0.50733000  1.0 0.6689986248
C  C50  1  0.61598000  0.83796000  0.49349000  1.0 0.6771726667
C  C51  1  0.10891000  0.65509000  0.99450000  1.0 0.6689986248
C  C52  1  0.85033000  0.34584000  0.00769000  1.0 0.6689986248
C  C53  1  0.44978000  0.24993000  0.49938000  1.0 -0.3362668395
C  C54  1  0.56516000  0.73970000  0.50165000  1.0 -0.3336579256
C  C55  1  0.06081000  0.75353000  0.00350000  1.0 -0.346930945
C  C56  1  0.87594000  0.24584000  0.99659000  1.0 -0.2576771394
C  C57  1  0.31816000  0.32950000  0.49264000  1.0 -0.028265005
C  C58  1  0.70605000  0.66510000  0.50748000  1.0 -0.028265005
C  C59  1  0.21400000  0.81754000  0.01282000  1.0 -0.0704215691
C  C60  1  0.73317000  0.17557000  0.99208000  1.0 -0.3817791284
C  C61  1  0.49602000  0.44753000  0.54094000  1.0 -0.0647624597
C  C62  1  0.54573000  0.54158000  0.46030000  1.0 -0.0704215691
C  C63  1  0.07270000  0.95007000  0.96256000  1.0 -0.1144788728
C  C64  1  0.03290000  0.05178000  0.04323000  1.0 -0.0799735981
C  C65  1  0.49378000  0.43914000  0.45947000  1.0 -0.0799735981
C  C66  1  0.55118000  0.54958000  0.54249000  1.0 -0.0799735981
C  C67  1  0.05715000  0.94509000  0.04415000  1.0 -0.1284776884
C  C68  1  0.03631000  0.05657000  0.96343000  1.0 -0.0897568355
C  C69  1  0.04797000  0.52384000  0.46185000  1.0 -0.2576771394
C  C70  1  0.33512000  0.97483000  0.02294000  1.0 -0.1284776884
C  C71  1  0.09150000  0.61484000  0.46478000  1.0 -0.2672681153
C  C72  1  0.29630000  0.08027000  0.02059000  1.0 -0.0897568355
N  N1  1  0.02296000  0.90165000  0.29418000  1.0 -0.0169272019
N  N2  1  0.97725000  0.09868000  0.70585000  1.0 -0.028265005
N  N3  1  0.47750000  0.40158000  0.20589000  1.0 -0.028265005
N  N4  1  0.52231000  0.59811000  0.79392000  1.0 -0.028265005
N  N5  1  0.91599000  0.86279000  0.20759000  1.0 0.0099674029
N  N6  1  0.08408000  0.13958000  0.79230000  1.0 0.0099674029
N  N7  1  0.58437000  0.36173000  0.29277000  1.0 0.0169176965
N  N8  1  0.41656000  0.63882000  0.70743000  1.0 -0.0005674839
N  N9  1  0.39521000  0.42275000  0.49481000  1.0 -0.1778871209
N  N10  1  0.64326000  0.56857000  0.50616000  1.0 -0.1925793529
N  N11  1  0.16902000  0.92024000  0.01053000  1.0 0.0900298354
N  N12  1  0.11374000  0.09539000  0.00902000  1.0 -0.1211612598
O  O1  1  0.21148000  0.91861000  0.43649000  1.0 -0.6602922718
O  O2  1  0.79055000  0.08032000  0.56288000  1.0 -0.6602922718
O  O3  1  0.28639000  0.41999000  0.06355000  1.0 -0.6684441805
O  O4  1  0.70032000  0.58407000  0.93649000  1.0 -0.6602922718
O  O5  1  0.99457000  0.99827000  0.45349000  1.0 -0.78926875
O  O6  1  0.00701000  0.99904000  0.54684000  1.0 -0.78926875
O  O7  1  0.48821000  0.51319000  0.04721000  1.0 -0.7812320829
O  O8  1  0.48212000  0.50357000  0.95262000  1.0 -0.7812320829
O  O9  1  0.74180000  0.79366000  0.06512000  1.0 -0.5947077811
O  O10  1  0.28192000  0.21570000  0.93175000  1.0 -0.5608423889
O  O11  1  0.77861000  0.28381000  0.43508000  1.0 -0.5608423889
O  O12  1  0.22339000  0.71578000  0.56689000  1.0 -0.5608423889
O  O13  1  0.31074000  0.86648000  0.58072000  1.0 -0.7710391224
O  O14  1  0.69165000  0.13304000  0.42002000  1.0 -0.7710391224
O  O15  1  0.18895000  0.36604000  0.91968000  1.0 -0.78926875
O  O16  1  0.80522000  0.63991000  0.07936000  1.0 -0.7710391224
O  O17  1  0.27868000  0.13705000  0.53113000  1.0 -0.6602922718
O  O18  1  0.72845000  0.85810000  0.47066000  1.0 -0.6602922718
O  O19  1  0.21921000  0.63645000  0.97052000  1.0 -0.6602922718
O  O20  1  0.74971000  0.37290000  0.03318000  1.0 -0.6684441805
O  O21  1  0.45838000  0.08303000  0.49064000  1.0 -0.7967703879
O  O22  1  0.53998000  0.90682000  0.50962000  1.0 -0.78926875
O  O23  1  0.03020000  0.58661000  0.00959000  1.0 -0.78926875
O  O24  1  0.93705000  0.41182000  0.99176000  1.0 -0.8084918798
