# DDEC6 charges by PACMAN v1.1 (https://github.com/mtap-research/PACMAN-charge/)
data_GOPVAL_ASR_pacman
_symmetry_space_group_name_H-M   'P 1'
_cell_length_a   16.54200000
_cell_length_b   16.54200000
_cell_length_c   16.70800000
_cell_angle_alpha   81.60680000
_cell_angle_beta   98.39320000
_cell_angle_gamma   72.73840000
_symmetry_Int_Tables_number   1
_chemical_formula_structural   FeH54C59(N2O3)2
_chemical_formula_sum   'Fe4 H216 C236 N16 O24'
_cell_volume   4231.68039828
_cell_formula_units_Z   4
loop_
 _symmetry_equiv_pos_site_id
 _symmetry_equiv_pos_as_xyz
  1  'x, y, z'
loop_
 _atom_site_type_symbol
 _atom_site_label
 _atom_site_symmetry_multiplicity
 _atom_site_fract_x
 _atom_site_fract_y
 _atom_site_fract_z
 _atom_site_occupancy
 _atom_site_charge
Fe  Fe1  1  0.55085000  0.08297000  0.75509000  1.0 0.6473394538
Fe  Fe2  1  0.08297000  0.55085000  0.74491000  1.0 0.6473394538
Fe  Fe3  1  0.44915000  0.91703000  0.24491000  1.0 0.6473394538
Fe  Fe4  1  0.91703000  0.44915000  0.25509000  1.0 0.6473394538
H  H1  1  0.68666000  0.16202000  0.57241000  1.0 0.1208625102
H  H2  1  0.68468000  0.25352000  0.59428000  1.0 0.148185661
H  H3  1  0.60913000  0.24759000  0.52605000  1.0 0.1594439102
H  H4  1  0.49111000  0.31495000  0.76644000  1.0 0.0921063758
H  H5  1  0.43530000  0.52714000  0.55106000  1.0 0.1100248605
H  H6  1  0.52276000  0.51942000  0.61320000  1.0 0.1015124209
H  H7  1  0.35006000  0.57750000  0.64200000  1.0 0.1208625102
H  H8  1  0.42042000  0.62580000  0.65329000  1.0 0.1414649988
H  H9  1  0.42955000  0.54137000  0.71913000  1.0 0.1272956449
H  H10  1  0.37772000  0.32672000  0.81972000  1.0 0.1208625102
H  H11  1  0.31352000  0.31150000  0.93160000  1.0 0.1100248605
H  H12  1  0.34002000  0.17416000  0.01037000  1.0 0.1015124209
H  H13  1  0.42605000  0.05209000  0.97136000  1.0 0.1208625102
H  H14  1  0.61006000  0.78962000  0.73236000  1.0 0.1594439102
H  H15  1  0.68010000  0.77558000  0.81445000  1.0 0.1594439102
H  H16  1  0.68919000  0.82605000  0.72868000  1.0 0.1594439102
H  H17  1  0.44246000  0.96706000  0.89047000  1.0 0.1100248605
H  H18  1  0.49050000  0.69716000  0.93706000  1.0 0.1015124209
H  H19  1  0.40168000  0.73516000  0.86994000  1.0 0.1015124209
H  H20  1  0.41676000  0.75778000  0.03756000  1.0 0.1272956449
H  H21  1  0.37475000  0.69115000  0.00267000  1.0 0.1414649988
H  H22  1  0.32825000  0.79293000  0.97058000  1.0 0.1100248605
H  H23  1  0.90160000  0.92056000  0.07108000  1.0 0.1272956449
H  H24  1  0.00095000  0.91391000  0.18547000  1.0 0.1100248605
H  H25  1  0.91582000  0.17200000  0.15652000  1.0 0.1015124209
H  H26  1  0.80940000  0.18214000  0.03710000  1.0 0.1015124209
H  H27  1  0.34787000  0.15949000  0.69902000  1.0 0.1015124209
H  H28  1  0.25029000  0.16105000  0.58319000  1.0 0.1208625102
H  H29  1  0.44357000  0.00973000  0.49715000  1.0 0.0921063758
H  H30  1  0.54530000  0.01500000  0.60717000  1.0 0.072035158
H  H31  1  0.65956000  0.95656000  0.89875000  1.0 0.0921063758
H  H32  1  0.77094000  0.94222000  0.00774000  1.0 0.1015124209
H  H33  1  0.76915000  0.18417000  0.91958000  1.0 0.1015124209
H  H34  1  0.65176000  0.20030000  0.81299000  1.0 0.0823145775
H  H35  1  0.25483000  0.98927000  0.30457000  1.0 0.0921063758
H  H36  1  0.35022000  0.97806000  0.42639000  1.0 0.1015124209
H  H37  1  0.17906000  0.18704000  0.47772000  1.0 0.072035158
H  H38  1  0.07945000  0.19199000  0.35553000  1.0 0.0921063758
H  H39  1  0.63985000  0.97167000  0.92174000  1.0 0.0921063758
H  H40  1  0.74999000  0.96399000  0.03161000  1.0 0.1100248605
H  H41  1  0.79629000  0.16491000  0.89707000  1.0 0.1015124209
H  H42  1  0.68676000  0.17520000  0.79098000  1.0 0.0921063758
H  H43  1  0.23256000  0.96288000  0.33349000  1.0 0.0823145775
H  H44  1  0.33575000  0.96389000  0.44418000  1.0 0.1015124209
H  H45  1  0.19728000  0.20562000  0.44832000  1.0 0.1015124209
H  H46  1  0.10067000  0.21253000  0.33632000  1.0 0.0921063758
H  H47  1  0.91033000  0.92737000  0.05193000  1.0 0.1272956449
H  H48  1  0.02178000  0.91142000  0.16672000  1.0 0.1015124209
H  H49  1  0.90536000  0.16068000  0.18234000  1.0 0.1015124209
H  H50  1  0.80898000  0.17880000  0.06541000  1.0 0.1208625102
H  H51  1  0.25391000  0.18273000  0.57081000  1.0 0.1208625102
H  H52  1  0.35872000  0.19088000  0.67914000  1.0 0.0921063758
H  H53  1  0.43419000  0.97609000  0.52264000  1.0 0.0921063758
H  H54  1  0.53313000  0.98919000  0.63461000  1.0 0.0921063758
H  H55  1  0.16202000  0.68666000  0.92759000  1.0 0.1208625102
H  H56  1  0.25352000  0.68468000  0.90572000  1.0 0.148185661
H  H57  1  0.24759000  0.60913000  0.97395000  1.0 0.1594439102
H  H58  1  0.31495000  0.49111000  0.73356000  1.0 0.0921063758
H  H59  1  0.52714000  0.43530000  0.94894000  1.0 0.1100248605
H  H60  1  0.51942000  0.52276000  0.88680000  1.0 0.1015124209
H  H61  1  0.57750000  0.35006000  0.85800000  1.0 0.1208625102
H  H62  1  0.62580000  0.42042000  0.84671000  1.0 0.1414649988
H  H63  1  0.54137000  0.42955000  0.78087000  1.0 0.1272956449
H  H64  1  0.32672000  0.37772000  0.68028000  1.0 0.1208625102
H  H65  1  0.31150000  0.31352000  0.56840000  1.0 0.1100248605
H  H66  1  0.17416000  0.34002000  0.48963000  1.0 0.1015124209
H  H67  1  0.05209000  0.42605000  0.52864000  1.0 0.1208625102
H  H68  1  0.78962000  0.61006000  0.76764000  1.0 0.1594439102
H  H69  1  0.77558000  0.68010000  0.68555000  1.0 0.1594439102
H  H70  1  0.82605000  0.68919000  0.77132000  1.0 0.1594439102
H  H71  1  0.96706000  0.44246000  0.60953000  1.0 0.1100248605
H  H72  1  0.69716000  0.49050000  0.56294000  1.0 0.1015124209
H  H73  1  0.73516000  0.40168000  0.63006000  1.0 0.1015124209
H  H74  1  0.75778000  0.41676000  0.46244000  1.0 0.1272956449
H  H75  1  0.69115000  0.37475000  0.49733000  1.0 0.1414649988
H  H76  1  0.79293000  0.32825000  0.52942000  1.0 0.1100248605
H  H77  1  0.92056000  0.90160000  0.42892000  1.0 0.1272956449
H  H78  1  0.91391000  0.00095000  0.31453000  1.0 0.1100248605
H  H79  1  0.17200000  0.91582000  0.34348000  1.0 0.1015124209
H  H80  1  0.18214000  0.80940000  0.46290000  1.0 0.1015124209
H  H81  1  0.15949000  0.34787000  0.80098000  1.0 0.1015124209
H  H82  1  0.16105000  0.25029000  0.91681000  1.0 0.1208625102
H  H83  1  0.00973000  0.44357000  0.00285000  1.0 0.0921063758
H  H84  1  0.01500000  0.54530000  0.89283000  1.0 0.072035158
H  H85  1  0.95656000  0.65956000  0.60125000  1.0 0.0921063758
H  H86  1  0.94222000  0.77094000  0.49226000  1.0 0.1015124209
H  H87  1  0.18417000  0.76915000  0.58042000  1.0 0.1015124209
H  H88  1  0.20030000  0.65176000  0.68701000  1.0 0.0823145775
H  H89  1  0.98927000  0.25483000  0.19543000  1.0 0.0921063758
H  H90  1  0.97806000  0.35022000  0.07361000  1.0 0.1015124209
H  H91  1  0.18704000  0.17906000  0.02228000  1.0 0.072035158
H  H92  1  0.19199000  0.07945000  0.14447000  1.0 0.0921063758
H  H93  1  0.97167000  0.63985000  0.57826000  1.0 0.0921063758
H  H94  1  0.96399000  0.74999000  0.46839000  1.0 0.1100248605
H  H95  1  0.16491000  0.79629000  0.60293000  1.0 0.1015124209
H  H96  1  0.17520000  0.68676000  0.70902000  1.0 0.0921063758
H  H97  1  0.96288000  0.23256000  0.16651000  1.0 0.0823145775
H  H98  1  0.96389000  0.33575000  0.05582000  1.0 0.1015124209
H  H99  1  0.20562000  0.19728000  0.05168000  1.0 0.1015124209
H  H100  1  0.21253000  0.10067000  0.16368000  1.0 0.0921063758
H  H101  1  0.92737000  0.91033000  0.44807000  1.0 0.1272956449
H  H102  1  0.91142000  0.02178000  0.33328000  1.0 0.1015124209
H  H103  1  0.16068000  0.90536000  0.31766000  1.0 0.1015124209
H  H104  1  0.17880000  0.80898000  0.43459000  1.0 0.1208625102
H  H105  1  0.18273000  0.25391000  0.92919000  1.0 0.1208625102
H  H106  1  0.19088000  0.35872000  0.82086000  1.0 0.0921063758
H  H107  1  0.97609000  0.43419000  0.97736000  1.0 0.0921063758
H  H108  1  0.98919000  0.53313000  0.86539000  1.0 0.0921063758
H  H109  1  0.31334000  0.83798000  0.42759000  1.0 0.1208625102
H  H110  1  0.31532000  0.74648000  0.40572000  1.0 0.148185661
H  H111  1  0.39087000  0.75241000  0.47395000  1.0 0.1594439102
H  H112  1  0.50889000  0.68505000  0.23356000  1.0 0.0921063758
H  H113  1  0.56470000  0.47286000  0.44894000  1.0 0.1100248605
H  H114  1  0.47724000  0.48058000  0.38680000  1.0 0.1015124209
H  H115  1  0.64994000  0.42250000  0.35800000  1.0 0.1208625102
H  H116  1  0.57958000  0.37420000  0.34671000  1.0 0.1414649988
H  H117  1  0.57045000  0.45863000  0.28087000  1.0 0.1272956449
H  H118  1  0.62228000  0.67328000  0.18028000  1.0 0.1208625102
H  H119  1  0.68648000  0.68850000  0.06840000  1.0 0.1100248605
H  H120  1  0.65998000  0.82584000  0.98963000  1.0 0.1015124209
H  H121  1  0.57395000  0.94791000  0.02864000  1.0 0.1208625102
H  H122  1  0.38994000  0.21038000  0.26764000  1.0 0.1594439102
H  H123  1  0.31990000  0.22442000  0.18555000  1.0 0.1594439102
H  H124  1  0.31081000  0.17395000  0.27132000  1.0 0.1594439102
H  H125  1  0.55754000  0.03294000  0.10953000  1.0 0.1100248605
H  H126  1  0.50950000  0.30284000  0.06294000  1.0 0.1015124209
H  H127  1  0.59832000  0.26484000  0.13006000  1.0 0.1015124209
H  H128  1  0.58324000  0.24222000  0.96244000  1.0 0.1272956449
H  H129  1  0.62525000  0.30885000  0.99733000  1.0 0.1414649988
H  H130  1  0.67175000  0.20707000  0.02942000  1.0 0.1100248605
H  H131  1  0.09840000  0.07944000  0.92892000  1.0 0.1272956449
H  H132  1  0.99905000  0.08609000  0.81453000  1.0 0.1100248605
H  H133  1  0.08418000  0.82800000  0.84348000  1.0 0.1015124209
H  H134  1  0.19060000  0.81786000  0.96290000  1.0 0.1015124209
H  H135  1  0.65213000  0.84051000  0.30098000  1.0 0.1015124209
H  H136  1  0.74971000  0.83895000  0.41681000  1.0 0.1208625102
H  H137  1  0.55643000  0.99027000  0.50285000  1.0 0.0921063758
H  H138  1  0.45470000  0.98500000  0.39283000  1.0 0.072035158
H  H139  1  0.34044000  0.04344000  0.10125000  1.0 0.0921063758
H  H140  1  0.22906000  0.05778000  0.99226000  1.0 0.1015124209
H  H141  1  0.23085000  0.81583000  0.08042000  1.0 0.1015124209
H  H142  1  0.34824000  0.79970000  0.18701000  1.0 0.0823145775
H  H143  1  0.74517000  0.01073000  0.69543000  1.0 0.0921063758
H  H144  1  0.64978000  0.02194000  0.57361000  1.0 0.1015124209
H  H145  1  0.82094000  0.81296000  0.52228000  1.0 0.072035158
H  H146  1  0.92055000  0.80801000  0.64447000  1.0 0.0921063758
H  H147  1  0.36015000  0.02833000  0.07826000  1.0 0.0921063758
H  H148  1  0.25001000  0.03601000  0.96839000  1.0 0.1100248605
H  H149  1  0.20371000  0.83509000  0.10293000  1.0 0.1015124209
H  H150  1  0.31324000  0.82480000  0.20902000  1.0 0.0921063758
H  H151  1  0.76744000  0.03712000  0.66651000  1.0 0.0823145775
H  H152  1  0.66425000  0.03611000  0.55582000  1.0 0.1015124209
H  H153  1  0.80272000  0.79438000  0.55168000  1.0 0.1015124209
H  H154  1  0.89933000  0.78747000  0.66368000  1.0 0.0921063758
H  H155  1  0.08967000  0.07263000  0.94807000  1.0 0.1272956449
H  H156  1  0.97822000  0.08858000  0.83328000  1.0 0.1015124209
H  H157  1  0.09464000  0.83932000  0.81766000  1.0 0.1015124209
H  H158  1  0.19102000  0.82120000  0.93459000  1.0 0.1208625102
H  H159  1  0.74609000  0.81727000  0.42919000  1.0 0.1208625102
H  H160  1  0.64128000  0.80912000  0.32086000  1.0 0.0921063758
H  H161  1  0.56581000  0.02391000  0.47736000  1.0 0.0921063758
H  H162  1  0.46687000  0.01081000  0.36539000  1.0 0.0921063758
H  H163  1  0.83798000  0.31334000  0.07241000  1.0 0.1208625102
H  H164  1  0.74648000  0.31532000  0.09428000  1.0 0.148185661
H  H165  1  0.75241000  0.39087000  0.02605000  1.0 0.1594439102
H  H166  1  0.68505000  0.50889000  0.26644000  1.0 0.0921063758
H  H167  1  0.47286000  0.56470000  0.05106000  1.0 0.1100248605
H  H168  1  0.48058000  0.47724000  0.11320000  1.0 0.1015124209
H  H169  1  0.42250000  0.64994000  0.14200000  1.0 0.1208625102
H  H170  1  0.37420000  0.57958000  0.15329000  1.0 0.1414649988
H  H171  1  0.45863000  0.57045000  0.21913000  1.0 0.1272956449
H  H172  1  0.67328000  0.62228000  0.31972000  1.0 0.1208625102
H  H173  1  0.68850000  0.68648000  0.43160000  1.0 0.1100248605
H  H174  1  0.82584000  0.65998000  0.51037000  1.0 0.1015124209
H  H175  1  0.94791000  0.57395000  0.47136000  1.0 0.1208625102
H  H176  1  0.21038000  0.38994000  0.23236000  1.0 0.1594439102
H  H177  1  0.22442000  0.31990000  0.31445000  1.0 0.1594439102
H  H178  1  0.17395000  0.31081000  0.22868000  1.0 0.1594439102
H  H179  1  0.03294000  0.55754000  0.39047000  1.0 0.1100248605
H  H180  1  0.30284000  0.50950000  0.43706000  1.0 0.1015124209
H  H181  1  0.26484000  0.59832000  0.36994000  1.0 0.1015124209
H  H182  1  0.24222000  0.58324000  0.53756000  1.0 0.1272956449
H  H183  1  0.30885000  0.62525000  0.50267000  1.0 0.1414649988
H  H184  1  0.20707000  0.67175000  0.47058000  1.0 0.1100248605
H  H185  1  0.07944000  0.09840000  0.57108000  1.0 0.1272956449
H  H186  1  0.08609000  0.99905000  0.68547000  1.0 0.1100248605
H  H187  1  0.82800000  0.08418000  0.65652000  1.0 0.1015124209
H  H188  1  0.81786000  0.19060000  0.53710000  1.0 0.1015124209
H  H189  1  0.84051000  0.65213000  0.19902000  1.0 0.1015124209
H  H190  1  0.83895000  0.74971000  0.08319000  1.0 0.1208625102
H  H191  1  0.99027000  0.55643000  0.99715000  1.0 0.0921063758
H  H192  1  0.98500000  0.45470000  0.10717000  1.0 0.072035158
H  H193  1  0.04344000  0.34044000  0.39875000  1.0 0.0921063758
H  H194  1  0.05778000  0.22906000  0.50774000  1.0 0.1015124209
H  H195  1  0.81583000  0.23085000  0.41958000  1.0 0.1015124209
H  H196  1  0.79970000  0.34824000  0.31299000  1.0 0.0823145775
H  H197  1  0.01073000  0.74517000  0.80457000  1.0 0.0921063758
H  H198  1  0.02194000  0.64978000  0.92639000  1.0 0.1015124209
H  H199  1  0.81296000  0.82094000  0.97772000  1.0 0.072035158
H  H200  1  0.80801000  0.92055000  0.85553000  1.0 0.0921063758
H  H201  1  0.02833000  0.36015000  0.42174000  1.0 0.0921063758
H  H202  1  0.03601000  0.25001000  0.53161000  1.0 0.1100248605
H  H203  1  0.83509000  0.20371000  0.39707000  1.0 0.1015124209
H  H204  1  0.82480000  0.31324000  0.29098000  1.0 0.0921063758
H  H205  1  0.03712000  0.76744000  0.83349000  1.0 0.0823145775
H  H206  1  0.03611000  0.66425000  0.94418000  1.0 0.1100248605
H  H207  1  0.79438000  0.80272000  0.94832000  1.0 0.1015124209
H  H208  1  0.78747000  0.89933000  0.83632000  1.0 0.0921063758
H  H209  1  0.07263000  0.08967000  0.55193000  1.0 0.1272956449
H  H210  1  0.08858000  0.97822000  0.66666667  1.0 0.1015124209
H  H211  1  0.83932000  0.09464000  0.68234000  1.0 0.1015124209
H  H212  1  0.82120000  0.19102000  0.56541000  1.0 0.1208625102
H  H213  1  0.81727000  0.74609000  0.07081000  1.0 0.1208625102
H  H214  1  0.80912000  0.64128000  0.17914000  1.0 0.0921063758
H  H215  1  0.02391000  0.56581000  0.02264000  1.0 0.0921063758
H  H216  1  0.01081000  0.46687000  0.13461000  1.0 0.0921063758
C  C1  1  0.64921000  0.21811000  0.57855000  1.0 -0.5545777773
C  C2  1  0.59854000  0.20454000  0.64477000  1.0 0.3137455637
C  C3  1  0.54235000  0.27643000  0.66425000  1.0 -0.3055306171
C  C4  1  0.52444000  0.36776000  0.62559000  1.0 0.5343925263
C  C5  1  0.50444000  0.26792000  0.73866000  1.0 0.008017572
C  C6  1  0.46491000  0.51271000  0.60974000  1.0 0.0286398408
C  C7  1  0.41142000  0.56946000  0.66062000  1.0 -0.4305573014
C  C8  1  0.43613000  0.19933000  0.82438000  1.0 0.1100248605
C  C9  1  0.38632000  0.27048000  0.84981000  1.0 -0.1731906925
C  C10  1  0.34944000  0.26190000  0.91664000  1.0 -0.0992462631
C  C11  1  0.36453000  0.18053000  0.96278000  1.0 -0.1493941938
C  C12  1  0.41557000  0.10801000  0.93957000  1.0 -0.2130550203
C  C13  1  0.45116000  0.11732000  0.87001000  1.0 0.1100248605
C  C14  1  0.64826000  0.81532000  0.76237000  1.0 -0.534574071
C  C15  1  0.59455000  0.90023000  0.78043000  1.0 0.2421134952
C  C16  1  0.53269000  0.89949000  0.83533000  1.0 -0.2738896404
C  C17  1  0.48274000  0.97306000  0.85680000  1.0 0.0396428252
C  C18  1  0.50761000  0.82069000  0.85935000  1.0 0.5454983319
C  C19  1  0.43480000  0.74490000  0.91986000  1.0 0.0286398408
C  C20  1  0.38415000  0.74687000  0.98878000  1.0 -0.4567756747
C  C21  1  0.78176000  0.06186000  0.97468000  1.0 0.0628535952
C  C22  1  0.84812000  0.05448000  0.04421000  1.0 0.0503039247
C  C23  1  0.90510000  0.97190000  0.08810000  1.0 -0.1493941938
C  C24  1  0.96420000  0.96880000  0.15460000  1.0 -0.11099826
C  C25  1  0.97320000  0.04470000  0.17985000  1.0 0.1015124209
C  C26  1  0.91440000  0.12060000  0.13810000  1.0 -0.1213501198
C  C27  1  0.84910000  0.12790000  0.06630000  1.0 -0.0797720614
C  C28  1  0.15658000  0.08840000  0.32219000  1.0 0.0503039247
C  C29  1  0.27416000  0.08426000  0.46097000  1.0 0.0396428252
C  C30  1  0.36780000  0.13080000  0.65690000  1.0 0.0204988093
C  C31  1  0.30980000  0.12900000  0.58980000  1.0 -0.197469609
C  C32  1  0.33701000  0.08151000  0.53264000  1.0 0.0823145775
C  C33  1  0.42490000  0.04050000  0.53850000  1.0 -0.0992462631
C  C34  1  0.48550000  0.04370000  0.60340000  1.0 -0.0066121788
C  C35  1  0.68200000  0.00280000  0.90240000  1.0 -0.0397201503
C  C36  1  0.74820000  0.99440000  0.96750000  1.0 -0.1213501198
C  C37  1  0.74660000  0.13800000  0.91600000  1.0 -0.0797720614
C  C38  1  0.67830000  0.14710000  0.85150000  1.0 0.0204988093
C  C39  1  0.23820000  0.02780000  0.34070000  1.0 -0.0328022252
C  C40  1  0.29600000  0.02280000  0.41140000  1.0 -0.1493941938
C  C41  1  0.19450000  0.14650000  0.44320000  1.0 -0.0797720614
C  C42  1  0.13460000  0.14860000  0.37030000  1.0 -0.069411317
C  C43  1  0.67070000  0.01170000  0.91710000  1.0 -0.0397201503
C  C44  1  0.73690000  0.00630000  0.98200000  1.0 -0.1213501198
C  C45  1  0.76360000  0.12660000  0.90160000  1.0 -0.0913589746
C  C46  1  0.69930000  0.13230000  0.83960000  1.0 -0.0066121788
C  C47  1  0.22630000  0.01330000  0.35620000  1.0 -0.0220473391
C  C48  1  0.28590000  0.01330000  0.42340000  1.0 -0.1493941938
C  C49  1  0.20480000  0.15580000  0.42450000  1.0 -0.0913589746
C  C50  1  0.14750000  0.16070000  0.35870000  1.0 -0.069411317
C  C51  1  0.91140000  0.97560000  0.07630000  1.0 -0.128757069
C  C52  1  0.97750000  0.96510000  0.14450000  1.0 -0.0913589746
C  C53  1  0.91040000  0.11440000  0.15370000  1.0 -0.1213501198
C  C54  1  0.85120000  0.12360000  0.08650000  1.0 -0.0913589746
C  C55  1  0.31160000  0.14440000  0.58170000  1.0 -0.197469609
C  C56  1  0.37370000  0.14830000  0.64650000  1.0 0.0396428252
C  C57  1  0.41780000  0.02120000  0.55230000  1.0 -0.0992462631
C  C58  1  0.47650000  0.02990000  0.62010000  1.0 0.0396428252
C  C59  1  0.21811000  0.64921000  0.92145000  1.0 -0.5545777773
C  C60  1  0.20454000  0.59854000  0.85523000  1.0 0.3137455637
C  C61  1  0.27643000  0.54235000  0.83575000  1.0 -0.3055306171
C  C62  1  0.36776000  0.52444000  0.87441000  1.0 0.5343925263
C  C63  1  0.26792000  0.50444000  0.76134000  1.0 0.008017572
C  C64  1  0.51271000  0.46491000  0.89026000  1.0 0.0286398408
C  C65  1  0.56946000  0.41142000  0.83938000  1.0 -0.4305573014
C  C66  1  0.19933000  0.43613000  0.67562000  1.0 0.1100248605
C  C67  1  0.27048000  0.38632000  0.65019000  1.0 -0.1731906925
C  C68  1  0.26190000  0.34944000  0.58336000  1.0 -0.0992462631
C  C69  1  0.18053000  0.36453000  0.53722000  1.0 -0.1493941938
C  C70  1  0.10801000  0.41557000  0.56043000  1.0 -0.2130550203
C  C71  1  0.11732000  0.45116000  0.62999000  1.0 0.1100248605
C  C72  1  0.81532000  0.64826000  0.73763000  1.0 -0.534574071
C  C73  1  0.90023000  0.59455000  0.71957000  1.0 0.2421134952
C  C74  1  0.89949000  0.53269000  0.66467000  1.0 -0.2738896404
C  C75  1  0.97306000  0.48274000  0.64320000  1.0 0.0396428252
C  C76  1  0.82069000  0.50761000  0.64065000  1.0 0.5454983319
C  C77  1  0.74490000  0.43480000  0.58014000  1.0 0.0286398408
C  C78  1  0.74687000  0.38415000  0.51122000  1.0 -0.4567756747
C  C79  1  0.06186000  0.78176000  0.52532000  1.0 0.0628535952
C  C80  1  0.05448000  0.84812000  0.45579000  1.0 0.0503039247
C  C81  1  0.97190000  0.90510000  0.41190000  1.0 -0.1493941938
C  C82  1  0.96880000  0.96420000  0.34540000  1.0 -0.11099826
C  C83  1  0.04470000  0.97320000  0.32015000  1.0 0.1015124209
C  C84  1  0.12060000  0.91440000  0.36190000  1.0 -0.1213501198
C  C85  1  0.12790000  0.84910000  0.43370000  1.0 -0.0797720614
C  C86  1  0.08840000  0.15658000  0.17781000  1.0 0.0503039247
C  C87  1  0.08426000  0.27416000  0.03903000  1.0 0.0396428252
C  C88  1  0.13080000  0.36780000  0.84310000  1.0 0.0204988093
C  C89  1  0.12900000  0.30980000  0.91020000  1.0 -0.197469609
C  C90  1  0.08151000  0.33701000  0.96736000  1.0 0.0823145775
C  C91  1  0.04050000  0.42490000  0.96150000  1.0 -0.0992462631
C  C92  1  0.04370000  0.48550000  0.89660000  1.0 -0.0066121788
C  C93  1  0.00280000  0.68200000  0.59760000  1.0 -0.0397201503
C  C94  1  0.99440000  0.74820000  0.53250000  1.0 -0.1213501198
C  C95  1  0.13800000  0.74660000  0.58400000  1.0 -0.0797720614
C  C96  1  0.14710000  0.67830000  0.64850000  1.0 0.0204988093
C  C97  1  0.02780000  0.23820000  0.15930000  1.0 -0.0328022252
C  C98  1  0.02280000  0.29600000  0.08860000  1.0 -0.1493941938
C  C99  1  0.14650000  0.19450000  0.05680000  1.0 -0.0797720614
C  C100  1  0.14860000  0.13460000  0.12970000  1.0 -0.069411317
C  C101  1  0.01170000  0.67070000  0.58290000  1.0 -0.0397201503
C  C102  1  0.00630000  0.73690000  0.51800000  1.0 -0.1213501198
C  C103  1  0.12660000  0.76360000  0.59840000  1.0 -0.0913589746
C  C104  1  0.13230000  0.69930000  0.66040000  1.0 -0.0066121788
C  C105  1  0.01330000  0.22630000  0.14380000  1.0 -0.0220473391
C  C106  1  0.01330000  0.28590000  0.07660000  1.0 -0.1493941938
C  C107  1  0.15580000  0.20480000  0.07550000  1.0 -0.0913589746
C  C108  1  0.16070000  0.14750000  0.14130000  1.0 -0.069411317
C  C109  1  0.97560000  0.91140000  0.42370000  1.0 -0.128757069
C  C110  1  0.96510000  0.97750000  0.35550000  1.0 -0.0913589746
C  C111  1  0.11440000  0.91040000  0.34630000  1.0 -0.1213501198
C  C112  1  0.12360000  0.85120000  0.41350000  1.0 -0.0913589746
C  C113  1  0.14440000  0.31160000  0.91830000  1.0 -0.197469609
C  C114  1  0.14830000  0.37370000  0.85350000  1.0 0.0396428252
C  C115  1  0.02120000  0.41780000  0.94770000  1.0 -0.0992462631
C  C116  1  0.02990000  0.47650000  0.87990000  1.0 0.0396428252
C  C117  1  0.04035000  0.04035000  0.25000000  1.0 -0.1922238241
C  C118  1  0.09069000  0.09069000  0.25000000  1.0 -0.1607641747
C  C119  1  0.35079000  0.78189000  0.42145000  1.0 -0.5545777773
C  C120  1  0.40146000  0.79546000  0.35523000  1.0 0.3137455637
C  C121  1  0.45765000  0.72357000  0.33575000  1.0 -0.3055306171
C  C122  1  0.47556000  0.63224000  0.37441000  1.0 0.5343925263
C  C123  1  0.49556000  0.73208000  0.26134000  1.0 0.008017572
C  C124  1  0.53509000  0.48729000  0.39026000  1.0 0.0286398408
C  C125  1  0.58858000  0.43054000  0.33938000  1.0 -0.4305573014
C  C126  1  0.56387000  0.80067000  0.17562000  1.0 0.1100248605
C  C127  1  0.61368000  0.72952000  0.15019000  1.0 -0.1731906925
C  C128  1  0.65056000  0.73810000  0.08336000  1.0 -0.0992462631
C  C129  1  0.63547000  0.81947000  0.03722000  1.0 -0.1493941938
C  C130  1  0.58443000  0.89199000  0.06043000  1.0 -0.2130550203
C  C131  1  0.54884000  0.88268000  0.12999000  1.0 0.1100248605
C  C132  1  0.35174000  0.18468000  0.23763000  1.0 -0.534574071
C  C133  1  0.40545000  0.09977000  0.21957000  1.0 0.2421134952
C  C134  1  0.46731000  0.10051000  0.16467000  1.0 -0.2738896404
C  C135  1  0.51726000  0.02694000  0.14320000  1.0 0.0396428252
C  C136  1  0.49239000  0.17931000  0.14065000  1.0 0.5454983319
C  C137  1  0.56520000  0.25510000  0.08014000  1.0 0.0286398408
C  C138  1  0.61585000  0.25313000  0.01122000  1.0 -0.4567756747
C  C139  1  0.21824000  0.93814000  0.02532000  1.0 0.0628535952
C  C140  1  0.15188000  0.94552000  0.95579000  1.0 0.0503039247
C  C141  1  0.09490000  0.02810000  0.91190000  1.0 -0.1493941938
C  C142  1  0.03580000  0.03120000  0.84540000  1.0 -0.11099826
C  C143  1  0.02680000  0.95530000  0.82015000  1.0 0.1015124209
C  C144  1  0.08560000  0.87940000  0.86190000  1.0 -0.1213501198
C  C145  1  0.15090000  0.87210000  0.93370000  1.0 -0.0797720614
C  C146  1  0.84342000  0.91160000  0.67781000  1.0 0.0503039247
C  C147  1  0.72584000  0.91574000  0.53903000  1.0 0.0396428252
C  C148  1  0.63220000  0.86920000  0.34310000  1.0 0.0204988093
C  C149  1  0.69020000  0.87100000  0.41020000  1.0 -0.197469609
C  C150  1  0.66299000  0.91849000  0.46736000  1.0 0.0823145775
C  C151  1  0.57510000  0.95950000  0.46150000  1.0 -0.0992462631
C  C152  1  0.51450000  0.95630000  0.39660000  1.0 -0.0066121788
C  C153  1  0.31800000  0.99720000  0.09760000  1.0 -0.0397201503
C  C154  1  0.25180000  0.00560000  0.03250000  1.0 -0.1213501198
C  C155  1  0.25340000  0.86200000  0.08400000  1.0 -0.0797720614
C  C156  1  0.32170000  0.85290000  0.14850000  1.0 0.0204988093
C  C157  1  0.76180000  0.97220000  0.65930000  1.0 -0.0328022252
C  C158  1  0.70400000  0.97720000  0.58860000  1.0 -0.1493941938
C  C159  1  0.80550000  0.85350000  0.55680000  1.0 -0.0797720614
C  C160  1  0.86540000  0.85140000  0.62970000  1.0 -0.064794669
C  C161  1  0.32930000  0.98830000  0.08290000  1.0 -0.0397201503
C  C162  1  0.26310000  0.99370000  0.01800000  1.0 -0.1213501198
C  C163  1  0.23640000  0.87340000  0.09840000  1.0 -0.0913589746
C  C164  1  0.30070000  0.86770000  0.16040000  1.0 -0.0066121788
C  C165  1  0.77370000  0.98670000  0.64380000  1.0 -0.0220473391
C  C166  1  0.71410000  0.98670000  0.57660000  1.0 -0.1493941938
C  C167  1  0.79520000  0.84420000  0.57550000  1.0 -0.0913589746
C  C168  1  0.85250000  0.83930000  0.64130000  1.0 -0.069411317
C  C169  1  0.08860000  0.02440000  0.92370000  1.0 -0.128757069
C  C170  1  0.02250000  0.03490000  0.85550000  1.0 -0.0913589746
C  C171  1  0.08960000  0.88560000  0.84630000  1.0 -0.1213501198
C  C172  1  0.14880000  0.87640000  0.91350000  1.0 -0.0913589746
C  C173  1  0.68840000  0.85560000  0.41830000  1.0 -0.197469609
C  C174  1  0.62630000  0.85170000  0.35350000  1.0 0.0396428252
C  C175  1  0.58220000  0.97880000  0.44770000  1.0 -0.0992462631
C  C176  1  0.52350000  0.97010000  0.37990000  1.0 0.0396428252
C  C177  1  0.78189000  0.35079000  0.07855000  1.0 -0.5545777773
C  C178  1  0.79546000  0.40146000  0.14477000  1.0 0.3137455637
C  C179  1  0.72357000  0.45765000  0.16425000  1.0 -0.3055306171
C  C180  1  0.63224000  0.47556000  0.12559000  1.0 0.5343925263
C  C181  1  0.73208000  0.49556000  0.23866000  1.0 0.008017572
C  C182  1  0.48729000  0.53509000  0.10974000  1.0 0.0286398408
C  C183  1  0.43054000  0.58858000  0.16062000  1.0 -0.4305573014
C  C184  1  0.80067000  0.56387000  0.32438000  1.0 0.1100248605
C  C185  1  0.72952000  0.61368000  0.34981000  1.0 -0.1731906925
C  C186  1  0.73810000  0.65056000  0.41664000  1.0 -0.0992462631
C  C187  1  0.81947000  0.63547000  0.46278000  1.0 -0.1493941938
C  C188  1  0.89199000  0.58443000  0.43957000  1.0 -0.2130550203
C  C189  1  0.88268000  0.54884000  0.37001000  1.0 0.1100248605
C  C190  1  0.18468000  0.35174000  0.26237000  1.0 -0.534574071
C  C191  1  0.09977000  0.40545000  0.28043000  1.0 0.2421134952
C  C192  1  0.10051000  0.46731000  0.33533000  1.0 -0.2738896404
C  C193  1  0.02694000  0.51726000  0.35680000  1.0 0.0396428252
C  C194  1  0.17931000  0.49239000  0.35935000  1.0 0.5454983319
C  C195  1  0.25510000  0.56520000  0.41986000  1.0 0.0286398408
C  C196  1  0.25313000  0.61585000  0.48878000  1.0 -0.4567756747
C  C197  1  0.93814000  0.21824000  0.47468000  1.0 0.0628535952
C  C198  1  0.94552000  0.15188000  0.54421000  1.0 0.0503039247
C  C199  1  0.02810000  0.09490000  0.58810000  1.0 -0.1493941938
C  C200  1  0.03120000  0.03580000  0.65460000  1.0 -0.11099826
C  C201  1  0.95530000  0.02680000  0.67985000  1.0 0.1015124209
C  C202  1  0.87940000  0.08560000  0.63810000  1.0 -0.1213501198
C  C203  1  0.87210000  0.15090000  0.56630000  1.0 -0.0797720614
C  C204  1  0.91160000  0.84342000  0.82219000  1.0 0.0503039247
C  C205  1  0.91574000  0.72584000  0.96097000  1.0 0.0396428252
C  C206  1  0.86920000  0.63220000  0.15690000  1.0 0.0204988093
C  C207  1  0.87100000  0.69020000  0.08980000  1.0 -0.197469609
C  C208  1  0.91849000  0.66299000  0.03264000  1.0 0.0823145775
C  C209  1  0.95950000  0.57510000  0.03850000  1.0 -0.0992462631
C  C210  1  0.95630000  0.51450000  0.10340000  1.0 -0.0066121788
C  C211  1  0.99720000  0.31800000  0.40240000  1.0 -0.0397201503
C  C212  1  0.00560000  0.25180000  0.46750000  1.0 -0.1213501198
C  C213  1  0.86200000  0.25340000  0.41600000  1.0 -0.0797720614
C  C214  1  0.85290000  0.32170000  0.35150000  1.0 0.0204988093
C  C215  1  0.97220000  0.76180000  0.84070000  1.0 -0.0328022252
C  C216  1  0.97720000  0.70400000  0.91140000  1.0 -0.1493941938
C  C217  1  0.85350000  0.80550000  0.94320000  1.0 -0.0797720614
C  C218  1  0.85140000  0.86540000  0.87030000  1.0 -0.064794669
C  C219  1  0.98830000  0.32930000  0.41710000  1.0 -0.0397201503
C  C220  1  0.99370000  0.26310000  0.48200000  1.0 -0.11099826
C  C221  1  0.87340000  0.23640000  0.40160000  1.0 -0.0913589746
C  C222  1  0.86770000  0.30070000  0.33960000  1.0 -0.0066121788
C  C223  1  0.98670000  0.77370000  0.85620000  1.0 -0.0220473391
C  C224  1  0.98670000  0.71410000  0.92340000  1.0 -0.1493941938
C  C225  1  0.84420000  0.79520000  0.92450000  1.0 -0.0913589746
C  C226  1  0.83930000  0.85250000  0.85870000  1.0 -0.069411317
C  C227  1  0.02440000  0.08860000  0.57630000  1.0 -0.128757069
C  C228  1  0.03490000  0.02250000  0.64450000  1.0 -0.0913589746
C  C229  1  0.88560000  0.08960000  0.65370000  1.0 -0.1213501198
C  C230  1  0.87640000  0.14880000  0.58650000  1.0 -0.0913589746
C  C231  1  0.85560000  0.68840000  0.08170000  1.0 -0.197469609
C  C232  1  0.85170000  0.62630000  0.14650000  1.0 0.0396428252
C  C233  1  0.97880000  0.58220000  0.05230000  1.0 -0.0992462631
C  C234  1  0.97010000  0.52350000  0.12010000  1.0 0.0396428252
C  C235  1  0.95965000  0.95965000  0.75000000  1.0 -0.1922238241
C  C236  1  0.90931000  0.90931000  0.75000000  1.0 -0.1607641747
N  N1  1  0.48904000  0.19846000  0.76675000  1.0 -0.2843692695
N  N2  1  0.48711000  0.04819000  0.83450000  1.0 -0.2545349096
N  N3  1  0.64942000  0.07518000  0.84492000  1.0 -0.1213501198
N  N4  1  0.45737000  0.08973000  0.66298000  1.0 -0.0992462631
N  N5  1  0.19846000  0.48904000  0.73325000  1.0 -0.2851493453
N  N6  1  0.04819000  0.48711000  0.66550000  1.0 -0.2545349096
N  N7  1  0.07518000  0.64942000  0.65508000  1.0 -0.1213501198
N  N8  1  0.08973000  0.45737000  0.83702000  1.0 -0.0992462631
N  N9  1  0.51096000  0.80154000  0.23325000  1.0 -0.2851493453
N  N10  1  0.51289000  0.95181000  0.16550000  1.0 -0.2545349096
N  N11  1  0.35058000  0.92482000  0.15508000  1.0 -0.1213501198
N  N12  1  0.54263000  0.91027000  0.33702000  1.0 -0.0992462631
N  N13  1  0.80154000  0.51096000  0.26675000  1.0 -0.2851493453
N  N14  1  0.95181000  0.51289000  0.33450000  1.0 -0.2545349096
N  N15  1  0.92482000  0.35058000  0.34492000  1.0 -0.1213501198
N  N16  1  0.91027000  0.54263000  0.16298000  1.0 -0.0992462631
O  O1  1  0.60665000  0.13009000  0.67299000  1.0 -0.4528904353
O  O2  1  0.57138000  0.38186000  0.57765000  1.0 -0.4814414774
O  O3  1  0.47133000  0.42625000  0.64782000  1.0 -0.1922238241
O  O4  1  0.60811000  0.96379000  0.75343000  1.0 -0.4305573014
O  O5  1  0.55860000  0.74818000  0.85842000  1.0 -0.4957366382
O  O6  1  0.45058000  0.82882000  0.90135000  1.0 -0.2130550203
O  O7  1  0.13009000  0.60665000  0.82701000  1.0 -0.4528904353
O  O8  1  0.38186000  0.57138000  0.92235000  1.0 -0.4814414774
O  O9  1  0.42625000  0.47133000  0.85218000  1.0 -0.1922238241
O  O10  1  0.96379000  0.60811000  0.74657000  1.0 -0.4305573014
O  O11  1  0.74818000  0.55860000  0.64158000  1.0 -0.4957366382
O  O12  1  0.82882000  0.45058000  0.59865000  1.0 -0.2130550203
O  O13  1  0.39335000  0.86991000  0.32701000  1.0 -0.4528904353
O  O14  1  0.42862000  0.61814000  0.42235000  1.0 -0.4814414774
O  O15  1  0.52867000  0.57375000  0.35218000  1.0 -0.1922238241
O  O16  1  0.39189000  0.03621000  0.24657000  1.0 -0.4305573014
O  O17  1  0.44140000  0.25182000  0.14158000  1.0 -0.4957366382
O  O18  1  0.54942000  0.17118000  0.09865000  1.0 -0.2130550203
O  O19  1  0.86991000  0.39335000  0.17299000  1.0 -0.4528904353
O  O20  1  0.61814000  0.42862000  0.07765000  1.0 -0.4814414774
O  O21  1  0.57375000  0.52867000  0.14782000  1.0 -0.1922238241
O  O22  1  0.03621000  0.39189000  0.25343000  1.0 -0.4305573014
O  O23  1  0.25182000  0.44140000  0.35842000  1.0 -0.4957366382
O  O24  1  0.17118000  0.54942000  0.40135000  1.0 -0.2130550203
