# DDEC6 charges by PACMAN v1.1 (https://github.com/mtap-research/PACMAN-charge/)
data_GOPVAL01_ion_pacman
_symmetry_space_group_name_H-M   'P 1'
_cell_length_a   17.07690000
_cell_length_b   17.07690000
_cell_length_c   17.29550000
_cell_angle_alpha   81.93500000
_cell_angle_beta   98.06500000
_cell_angle_gamma   72.26700000
_symmetry_Int_Tables_number   1
_chemical_formula_structural   FeH67C60N4O7
_chemical_formula_sum   'Fe4 H268 C240 N16 O28'
_cell_volume   4666.12108522
_cell_formula_units_Z   4
loop_
 _symmetry_equiv_pos_site_id
 _symmetry_equiv_pos_as_xyz
  1  'x, y, z'
loop_
 _atom_site_type_symbol
 _atom_site_label
 _atom_site_symmetry_multiplicity
 _atom_site_fract_x
 _atom_site_fract_y
 _atom_site_fract_z
 _atom_site_occupancy
 _atom_site_charge
Fe  Fe1  1  0.55274000  0.08198000  0.75436000  1.0 0.642896599
Fe  Fe2  1  0.08198000  0.55274000  0.74564000  1.0 0.642896599
Fe  Fe3  1  0.44726000  0.91802000  0.24564000  1.0 0.642896599
Fe  Fe4  1  0.91802000  0.44726000  0.25436000  1.0 0.642896599
H  H1  1  0.69646000  0.16704000  0.58551000  1.0 0.0793850528
H  H2  1  0.67144000  0.26448000  0.57774000  1.0 0.0793850528
H  H3  1  0.61287000  0.22593000  0.52924000  1.0 0.0611101347
H  H4  1  0.48789000  0.31311000  0.76257000  1.0 0.0904668054
H  H5  1  0.43759000  0.52433000  0.55451000  1.0 0.1008566568
H  H6  1  0.52017000  0.51755000  0.61305000  1.0 0.1008566568
H  H7  1  0.40524000  0.62468000  0.63759000  1.0 0.1382367228
H  H8  1  0.35931000  0.55927000  0.65484000  1.0 0.120925689
H  H9  1  0.44128000  0.55254000  0.71295000  1.0 0.1382367228
H  H10  1  0.38233000  0.32229000  0.82275000  1.0 0.120925689
H  H11  1  0.31766000  0.30946000  0.93261000  1.0 0.1008566568
H  H12  1  0.33946000  0.17472000  0.00488000  1.0 0.109409415
H  H13  1  0.42382000  0.05586000  0.96813000  1.0 0.120925689
H  H14  1  0.70283000  0.81975000  0.75527000  1.0 0.070447699
H  H15  1  0.62284000  0.80510000  0.71224000  1.0 0.070447699
H  H16  1  0.66177000  0.76201000  0.80140000  1.0 0.0793850528
H  H17  1  0.44552000  0.97014000  0.88741000  1.0 0.1008566568
H  H18  1  0.48762000  0.70068000  0.93695000  1.0 0.1008566568
H  H19  1  0.40414000  0.73742000  0.87317000  1.0 0.1008566568
H  H20  1  0.37381000  0.69697000  0.99828000  1.0 0.132664441
H  H21  1  0.41534000  0.75752000  0.03402000  1.0 0.120925689
H  H22  1  0.33196000  0.79422000  0.97029000  1.0 0.109409415
H  H23  1  0.62800000  0.99218000  0.92469000  1.0 0.0611101347
H  H24  1  0.73913000  0.97593000  0.03339000  1.0 0.0793850528
H  H25  1  0.81268000  0.14616000  0.89325000  1.0 0.0904668054
H  H26  1  0.70403000  0.15671000  0.78953000  1.0 0.0904668054
H  H27  1  0.90702000  0.92184000  0.07013000  1.0 0.1008566568
H  H28  1  0.00278000  0.91606000  0.18120000  1.0 0.0611101347
H  H29  1  0.91204000  0.16960000  0.15853000  1.0 0.0793850528
H  H30  1  0.80795000  0.17849000  0.04480000  1.0 0.1008566568
H  H31  1  0.35054000  0.13548000  0.70660000  1.0 0.0904668054
H  H32  1  0.25159000  0.14731000  0.59280000  1.0 0.0793850528
H  H33  1  0.44410000  0.02502000  0.48949000  1.0 0.0904668054
H  H34  1  0.54384000  0.03696000  0.59833000  1.0 0.0904668054
H  H35  1  0.26055000  0.02557000  0.28438000  1.0 0.1491279741
H  H36  1  0.35683000  0.00409000  0.40653000  1.0 0.0793850528
H  H37  1  0.17123000  0.14507000  0.49924000  1.0 0.0793850528
H  H38  1  0.07324000  0.15474000  0.37779000  1.0 0.1008566568
H  H39  1  0.62405000  0.27127000  0.54281000  1.0 0.0793850528
H  H40  1  0.64908000  0.17382000  0.55059000  1.0 0.070447699
H  H41  1  0.70764000  0.21236000  0.59909000  1.0 0.070447699
H  H42  1  0.62213000  0.77149000  0.75733000  1.0 0.0793850528
H  H43  1  0.70212000  0.78614000  0.80037000  1.0 0.070447699
H  H44  1  0.66319000  0.82922000  0.71120000  1.0 0.0793850528
H  H45  1  0.16400000  0.97224000  0.38894000  1.0 0.0793850528
H  H46  1  0.26661000  0.96881000  0.49656000  1.0 0.1008566568
H  H47  1  0.26090000  0.19476000  0.39659000  1.0 0.120925689
H  H48  1  0.16943000  0.20053000  0.29064000  1.0 0.0904668054
H  H49  1  0.67468000  0.95212000  0.88471000  1.0 0.070447699
H  H50  1  0.78758000  0.93908000  0.99234000  1.0 0.070447699
H  H51  1  0.75731000  0.18829000  0.92864000  1.0 0.0793850528
H  H52  1  0.63725000  0.20297000  0.82573000  1.0 0.0904668054
H  H53  1  0.94455000  0.05319000  0.98109000  1.0 0.1008566568
H  H54  1  0.05507000  0.03689000  0.09351000  1.0 0.0904668054
H  H55  1  0.89381000  0.02721000  0.24403000  1.0 0.070447699
H  H56  1  0.78457000  0.05503000  0.13717000  1.0 0.1008566568
H  H57  1  0.37319000  0.20385000  0.65639000  1.0 0.1008566568
H  H58  1  0.27246000  0.20029000  0.54768000  1.0 0.0793850528
H  H59  1  0.41141000  0.95689000  0.55490000  1.0 0.120925689
H  H60  1  0.51452000  0.97932000  0.66059000  1.0 0.109409415
H  H61  1  0.16704000  0.69646000  0.91449000  1.0 0.070447699
H  H62  1  0.26448000  0.67144000  0.92226000  1.0 0.0793850528
H  H63  1  0.22593000  0.61287000  0.97076000  1.0 0.0611101347
H  H64  1  0.31311000  0.48789000  0.73743000  1.0 0.0904668054
H  H65  1  0.52433000  0.43759000  0.94549000  1.0 0.1008566568
H  H66  1  0.51755000  0.52017000  0.88695000  1.0 0.1008566568
H  H67  1  0.62468000  0.40524000  0.86241000  1.0 0.1382367228
H  H68  1  0.55927000  0.35931000  0.84516000  1.0 0.120925689
H  H69  1  0.55254000  0.44128000  0.78705000  1.0 0.1382367228
H  H70  1  0.32229000  0.38233000  0.67725000  1.0 0.120925689
H  H71  1  0.30946000  0.31766000  0.56739000  1.0 0.1008566568
H  H72  1  0.17472000  0.33946000  0.49512000  1.0 0.109409415
H  H73  1  0.05586000  0.42382000  0.53187000  1.0 0.120925689
H  H74  1  0.81975000  0.70283000  0.74473000  1.0 0.070447699
H  H75  1  0.80510000  0.62284000  0.78776000  1.0 0.070447699
H  H76  1  0.76201000  0.66177000  0.69860000  1.0 0.0793850528
H  H77  1  0.97014000  0.44552000  0.61259000  1.0 0.1008566568
H  H78  1  0.70068000  0.48762000  0.56305000  1.0 0.1008566568
H  H79  1  0.73742000  0.40414000  0.62683000  1.0 0.1008566568
H  H80  1  0.69697000  0.37381000  0.50172000  1.0 0.132664441
H  H81  1  0.75752000  0.41534000  0.46598000  1.0 0.120925689
H  H82  1  0.79422000  0.33196000  0.52971000  1.0 0.109409415
H  H83  1  0.99218000  0.62800000  0.57531000  1.0 0.0611101347
H  H84  1  0.97593000  0.73913000  0.46661000  1.0 0.0793850528
H  H85  1  0.14616000  0.81268000  0.60675000  1.0 0.0904668054
H  H86  1  0.15671000  0.70403000  0.71047000  1.0 0.0904668054
H  H87  1  0.92184000  0.90702000  0.42988000  1.0 0.1008566568
H  H88  1  0.91606000  0.00278000  0.31880000  1.0 0.0611101347
H  H89  1  0.16960000  0.91204000  0.34147000  1.0 0.0793850528
H  H90  1  0.17849000  0.80795000  0.45520000  1.0 0.1008566568
H  H91  1  0.13548000  0.35054000  0.79340000  1.0 0.0904668054
H  H92  1  0.14731000  0.25159000  0.90720000  1.0 0.0793850528
H  H93  1  0.02502000  0.44410000  0.01051000  1.0 0.0904668054
H  H94  1  0.03696000  0.54384000  0.90167000  1.0 0.0904668054
H  H95  1  0.02557000  0.26055000  0.21562000  1.0 0.1491279741
H  H96  1  0.00409000  0.35683000  0.09347000  1.0 0.0793850528
H  H97  1  0.14507000  0.17123000  0.00076000  1.0 0.0793850528
H  H98  1  0.15474000  0.07324000  0.12221000  1.0 0.1008566568
H  H99  1  0.27127000  0.62405000  0.95719000  1.0 0.0793850528
H  H100  1  0.17382000  0.64908000  0.94941000  1.0 0.070447699
H  H101  1  0.21236000  0.70764000  0.90091000  1.0 0.070447699
H  H102  1  0.77149000  0.62213000  0.74267000  1.0 0.0793850528
H  H103  1  0.78614000  0.70212000  0.69963000  1.0 0.070447699
H  H104  1  0.82923000  0.66319000  0.78880000  1.0 0.0793850528
H  H105  1  0.97224000  0.16400000  0.11106000  1.0 0.0793850528
H  H106  1  0.96881000  0.26661000  0.00344000  1.0 0.1008566568
H  H107  1  0.19476000  0.26090000  0.10341000  1.0 0.120925689
H  H108  1  0.20053000  0.16943000  0.20936000  1.0 0.0904668054
H  H109  1  0.95212000  0.67468000  0.61529000  1.0 0.070447699
H  H110  1  0.93908000  0.78758000  0.50766000  1.0 0.070447699
H  H111  1  0.18829000  0.75731000  0.57136000  1.0 0.0793850528
H  H112  1  0.20297000  0.63725000  0.67427000  1.0 0.0904668054
H  H113  1  0.05319000  0.94455000  0.51891000  1.0 0.1008566568
H  H114  1  0.03689000  0.05507000  0.40649000  1.0 0.0904668054
H  H115  1  0.02721000  0.89381000  0.25597000  1.0 0.070447699
H  H116  1  0.05503000  0.78457000  0.36283000  1.0 0.1008566568
H  H117  1  0.20385000  0.37319000  0.84361000  1.0 0.1008566568
H  H118  1  0.20030000  0.27246000  0.95232000  1.0 0.0793850528
H  H119  1  0.95689000  0.41141000  0.94510000  1.0 0.120925689
H  H120  1  0.97932000  0.51452000  0.83941000  1.0 0.109409415
H  H121  1  0.30354000  0.83296000  0.41449000  1.0 0.0793850528
H  H122  1  0.32856000  0.73552000  0.42226000  1.0 0.0793850528
H  H123  1  0.38713000  0.77407000  0.47076000  1.0 0.0611101347
H  H124  1  0.51211000  0.68689000  0.23743000  1.0 0.0904668054
H  H125  1  0.56241000  0.47567000  0.44549000  1.0 0.1008566568
H  H126  1  0.47983000  0.48245000  0.38695000  1.0 0.1008566568
H  H127  1  0.59476000  0.37532000  0.36241000  1.0 0.1382367228
H  H128  1  0.64069000  0.44073000  0.34516000  1.0 0.120925689
H  H129  1  0.55872000  0.44746000  0.28705000  1.0 0.1382367228
H  H130  1  0.61767000  0.67771000  0.17725000  1.0 0.120925689
H  H131  1  0.68234000  0.69054000  0.06739000  1.0 0.1008566568
H  H132  1  0.66054000  0.82528000  0.99512000  1.0 0.109409415
H  H133  1  0.57618000  0.94414000  0.03187000  1.0 0.120925689
H  H134  1  0.29717000  0.18025000  0.24473000  1.0 0.070447699
H  H135  1  0.37716000  0.19490000  0.28776000  1.0 0.070447699
H  H136  1  0.33823000  0.23799000  0.19860000  1.0 0.0793850528
H  H137  1  0.55448000  0.02986000  0.11259000  1.0 0.1008566568
H  H138  1  0.51238000  0.29932000  0.06305000  1.0 0.1008566568
H  H139  1  0.59586000  0.26258000  0.12683000  1.0 0.1008566568
H  H140  1  0.62619000  0.30303000  0.00172000  1.0 0.132664441
H  H141  1  0.58466000  0.24248000  0.96598000  1.0 0.120925689
H  H142  1  0.66804000  0.20578000  0.02971000  1.0 0.109409415
H  H143  1  0.37200000  0.00782000  0.07531000  1.0 0.0611101347
H  H144  1  0.26087000  0.02407000  0.96661000  1.0 0.0793850528
H  H145  1  0.18732000  0.85384000  0.10675000  1.0 0.0904668054
H  H146  1  0.29598000  0.84328000  0.21047000  1.0 0.0904668054
H  H147  1  0.09298000  0.07816000  0.92988000  1.0 0.1008566568
H  H148  1  0.99722000  0.08394000  0.81880000  1.0 0.0611101347
H  H149  1  0.08796000  0.83040000  0.84147000  1.0 0.0793850528
H  H150  1  0.19205000  0.82151000  0.95520000  1.0 0.1008566568
H  H151  1  0.64946000  0.86452000  0.29340000  1.0 0.0904668054
H  H152  1  0.74841000  0.85269000  0.40720000  1.0 0.0793850528
H  H153  1  0.55590000  0.97498000  0.51051000  1.0 0.0904668054
H  H154  1  0.45616000  0.96304000  0.40167000  1.0 0.0904668054
H  H155  1  0.73945000  0.97443000  0.71562000  1.0 0.1491279741
H  H156  1  0.64317000  0.99591000  0.59347000  1.0 0.0793850528
H  H157  1  0.82877000  0.85493000  0.50076000  1.0 0.0793850528
H  H158  1  0.92676000  0.84526000  0.62221000  1.0 0.1008566568
H  H159  1  0.37595000  0.72873000  0.45719000  1.0 0.0793850528
H  H160  1  0.35092000  0.82618000  0.44941000  1.0 0.070447699
H  H161  1  0.29236000  0.78764000  0.40091000  1.0 0.070447699
H  H162  1  0.37787000  0.22851000  0.24267000  1.0 0.0793850528
H  H163  1  0.29788000  0.21386000  0.19963000  1.0 0.070447699
H  H164  1  0.33682000  0.17078000  0.28880000  1.0 0.0793850528
H  H165  1  0.83600000  0.02776000  0.61106000  1.0 0.0793850528
H  H166  1  0.73339000  0.03119000  0.50344000  1.0 0.1008566568
H  H167  1  0.73910000  0.80524000  0.60341000  1.0 0.120925689
H  H168  1  0.83057000  0.79947000  0.70936000  1.0 0.0904668054
H  H169  1  0.32532000  0.04788000  0.11529000  1.0 0.070447699
H  H170  1  0.21242000  0.06092000  0.00766000  1.0 0.070447699
H  H171  1  0.24269000  0.81171000  0.07136000  1.0 0.0793850528
H  H172  1  0.36275000  0.79703000  0.17427000  1.0 0.0904668054
H  H173  1  0.05545000  0.94681000  0.01891000  1.0 0.1008566568
H  H174  1  0.94493000  0.96311000  0.90649000  1.0 0.0904668054
H  H175  1  0.10619000  0.97279000  0.75597000  1.0 0.070447699
H  H176  1  0.21543000  0.94497000  0.86283000  1.0 0.1008566568
H  H177  1  0.62681000  0.79615000  0.34361000  1.0 0.1008566568
H  H178  1  0.72754000  0.79970000  0.45232000  1.0 0.0793850528
H  H179  1  0.58859000  0.04311000  0.44510000  1.0 0.120925689
H  H180  1  0.48548000  0.02068000  0.33941000  1.0 0.109409415
H  H181  1  0.83296000  0.30354000  0.08551000  1.0 0.0793850528
H  H182  1  0.73552000  0.32856000  0.07774000  1.0 0.0793850528
H  H183  1  0.77407000  0.38713000  0.02924000  1.0 0.0611101347
H  H184  1  0.68689000  0.51211000  0.26257000  1.0 0.0904668054
H  H185  1  0.47567000  0.56241000  0.05451000  1.0 0.1008566568
H  H186  1  0.48245000  0.47983000  0.11305000  1.0 0.1008566568
H  H187  1  0.37532000  0.59476000  0.13759000  1.0 0.1382367228
H  H188  1  0.44073000  0.64069000  0.15484000  1.0 0.120925689
H  H189  1  0.44746000  0.55872000  0.21295000  1.0 0.1382367228
H  H190  1  0.67771000  0.61767000  0.32275000  1.0 0.120925689
H  H191  1  0.69054000  0.68234000  0.43261000  1.0 0.1008566568
H  H192  1  0.82528000  0.66054000  0.50488000  1.0 0.109409415
H  H193  1  0.94414000  0.57618000  0.46813000  1.0 0.120925689
H  H194  1  0.18025000  0.29717000  0.25527000  1.0 0.070447699
H  H195  1  0.19490000  0.37716000  0.21224000  1.0 0.070447699
H  H196  1  0.23799000  0.33823000  0.30140000  1.0 0.0793850528
H  H197  1  0.02986000  0.55448000  0.38741000  1.0 0.1008566568
H  H198  1  0.29932000  0.51238000  0.43695000  1.0 0.1008566568
H  H199  1  0.26258000  0.59586000  0.37317000  1.0 0.1008566568
H  H200  1  0.30303000  0.62619000  0.49828000  1.0 0.132664441
H  H201  1  0.24248000  0.58466000  0.53402000  1.0 0.120925689
H  H202  1  0.20578000  0.66804000  0.47029000  1.0 0.109409415
H  H203  1  0.00782000  0.37200000  0.42469000  1.0 0.0611101347
H  H204  1  0.02407000  0.26087000  0.53339000  1.0 0.0793850528
H  H205  1  0.85384000  0.18732000  0.39325000  1.0 0.0904668054
H  H206  1  0.84328000  0.29597000  0.28953000  1.0 0.0904668054
H  H207  1  0.07816000  0.09298000  0.57013000  1.0 0.1008566568
H  H208  1  0.08394000  0.99722000  0.68120000  1.0 0.0611101347
H  H209  1  0.83040000  0.08796000  0.65853000  1.0 0.0793850528
H  H210  1  0.82151000  0.19205000  0.54480000  1.0 0.1008566568
H  H211  1  0.86452000  0.64946000  0.20660000  1.0 0.0904668054
H  H212  1  0.85269000  0.74841000  0.09280000  1.0 0.0793850528
H  H213  1  0.97498000  0.55590000  0.98949000  1.0 0.0904668054
H  H214  1  0.96304000  0.45616000  0.09833000  1.0 0.0904668054
H  H215  1  0.97443000  0.73945000  0.78438000  1.0 0.1491279741
H  H216  1  0.99591000  0.64317000  0.90653000  1.0 0.0793850528
H  H217  1  0.85493000  0.82877000  0.99924000  1.0 0.0793850528
H  H218  1  0.84526000  0.92676000  0.87779000  1.0 0.1008566568
H  H219  1  0.72873000  0.37595000  0.04281000  1.0 0.0793850528
H  H220  1  0.82618000  0.35092000  0.05059000  1.0 0.070447699
H  H221  1  0.78764000  0.29236000  0.09909000  1.0 0.070447699
H  H222  1  0.22851000  0.37787000  0.25733000  1.0 0.0793850528
H  H223  1  0.21386000  0.29788000  0.30037000  1.0 0.070447699
H  H224  1  0.17077000  0.33681000  0.21120000  1.0 0.0793850528
H  H225  1  0.02776000  0.83600000  0.88894000  1.0 0.0793850528
H  H226  1  0.03119000  0.73339000  0.99656000  1.0 0.1008566568
H  H227  1  0.80524000  0.73910000  0.89659000  1.0 0.120925689
H  H228  1  0.79947000  0.83057000  0.79064000  1.0 0.0904668054
H  H229  1  0.04788000  0.32532000  0.38471000  1.0 0.070447699
H  H230  1  0.06092000  0.21242000  0.49234000  1.0 0.070447699
H  H231  1  0.81171000  0.24269000  0.42864000  1.0 0.0793850528
H  H232  1  0.79703000  0.36275000  0.32573000  1.0 0.0904668054
H  H233  1  0.94681000  0.05545000  0.48109000  1.0 0.1008566568
H  H234  1  0.96311000  0.94493000  0.59351000  1.0 0.0904668054
H  H235  1  0.97279000  0.10619000  0.74403000  1.0 0.070447699
H  H236  1  0.94497000  0.21543000  0.63717000  1.0 0.1008566568
H  H237  1  0.79615000  0.62681000  0.15639000  1.0 0.1008566568
H  H238  1  0.79971000  0.72754000  0.04768000  1.0 0.0793850528
H  H239  1  0.04311000  0.58859000  0.05490000  1.0 0.120925689
H  H240  1  0.02068000  0.48548000  0.16059000  1.0 0.109409415
H  H241  1  0.89347000  0.74023000  0.24644000  1.0 0.070447699
H  H242  1  0.94092000  0.75782000  0.32297000  1.0 0.0611101347
H  H243  1  0.93711000  0.66761000  0.32050000  1.0 0.0611101347
H  H244  1  0.05718000  0.65770000  0.29155000  1.0 0.308989196
H  H245  1  0.95420000  0.70354000  0.34683000  1.0 0.0517335089
H  H246  1  0.90674000  0.68596000  0.27031000  1.0 0.0517335089
H  H247  1  0.91056000  0.77616000  0.27277000  1.0 0.070447699
H  H248  1  0.74023000  0.89347000  0.25356000  1.0 0.070447699
H  H249  1  0.75782000  0.94092000  0.17703000  1.0 0.0611101347
H  H250  1  0.66761000  0.93711000  0.17950000  1.0 0.0611101347
H  H251  1  0.65770000  0.05718000  0.20845000  1.0 0.308989196
H  H252  1  0.70354000  0.95420000  0.15317000  1.0 0.0517335089
H  H253  1  0.68596000  0.90674000  0.22969000  1.0 0.0517335089
H  H254  1  0.77616000  0.91056000  0.22723000  1.0 0.070447699
H  H255  1  0.10653000  0.25977000  0.75356000  1.0 0.070447699
H  H256  1  0.05908000  0.24218000  0.67703000  1.0 0.0611101347
H  H257  1  0.06289000  0.33239000  0.67950000  1.0 0.0611101347
H  H258  1  0.94282000  0.34230000  0.70845000  1.0 0.308989196
H  H259  1  0.04580000  0.29646000  0.65317000  1.0 0.0517335089
H  H260  1  0.09326000  0.31404000  0.72969000  1.0 0.0517335089
H  H261  1  0.08944000  0.22384000  0.72723000  1.0 0.070447699
H  H262  1  0.25977000  0.10653000  0.74644000  1.0 0.070447699
H  H263  1  0.24218000  0.05908000  0.82297000  1.0 0.0611101347
H  H264  1  0.33239000  0.06289000  0.82050000  1.0 0.0611101347
H  H265  1  0.34230000  0.94282000  0.79155000  1.0 0.308989196
H  H266  1  0.29646000  0.04580000  0.84683000  1.0 0.0517335089
H  H267  1  0.31404000  0.09326000  0.77031000  1.0 0.0517335089
H  H268  1  0.22384000  0.08944000  0.77277000  1.0 0.070447699
C  C1  1  0.65049000  0.21825000  0.57858000  1.0 -0.3890945549
C  C2  1  0.60477000  0.21405000  0.64606000  1.0 0.2954301004
C  C3  1  0.53951000  0.28017000  0.66521000  1.0 -0.2911096822
C  C4  1  0.52442000  0.36730000  0.62502000  1.0 0.5294982408
C  C5  1  0.50274000  0.26788000  0.73698000  1.0 0.070447699
C  C6  1  0.46533000  0.51121000  0.60993000  1.0 0.0284308613
C  C7  1  0.41294000  0.56710000  0.65831000  1.0 -0.4240176912
C  C8  1  0.43710000  0.20022000  0.82509000  1.0 0.132664441
C  C9  1  0.38943000  0.26911000  0.85056000  1.0 -0.1816247042
C  C10  1  0.35079000  0.26205000  0.91754000  1.0 -0.1401908135
C  C11  1  0.36417000  0.18069000  0.96079000  1.0 -0.1913574889
C  C12  1  0.41432000  0.10866000  0.93811000  1.0 -0.271500812
C  C13  1  0.45047000  0.11671000  0.86917000  1.0 0.109409415
C  C14  1  0.65083000  0.81149000  0.76191000  1.0 -0.3967932846
C  C15  1  0.59703000  0.88487000  0.78784000  1.0 0.2266863351
C  C16  1  0.53355000  0.89731000  0.83510000  1.0 -0.3290217157
C  C17  1  0.48406000  0.97450000  0.85543000  1.0 0.0382821903
C  C18  1  0.50928000  0.82202000  0.85955000  1.0 0.5294982408
C  C19  1  0.43522000  0.74694000  0.92031000  1.0 0.0223567928
C  C20  1  0.38431000  0.74911000  0.98698000  1.0 -0.4240176912
C  C21  1  0.66500000  0.02200000  0.91930000  1.0 0.0382821903
C  C22  1  0.73170000  0.01270000  0.98580000  1.0 -0.0804464877
C  C23  1  0.78428000  0.06068000  0.97601000  1.0 0.0517335089
C  C24  1  0.77610000  0.11610000  0.89990000  1.0 -0.0897859438
C  C25  1  0.71160000  0.12180000  0.83830000  1.0 0.0223567928
C  C26  1  0.84944000  0.05442000  0.04422000  1.0 0.0382821903
C  C27  1  0.90907000  0.97067000  0.08690000  1.0 -0.1470149841
C  C28  1  0.96753000  0.96813000  0.15250000  1.0 -0.0433274793
C  C29  1  0.97684000  0.04632000  0.17971000  1.0 0.070447699
C  C30  1  0.91340000  0.12080000  0.14000000  1.0 -0.0804464877
C  C31  1  0.84792000  0.12732000  0.06990000  1.0 -0.1194396924
C  C32  1  0.15585000  0.08727000  0.32145000  1.0 0.070447699
C  C33  1  0.27377000  0.08435000  0.45859000  1.0 0.0284308613
C  C34  1  0.36710000  0.11830000  0.66100000  1.0 0.0016645406
C  C35  1  0.30850000  0.12070000  0.59540000  1.0 -0.0717101033
C  C36  1  0.33766000  0.08102000  0.53079000  1.0 0.0611101347
C  C37  1  0.42540000  0.04940000  0.53130000  1.0 -0.0897859438
C  C38  1  0.48650000  0.05510000  0.59730000  1.0 -0.0060318617
C  C39  1  0.24140000  0.04720000  0.32730000  1.0 -0.1011121721
C  C40  1  0.30150000  0.03870000  0.39950000  1.0 -0.1317748537
C  C41  1  0.19010000  0.12230000  0.45670000  1.0 -0.1317748537
C  C42  1  0.12990000  0.12570000  0.38240000  1.0 -0.1011121721
C  C43  1  0.18500000  0.01640000  0.38920000  1.0 -0.0897859438
C  C44  1  0.24560000  0.01540000  0.45530000  1.0 -0.0897859438
C  C45  1  0.24230000  0.14910000  0.39500000  1.0 -0.1011121721
C  C46  1  0.18740000  0.15300000  0.33070000  1.0 -0.1011121721
C  C47  1  0.69160000  0.99740000  0.89420000  1.0 0.0223567928
C  C48  1  0.75940000  0.99120000  0.95970000  1.0 -0.0479295283
C  C49  1  0.74030000  0.14250000  0.92200000  1.0 -0.0433274793
C  C50  1  0.66990000  0.15170000  0.85790000  1.0 0.0016645406
C  C51  1  0.93300000  0.05080000  0.03220000  1.0 -0.1317748537
C  C52  1  0.00060000  0.04320000  0.10030000  1.0 -0.1633998092
C  C53  1  0.90230000  0.03930000  0.19230000  1.0 -0.0479295283
C  C54  1  0.83780000  0.05020000  0.12710000  1.0 -0.0804464877
C  C55  1  0.38170000  0.15770000  0.63170000  1.0 0.0223567928
C  C56  1  0.32150000  0.15510000  0.56680000  1.0 -0.063304403
C  C57  1  0.40450000  0.00890000  0.56870000  1.0 -0.0897859438
C  C58  1  0.46610000  0.02330000  0.63570000  1.0 0.0611101347
C  C59  1  0.21825000  0.65049000  0.92142000  1.0 -0.3890945549
C  C60  1  0.21405000  0.60477000  0.85394000  1.0 0.2954301004
C  C61  1  0.28017000  0.53951000  0.83479000  1.0 -0.2911096822
C  C62  1  0.36730000  0.52442000  0.87498000  1.0 0.5294982408
C  C63  1  0.26788000  0.50274000  0.76302000  1.0 0.070447699
C  C64  1  0.51121000  0.46533000  0.89007000  1.0 0.0284308613
C  C65  1  0.56710000  0.41294000  0.84169000  1.0 -0.4240176912
C  C66  1  0.20022000  0.43710000  0.67491000  1.0 0.132664441
C  C67  1  0.26911000  0.38943000  0.64944000  1.0 -0.1816247042
C  C68  1  0.26205000  0.35079000  0.58246000  1.0 -0.1401908135
C  C69  1  0.18069000  0.36417000  0.53921000  1.0 -0.1913574889
C  C70  1  0.10866000  0.41432000  0.56189000  1.0 -0.271500812
C  C71  1  0.11671000  0.45047000  0.63083000  1.0 0.109409415
C  C72  1  0.81149000  0.65083000  0.73809000  1.0 -0.3967932846
C  C73  1  0.88487000  0.59703000  0.71216000  1.0 0.2266863351
C  C74  1  0.89731000  0.53355000  0.66490000  1.0 -0.3290217157
C  C75  1  0.97450000  0.48406000  0.64457000  1.0 0.0382821903
C  C76  1  0.82202000  0.50928000  0.64045000  1.0 0.5294982408
C  C77  1  0.74694000  0.43522000  0.57969000  1.0 0.0223567928
C  C78  1  0.74911000  0.38431000  0.51302000  1.0 -0.4240176912
C  C79  1  0.02200000  0.66500000  0.58070000  1.0 0.0382821903
C  C80  1  0.01270000  0.73170000  0.51420000  1.0 -0.0804464877
C  C81  1  0.06068000  0.78428000  0.52399000  1.0 0.0517335089
C  C82  1  0.11610000  0.77610000  0.60010000  1.0 -0.0897859438
C  C83  1  0.12180000  0.71160000  0.66170000  1.0 0.0223567928
C  C84  1  0.05442000  0.84944000  0.45578000  1.0 0.0382821903
C  C85  1  0.97067000  0.90907000  0.41310000  1.0 -0.1470149841
C  C86  1  0.96813000  0.96753000  0.34750000  1.0 -0.0433274793
C  C87  1  0.04632000  0.97684000  0.32029000  1.0 0.070447699
C  C88  1  0.12080000  0.91340000  0.36000000  1.0 -0.0804464877
C  C89  1  0.12732000  0.84792000  0.43010000  1.0 -0.1194396924
C  C90  1  0.08727000  0.15585000  0.17855000  1.0 0.070447699
C  C91  1  0.08435000  0.27377000  0.04141000  1.0 0.0284308613
C  C92  1  0.11830000  0.36710000  0.83900000  1.0 0.0016645406
C  C93  1  0.12070000  0.30850000  0.90460000  1.0 -0.0717101033
C  C94  1  0.08102000  0.33766000  0.96921000  1.0 0.0611101347
C  C95  1  0.04940000  0.42540000  0.96870000  1.0 -0.0897859438
C  C96  1  0.05510000  0.48650000  0.90270000  1.0 -0.0060318617
C  C97  1  0.04720000  0.24140000  0.17270000  1.0 -0.1011121721
C  C98  1  0.03870000  0.30150000  0.10050000  1.0 -0.1317748537
C  C99  1  0.12230000  0.19010000  0.04330000  1.0 -0.1317748537
C  C100  1  0.12570000  0.12990000  0.11760000  1.0 -0.1011121721
C  C101  1  0.01640000  0.18500000  0.11080000  1.0 -0.0897859438
C  C102  1  0.01540000  0.24560000  0.04470000  1.0 -0.0897859438
C  C103  1  0.14910000  0.24230000  0.10500000  1.0 -0.1011121721
C  C104  1  0.15300000  0.18740000  0.16930000  1.0 -0.1011121721
C  C105  1  0.99740000  0.69160000  0.60580000  1.0 0.0223567928
C  C106  1  0.99120000  0.75940000  0.54030000  1.0 -0.0479295283
C  C107  1  0.14250000  0.74030000  0.57800000  1.0 -0.0433274793
C  C108  1  0.15170000  0.66990000  0.64210000  1.0 0.0016645406
C  C109  1  0.05080000  0.93300000  0.46780000  1.0 -0.1317748537
C  C110  1  0.04320000  0.00060000  0.39970000  1.0 -0.1633998092
C  C111  1  0.03930000  0.90230000  0.30770000  1.0 -0.0479295283
C  C112  1  0.05020000  0.83780000  0.37290000  1.0 -0.0804464877
C  C113  1  0.15770000  0.38170000  0.86830000  1.0 0.0223567928
C  C114  1  0.15510000  0.32150000  0.93320000  1.0 -0.063304403
C  C115  1  0.00890000  0.40450000  0.93130000  1.0 -0.0897859438
C  C116  1  0.02330000  0.46610000  0.86430000  1.0 0.0611101347
C  C117  1  0.04110000  0.04110000  0.25000000  1.0 -0.1401908135
C  C118  1  0.09156000  0.09156000  0.25000000  1.0 -0.2028737675
C  C119  1  0.34951000  0.78175000  0.42142000  1.0 -0.3890945549
C  C120  1  0.39523000  0.78595000  0.35394000  1.0 0.2947022681
C  C121  1  0.46049000  0.71983000  0.33479000  1.0 -0.2911096822
C  C122  1  0.47558000  0.63270000  0.37498000  1.0 0.5294982408
C  C123  1  0.49726000  0.73212000  0.26302000  1.0 0.070447699
C  C124  1  0.53467000  0.48879000  0.39007000  1.0 0.0284308613
C  C125  1  0.58706000  0.43290000  0.34169000  1.0 -0.4240176912
C  C126  1  0.56290000  0.79978000  0.17491000  1.0 0.132664441
C  C127  1  0.61057000  0.73089000  0.14944000  1.0 -0.1816247042
C  C128  1  0.64921000  0.73795000  0.08246000  1.0 -0.1401908135
C  C129  1  0.63583000  0.81931000  0.03921000  1.0 -0.1913574889
C  C130  1  0.58568000  0.89134000  0.06189000  1.0 -0.271500812
C  C131  1  0.54953000  0.88329000  0.13083000  1.0 0.109409415
C  C132  1  0.34917000  0.18851000  0.23809000  1.0 -0.3967932846
C  C133  1  0.40297000  0.11513000  0.21216000  1.0 0.2266863351
C  C134  1  0.46645000  0.10269000  0.16490000  1.0 -0.3290217157
C  C135  1  0.51594000  0.02550000  0.14457000  1.0 0.0382821903
C  C136  1  0.49072000  0.17798000  0.14045000  1.0 0.5294982408
C  C137  1  0.56478000  0.25306000  0.07969000  1.0 0.0223567928
C  C138  1  0.61569000  0.25089000  0.01302000  1.0 -0.4240176912
C  C139  1  0.33500000  0.97800000  0.08070000  1.0 0.0382821903
C  C140  1  0.26830000  0.98730000  0.01420000  1.0 -0.0804464877
C  C141  1  0.21572000  0.93932000  0.02399000  1.0 0.0517335089
C  C142  1  0.22390000  0.88390000  0.10010000  1.0 -0.0897859438
C  C143  1  0.28840000  0.87820000  0.16170000  1.0 0.0223567928
C  C144  1  0.15056000  0.94558000  0.95578000  1.0 0.0382821903
C  C145  1  0.09093000  0.02933000  0.91310000  1.0 -0.1470149841
C  C146  1  0.03247000  0.03187000  0.84750000  1.0 -0.0433274793
C  C147  1  0.02316000  0.95368000  0.82029000  1.0 0.070447699
C  C148  1  0.08660000  0.87920000  0.86000000  1.0 -0.0804464877
C  C149  1  0.15208000  0.87268000  0.93010000  1.0 -0.1194396924
C  C150  1  0.84415000  0.91273000  0.67855000  1.0 0.070447699
C  C151  1  0.72623000  0.91565000  0.54141000  1.0 0.0284308613
C  C152  1  0.63290000  0.88170000  0.33900000  1.0 0.0016645406
C  C153  1  0.69150000  0.87930000  0.40460000  1.0 -0.0717101033
C  C154  1  0.66234000  0.91898000  0.46921000  1.0 0.0611101347
C  C155  1  0.57460000  0.95060000  0.46870000  1.0 -0.0897859438
C  C156  1  0.51350000  0.94490000  0.40270000  1.0 -0.0060318617
C  C157  1  0.75860000  0.95280000  0.67270000  1.0 -0.1011121721
C  C158  1  0.69850000  0.96130000  0.60050000  1.0 -0.1317748537
C  C159  1  0.80990000  0.87770000  0.54330000  1.0 -0.1317748537
C  C160  1  0.87010000  0.87430000  0.61760000  1.0 -0.1011121721
C  C161  1  0.81500000  0.98360000  0.61080000  1.0 -0.0897859438
C  C162  1  0.75440000  0.98460000  0.54470000  1.0 -0.0897859438
C  C163  1  0.75770000  0.85090000  0.60500000  1.0 -0.1011121721
C  C164  1  0.81260000  0.84700000  0.66930000  1.0 -0.1011121721
C  C165  1  0.30840000  0.00260000  0.10580000  1.0 0.0223567928
C  C166  1  0.24060000  0.00880000  0.04030000  1.0 -0.0479295283
C  C167  1  0.25970000  0.85750000  0.07800000  1.0 -0.0433274793
C  C168  1  0.33010000  0.84830000  0.14210000  1.0 0.0016645406
C  C169  1  0.06700000  0.94920000  0.96780000  1.0 -0.1317748537
C  C170  1  0.99940000  0.95680000  0.89970000  1.0 -0.1633998092
C  C171  1  0.09770000  0.96070000  0.80770000  1.0 -0.0479295283
C  C172  1  0.16220000  0.94980000  0.87290000  1.0 -0.0804464877
C  C173  1  0.61830000  0.84230000  0.36830000  1.0 0.0223567928
C  C174  1  0.67850000  0.84490000  0.43320000  1.0 -0.063304403
C  C175  1  0.59550000  0.99110000  0.43130000  1.0 -0.0897859438
C  C176  1  0.53390000  0.97670000  0.36430000  1.0 0.0611101347
C  C177  1  0.78175000  0.34951000  0.07858000  1.0 -0.3890945549
C  C178  1  0.78595000  0.39523000  0.14606000  1.0 0.2954301004
C  C179  1  0.71983000  0.46049000  0.16521000  1.0 -0.2911096822
C  C180  1  0.63270000  0.47558000  0.12502000  1.0 0.5294982408
C  C181  1  0.73212000  0.49726000  0.23698000  1.0 0.070447699
C  C182  1  0.48879000  0.53467000  0.10993000  1.0 0.0284308613
C  C183  1  0.43290000  0.58706000  0.15831000  1.0 -0.4240176912
C  C184  1  0.79978000  0.56290000  0.32509000  1.0 0.132664441
C  C185  1  0.73089000  0.61057000  0.35056000  1.0 -0.1816247042
C  C186  1  0.73795000  0.64921000  0.41754000  1.0 -0.1401908135
C  C187  1  0.81931000  0.63583000  0.46079000  1.0 -0.1913574889
C  C188  1  0.89134000  0.58568000  0.43811000  1.0 -0.271500812
C  C189  1  0.88329000  0.54953000  0.36917000  1.0 0.109409415
C  C190  1  0.18851000  0.34917000  0.26191000  1.0 -0.3967932846
C  C191  1  0.11513000  0.40297000  0.28784000  1.0 0.2266863351
C  C192  1  0.10269000  0.46645000  0.33510000  1.0 -0.3290217157
C  C193  1  0.02550000  0.51594000  0.35543000  1.0 0.0382821903
C  C194  1  0.17798000  0.49072000  0.35955000  1.0 0.5294982408
C  C195  1  0.25306000  0.56478000  0.42031000  1.0 0.0223567928
C  C196  1  0.25089000  0.61569000  0.48698000  1.0 -0.4240176912
C  C197  1  0.97800000  0.33500000  0.41930000  1.0 0.0382821903
C  C198  1  0.98730000  0.26830000  0.48580000  1.0 -0.0804464877
C  C199  1  0.93932000  0.21572000  0.47601000  1.0 0.0517335089
C  C200  1  0.88390000  0.22390000  0.39990000  1.0 -0.0897859438
C  C201  1  0.87820000  0.28840000  0.33830000  1.0 0.0223567928
C  C202  1  0.94558000  0.15056000  0.54422000  1.0 0.0382821903
C  C203  1  0.02933000  0.09093000  0.58690000  1.0 -0.1470149841
C  C204  1  0.03187000  0.03247000  0.65250000  1.0 -0.0433274793
C  C205  1  0.95368000  0.02316000  0.67971000  1.0 0.070447699
C  C206  1  0.87920000  0.08660000  0.64000000  1.0 -0.0804464877
C  C207  1  0.87268000  0.15208000  0.56990000  1.0 -0.1194396924
C  C208  1  0.91273000  0.84415000  0.82145000  1.0 0.070447699
C  C209  1  0.91565000  0.72623000  0.95859000  1.0 0.0284308613
C  C210  1  0.88170000  0.63290000  0.16100000  1.0 0.0016645406
C  C211  1  0.87930000  0.69150000  0.09540000  1.0 -0.0717101033
C  C212  1  0.91898000  0.66234000  0.03079000  1.0 0.0611101347
C  C213  1  0.95060000  0.57460000  0.03130000  1.0 -0.0897859438
C  C214  1  0.94490000  0.51350000  0.09730000  1.0 -0.0060318617
C  C215  1  0.95280000  0.75860000  0.82730000  1.0 -0.1011121721
C  C216  1  0.96130000  0.69850000  0.89950000  1.0 -0.1317748537
C  C217  1  0.87770000  0.80990000  0.95670000  1.0 -0.1317748537
C  C218  1  0.87430000  0.87010000  0.88240000  1.0 -0.1011121721
C  C219  1  0.98360000  0.81500000  0.88920000  1.0 -0.0897859438
C  C220  1  0.98460000  0.75440000  0.95530000  1.0 -0.0897859438
C  C221  1  0.85090000  0.75770000  0.89500000  1.0 -0.1011121721
C  C222  1  0.84700000  0.81260000  0.83070000  1.0 -0.1011121721
C  C223  1  0.00260000  0.30840000  0.39420000  1.0 0.0223567928
C  C224  1  0.00880000  0.24060000  0.45970000  1.0 -0.0479295283
C  C225  1  0.85750000  0.25970000  0.42200000  1.0 -0.0433274793
C  C226  1  0.84830000  0.33010000  0.35790000  1.0 0.0016645406
C  C227  1  0.94920000  0.06700000  0.53220000  1.0 -0.1317748537
C  C228  1  0.95680000  0.99940000  0.60030000  1.0 -0.1633998092
C  C229  1  0.96070000  0.09770000  0.69230000  1.0 -0.0479295283
C  C230  1  0.94980000  0.16220000  0.62710000  1.0 -0.0804464877
C  C231  1  0.84230000  0.61830000  0.13170000  1.0 0.0223567928
C  C232  1  0.84490000  0.67850000  0.06680000  1.0 -0.063304403
C  C233  1  0.99110000  0.59550000  0.06870000  1.0 -0.0897859438
C  C234  1  0.97670000  0.53390000  0.13570000  1.0 0.0611101347
C  C235  1  0.95890000  0.95890000  0.75000000  1.0 -0.1401908135
C  C236  1  0.90844000  0.90844000  0.75000000  1.0 -0.2028737675
C  C237  1  0.94075000  0.71729000  0.28973000  1.0 -0.2911096822
C  C238  1  0.71729000  0.94075000  0.21027000  1.0 -0.2911096822
C  C239  1  0.05925000  0.28271000  0.71027000  1.0 -0.2911096822
C  C240  1  0.28271000  0.05925000  0.78973000  1.0 -0.2911096822
N  N1  1  0.48923000  0.20065000  0.76759000  1.0 -0.3459475722
N  N2  1  0.48782000  0.04692000  0.83427000  1.0 -0.314110228
N  N3  1  0.65649000  0.07381000  0.84969000  1.0 -0.1913574889
N  N4  1  0.45330000  0.08844000  0.65598000  1.0 -0.0203907449
N  N5  1  0.20065000  0.48923000  0.73241000  1.0 -0.3459475722
N  N6  1  0.04692000  0.48782000  0.66573000  1.0 -0.314110228
N  N7  1  0.07381000  0.65649000  0.65031000  1.0 -0.1913574889
N  N8  1  0.08844000  0.45330000  0.84402000  1.0 -0.0203907449
N  N9  1  0.51077000  0.79935000  0.23241000  1.0 -0.3459475722
N  N10  1  0.51218000  0.95308000  0.16573000  1.0 -0.314110228
N  N11  1  0.34351000  0.92619000  0.15031000  1.0 -0.1913574889
N  N12  1  0.54670000  0.91156000  0.34402000  1.0 -0.0203907449
N  N13  1  0.79935000  0.51077000  0.26759000  1.0 -0.3459475722
N  N14  1  0.95308000  0.51218000  0.33427000  1.0 -0.314110228
N  N15  1  0.92619000  0.34351000  0.34969000  1.0 -0.1913574889
N  N16  1  0.91156000  0.54670000  0.15598000  1.0 -0.0203907449
O  O1  1  0.60287000  0.14329000  0.67288000  1.0 -0.4723026092
O  O2  1  0.57041000  0.38177000  0.57844000  1.0 -0.5062477525
O  O3  1  0.47235000  0.42461000  0.64804000  1.0 -0.2284616913
O  O4  1  0.60542000  0.95408000  0.76228000  1.0 -0.4636728402
O  O5  1  0.55630000  0.75068000  0.85891000  1.0 -0.4929366048
O  O6  1  0.45370000  0.82842000  0.89992000  1.0 -0.2076406117
O  O7  1  0.14329000  0.60287000  0.82712000  1.0 -0.4723026092
O  O8  1  0.38177000  0.57041000  0.92156000  1.0 -0.5062477525
O  O9  1  0.42461000  0.47235000  0.85196000  1.0 -0.2284616913
O  O10  1  0.95408000  0.60542000  0.73772000  1.0 -0.4636728402
O  O11  1  0.75068000  0.55630000  0.64109000  1.0 -0.4929366048
O  O12  1  0.82842000  0.45370000  0.60008000  1.0 -0.2076406117
O  O13  1  0.39713000  0.85671000  0.32712000  1.0 -0.4723026092
O  O14  1  0.42959000  0.61823000  0.42156000  1.0 -0.5062477525
O  O15  1  0.52765000  0.57539000  0.35196000  1.0 -0.2284616913
O  O16  1  0.39458000  0.04592000  0.23772000  1.0 -0.4636728402
O  O17  1  0.44370000  0.24932000  0.14109000  1.0 -0.4929366048
O  O18  1  0.54630000  0.17158000  0.10008000  1.0 -0.2076406117
O  O19  1  0.85671000  0.39713000  0.17288000  1.0 -0.4723026092
O  O20  1  0.61823000  0.42959000  0.07844000  1.0 -0.5062477525
O  O21  1  0.57539000  0.52765000  0.14804000  1.0 -0.2284616913
O  O22  1  0.04592000  0.39458000  0.26228000  1.0 -0.4636728402
O  O23  1  0.24932000  0.44370000  0.35891000  1.0 -0.4929366048
O  O24  1  0.17158000  0.54630000  0.39992000  1.0 -0.2076406117
O  O25  1  0.01898000  0.69606000  0.25783000  1.0 -0.3967932846
O  O26  1  0.69606000  0.01898000  0.24217000  1.0 -0.3967932846
O  O27  1  0.98102000  0.30394000  0.74217000  1.0 -0.3967932846
O  O28  1  0.30394000  0.98102000  0.75783000  1.0 -0.3967932846
