# DDEC6 charges by PACMAN v1.1 (https://github.com/mtap-research/PACMAN-charge/)
data_GOSBIB_FSR_pacman
_symmetry_space_group_name_H-M   'P 1'
_cell_length_a   14.78710000
_cell_length_b   25.53600000
_cell_length_c   29.64320000
_cell_angle_alpha   90.00000000
_cell_angle_beta   115.61600000
_cell_angle_gamma   90.00000000
_symmetry_Int_Tables_number   1
_chemical_formula_structural   CuPH18W9C18N9O32
_chemical_formula_sum   'Cu8 P8 H144 W72 C144 N72 O256'
_cell_volume   10093.19656474
_cell_formula_units_Z   8
loop_
 _symmetry_equiv_pos_site_id
 _symmetry_equiv_pos_as_xyz
  1  'x, y, z'
loop_
 _atom_site_type_symbol
 _atom_site_label
 _atom_site_symmetry_multiplicity
 _atom_site_fract_x
 _atom_site_fract_y
 _atom_site_fract_z
 _atom_site_occupancy
 _atom_site_charge
Cu  Cu1  1  0.99556000  0.28190000  0.25581000  1.0 0.7734191887
Cu  Cu2  1  0.00444000  0.78190000  0.24419000  1.0 0.7734191887
Cu  Cu3  1  0.00444000  0.71810000  0.74419000  1.0 0.7734191887
Cu  Cu4  1  0.99556000  0.21810000  0.75581000  1.0 0.7734191887
Cu  Cu5  1  0.81304000  0.47713000  0.56143000  1.0 1.0064216129
Cu  Cu6  1  0.18696000  0.97713000  0.93857000  1.0 1.0064216129
Cu  Cu7  1  0.18696000  0.52287000  0.43857000  1.0 1.0064216129
Cu  Cu8  1  0.81304000  0.02287000  0.06143000  1.0 1.0064216129
P  P1  1  0.53320000  0.25673000  0.55286000  1.0 1.4191881887
P  P2  1  0.46680000  0.75673000  0.94714000  1.0 1.4191881887
P  P3  1  0.46680000  0.74327000  0.44714000  1.0 1.4191881887
P  P4  1  0.53320000  0.24327000  0.05286000  1.0 1.4191881887
P  P5  1  0.25160000  0.24903000  0.53260000  1.0 1.4291129581
P  P6  1  0.74840000  0.74903000  0.96740000  1.0 1.4291129581
P  P7  1  0.74840000  0.75097000  0.46740000  1.0 1.4291129581
P  P8  1  0.25160000  0.25097000  0.03260000  1.0 1.4291129581
H  H1  1  0.01070000  0.23430000  0.15610000  1.0 0.1411054161
H  H2  1  0.98930000  0.73430000  0.34390000  1.0 0.1411054161
H  H3  1  0.98930000  0.76570000  0.84390000  1.0 0.1411054161
H  H4  1  0.01070000  0.26570000  0.65610000  1.0 0.1411054161
H  H5  1  0.19260000  0.21460000  0.29600000  1.0 0.158282338
H  H6  1  0.80740000  0.71460000  0.20400000  1.0 0.158282338
H  H7  1  0.80740000  0.78540000  0.70400000  1.0 0.158282338
H  H8  1  0.19260000  0.28540000  0.79600000  1.0 0.158282338
H  H9  1  0.27590000  0.12380000  0.22480000  1.0 0.158282338
H  H10  1  0.72410000  0.62380000  0.27520000  1.0 0.158282338
H  H11  1  0.72410000  0.87620000  0.77520000  1.0 0.158282338
H  H12  1  0.27590000  0.37620000  0.72480000  1.0 0.158282338
H  H13  1  0.32960000  0.15440000  0.27550000  1.0 0.158282338
H  H14  1  0.67040000  0.65440000  0.22450000  1.0 0.158282338
H  H15  1  0.67040000  0.84560000  0.72450000  1.0 0.158282338
H  H16  1  0.32960000  0.34560000  0.77550000  1.0 0.158282338
H  H17  1  0.09140000  0.08840000  0.23110000  1.0 0.1210900148
H  H18  1  0.90860000  0.58840000  0.26890000  1.0 0.1210900148
H  H19  1  0.90860000  0.91160000  0.76890000  1.0 0.1210900148
H  H20  1  0.09140000  0.41160000  0.73110000  1.0 0.1210900148
H  H21  1  0.17470000  0.98900000  0.34650000  1.0 0.1320330254
H  H22  1  0.82530000  0.48900000  0.15350000  1.0 0.1320330254
H  H23  1  0.82530000  0.01100000  0.65350000  1.0 0.1320330254
H  H24  1  0.17470000  0.51100000  0.84650000  1.0 0.1320330254
H  H25  1  0.33370000  0.02370000  0.37940000  1.0 0.1411054161
H  H26  1  0.66630000  0.52370000  0.12060000  1.0 0.1411054161
H  H27  1  0.66630000  0.97630000  0.62060000  1.0 0.1411054161
H  H28  1  0.33370000  0.47630000  0.87940000  1.0 0.1411054161
H  H29  1  0.37560000  0.09060000  0.33830000  1.0 0.1411054161
H  H30  1  0.62440000  0.59060000  0.16170000  1.0 0.1411054161
H  H31  1  0.62440000  0.90940000  0.66170000  1.0 0.1411054161
H  H32  1  0.37560000  0.40940000  0.83830000  1.0 0.1411054161
H  H33  1  0.01150000  0.98430000  0.28610000  1.0 0.1320330254
H  H34  1  0.98850000  0.48430000  0.21390000  1.0 0.1320330254
H  H35  1  0.98850000  0.01570000  0.71390000  1.0 0.1320330254
H  H36  1  0.01150000  0.51570000  0.78610000  1.0 0.1320330254
H  H37  1  0.97100000  0.04170000  0.27260000  1.0 0.1320330254
H  H38  1  0.02900000  0.54170000  0.22740000  1.0 0.1320330254
H  H39  1  0.02900000  0.95830000  0.72740000  1.0 0.1320330254
H  H40  1  0.97100000  0.45830000  0.77260000  1.0 0.1320330254
H  H41  1  0.96800000  0.93960000  0.12750000  1.0 0.1320330254
H  H42  1  0.03200000  0.43960000  0.37250000  1.0 0.1320330254
H  H43  1  0.03200000  0.06040000  0.87250000  1.0 0.1320330254
H  H44  1  0.96800000  0.56040000  0.62750000  1.0 0.1320330254
H  H45  1  0.86390000  0.05540000  0.17500000  1.0 0.1411054161
H  H46  1  0.13610000  0.55540000  0.32500000  1.0 0.1411054161
H  H47  1  0.13610000  0.94460000  0.82500000  1.0 0.1411054161
H  H48  1  0.86390000  0.44460000  0.67500000  1.0 0.1411054161
H  H49  1  0.82790000  0.36830000  0.21480000  1.0 0.1411054161
H  H50  1  0.17210000  0.86830000  0.28520000  1.0 0.1411054161
H  H51  1  0.17210000  0.63170000  0.78520000  1.0 0.1411054161
H  H52  1  0.82790000  0.13170000  0.71480000  1.0 0.1411054161
H  H53  1  0.94660000  0.31480000  0.35020000  1.0 0.1411054161
H  H54  1  0.05340000  0.81480000  0.14980000  1.0 0.1411054161
H  H55  1  0.05340000  0.68520000  0.64980000  1.0 0.1411054161
H  H56  1  0.94660000  0.18520000  0.85020000  1.0 0.1411054161
H  H57  1  0.78440000  0.46700000  0.28070000  1.0 0.1411054161
H  H58  1  0.21560000  0.96700000  0.21930000  1.0 0.1411054161
H  H59  1  0.21560000  0.53300000  0.71930000  1.0 0.1411054161
H  H60  1  0.78440000  0.03300000  0.78070000  1.0 0.1411054161
H  H61  1  0.72320000  0.44450000  0.22680000  1.0 0.1500055144
H  H62  1  0.27680000  0.94450000  0.27320000  1.0 0.1500055144
H  H63  1  0.27680000  0.55550000  0.77320000  1.0 0.1500055144
H  H64  1  0.72320000  0.05550000  0.72680000  1.0 0.1500055144
H  H65  1  0.70230000  0.48000000  0.33110000  1.0 0.1411054161
H  H66  1  0.29770000  0.98000000  0.16890000  1.0 0.1411054161
H  H67  1  0.29770000  0.52000000  0.66890000  1.0 0.1411054161
H  H68  1  0.70230000  0.02000000  0.83110000  1.0 0.1411054161
H  H69  1  0.42850000  0.41880000  0.29390000  1.0 0.1320330254
H  H70  1  0.57150000  0.91880000  0.20610000  1.0 0.1320330254
H  H71  1  0.57150000  0.58120000  0.70610000  1.0 0.1320330254
H  H72  1  0.42850000  0.08120000  0.79390000  1.0 0.1320330254
H  H73  1  0.43510000  0.37780000  0.22710000  1.0 0.1320330254
H  H74  1  0.56490000  0.87780000  0.27290000  1.0 0.1320330254
H  H75  1  0.56490000  0.62220000  0.77290000  1.0 0.1320330254
H  H76  1  0.43510000  0.12220000  0.72710000  1.0 0.1320330254
H  H77  1  0.57500000  0.38390000  0.21200000  1.0 0.1320330254
H  H78  1  0.42500000  0.88390000  0.28800000  1.0 0.1320330254
H  H79  1  0.42500000  0.61610000  0.78800000  1.0 0.1320330254
H  H80  1  0.57500000  0.11610000  0.71200000  1.0 0.1320330254
H  H81  1  0.49130000  0.47710000  0.36140000  1.0 0.158282338
H  H82  1  0.50870000  0.97710000  0.13860000  1.0 0.158282338
H  H83  1  0.50870000  0.52290000  0.63860000  1.0 0.158282338
H  H84  1  0.49130000  0.02290000  0.86140000  1.0 0.158282338
H  H85  1  0.56760000  0.51880000  0.35940000  1.0 0.1500055144
H  H86  1  0.43240000  0.01880000  0.14060000  1.0 0.1500055144
H  H87  1  0.43240000  0.48120000  0.64060000  1.0 0.1500055144
H  H88  1  0.56760000  0.98120000  0.85940000  1.0 0.1500055144
H  H89  1  0.65890000  0.52410000  0.45790000  1.0 0.1500055144
H  H90  1  0.34110000  0.02410000  0.04210000  1.0 0.1500055144
H  H91  1  0.34110000  0.47590000  0.54210000  1.0 0.1500055144
H  H92  1  0.65890000  0.97590000  0.95790000  1.0 0.1500055144
H  H93  1  0.76900000  0.38250000  0.48270000  1.0 0.1411054161
H  H94  1  0.23100000  0.88250000  0.01730000  1.0 0.1500055144
H  H95  1  0.23100000  0.61750000  0.51730000  1.0 0.1411054161
H  H96  1  0.76900000  0.11750000  0.98270000  1.0 0.1411054161
H  H97  1  0.93910000  0.84780000  0.31500000  1.0 0.158282338
H  H98  1  0.06090000  0.34780000  0.18500000  1.0 0.158282338
H  H99  1  0.06090000  0.15220000  0.68500000  1.0 0.158282338
H  H100  1  0.93910000  0.65220000  0.81500000  1.0 0.158282338
H  H101  1  0.84580000  0.87120000  0.17360000  1.0 0.1320330254
H  H102  1  0.15420000  0.37120000  0.32640000  1.0 0.1320330254
H  H103  1  0.15420000  0.12880000  0.82640000  1.0 0.1320330254
H  H104  1  0.84580000  0.62880000  0.67360000  1.0 0.1320330254
H  H105  1  0.71960000  0.92770000  0.28020000  1.0 0.1411054161
H  H106  1  0.28040000  0.42770000  0.21980000  1.0 0.1411054161
H  H107  1  0.28040000  0.07230000  0.71980000  1.0 0.1411054161
H  H108  1  0.71960000  0.57230000  0.78020000  1.0 0.1411054161
H  H109  1  0.79970000  0.89990000  0.32790000  1.0 0.1500055144
H  H110  1  0.20030000  0.39990000  0.17210000  1.0 0.1500055144
H  H111  1  0.20030000  0.10010000  0.67210000  1.0 0.1500055144
H  H112  1  0.79970000  0.60010000  0.82790000  1.0 0.1500055144
H  H113  1  0.96250000  0.94530000  0.37530000  1.0 0.1411054161
H  H114  1  0.03750000  0.44530000  0.12470000  1.0 0.1411054161
H  H115  1  0.03750000  0.05470000  0.62470000  1.0 0.1411054161
H  H116  1  0.96250000  0.55470000  0.87530000  1.0 0.1411054161
H  H117  1  0.04050000  0.02360000  0.40640000  1.0 0.1411054161
H  H118  1  0.95950000  0.52360000  0.09360000  1.0 0.1411054161
H  H119  1  0.95950000  0.97640000  0.59360000  1.0 0.1411054161
H  H120  1  0.04050000  0.47640000  0.90640000  1.0 0.1411054161
H  H121  1  0.96610000  0.10160000  0.37120000  1.0 0.1411054161
H  H122  1  0.03390000  0.60160000  0.12880000  1.0 0.1411054161
H  H123  1  0.03390000  0.89840000  0.62880000  1.0 0.1411054161
H  H124  1  0.96610000  0.39840000  0.87120000  1.0 0.1411054161
H  H125  1  0.73280000  0.02220000  0.26970000  1.0 0.1411054161
H  H126  1  0.26720000  0.52220000  0.23030000  1.0 0.1411054161
H  H127  1  0.26720000  0.97780000  0.73030000  1.0 0.1411054161
H  H128  1  0.73280000  0.47780000  0.76970000  1.0 0.1411054161
H  H129  1  0.77630000  0.14020000  0.32100000  1.0 0.158282338
H  H130  1  0.22370000  0.64020000  0.17900000  1.0 0.158282338
H  H131  1  0.22370000  0.85980000  0.67900000  1.0 0.158282338
H  H132  1  0.77630000  0.35980000  0.82100000  1.0 0.158282338
H  H133  1  0.72150000  0.11230000  0.26900000  1.0 0.1500055144
H  H134  1  0.27850000  0.61230000  0.23100000  1.0 0.1500055144
H  H135  1  0.27850000  0.88770000  0.73100000  1.0 0.1500055144
H  H136  1  0.72150000  0.38770000  0.76900000  1.0 0.1500055144
H  H137  1  0.86810000  0.22230000  0.30940000  1.0 0.1411054161
H  H138  1  0.13190000  0.72230000  0.19060000  1.0 0.1411054161
H  H139  1  0.13190000  0.77770000  0.69060000  1.0 0.1411054161
H  H140  1  0.86810000  0.27770000  0.80940000  1.0 0.1411054161
H  H141  1  0.94050000  0.16800000  0.20740000  1.0 0.1210900148
H  H142  1  0.05950000  0.66800000  0.29260000  1.0 0.1210900148
H  H143  1  0.05950000  0.83200000  0.79260000  1.0 0.1210900148
H  H144  1  0.94050000  0.33200000  0.70740000  1.0 0.1210900148
W  W1  1  0.74100000  0.33766000  0.57609000  1.0 2.4202949873
W  W2  1  0.25900000  0.83766000  0.92391000  1.0 2.4202949873
W  W3  1  0.25900000  0.66234000  0.42391000  1.0 2.4202949873
W  W4  1  0.74100000  0.16234000  0.07609000  1.0 2.4202949873
W  W5  1  0.70515000  0.23297000  0.50033000  1.0 2.384119796
W  W6  1  0.29485000  0.73297000  0.99967000  1.0 2.384119796
W  W7  1  0.29485000  0.76703000  0.49967000  1.0 2.384119796
W  W8  1  0.70515000  0.26703000  0.00033000  1.0 2.384119796
W  W9  1  0.78071000  0.21613000  0.62459000  1.0 2.4288503315
W  W10  1  0.21929000  0.71613000  0.87541000  1.0 2.4288503315
W  W11  1  0.21929000  0.78387000  0.37541000  1.0 2.4288503315
W  W12  1  0.78071000  0.28387000  0.12459000  1.0 2.4288503315
W  W13  1  0.56774000  0.36440000  0.63368000  1.0 2.4410576793
W  W14  1  0.43226000  0.86440000  0.86632000  1.0 2.4410576793
W  W15  1  0.43226000  0.63560000  0.36632000  1.0 2.4410576793
W  W16  1  0.56774000  0.13560000  0.13368000  1.0 2.4410576793
W  W17  1  0.48164000  0.38116000  0.49785000  1.0 2.4410576793
W  W18  1  0.51836000  0.88116000  0.00215000  1.0 2.4410576793
W  W19  1  0.51836000  0.61884000  0.50215000  1.0 2.4410576793
W  W20  1  0.48164000  0.11884000  0.99785000  1.0 2.4410576793
W  W21  1  0.44427000  0.27707000  0.42229000  1.0 2.4487348866
W  W22  1  0.55573000  0.77707000  0.07771000  1.0 2.4410576793
W  W23  1  0.55573000  0.72293000  0.57771000  1.0 2.4410576793
W  W24  1  0.44427000  0.22293000  0.92229000  1.0 2.4410576793
W  W25  1  0.48904000  0.14531000  0.47625000  1.0 2.4487348866
W  W26  1  0.51096000  0.64531000  0.02375000  1.0 2.4410576793
W  W27  1  0.51096000  0.85469000  0.52375000  1.0 2.4410576793
W  W28  1  0.48904000  0.35469000  0.97625000  1.0 2.4487348866
W  W29  1  0.56571000  0.12811000  0.59978000  1.0 2.4487348866
W  W30  1  0.43429000  0.62811000  0.90022000  1.0 2.4487348866
W  W31  1  0.43429000  0.87189000  0.40022000  1.0 2.4487348866
W  W32  1  0.56571000  0.37189000  0.09978000  1.0 2.4487348866
W  W33  1  0.60645000  0.24292000  0.68165000  1.0 2.4410576793
W  W34  1  0.39355000  0.74292000  0.81835000  1.0 2.4410576793
W  W35  1  0.39355000  0.75708000  0.31835000  1.0 2.4410576793
W  W36  1  0.60645000  0.25708000  0.18165000  1.0 2.4410576793
W  W37  1  0.29853000  0.35659000  0.61321000  1.0 2.4410576793
W  W38  1  0.70147000  0.85659000  0.88679000  1.0 2.4410576793
W  W39  1  0.70147000  0.64341000  0.38679000  1.0 2.4410576793
W  W40  1  0.29853000  0.14341000  0.11321000  1.0 2.4487348866
W  W41  1  0.21310000  0.37306000  0.47780000  1.0 2.4674959055
W  W42  1  0.78690000  0.87306000  0.02220000  1.0 2.4674959055
W  W43  1  0.78690000  0.62694000  0.52220000  1.0 2.4674959055
W  W44  1  0.21310000  0.12694000  0.97780000  1.0 2.4674959055
W  W45  1  0.17801000  0.26836000  0.40421000  1.0 2.4288503315
W  W46  1  0.82199000  0.76836000  0.09579000  1.0 2.4288503315
W  W47  1  0.82199000  0.73164000  0.59579000  1.0 2.4288503315
W  W48  1  0.17801000  0.23164000  0.90421000  1.0 2.4288503315
W  W49  1  0.22319000  0.13605000  0.45881000  1.0 2.4487348866
W  W50  1  0.77681000  0.63605000  0.04119000  1.0 2.4487348866
W  W51  1  0.77681000  0.86395000  0.54119000  1.0 2.4487348866
W  W52  1  0.22319000  0.36395000  0.95881000  1.0 2.4487348866
W  W53  1  0.29965000  0.12124000  0.58264000  1.0 2.4615094535
W  W54  1  0.70035000  0.62124000  0.91736000  1.0 2.4615094535
W  W55  1  0.70035000  0.87876000  0.41736000  1.0 2.4615094535
W  W56  1  0.29965000  0.37876000  0.08264000  1.0 2.4615094535
W  W57  1  0.33792000  0.23600000  0.66337000  1.0 2.4410576793
W  W58  1  0.66208000  0.73600000  0.83663000  1.0 2.4410576793
W  W59  1  0.66208000  0.76400000  0.33663000  1.0 2.4410576793
W  W60  1  0.33792000  0.26400000  0.16337000  1.0 2.4410576793
W  W61  1  0.03903000  0.31785000  0.52565000  1.0 2.4288503315
W  W62  1  0.96097000  0.81785000  0.97435000  1.0 2.4202949873
W  W63  1  0.96097000  0.68215000  0.47435000  1.0 2.4202949873
W  W64  1  0.03903000  0.18215000  0.02565000  1.0 2.4288503315
W  W65  1  0.00352000  0.21263000  0.45076000  1.0 2.4288503315
W  W66  1  0.99648000  0.71263000  0.04924000  1.0 2.4288503315
W  W67  1  0.99648000  0.78737000  0.54924000  1.0 2.4288503315
W  W68  1  0.00352000  0.28737000  0.95076000  1.0 2.4288503315
W  W69  1  0.07998000  0.19694000  0.57511000  1.0 2.4202949873
W  W70  1  0.92002000  0.69694000  0.92489000  1.0 2.4202949873
W  W71  1  0.92002000  0.80306000  0.42489000  1.0 2.4202949873
W  W72  1  0.07998000  0.30306000  0.07511000  1.0 2.4202949873
C  C1  1  0.06120000  0.22120000  0.18540000  1.0 0.1500055144
C  C2  1  0.93880000  0.72120000  0.31460000  1.0 0.1500055144
C  C3  1  0.93880000  0.77880000  0.81460000  1.0 0.1500055144
C  C4  1  0.06120000  0.27880000  0.68540000  1.0 0.1500055144
C  C5  1  0.16050000  0.21130000  0.26140000  1.0 0.0824346918
C  C6  1  0.83950000  0.71130000  0.23860000  1.0 0.0824346918
C  C7  1  0.83950000  0.78870000  0.73860000  1.0 0.0824346918
C  C8  1  0.16050000  0.28870000  0.76140000  1.0 0.0824346918
C  C9  1  0.26680000  0.13850000  0.25270000  1.0 -0.1798012961
C  C10  1  0.73320000  0.63850000  0.24730000  1.0 -0.1798012961
C  C11  1  0.73320000  0.86150000  0.74730000  1.0 -0.1798012961
C  C12  1  0.26680000  0.36150000  0.75270000  1.0 -0.1798012961
C  C13  1  0.23830000  0.09440000  0.28000000  1.0 0.1210900148
C  C14  1  0.76170000  0.59440000  0.22000000  1.0 0.1210900148
C  C15  1  0.76170000  0.90560000  0.72000000  1.0 0.1210900148
C  C16  1  0.23830000  0.40560000  0.78000000  1.0 0.1210900148
C  C17  1  0.14060000  0.07490000  0.26060000  1.0 -0.2269628529
C  C18  1  0.85940000  0.57490000  0.23940000  1.0 -0.2269628529
C  C19  1  0.85940000  0.92510000  0.73940000  1.0 -0.2269628529
C  C20  1  0.14060000  0.42510000  0.76060000  1.0 -0.2269628529
C  C21  1  0.11760000  0.03500000  0.28610000  1.0 0.1120024606
C  C22  1  0.88240000  0.53500000  0.21390000  1.0 0.1120024606
C  C23  1  0.88240000  0.96500000  0.71390000  1.0 0.1120024606
C  C24  1  0.11760000  0.46500000  0.78610000  1.0 0.1120024606
C  C25  1  0.18990000  0.01600000  0.32980000  1.0 -0.1427338996
C  C26  1  0.81010000  0.51600000  0.17020000  1.0 -0.1427338996
C  C27  1  0.81010000  0.98400000  0.67020000  1.0 -0.1427338996
C  C28  1  0.18990000  0.48400000  0.82980000  1.0 -0.1427338996
C  C29  1  0.28540000  0.03660000  0.34930000  1.0 -0.0131718608
C  C30  1  0.71460000  0.53660000  0.15070000  1.0 -0.0131718608
C  C31  1  0.71460000  0.96340000  0.65070000  1.0 -0.0131718608
C  C32  1  0.28540000  0.46340000  0.84930000  1.0 -0.0131718608
C  C33  1  0.31120000  0.07650000  0.32480000  1.0 -0.149615483
C  C34  1  0.68880000  0.57650000  0.17520000  1.0 -0.149615483
C  C35  1  0.68880000  0.92350000  0.67520000  1.0 -0.149615483
C  C36  1  0.31120000  0.42350000  0.82480000  1.0 -0.149615483
C  C37  1  0.01230000  0.01520000  0.26720000  1.0 -0.1896737587
C  C38  1  0.98770000  0.51520000  0.23280000  1.0 -0.1896737587
C  C39  1  0.98770000  0.98480000  0.73280000  1.0 -0.1896737587
C  C40  1  0.01230000  0.48480000  0.76720000  1.0 -0.1896737587
C  C41  1  0.95790000  0.96320000  0.14880000  1.0 0.158282338
C  C42  1  0.04210000  0.46320000  0.35120000  1.0 0.158282338
C  C43  1  0.04210000  0.03680000  0.85120000  1.0 0.158282338
C  C44  1  0.95790000  0.53680000  0.64880000  1.0 0.158282338
C  C45  1  0.90000000  0.02610000  0.17360000  1.0 0.1120024606
C  C46  1  0.10000000  0.52610000  0.32640000  1.0 0.1120024606
C  C47  1  0.10000000  0.97390000  0.82640000  1.0 0.1120024606
C  C48  1  0.90000000  0.47390000  0.67360000  1.0 0.1120024606
C  C49  1  0.84510000  0.36300000  0.24850000  1.0 0.1120024606
C  C50  1  0.15490000  0.86300000  0.25150000  1.0 0.1120024606
C  C51  1  0.15490000  0.63700000  0.75150000  1.0 0.1120024606
C  C52  1  0.84510000  0.13700000  0.74850000  1.0 0.1120024606
C  C53  1  0.90840000  0.33500000  0.32240000  1.0 0.1734573912
C  C54  1  0.09160000  0.83500000  0.17760000  1.0 0.1734573912
C  C55  1  0.09160000  0.66500000  0.67760000  1.0 0.1734573912
C  C56  1  0.90840000  0.16500000  0.82240000  1.0 0.1734573912
C  C57  1  0.74510000  0.43730000  0.26210000  1.0 -0.1735104803
C  C58  1  0.25490000  0.93730000  0.23790000  1.0 -0.1735104803
C  C59  1  0.25490000  0.56270000  0.73790000  1.0 -0.1735104803
C  C60  1  0.74510000  0.06270000  0.76210000  1.0 -0.1735104803
C  C61  1  0.65560000  0.43160000  0.27230000  1.0 0.1320330254
C  C62  1  0.34440000  0.93160000  0.22770000  1.0 0.1320330254
C  C63  1  0.34440000  0.56840000  0.72770000  1.0 0.1320330254
C  C64  1  0.65560000  0.06840000  0.77230000  1.0 0.1320330254
C  C65  1  0.65000000  0.45820000  0.31090000  1.0 -0.1896737587
C  C66  1  0.35000000  0.95820000  0.18910000  1.0 -0.1896737587
C  C67  1  0.35000000  0.54180000  0.68910000  1.0 -0.1896737587
C  C68  1  0.65000000  0.04180000  0.81090000  1.0 -0.1896737587
C  C69  1  0.56380000  0.45240000  0.32010000  1.0 0.1320330254
C  C70  1  0.43620000  0.95240000  0.17990000  1.0 0.1320330254
C  C71  1  0.43620000  0.54760000  0.67990000  1.0 0.1320330254
C  C72  1  0.56380000  0.04760000  0.82010000  1.0 0.1320330254
C  C73  1  0.48540000  0.42230000  0.28830000  1.0 -0.1427338996
C  C74  1  0.51460000  0.92230000  0.21170000  1.0 -0.1427338996
C  C75  1  0.51460000  0.57770000  0.71170000  1.0 -0.1427338996
C  C76  1  0.48540000  0.07770000  0.78830000  1.0 -0.1427338996
C  C77  1  0.48970000  0.39750000  0.24840000  1.0 -0.060348997
C  C78  1  0.51030000  0.89750000  0.25160000  1.0 -0.060348997
C  C79  1  0.51030000  0.60250000  0.75160000  1.0 -0.060348997
C  C80  1  0.48970000  0.10250000  0.74840000  1.0 -0.060348997
C  C81  1  0.57280000  0.40100000  0.23910000  1.0 -0.1259938904
C  C82  1  0.42720000  0.90100000  0.26090000  1.0 -0.1259938904
C  C83  1  0.42720000  0.59900000  0.76090000  1.0 -0.1259938904
C  C84  1  0.57280000  0.09900000  0.73910000  1.0 -0.1259938904
C  C85  1  0.55750000  0.48170000  0.36270000  1.0 -0.1896737587
C  C86  1  0.44250000  0.98170000  0.13730000  1.0 -0.1896737587
C  C87  1  0.44250000  0.51830000  0.63730000  1.0 -0.1896737587
C  C88  1  0.55750000  0.01830000  0.86270000  1.0 -0.1896737587
C  C89  1  0.67330000  0.48940000  0.45410000  1.0 0.1210900148
C  C90  1  0.32670000  0.98940000  0.04590000  1.0 0.1210900148
C  C91  1  0.32670000  0.51060000  0.54590000  1.0 0.1210900148
C  C92  1  0.67330000  0.01060000  0.95410000  1.0 0.1210900148
C  C93  1  0.73250000  0.41200000  0.46660000  1.0 0.1734573912
C  C94  1  0.26750000  0.91200000  0.03340000  1.0 0.1734573912
C  C95  1  0.26750000  0.58800000  0.53340000  1.0 0.1734573912
C  C96  1  0.73250000  0.08800000  0.96660000  1.0 0.1734573912
C  C97  1  0.90460000  0.86040000  0.28260000  1.0 0.1120024606
C  C98  1  0.09540000  0.36040000  0.21740000  1.0 0.1120024606
C  C99  1  0.09540000  0.13960000  0.71740000  1.0 0.1120024606
C  C100  1  0.90460000  0.63960000  0.78260000  1.0 0.1120024606
C  C101  1  0.85360000  0.87380000  0.20640000  1.0 0.1814919099
C  C102  1  0.14640000  0.37380000  0.29360000  1.0 0.1814919099
C  C103  1  0.14640000  0.12620000  0.79360000  1.0 0.1814919099
C  C104  1  0.85360000  0.62620000  0.70640000  1.0 0.1814919099
C  C105  1  0.79100000  0.92250000  0.30000000  1.0 -0.1798012961
C  C106  1  0.20900000  0.42250000  0.20000000  1.0 -0.1798012961
C  C107  1  0.20900000  0.07750000  0.70000000  1.0 -0.1798012961
C  C108  1  0.79100000  0.57750000  0.80000000  1.0 -0.1798012961
C  C109  1  0.84040000  0.97560000  0.32030000  1.0 0.1210900148
C  C110  1  0.15960000  0.47560000  0.17970000  1.0 0.1210900148
C  C111  1  0.15960000  0.02440000  0.67970000  1.0 0.1210900148
C  C112  1  0.84040000  0.52440000  0.82030000  1.0 0.1210900148
C  C113  1  0.93150000  0.97650000  0.36050000  1.0 -0.1570929863
C  C114  1  0.06850000  0.47650000  0.13950000  1.0 -0.1570929863
C  C115  1  0.06850000  0.02350000  0.63950000  1.0 -0.1570929863
C  C116  1  0.93150000  0.52350000  0.86050000  1.0 -0.1570929863
C  C117  1  0.97770000  0.02340000  0.37910000  1.0 -0.060348997
C  C118  1  0.02230000  0.52340000  0.12090000  1.0 -0.060348997
C  C119  1  0.02230000  0.97660000  0.62090000  1.0 -0.060348997
C  C120  1  0.97770000  0.47660000  0.87910000  1.0 -0.060348997
C  C121  1  0.93330000  0.07020000  0.35840000  1.0 -0.1427338996
C  C122  1  0.06670000  0.57020000  0.14160000  1.0 -0.1427338996
C  C123  1  0.06670000  0.92980000  0.64160000  1.0 -0.1427338996
C  C124  1  0.93330000  0.42980000  0.85840000  1.0 -0.1427338996
C  C125  1  0.83940000  0.07020000  0.31830000  1.0 0.1120024606
C  C126  1  0.16060000  0.57020000  0.18170000  1.0 0.1120024606
C  C127  1  0.16060000  0.92980000  0.68170000  1.0 0.1120024606
C  C128  1  0.83940000  0.42980000  0.81830000  1.0 0.1120024606
C  C129  1  0.79390000  0.02270000  0.29800000  1.0 -0.2005385772
C  C130  1  0.20610000  0.52270000  0.20200000  1.0 -0.2005385772
C  C131  1  0.20610000  0.97730000  0.70200000  1.0 -0.2005385772
C  C132  1  0.79390000  0.47730000  0.79800000  1.0 -0.2005385772
C  C133  1  0.78670000  0.12020000  0.29580000  1.0 -0.1735104803
C  C134  1  0.21330000  0.62020000  0.20420000  1.0 -0.1735104803
C  C135  1  0.21330000  0.87980000  0.70420000  1.0 -0.1735104803
C  C136  1  0.78670000  0.37980000  0.79580000  1.0 -0.1735104803
C  C137  1  0.87580000  0.20100000  0.28580000  1.0 0.1210900148
C  C138  1  0.12420000  0.70100000  0.21420000  1.0 0.1210900148
C  C139  1  0.12420000  0.79900000  0.71420000  1.0 0.1210900148
C  C140  1  0.87580000  0.29900000  0.78580000  1.0 0.1210900148
C  C141  1  0.91380000  0.17050000  0.23050000  1.0 0.1500055144
C  C142  1  0.08620000  0.67050000  0.26950000  1.0 0.1500055144
C  C143  1  0.08620000  0.82950000  0.76950000  1.0 0.1500055144
C  C144  1  0.91380000  0.32950000  0.73050000  1.0 0.1500055144
N  N1  1  0.07970000  0.23900000  0.23090000  1.0 -0.3043853619
N  N2  1  0.92030000  0.73900000  0.26910000  1.0 -0.3043853619
N  N3  1  0.92030000  0.76100000  0.76910000  1.0 -0.3043853619
N  N4  1  0.07970000  0.26100000  0.73090000  1.0 -0.3043853619
N  N5  1  0.18770000  0.17850000  0.23440000  1.0 0.1878131091
N  N6  1  0.81230000  0.67850000  0.26560000  1.0 0.1878131091
N  N7  1  0.81230000  0.82150000  0.76560000  1.0 0.1878131091
N  N8  1  0.18770000  0.32150000  0.73440000  1.0 0.1878131091
N  N9  1  0.12260000  0.18270000  0.18630000  1.0 -0.1896737587
N  N10  1  0.87740000  0.68270000  0.31370000  1.0 -0.1896737587
N  N11  1  0.87740000  0.81730000  0.81370000  1.0 -0.1896737587
N  N12  1  0.12260000  0.31730000  0.68630000  1.0 -0.1896737587
N  N13  1  0.88960000  0.00240000  0.13200000  1.0 -0.2679735848
N  N14  1  0.11040000  0.50240000  0.36800000  1.0 -0.2679735848
N  N15  1  0.11040000  0.99760000  0.86800000  1.0 -0.2679735848
N  N16  1  0.88960000  0.49760000  0.63200000  1.0 -0.2679735848
N  N17  1  0.96960000  0.00200000  0.21350000  1.0 0.1500055144
N  N18  1  0.03040000  0.50200000  0.28650000  1.0 0.1500055144
N  N19  1  0.03040000  0.99800000  0.78650000  1.0 0.1500055144
N  N20  1  0.96960000  0.49800000  0.71350000  1.0 0.1500055144
N  N21  1  0.00850000  0.96130000  0.19730000  1.0 -0.2486344169
N  N22  1  0.99150000  0.46130000  0.30270000  1.0 -0.2486344169
N  N23  1  0.99150000  0.03870000  0.80270000  1.0 -0.2486344169
N  N24  1  0.00850000  0.53870000  0.69730000  1.0 -0.2486344169
N  N25  1  0.90850000  0.32760000  0.27690000  1.0 -0.3043853619
N  N26  1  0.09150000  0.82760000  0.22310000  1.0 -0.3043853619
N  N27  1  0.09150000  0.67240000  0.72310000  1.0 -0.3043853619
N  N28  1  0.90850000  0.17240000  0.77690000  1.0 -0.3043853619
N  N29  1  0.80920000  0.39020000  0.27570000  1.0 0.1878131091
N  N30  1  0.19080000  0.89020000  0.22430000  1.0 0.1878131091
N  N31  1  0.19080000  0.60980000  0.72430000  1.0 0.1878131091
N  N32  1  0.80920000  0.10980000  0.77570000  1.0 0.1878131091
N  N33  1  0.85070000  0.37260000  0.32360000  1.0 -0.2269628529
N  N34  1  0.14930000  0.87260000  0.17640000  1.0 -0.2269628529
N  N35  1  0.14930000  0.62740000  0.67640000  1.0 -0.2269628529
N  N36  1  0.85070000  0.12740000  0.82360000  1.0 -0.2269628529
N  N37  1  0.73650000  0.45850000  0.49040000  1.0 -0.2679735848
N  N38  1  0.26350000  0.95850000  0.00960000  1.0 -0.2679735848
N  N39  1  0.26350000  0.54150000  0.50960000  1.0 -0.2679735848
N  N40  1  0.73650000  0.04150000  0.99040000  1.0 -0.2679735848
N  N41  1  0.63460000  0.46260000  0.41170000  1.0 0.1734573912
N  N42  1  0.36540000  0.96260000  0.08830000  1.0 0.1734573912
N  N43  1  0.36540000  0.53740000  0.58830000  1.0 0.1734573912
N  N44  1  0.63460000  0.03740000  0.91170000  1.0 0.1734573912
N  N45  1  0.67240000  0.41350000  0.41920000  1.0 -0.2486344169
N  N46  1  0.32760000  0.91350000  0.08080000  1.0 -0.2486344169
N  N47  1  0.32760000  0.58650000  0.58080000  1.0 -0.2486344169
N  N48  1  0.67240000  0.08650000  0.91920000  1.0 -0.2486344169
N  N49  1  0.92010000  0.84510000  0.24380000  1.0 -0.2927168735
N  N50  1  0.07990000  0.34510000  0.25620000  1.0 -0.2927168735
N  N51  1  0.07990000  0.15490000  0.75620000  1.0 -0.2927168735
N  N52  1  0.92010000  0.65490000  0.74380000  1.0 -0.2927168735
N  N53  1  0.83350000  0.89610000  0.26860000  1.0 0.1814919099
N  N54  1  0.16650000  0.39610000  0.23140000  1.0 0.1814919099
N  N55  1  0.16650000  0.10390000  0.73140000  1.0 0.1814919099
N  N56  1  0.83350000  0.60390000  0.76860000  1.0 0.1814919099
N  N57  1  0.80060000  0.90600000  0.21980000  1.0 -0.2243415654
N  N58  1  0.19940000  0.40600000  0.28020000  1.0 -0.2243415654
N  N59  1  0.19940000  0.09400000  0.78020000  1.0 -0.2243415654
N  N60  1  0.80060000  0.59400000  0.71980000  1.0 -0.2243415654
N  N61  1  0.92060000  0.21550000  0.25680000  1.0 -0.3168667086
N  N62  1  0.07940000  0.71550000  0.24320000  1.0 -0.3168667086
N  N63  1  0.07940000  0.78450000  0.74320000  1.0 -0.3168667086
N  N64  1  0.92060000  0.28450000  0.75680000  1.0 -0.3168667086
N  N65  1  0.86780000  0.13140000  0.23970000  1.0 -0.2486344169
N  N66  1  0.13220000  0.63140000  0.26030000  1.0 -0.2486344169
N  N67  1  0.13220000  0.86860000  0.76030000  1.0 -0.2486344169
N  N68  1  0.86780000  0.36860000  0.73970000  1.0 -0.2486344169
N  N69  1  0.84460000  0.15220000  0.27590000  1.0 0.1814919099
N  N70  1  0.15540000  0.65220000  0.22410000  1.0 0.1814919099
N  N71  1  0.15540000  0.84780000  0.72410000  1.0 0.1814919099
N  N72  1  0.84460000  0.34780000  0.77590000  1.0 0.1814919099
O  O1  1  0.64630000  0.26000000  0.56110000  1.0 -0.9785867162
O  O2  1  0.35370000  0.76000000  0.93890000  1.0 -0.9785867162
O  O3  1  0.35370000  0.74000000  0.43890000  1.0 -0.9785867162
O  O4  1  0.64630000  0.24000000  0.06110000  1.0 -0.9785867162
O  O5  1  0.47220000  0.29000000  0.50690000  1.0 -0.8592602708
O  O6  1  0.52780000  0.79000000  0.99310000  1.0 -0.8592602708
O  O7  1  0.52780000  0.71000000  0.49310000  1.0 -0.8592602708
O  O8  1  0.47220000  0.21000000  0.00690000  1.0 -0.8592602708
O  O9  1  0.50260000  0.19870000  0.54360000  1.0 -0.8592602708
O  O10  1  0.49740000  0.69870000  0.95640000  1.0 -0.8592602708
O  O11  1  0.49740000  0.80130000  0.45640000  1.0 -0.8592602708
O  O12  1  0.50260000  0.30130000  0.04360000  1.0 -0.8592602708
O  O13  1  0.53130000  0.27820000  0.60020000  1.0 -0.8680512895
O  O14  1  0.46870000  0.77820000  0.89980000  1.0 -0.8680512895
O  O15  1  0.46870000  0.72180000  0.39980000  1.0 -0.8680512895
O  O16  1  0.53130000  0.22180000  0.10020000  1.0 -0.8680512895
O  O17  1  0.13810000  0.24570000  0.52420000  1.0 -0.9785867162
O  O18  1  0.86190000  0.74570000  0.97580000  1.0 -0.9785867162
O  O19  1  0.86190000  0.75430000  0.47580000  1.0 -0.9785867162
O  O20  1  0.13810000  0.25430000  0.02420000  1.0 -0.9785867162
O  O21  1  0.25140000  0.28330000  0.49150000  1.0 -0.8680512895
O  O22  1  0.74860000  0.78330000  0.00850000  1.0 -0.8680512895
O  O23  1  0.74860000  0.71670000  0.50850000  1.0 -0.8680512895
O  O24  1  0.25140000  0.21670000  0.99150000  1.0 -0.8680512895
O  O25  1  0.28480000  0.19330000  0.52870000  1.0 -0.8592602708
O  O26  1  0.71520000  0.69330000  0.97130000  1.0 -0.8592602708
O  O27  1  0.71520000  0.80670000  0.47130000  1.0 -0.8592602708
O  O28  1  0.28480000  0.30670000  0.02870000  1.0 -0.8592602708
O  O29  1  0.31190000  0.27250000  0.58440000  1.0 -0.8592602708
O  O30  1  0.68810000  0.77250000  0.91560000  1.0 -0.8592602708
O  O31  1  0.68810000  0.72750000  0.41560000  1.0 -0.8592602708
O  O32  1  0.31190000  0.22750000  0.08440000  1.0 -0.8592602708
O  O33  1  0.76170000  0.29940000  0.52480000  1.0 -0.8512765334
O  O34  1  0.23830000  0.79940000  0.97520000  1.0 -0.8512765334
O  O35  1  0.23830000  0.70060000  0.47520000  1.0 -0.8512765334
O  O36  1  0.76170000  0.20060000  0.02480000  1.0 -0.8512765334
O  O37  1  0.82480000  0.28690000  0.62180000  1.0 -0.8592602708
O  O38  1  0.17520000  0.78690000  0.87820000  1.0 -0.8592602708
O  O39  1  0.17520000  0.71310000  0.37820000  1.0 -0.8592602708
O  O40  1  0.82480000  0.21310000  0.12180000  1.0 -0.8592602708
O  O41  1  0.68280000  0.35360000  0.62010000  1.0 -0.8786518194
O  O42  1  0.31720000  0.85360000  0.87990000  1.0 -0.8786518194
O  O43  1  0.31720000  0.64640000  0.37990000  1.0 -0.8786518194
O  O44  1  0.68280000  0.14640000  0.12010000  1.0 -0.8786518194
O  O45  1  0.62140000  0.36460000  0.52450000  1.0 -0.8786518194
O  O46  1  0.37860000  0.86460000  0.97550000  1.0 -0.8786518194
O  O47  1  0.37860000  0.63540000  0.47550000  1.0 -0.8786518194
O  O48  1  0.62140000  0.13540000  0.02450000  1.0 -0.8786518194
O  O49  1  0.82220000  0.38910000  0.58640000  1.0 -0.7004241474
O  O50  1  0.17780000  0.88910000  0.91360000  1.0 -0.7004241474
O  O51  1  0.17780000  0.61090000  0.41360000  1.0 -0.7004241474
O  O52  1  0.82220000  0.11090000  0.08640000  1.0 -0.6946850546
O  O53  1  0.79500000  0.20420000  0.56370000  1.0 -0.8592602708
O  O54  1  0.20500000  0.70420000  0.93630000  1.0 -0.8592602708
O  O55  1  0.20500000  0.79580000  0.43630000  1.0 -0.8592602708
O  O56  1  0.79500000  0.29580000  0.06370000  1.0 -0.8592602708
O  O57  1  0.61820000  0.17420000  0.49190000  1.0 -0.9202434548
O  O58  1  0.38180000  0.67420000  0.00810000  1.0 -0.9202434548
O  O59  1  0.38180000  0.82580000  0.50810000  1.0 -0.9202434548
O  O60  1  0.61820000  0.32580000  0.99190000  1.0 -0.9202434548
O  O61  1  0.58640000  0.26640000  0.45300000  1.0 -0.900907857
O  O62  1  0.41360000  0.76640000  0.04700000  1.0 -0.900907857
O  O63  1  0.41360000  0.73360000  0.54700000  1.0 -0.900907857
O  O64  1  0.58640000  0.23360000  0.95300000  1.0 -0.900907857
O  O65  1  0.76200000  0.21640000  0.46420000  1.0 -0.556417925
O  O66  1  0.23800000  0.71640000  0.03580000  1.0 -0.556417925
O  O67  1  0.23800000  0.78360000  0.53580000  1.0 -0.556417925
O  O68  1  0.76200000  0.28360000  0.96420000  1.0 -0.556417925
O  O69  1  0.69440000  0.15810000  0.60950000  1.0 -0.894503323
O  O70  1  0.30560000  0.65810000  0.89050000  1.0 -0.894503323
O  O71  1  0.30560000  0.84190000  0.39050000  1.0 -0.894503323
O  O72  1  0.69440000  0.34190000  0.10950000  1.0 -0.894503323
O  O73  1  0.72000000  0.24010000  0.66500000  1.0 -0.9086792149
O  O74  1  0.28000000  0.74010000  0.83500000  1.0 -0.9086792149
O  O75  1  0.28000000  0.75990000  0.33500000  1.0 -0.9086792149
O  O76  1  0.72000000  0.25990000  0.16500000  1.0 -0.9086792149
O  O77  1  0.89170000  0.19050000  0.66920000  1.0 -0.7488217853
O  O78  1  0.10830000  0.69050000  0.83080000  1.0 -0.7488217853
O  O79  1  0.10830000  0.80950000  0.33080000  1.0 -0.7488217853
O  O80  1  0.89170000  0.30950000  0.16920000  1.0 -0.7488217853
O  O81  1  0.50110000  0.38490000  0.56490000  1.0 -0.8592602708
O  O82  1  0.49890000  0.88490000  0.93510000  1.0 -0.8592602708
O  O83  1  0.49890000  0.61510000  0.43510000  1.0 -0.8592602708
O  O84  1  0.50110000  0.11510000  0.06490000  1.0 -0.8592602708
O  O85  1  0.44070000  0.35870000  0.63410000  1.0 -0.8786518194
O  O86  1  0.55930000  0.85870000  0.86590000  1.0 -0.8786518194
O  O87  1  0.55930000  0.64130000  0.36590000  1.0 -0.8786518194
O  O88  1  0.44070000  0.14130000  0.13410000  1.0 -0.8786518194
O  O89  1  0.62250000  0.31680000  0.68900000  1.0 -0.8592602708
O  O90  1  0.37750000  0.81680000  0.81100000  1.0 -0.8592602708
O  O91  1  0.37750000  0.68320000  0.31100000  1.0 -0.8592602708
O  O92  1  0.62250000  0.18320000  0.18900000  1.0 -0.8592602708
O  O93  1  0.60440000  0.42220000  0.66440000  1.0 -0.6501392104
O  O94  1  0.39560000  0.92220000  0.83560000  1.0 -0.6501392104
O  O95  1  0.39560000  0.57780000  0.33560000  1.0 -0.6501392104
O  O96  1  0.60440000  0.07780000  0.16440000  1.0 -0.6501392104
O  O97  1  0.46050000  0.35020000  0.43470000  1.0 -0.8512765334
O  O98  1  0.53950000  0.85020000  0.06530000  1.0 -0.8512765334
O  O99  1  0.53950000  0.64980000  0.56530000  1.0 -0.8512765334
O  O100  1  0.46050000  0.14980000  0.93470000  1.0 -0.8512765334
O  O101  1  0.34160000  0.37810000  0.47740000  1.0 -0.8592602708
O  O102  1  0.65840000  0.87810000  0.02260000  1.0 -0.8592602708
O  O103  1  0.65840000  0.62190000  0.52260000  1.0 -0.8592602708
O  O104  1  0.34160000  0.12190000  0.97740000  1.0 -0.8592602708
O  O105  1  0.49330000  0.44590000  0.48480000  1.0 -0.5417636164
O  O106  1  0.50670000  0.94590000  0.01520000  1.0 -0.5417636164
O  O107  1  0.50670000  0.55410000  0.51520000  1.0 -0.5417636164
O  O108  1  0.49330000  0.05410000  0.98480000  1.0 -0.5417636164
O  O109  1  0.43470000  0.20580000  0.43730000  1.0 -0.8680512895
O  O110  1  0.56530000  0.70580000  0.06270000  1.0 -0.8680512895
O  O111  1  0.56530000  0.79420000  0.56270000  1.0 -0.8680512895
O  O112  1  0.43470000  0.29420000  0.93730000  1.0 -0.8680512895
O  O113  1  0.30620000  0.28410000  0.41110000  1.0 -0.8680512895
O  O114  1  0.69380000  0.78410000  0.08890000  1.0 -0.8680512895
O  O115  1  0.69380000  0.71590000  0.58890000  1.0 -0.8680512895
O  O116  1  0.30620000  0.21590000  0.91110000  1.0 -0.8680512895
O  O117  1  0.42280000  0.27460000  0.36110000  1.0 -0.6278147452
O  O118  1  0.57720000  0.77460000  0.13890000  1.0 -0.6278147452
O  O119  1  0.57720000  0.72540000  0.63890000  1.0 -0.6278147452
O  O120  1  0.42280000  0.22540000  0.86110000  1.0 -0.6278147452
O  O121  1  0.54670000  0.10250000  0.53600000  1.0 -0.8680512895
O  O122  1  0.45330000  0.60250000  0.96400000  1.0 -0.8680512895
O  O123  1  0.45330000  0.89750000  0.46400000  1.0 -0.8680512895
O  O124  1  0.54670000  0.39750000  0.03600000  1.0 -0.8680512895
O  O125  1  0.35950000  0.13070000  0.47390000  1.0 -0.8680512895
O  O126  1  0.64050000  0.63070000  0.02610000  1.0 -0.8680512895
O  O127  1  0.64050000  0.86930000  0.52610000  1.0 -0.8680512895
O  O128  1  0.35950000  0.36930000  0.97390000  1.0 -0.8680512895
O  O129  1  0.48490000  0.10100000  0.43270000  1.0 -0.6278147452
O  O130  1  0.51510000  0.60100000  0.06730000  1.0 -0.6278147452
O  O131  1  0.51510000  0.89900000  0.56730000  1.0 -0.6278147452
O  O132  1  0.48490000  0.39900000  0.93270000  1.0 -0.6278147452
O  O133  1  0.57100000  0.17740000  0.64800000  1.0 -0.8786518194
O  O134  1  0.42900000  0.67740000  0.85200000  1.0 -0.8786518194
O  O135  1  0.42900000  0.82260000  0.35200000  1.0 -0.8786518194
O  O136  1  0.57100000  0.32260000  0.14800000  1.0 -0.8786518194
O  O137  1  0.42850000  0.11700000  0.58290000  1.0 -0.8680512895
O  O138  1  0.57150000  0.61700000  0.91710000  1.0 -0.8680512895
O  O139  1  0.57150000  0.88300000  0.41710000  1.0 -0.8680512895
O  O140  1  0.42850000  0.38300000  0.08290000  1.0 -0.8680512895
O  O141  1  0.61320000  0.07340000  0.63500000  1.0 -0.6613167701
O  O142  1  0.38680000  0.57340000  0.86500000  1.0 -0.6613167701
O  O143  1  0.38680000  0.92660000  0.36500000  1.0 -0.6613167701
O  O144  1  0.61320000  0.42660000  0.13500000  1.0 -0.6613167701
O  O145  1  0.47710000  0.24870000  0.67850000  1.0 -0.8680512895
O  O146  1  0.52290000  0.74870000  0.82150000  1.0 -0.8680512895
O  O147  1  0.52290000  0.75130000  0.32150000  1.0 -0.8680512895
O  O148  1  0.47710000  0.25130000  0.17850000  1.0 -0.8680512895
O  O149  1  0.66900000  0.22440000  0.74270000  1.0 -0.6613167701
O  O150  1  0.33100000  0.72440000  0.75730000  1.0 -0.6613167701
O  O151  1  0.33100000  0.77560000  0.25730000  1.0 -0.6613167701
O  O152  1  0.66900000  0.27560000  0.24270000  1.0 -0.6613167701
O  O153  1  0.27930000  0.37820000  0.54810000  1.0 -0.8680512895
O  O154  1  0.72070000  0.87820000  0.95190000  1.0 -0.8680512895
O  O155  1  0.72070000  0.62180000  0.45190000  1.0 -0.8680512895
O  O156  1  0.27930000  0.12180000  0.04810000  1.0 -0.8680512895
O  O157  1  0.16080000  0.33830000  0.58220000  1.0 -0.900907857
O  O158  1  0.83920000  0.83830000  0.91780000  1.0 -0.900907857
O  O159  1  0.83920000  0.66170000  0.41780000  1.0 -0.900907857
O  O160  1  0.16080000  0.16170000  0.08220000  1.0 -0.900907857
O  O161  1  0.31860000  0.30930000  0.66710000  1.0 -0.8680512895
O  O162  1  0.68140000  0.80930000  0.83290000  1.0 -0.8680512895
O  O163  1  0.68140000  0.69070000  0.33290000  1.0 -0.8680512895
O  O164  1  0.31860000  0.19070000  0.16710000  1.0 -0.8680512895
O  O165  1  0.28840000  0.41370000  0.63970000  1.0 -0.6501392104
O  O166  1  0.71160000  0.91370000  0.86030000  1.0 -0.6501392104
O  O167  1  0.71160000  0.58630000  0.36030000  1.0 -0.6501392104
O  O168  1  0.28840000  0.08630000  0.13970000  1.0 -0.6501392104
O  O169  1  0.15860000  0.34190000  0.41360000  1.0 -0.8680512895
O  O170  1  0.84140000  0.84190000  0.08640000  1.0 -0.8680512895
O  O171  1  0.84140000  0.65810000  0.58640000  1.0 -0.8680512895
O  O172  1  0.15860000  0.15810000  0.91360000  1.0 -0.8680512895
O  O173  1  0.09850000  0.35220000  0.48740000  1.0 -0.900907857
O  O174  1  0.90150000  0.85220000  0.01260000  1.0 -0.900907857
O  O175  1  0.90150000  0.64780000  0.51260000  1.0 -0.900907857
O  O176  1  0.09850000  0.14780000  0.98740000  1.0 -0.900907857
O  O177  1  0.17550000  0.43660000  0.46140000  1.0 -0.7004241474
O  O178  1  0.82450000  0.93660000  0.03860000  1.0 -0.7004241474
O  O179  1  0.82450000  0.56340000  0.53860000  1.0 -0.7004241474
O  O180  1  0.17550000  0.06340000  0.96140000  1.0 -0.7004241474
O  O181  1  0.21610000  0.19940000  0.42160000  1.0 -0.8512765334
O  O182  1  0.78390000  0.69940000  0.07840000  1.0 -0.8512765334
O  O183  1  0.78390000  0.80060000  0.57840000  1.0 -0.8512765334
O  O184  1  0.21610000  0.30060000  0.92160000  1.0 -0.8512765334
O  O185  1  0.06400000  0.25350000  0.41730000  1.0 -0.9086792149
O  O186  1  0.93600000  0.75350000  0.08270000  1.0 -0.9086792149
O  O187  1  0.93600000  0.74650000  0.58270000  1.0 -0.9086792149
O  O188  1  0.06400000  0.24650000  0.91730000  1.0 -0.9086792149
O  O189  1  0.11610000  0.26660000  0.34020000  1.0 -0.7488217853
O  O190  1  0.88390000  0.76660000  0.15980000  1.0 -0.7488217853
O  O191  1  0.88390000  0.73340000  0.65980000  1.0 -0.7488217853
O  O192  1  0.11610000  0.23340000  0.84020000  1.0 -0.7488217853
O  O193  1  0.24380000  0.09430000  0.51570000  1.0 -0.8680512895
O  O194  1  0.75620000  0.59430000  0.98430000  1.0 -0.8680512895
O  O195  1  0.75620000  0.90570000  0.48430000  1.0 -0.8680512895
O  O196  1  0.24380000  0.40570000  0.01570000  1.0 -0.8680512895
O  O197  1  0.09520000  0.15850000  0.45510000  1.0 -0.9086792149
O  O198  1  0.90480000  0.65850000  0.04490000  1.0 -0.9086792149
O  O199  1  0.90480000  0.84150000  0.54490000  1.0 -0.9086792149
O  O200  1  0.09520000  0.34150000  0.95510000  1.0 -0.9086792149
O  O201  1  0.17750000  0.08980000  0.41330000  1.0 -0.6405998149
O  O202  1  0.82250000  0.58980000  0.08670000  1.0 -0.6405998149
O  O203  1  0.82250000  0.91020000  0.58670000  1.0 -0.6405998149
O  O204  1  0.17750000  0.41020000  0.91330000  1.0 -0.6405998149
O  O205  1  0.34990000  0.17190000  0.63410000  1.0 -0.8786518194
O  O206  1  0.65010000  0.67190000  0.86590000  1.0 -0.8786518194
O  O207  1  0.65010000  0.82810000  0.36590000  1.0 -0.8786518194
O  O208  1  0.34990000  0.32810000  0.13410000  1.0 -0.8786518194
O  O209  1  0.16810000  0.14460000  0.57210000  1.0 -0.9086792149
O  O210  1  0.83190000  0.64460000  0.92790000  1.0 -0.9086792149
O  O211  1  0.83190000  0.85540000  0.42790000  1.0 -0.9086792149
O  O212  1  0.16810000  0.35540000  0.07210000  1.0 -0.9086792149
O  O213  1  0.30370000  0.06550000  0.61510000  1.0 -0.6501392104
O  O214  1  0.69630000  0.56550000  0.88490000  1.0 -0.6501392104
O  O215  1  0.69630000  0.93450000  0.38490000  1.0 -0.6501392104
O  O216  1  0.30370000  0.43450000  0.11510000  1.0 -0.6501392104
O  O217  1  0.19710000  0.22540000  0.62860000  1.0 -0.900907857
O  O218  1  0.80290000  0.72540000  0.87140000  1.0 -0.900907857
O  O219  1  0.80290000  0.77460000  0.37140000  1.0 -0.900907857
O  O220  1  0.19710000  0.27460000  0.12860000  1.0 -0.900907857
O  O221  1  0.35420000  0.21790000  0.72180000  1.0 -0.6501392104
O  O222  1  0.64580000  0.71790000  0.77820000  1.0 -0.6501392104
O  O223  1  0.64580000  0.78210000  0.27820000  1.0 -0.6501392104
O  O224  1  0.35420000  0.28210000  0.22180000  1.0 -0.6501392104
O  O225  1  0.95750000  0.27660000  0.46760000  1.0 -0.8680512895
O  O226  1  0.04250000  0.77660000  0.03240000  1.0 -0.8680512895
O  O227  1  0.04250000  0.72340000  0.53240000  1.0 -0.8680512895
O  O228  1  0.95750000  0.22340000  0.96760000  1.0 -0.8680512895
O  O229  1  0.01950000  0.26500000  0.56680000  1.0 -0.8592602708
O  O230  1  0.98050000  0.76500000  0.93320000  1.0 -0.8592602708
O  O231  1  0.98050000  0.73500000  0.43320000  1.0 -0.8592602708
O  O232  1  0.01950000  0.23500000  0.06680000  1.0 -0.8592602708
O  O233  1  0.95640000  0.36390000  0.52400000  1.0 -0.5417636164
O  O234  1  0.04360000  0.86390000  0.97600000  1.0 -0.5417636164
O  O235  1  0.04360000  0.63610000  0.47600000  1.0 -0.5417636164
O  O236  1  0.95640000  0.13610000  0.02400000  1.0 -0.5417636164
O  O237  1  0.99070000  0.18210000  0.50720000  1.0 -0.8512765334
O  O238  1  0.00930000  0.68210000  0.99280000  1.0 -0.8512765334
O  O239  1  0.00930000  0.81790000  0.49280000  1.0 -0.8512765334
O  O240  1  0.99070000  0.31790000  0.00720000  1.0 -0.8512765334
O  O241  1  0.89750000  0.19120000  0.40160000  1.0 -0.6613167701
O  O242  1  0.10250000  0.69120000  0.09840000  1.0 -0.6613167701
O  O243  1  0.10250000  0.80880000  0.59840000  1.0 -0.6613167701
O  O244  1  0.89750000  0.30880000  0.90160000  1.0 -0.6613167701
O  O245  1  0.02320000  0.16390000  0.60630000  1.0 -0.6752288469
O  O246  1  0.97680000  0.66390000  0.89370000  1.0 -0.674200786
O  O247  1  0.97680000  0.83610000  0.39370000  1.0 -0.674200786
O  O248  1  0.02320000  0.33610000  0.10630000  1.0 -0.6752288469
O  O249  1  0.68500000  0.48690000  0.56720000  1.0 -0.4541701578
O  O250  1  0.31500000  0.98690000  0.93280000  1.0 -0.4541701578
O  O251  1  0.31500000  0.51310000  0.43280000  1.0 -0.4541701578
O  O252  1  0.68500000  0.01310000  0.06720000  1.0 -0.4541701578
O  O253  1  0.94310000  0.46620000  0.55660000  1.0 -0.3705197178
O  O254  1  0.05690000  0.96620000  0.94340000  1.0 -0.3705197178
O  O255  1  0.05690000  0.53380000  0.44340000  1.0 -0.3705197178
O  O256  1  0.94310000  0.03380000  0.05660000  1.0 -0.3705197178
