# DDEC6 charges by PACMAN v1.1 (https://github.com/mtap-research/PACMAN-charge/)
data_GOSDID_ASR_pacman
_symmetry_space_group_name_H-M   'P 1'
_cell_length_a   15.82250000
_cell_length_b   16.81960000
_cell_length_c   28.47600000
_cell_angle_alpha   96.70000000
_cell_angle_beta   100.22100000
_cell_angle_gamma   109.59700000
_symmetry_Int_Tables_number   1
_chemical_formula_structural   Zn3H29C55O14
_chemical_formula_sum   'Zn12 H116 C220 O56'
_cell_volume   6897.96471821
_cell_formula_units_Z   4
loop_
 _symmetry_equiv_pos_site_id
 _symmetry_equiv_pos_as_xyz
  1  'x, y, z'
loop_
 _atom_site_type_symbol
 _atom_site_label
 _atom_site_symmetry_multiplicity
 _atom_site_fract_x
 _atom_site_fract_y
 _atom_site_fract_z
 _atom_site_occupancy
 _atom_site_charge
Zn  Zn1  1  0.92688000  0.74062000  0.28924000  1.0 0.9122102863
Zn  Zn2  1  0.07312000  0.25938000  0.71076000  1.0 0.9122102863
Zn  Zn3  1  0.17202000  0.97452000  0.31032000  1.0 0.965537191
Zn  Zn4  1  0.82798000  0.02548000  0.68968000  1.0 0.965537191
Zn  Zn5  1  0.28817000  0.40817000  0.11744000  1.0 0.9915311045
Zn  Zn6  1  0.71183000  0.59183000  0.88256000  1.0 0.9915311045
Zn  Zn7  1  0.35296000  0.59493000  0.21057000  1.0 0.9998982555
Zn  Zn8  1  0.64704000  0.40507000  0.78943000  1.0 0.9998982555
Zn  Zn9  1  0.27459000  0.23506000  0.77448000  1.0 0.9434315568
Zn  Zn10  1  0.72541000  0.76494000  0.22552000  1.0 0.9434315568
Zn  Zn11  1  0.74246000  0.82618000  0.59308000  1.0 0.9915311045
Zn  Zn12  1  0.25754000  0.17382000  0.40692000  1.0 0.9915311045
H  H1  1  0.93890000  0.72260000  0.16790000  1.0 0.1211899817
H  H2  1  0.06110000  0.27740000  0.83210000  1.0 0.1211899817
H  H3  1  0.91190000  0.62540000  0.09280000  1.0 0.1211899817
H  H4  1  0.08810000  0.37460000  0.90720000  1.0 0.1211899817
H  H5  1  0.15580000  0.60880000  0.13990000  1.0 0.1211899817
H  H6  1  0.84420000  0.39120000  0.86010000  1.0 0.1211899817
H  H7  1  0.19110000  0.71050000  0.21290000  1.0 0.1211899817
H  H8  1  0.80890000  0.28950000  0.78710000  1.0 0.1211899817
H  H9  1  0.30710000  0.79750000  0.86970000  1.0 0.1288040654
H  H10  1  0.69290000  0.20250000  0.13030000  1.0 0.1288040654
H  H11  1  0.33650000  0.88820000  0.03450000  1.0 0.1211899817
H  H12  1  0.66350000  0.11180000  0.96550000  1.0 0.1211899817
H  H13  1  0.20430000  0.62060000  0.96650000  1.0 0.1211899817
H  H14  1  0.79570000  0.37940000  0.03350000  1.0 0.1211899817
H  H15  1  0.21100000  0.53290000  0.02120000  1.0 0.1393281122
H  H16  1  0.78900000  0.46710000  0.97880000  1.0 0.1393281122
H  H17  1  0.42660000  0.73470000  0.11610000  1.0 0.1393281122
H  H18  1  0.57340000  0.26530000  0.88390000  1.0 0.1393281122
H  H19  1  0.42700000  0.82240000  0.06250000  1.0 0.1211899817
H  H20  1  0.57300000  0.17760000  0.93750000  1.0 0.1211899817
H  H21  1  0.22010000  0.98410000  0.91020000  1.0 0.1393281122
H  H22  1  0.77990000  0.01590000  0.08980000  1.0 0.1393281122
H  H23  1  0.23790000  0.08800000  0.86300000  1.0 0.1393281122
H  H24  1  0.76210000  0.91200000  0.13700000  1.0 0.1393281122
H  H25  1  0.45940000  0.04170000  0.82960000  1.0 0.1393281122
H  H26  1  0.54060000  0.95830000  0.17040000  1.0 0.1393281122
H  H27  1  0.43870000  0.94070000  0.87510000  1.0 0.1393281122
H  H28  1  0.56130000  0.05930000  0.12490000  1.0 0.1393281122
H  H29  1  0.14480000  0.61420000  0.86950000  1.0 0.1109010762
H  H30  1  0.85520000  0.38580000  0.13050000  1.0 0.1109010762
H  H31  1  0.12030000  0.47760000  0.82200000  1.0 0.1211899817
H  H32  1  0.87970000  0.52240000  0.17800000  1.0 0.1211899817
H  H33  1  0.38720000  0.51620000  0.86960000  1.0 0.1288040654
H  H34  1  0.61280000  0.48380000  0.13040000  1.0 0.1288040654
H  H35  1  0.41660000  0.65560000  0.91490000  1.0 0.1211899817
H  H36  1  0.58340000  0.34440000  0.08510000  1.0 0.1211899817
H  H37  1  0.46260000  0.09590000  0.98420000  1.0 0.1109010762
H  H38  1  0.53740000  0.90410000  0.01580000  1.0 0.1109010762
H  H39  1  0.46530000  0.23280000  0.01590000  1.0 0.1109010762
H  H40  1  0.53470000  0.76720000  0.98410000  1.0 0.1109010762
H  H41  1  0.23710000  0.12650000  0.06100000  1.0 0.1211899817
H  H42  1  0.76290000  0.87350000  0.93900000  1.0 0.1211899817
H  H43  1  0.23190000  0.99080000  0.02780000  1.0 0.1211899817
H  H44  1  0.76810000  0.00920000  0.97220000  1.0 0.1211899817
H  H45  1  0.88970000  0.27320000  0.37230000  1.0 0.1288040654
H  H46  1  0.11030000  0.72680000  0.62770000  1.0 0.1288040654
H  H47  1  0.81710000  0.31430000  0.51910000  1.0 0.1211899817
H  H48  1  0.18290000  0.68570000  0.48090000  1.0 0.1211899817
H  H49  1  0.75540000  0.05840000  0.44350000  1.0 0.1211899817
H  H50  1  0.24460000  0.94160000  0.55650000  1.0 0.1211899817
H  H51  1  0.74320000  0.96450000  0.49570000  1.0 0.1393281122
H  H52  1  0.25680000  0.03550000  0.50430000  1.0 0.1393281122
H  H53  1  0.90180000  0.17640000  0.61040000  1.0 0.1393281122
H  H54  1  0.09820000  0.82360000  0.38960000  1.0 0.1393281122
H  H55  1  0.91740000  0.26750000  0.55790000  1.0 0.1211899817
H  H56  1  0.08260000  0.73250000  0.44210000  1.0 0.1211899817
H  H57  1  0.01100000  0.43620000  0.39540000  1.0 0.1288040654
H  H58  1  0.98900000  0.56380000  0.60460000  1.0 0.1288040654
H  H59  1  0.03730000  0.55270000  0.35710000  1.0 0.1288040654
H  H60  1  0.96270000  0.44730000  0.64290000  1.0 0.1288040654
H  H61  1  0.78030000  0.54820000  0.35780000  1.0 0.1288040654
H  H62  1  0.21970000  0.45180000  0.64220000  1.0 0.1288040654
H  H63  1  0.75650000  0.43960000  0.39860000  1.0 0.1211899817
H  H64  1  0.24350000  0.56040000  0.60140000  1.0 0.1288040654
H  H65  1  0.99660000  0.14670000  0.43900000  1.0 0.1288040654
H  H66  1  0.00340000  0.85330000  0.56100000  1.0 0.1288040654
H  H67  1  0.00700000  0.01890000  0.39880000  1.0 0.1288040654
H  H68  1  0.99300000  0.98110000  0.60120000  1.0 0.1288040654
H  H69  1  0.75760000  0.94360000  0.30540000  1.0 0.1211899817
H  H70  1  0.24240000  0.05640000  0.69460000  1.0 0.1211899817
H  H71  1  0.74190000  0.07140000  0.34790000  1.0 0.1109010762
H  H72  1  0.25810000  0.92860000  0.65210000  1.0 0.1109010762
H  H73  1  0.95260000  0.55330000  0.49410000  1.0 0.1109010762
H  H74  1  0.04740000  0.44670000  0.50590000  1.0 0.1109010762
H  H75  1  0.92150000  0.67480000  0.52910000  1.0 0.1211899817
H  H76  1  0.07850000  0.32520000  0.47090000  1.0 0.1211899817
H  H77  1  0.67100000  0.51270000  0.53520000  1.0 0.1288040654
H  H78  1  0.32900000  0.48730000  0.46480000  1.0 0.1288040654
H  H79  1  0.69890000  0.39160000  0.49730000  1.0 0.1211899817
H  H80  1  0.30110000  0.60840000  0.50270000  1.0 0.1211899817
H  H81  1  0.20840000  0.59940000  0.77790000  1.0 0.1211899817
H  H82  1  0.79160000  0.40060000  0.22210000  1.0 0.1211899817
H  H83  1  0.27250000  0.84020000  0.71690000  1.0 0.1288040654
H  H84  1  0.72750000  0.15980000  0.28310000  1.0 0.1288040654
H  H85  1  0.00060000  0.68100000  0.69000000  1.0 0.1211899817
H  H86  1  0.99940000  0.31900000  0.31000000  1.0 0.1211899817
H  H87  1  0.89320000  0.74370000  0.66560000  1.0 0.1288040654
H  H88  1  0.10680000  0.25630000  0.33440000  1.0 0.1288040654
H  H89  1  0.08180000  0.98620000  0.74390000  1.0 0.1211899817
H  H90  1  0.91820000  0.01380000  0.25610000  1.0 0.1211899817
H  H91  1  0.19020000  0.92240000  0.76470000  1.0 0.1211899817
H  H92  1  0.80980000  0.07760000  0.23530000  1.0 0.1211899817
H  H93  1  0.27260000  0.50510000  0.72710000  1.0 0.1211899817
H  H94  1  0.72740000  0.49490000  0.27290000  1.0 0.1211899817
H  H95  1  0.37580000  0.43530000  0.74400000  1.0 0.1288040654
H  H96  1  0.62420000  0.56470000  0.25600000  1.0 0.1288040654
H  H97  1  0.57230000  0.65770000  0.82510000  1.0 0.1288040654
H  H98  1  0.42770000  0.34230000  0.17490000  1.0 0.1288040654
H  H99  1  0.47590000  0.74110000  0.80730000  1.0 0.1211899817
H  H100  1  0.52410000  0.25890000  0.19270000  1.0 0.1211899817
H  H101  1  0.03720000  0.52820000  0.74260000  1.0 0.1211899817
H  H102  1  0.96280000  0.47180000  0.25740000  1.0 0.1211899817
H  H103  1  0.90410000  0.47360000  0.77230000  1.0 0.1288040654
H  H104  1  0.09590000  0.52640000  0.22770000  1.0 0.1288040654
H  H105  1  0.96430000  0.72460000  0.85140000  1.0 0.1288040654
H  H106  1  0.03570000  0.27540000  0.14860000  1.0 0.1393281122
H  H107  1  0.08930000  0.77690000  0.81700000  1.0 0.1211899817
H  H108  1  0.91070000  0.22310000  0.18300000  1.0 0.1211899817
H  H109  1  0.39180000  0.65910000  0.67880000  1.0 0.1211899817
H  H110  1  0.60820000  0.34090000  0.32120000  1.0 0.1211899817
H  H111  1  0.51650000  0.71380000  0.64460000  1.0 0.1288040654
H  H112  1  0.48350000  0.28620000  0.35540000  1.0 0.1288040654
H  H113  1  0.59670000  0.94510000  0.73720000  1.0 0.1288040654
H  H114  1  0.40330000  0.05490000  0.26280000  1.0 0.1288040654
H  H115  1  0.46040000  0.89210000  0.76290000  1.0 0.1288040654
H  H116  1  0.53960000  0.10790000  0.23710000  1.0 0.1288040654
C  C1  1  0.07360000  0.74070000  0.19740000  1.0 -0.0108673924
C  C2  1  0.92640000  0.25930000  0.80260000  1.0 -0.0108673924
C  C3  1  0.98830000  0.70620000  0.16150000  1.0 -0.0906614847
C  C4  1  0.01170000  0.29380000  0.83850000  1.0 -0.0906614847
C  C5  1  0.97100000  0.64600000  0.11450000  1.0 -0.1098655876
C  C6  1  0.02900000  0.35400000  0.88550000  1.0 -0.1098655876
C  C7  1  0.04130000  0.61950000  0.10200000  1.0 -0.0017866526
C  C8  1  0.95870000  0.38050000  0.89800000  1.0 -0.0017866526
C  C9  1  0.11480000  0.63850000  0.14260000  1.0 -0.0906614847
C  C10  1  0.88520000  0.36150000  0.85740000  1.0 -0.0906614847
C  C11  1  0.13630000  0.69930000  0.18900000  1.0 -0.1013828857
C  C12  1  0.86370000  0.30070000  0.81100000  1.0 -0.1013828857
C  C13  1  0.09050000  0.81070000  0.24370000  1.0 0.5677853829
C  C14  1  0.90950000  0.18930000  0.75630000  1.0 0.5677853829
C  C15  1  0.02480000  0.55520000  0.05450000  1.0 0.4727214879
C  C16  1  0.97520000  0.44480000  0.94550000  1.0 0.4727214879
C  C17  1  0.31800000  0.78250000  0.97890000  1.0 -0.0108673924
C  C18  1  0.68200000  0.21750000  0.02110000  1.0 -0.0108673924
C  C19  1  0.30540000  0.74960000  0.92920000  1.0 0.048505263
C  C20  1  0.69460000  0.25040000  0.07080000  1.0 0.048505263
C  C21  1  0.31200000  0.81090000  0.90370000  1.0 -0.1989248091
C  C22  1  0.68800000  0.18910000  0.09630000  1.0 -0.1989248091
C  C23  1  0.32620000  0.89710000  0.92520000  1.0 -0.027848312
C  C24  1  0.67380000  0.10290000  0.07480000  1.0 -0.027848312
C  C25  1  0.33450000  0.92960000  0.97520000  1.0 0.048505263
C  C26  1  0.66550000  0.07040000  0.02480000  1.0 0.048505263
C  C27  1  0.33100000  0.87340000  0.00060000  1.0 -0.1674175368
C  C28  1  0.66900000  0.12660000  0.99940000  1.0 -0.1674175368
C  C29  1  0.31530000  0.72550000  0.00960000  1.0 0.048505263
C  C30  1  0.68470000  0.27450000  0.99040000  1.0 0.048505263
C  C31  1  0.24870000  0.64010000  0.99660000  1.0 -0.1098655876
C  C32  1  0.75130000  0.35990000  0.00340000  1.0 -0.1098655876
C  C33  1  0.25190000  0.59110000  0.02750000  1.0 -0.0693227427
C  C34  1  0.74810000  0.40890000  0.97250000  1.0 -0.0693227427
C  C35  1  0.31970000  0.62830000  0.07150000  1.0 -0.0693227427
C  C36  1  0.68030000  0.37170000  0.92850000  1.0 -0.0693227427
C  C37  1  0.38470000  0.71520000  0.08520000  1.0 -0.0803784392
C  C38  1  0.61530000  0.28480000  0.91480000  1.0 -0.0803784392
C  C39  1  0.38510000  0.76450000  0.05580000  1.0 -0.1215806798
C  C40  1  0.61490000  0.23550000  0.94420000  1.0 -0.1215806798
C  C41  1  0.32840000  0.95520000  0.89630000  1.0 0.0411021883
C  C42  1  0.67160000  0.04480000  0.10370000  1.0 0.0411021883
C  C43  1  0.26790000  0.99710000  0.89310000  1.0 -0.1215806798
C  C44  1  0.73210000  0.00290000  0.10690000  1.0 -0.1215806798
C  C45  1  0.27690000  0.05560000  0.86600000  1.0 -0.1098655876
C  C46  1  0.72310000  0.94440000  0.13400000  1.0 -0.1098655876
C  C47  1  0.34680000  0.06660000  0.84210000  1.0 -0.1414010051
C  C48  1  0.65320000  0.93340000  0.15790000  1.0 -0.1414010051
C  C49  1  0.41020000  0.02760000  0.84570000  1.0 -0.0803784392
C  C50  1  0.58980000  0.97240000  0.15430000  1.0 -0.0803784392
C  C51  1  0.39860000  0.97200000  0.87190000  1.0 -0.1486102784
C  C52  1  0.60140000  0.02800000  0.12810000  1.0 -0.1486102784
C  C53  1  0.28630000  0.65530000  0.90040000  1.0 0.0783547672
C  C54  1  0.71370000  0.34470000  0.09960000  1.0 0.0783547672
C  C55  1  0.19600000  0.59650000  0.87050000  1.0 -0.1098655876
C  C56  1  0.80400000  0.40350000  0.12950000  1.0 -0.1098655876
C  C57  1  0.18020000  0.51040000  0.84160000  1.0 -0.1098655876
C  C58  1  0.81980000  0.48960000  0.15840000  1.0 -0.1098655876
C  C59  1  0.24650000  0.47760000  0.84210000  1.0 -0.027848312
C  C60  1  0.75350000  0.52240000  0.15790000  1.0 -0.027848312
C  C61  1  0.33680000  0.53480000  0.86950000  1.0 -0.0906614847
C  C62  1  0.66320000  0.46520000  0.13050000  1.0 -0.0906614847
C  C63  1  0.35520000  0.62160000  0.89780000  1.0 -0.1290512203
C  C64  1  0.64480000  0.37840000  0.10220000  1.0 -0.1290512203
C  C65  1  0.34410000  0.02410000  0.00090000  1.0 0.0783547672
C  C66  1  0.65590000  0.97590000  0.99910000  1.0 0.0783547672
C  C67  1  0.41460000  0.09950000  0.99910000  1.0 -0.1486102784
C  C68  1  0.58540000  0.90050000  0.00090000  1.0 -0.1486102784
C  C69  1  0.41640000  0.18420000  0.01950000  1.0 -0.1098655876
C  C70  1  0.58360000  0.81580000  0.98050000  1.0 -0.1098655876
C  C71  1  0.35300000  0.19990000  0.04380000  1.0 -0.027848312
C  C72  1  0.64700000  0.80010000  0.95620000  1.0 -0.027848312
C  C73  1  0.28460000  0.12350000  0.04540000  1.0 -0.1013828857
C  C74  1  0.71540000  0.87650000  0.95460000  1.0 -0.1013828857
C  C75  1  0.28150000  0.03930000  0.02470000  1.0 -0.1674175368
C  C76  1  0.71850000  0.96070000  0.97530000  1.0 -0.1674175368
C  C77  1  0.32410000  0.57470000  0.10450000  1.0 0.5401238566
C  C78  1  0.67590000  0.42530000  0.89550000  1.0 0.5401238566
C  C79  1  0.35090000  0.12890000  0.81340000  1.0 0.5401238566
C  C80  1  0.64910000  0.87110000  0.18660000  1.0 0.5486621147
C  C81  1  0.22910000  0.38690000  0.80830000  1.0 0.5881644196
C  C82  1  0.77090000  0.61310000  0.19170000  1.0 0.5881644196
C  C83  1  0.35500000  0.29010000  0.06360000  1.0 0.5632284886
C  C84  1  0.64500000  0.70990000  0.93640000  1.0 0.5632284886
C  C85  1  0.84600000  0.23230000  0.46910000  1.0 -0.0231338572
C  C86  1  0.15400000  0.76770000  0.53090000  1.0 -0.0231338572
C  C87  1  0.86120000  0.21310000  0.42370000  1.0 0.0411021883
C  C88  1  0.13880000  0.78690000  0.57630000  1.0 0.0411021883
C  C89  1  0.87380000  0.27780000  0.40290000  1.0 -0.1873333523
C  C90  1  0.12620000  0.72220000  0.59710000  1.0 -0.1873333523
C  C91  1  0.86570000  0.35940000  0.42250000  1.0 -0.0231338572
C  C92  1  0.13430000  0.64060000  0.57750000  1.0 -0.0231338572
C  C93  1  0.84500000  0.37740000  0.46780000  1.0 0.048505263
C  C94  1  0.15500000  0.62260000  0.53220000  1.0 0.048505263
C  C95  1  0.83410000  0.31130000  0.48870000  1.0 -0.2131573626
C  C96  1  0.16590000  0.68870000  0.51130000  1.0 -0.2131573626
C  C97  1  0.83610000  0.16890000  0.49690000  1.0 0.0608247059
C  C98  1  0.16390000  0.83110000  0.50310000  1.0 0.0608247059
C  C99  1  0.78310000  0.07780000  0.47730000  1.0 -0.1414010051
C  C100  1  0.21690000  0.92220000  0.52270000  1.0 -0.1414010051
C  C101  1  0.77470000  0.02470000  0.50610000  1.0 -0.0693227427
C  C102  1  0.22530000  0.97530000  0.49390000  1.0 -0.0693227427
C  C103  1  0.81720000  0.06460000  0.55570000  1.0 -0.0906614847
C  C104  1  0.18280000  0.93540000  0.44430000  1.0 -0.0906614847
C  C105  1  0.87390000  0.15720000  0.57670000  1.0 -0.0693227427
C  C106  1  0.12610000  0.84280000  0.42330000  1.0 -0.0693227427
C  C107  1  0.88270000  0.20770000  0.54770000  1.0 -0.1215806798
C  C108  1  0.11730000  0.79230000  0.45230000  1.0 -0.1215806798
C  C109  1  0.88300000  0.42710000  0.39890000  1.0 0.0411021883
C  C110  1  0.11700000  0.57290000  0.60110000  1.0 0.0411021883
C  C111  1  0.96490000  0.46010000  0.38770000  1.0 -0.1290512203
C  C112  1  0.03510000  0.53990000  0.61230000  1.0 -0.1290512203
C  C113  1  0.98010000  0.52700000  0.36550000  1.0 -0.1098655876
C  C114  1  0.01990000  0.47300000  0.63450000  1.0 -0.1098655876
C  C115  1  0.90860000  0.55830000  0.35510000  1.0 -0.0628745801
C  C116  1  0.09140000  0.44170000  0.64490000  1.0 -0.0628745801
C  C117  1  0.82700000  0.52530000  0.36640000  1.0 -0.0906614847
C  C118  1  0.17300000  0.47470000  0.63360000  1.0 -0.0906614847
C  C119  1  0.81280000  0.46250000  0.38880000  1.0 -0.1414010051
C  C120  1  0.18720000  0.53750000  0.61120000  1.0 -0.1414010051
C  C121  1  0.87000000  0.12690000  0.39780000  1.0 0.0883239774
C  C122  1  0.13000000  0.87310000  0.60220000  1.0 0.0883239774
C  C123  1  0.94760000  0.10910000  0.41320000  1.0 -0.1414010051
C  C124  1  0.05240000  0.89090000  0.58680000  1.0 -0.1414010051
C  C125  1  0.95200000  0.02950000  0.38820000  1.0 -0.0803784392
C  C126  1  0.04800000  0.97050000  0.61180000  1.0 -0.0803784392
C  C127  1  0.88180000  0.96510000  0.34900000  1.0 0.007614349
C  C128  1  0.11820000  0.03490000  0.65100000  1.0 0.004880116
C  C129  1  0.80470000  0.98100000  0.33210000  1.0 -0.1290512203
C  C130  1  0.19530000  0.01900000  0.66790000  1.0 -0.1290512203
C  C131  1  0.79750000  0.06170000  0.35800000  1.0 -0.1215806798
C  C132  1  0.20250000  0.93830000  0.64200000  1.0 -0.1215806798
C  C133  1  0.82750000  0.45680000  0.49100000  1.0 0.0783547672
C  C134  1  0.17250000  0.54320000  0.50900000  1.0 0.0783547672
C  C135  1  0.89420000  0.54380000  0.50150000  1.0 -0.1215806798
C  C136  1  0.10580000  0.45620000  0.49850000  1.0 -0.1215806798
C  C137  1  0.87510000  0.61920000  0.52340000  1.0 -0.0906614847
C  C138  1  0.12490000  0.38080000  0.47660000  1.0 -0.0906614847
C  C139  1  0.79730000  0.61110000  0.53480000  1.0 -0.0108673924
C  C140  1  0.20270000  0.38890000  0.46520000  1.0 -0.0108673924
C  C141  1  0.72780000  0.52170000  0.52600000  1.0 -0.0628745801
C  C142  1  0.27220000  0.47830000  0.47400000  1.0 -0.0628745801
C  C143  1  0.74540000  0.44720000  0.50340000  1.0 -0.1674175368
C  C144  1  0.25460000  0.55280000  0.49660000  1.0 -0.1674175368
C  C145  1  0.80390000  0.00730000  0.58770000  1.0 0.5486621147
C  C146  1  0.19610000  0.99270000  0.41230000  1.0 0.5486621147
C  C147  1  0.92050000  0.63240000  0.33140000  1.0 0.5486621147
C  C148  1  0.07950000  0.36760000  0.66860000  1.0 0.5486621147
C  C149  1  0.88850000  0.87670000  0.32260000  1.0 0.5775375968
C  C150  1  0.11150000  0.12330000  0.67740000  1.0 0.5775375968
C  C151  1  0.77400000  0.68960000  0.55540000  1.0 0.5401238566
C  C152  1  0.22600000  0.31040000  0.44460000  1.0 0.5401238566
C  C153  1  0.32230000  0.74960000  0.73360000  1.0 0.0212795269
C  C154  1  0.67770000  0.25040000  0.26640000  1.0 0.0212795269
C  C155  1  0.30430000  0.67920000  0.75230000  1.0 0.0251661657
C  C156  1  0.69570000  0.32080000  0.24770000  1.0 0.0251661657
C  C157  1  0.22250000  0.65040000  0.76470000  1.0 -0.1770168611
C  C158  1  0.77750000  0.34960000  0.23530000  1.0 -0.1770168611
C  C159  1  0.15660000  0.68890000  0.75990000  1.0 0.0212795269
C  C160  1  0.84340000  0.31110000  0.24010000  1.0 0.0212795269
C  C161  1  0.17410000  0.75830000  0.74090000  1.0 0.0212795269
C  C162  1  0.82590000  0.24170000  0.25910000  1.0 0.0212795269
C  C163  1  0.25760000  0.78830000  0.72920000  1.0 -0.1873333523
C  C164  1  0.74240000  0.21170000  0.27080000  1.0 -0.1873333523
C  C165  1  0.10450000  0.79710000  0.72960000  1.0 0.0783547672
C  C166  1  0.89550000  0.20290000  0.27040000  1.0 0.0783547672
C  C167  1  0.01460000  0.74080000  0.69960000  1.0 -0.1563619667
C  C168  1  0.98540000  0.25920000  0.30040000  1.0 -0.1563619667
C  C169  1  0.95240000  0.77660000  0.68590000  1.0 -0.0803784392
C  C170  1  0.04760000  0.22340000  0.31410000  1.0 -0.0803784392
C  C171  1  0.98130000  0.87240000  0.70450000  1.0 -0.027848312
C  C172  1  0.01870000  0.12760000  0.29550000  1.0 -0.027848312
C  C173  1  0.06770000  0.92650000  0.73350000  1.0 -0.0803784392
C  C174  1  0.93230000  0.07350000  0.26650000  1.0 -0.0803784392
C  C175  1  0.13010000  0.88880000  0.74570000  1.0 -0.1674175368
C  C176  1  0.86990000  0.11120000  0.25430000  1.0 -0.1674175368
C  C177  1  0.37030000  0.63570000  0.76120000  1.0 0.0883239774
C  C178  1  0.62970000  0.36430000  0.23880000  1.0 0.0883239774
C  C179  1  0.33480000  0.53630000  0.74410000  1.0 -0.1414010051
C  C180  1  0.66520000  0.46370000  0.25590000  1.0 -0.1414010051
C  C181  1  0.39420000  0.49570000  0.75400000  1.0 -0.0906614847
C  C182  1  0.60580000  0.50430000  0.24600000  1.0 -0.0906614847
C  C183  1  0.48730000  0.54810000  0.78060000  1.0 -0.0231338572
C  C184  1  0.51270000  0.45190000  0.21940000  1.0 -0.0231338572
C  C185  1  0.51410000  0.63160000  0.80270000  1.0 -0.0803784392
C  C186  1  0.48590000  0.36840000  0.19730000  1.0 -0.0803784392
C  C187  1  0.45680000  0.68200000  0.79320000  1.0 -0.1486102784
C  C188  1  0.54320000  0.31800000  0.20680000  1.0 -0.1486102784
C  C189  1  0.07470000  0.65790000  0.77820000  1.0 0.0783547672
C  C190  1  0.92530000  0.34210000  0.22180000  1.0 0.0783547672
C  C191  1  0.01930000  0.56470000  0.76350000  1.0 -0.1414010051
C  C192  1  0.98070000  0.43530000  0.23650000  1.0 -0.1414010051
C  C193  1  0.94240000  0.53280000  0.78060000  1.0 -0.1098655876
C  C194  1  0.05760000  0.46720000  0.21940000  1.0 -0.1098655876
C  C195  1  0.92200000  0.59520000  0.81260000  1.0 0.007614349
C  C196  1  0.07800000  0.40480000  0.18740000  1.0 0.007614349
C  C197  1  0.97910000  0.68810000  0.82880000  1.0 -0.1013828857
C  C198  1  0.02090000  0.31190000  0.17120000  1.0 -0.1013828857
C  C199  1  0.05230000  0.71740000  0.80980000  1.0 -0.1414010051
C  C200  1  0.94770000  0.28260000  0.19020000  1.0 -0.1414010051
C  C201  1  0.40630000  0.78110000  0.71620000  1.0 0.0783547672
C  C202  1  0.59370000  0.21890000  0.28380000  1.0 0.0783547672
C  C203  1  0.42790000  0.71870000  0.68540000  1.0 -0.1486102784
C  C204  1  0.57210000  0.28130000  0.31460000  1.0 -0.1486102784
C  C205  1  0.50140000  0.75050000  0.66690000  1.0 -0.0803784392
C  C206  1  0.49860000  0.24950000  0.33310000  1.0 -0.0803784392
C  C207  1  0.55950000  0.84280000  0.68140000  1.0 -0.0693227427
C  C208  1  0.44050000  0.15720000  0.31860000  1.0 -0.0693227427
C  C209  1  0.55010000  0.89150000  0.72130000  1.0 -0.0803784392
C  C210  1  0.44990000  0.10850000  0.27870000  1.0 -0.0803784392
C  C211  1  0.47050000  0.85870000  0.73670000  1.0 -0.1486102784
C  C212  1  0.52950000  0.14130000  0.26330000  1.0 -0.1486102784
C  C213  1  0.91060000  0.90890000  0.68800000  1.0 0.5881644196
C  C214  1  0.08940000  0.09110000  0.31200000  1.0 0.5881644196
C  C215  1  0.54910000  0.49870000  0.78990000  1.0 0.5979182031
C  C216  1  0.45090000  0.50130000  0.21010000  1.0 0.5979182031
C  C217  1  0.83350000  0.56070000  0.82900000  1.0 0.5979182031
C  C218  1  0.16650000  0.43930000  0.17100000  1.0 0.5979182031
C  C219  1  0.63920000  0.87210000  0.66130000  1.0 0.5979182031
C  C220  1  0.36080000  0.12790000  0.33870000  1.0 0.5979182031
O  O1  1  0.16440000  0.87120000  0.25830000  1.0 -0.4495602343
O  O2  1  0.83560000  0.12880000  0.74170000  1.0 -0.4495602343
O  O3  1  0.03620000  0.80830000  0.26830000  1.0 -0.4600442791
O  O4  1  0.96380000  0.19170000  0.73170000  1.0 -0.4600442791
O  O5  1  0.01540000  0.47330000  0.04670000  1.0 -0.3348176772
O  O6  1  0.98460000  0.52670000  0.95330000  1.0 -0.3403922314
O  O7  1  0.01020000  0.58270000  0.01440000  1.0 -0.301497727
O  O8  1  0.98980000  0.41730000  0.98560000  1.0 -0.301497727
O  O9  1  0.28470000  0.48990000  0.08321000  1.0 -0.5408703579
O  O10  1  0.71530000  0.51010000  0.91679000  1.0 -0.5408703579
O  O11  1  0.36060000  0.61700000  0.14810000  1.0 -0.5269351
O  O12  1  0.63940000  0.38300000  0.85190000  1.0 -0.5269351
O  O13  1  0.41720000  0.14880000  0.79500000  1.0 -0.4787163207
O  O14  1  0.58280000  0.85120000  0.20500000  1.0 -0.4787163207
O  O15  1  0.28910000  0.15680000  0.80990000  1.0 -0.4447182113
O  O16  1  0.71090000  0.84320000  0.19010000  1.0 -0.4495602343
O  O17  1  0.14880000  0.34670000  0.77660000  1.0 -0.6206041171
O  O18  1  0.85120000  0.65330000  0.22340000  1.0 -0.6206041171
O  O19  1  0.28660000  0.35390000  0.81120000  1.0 -0.4892081463
O  O20  1  0.71340000  0.64610000  0.18880000  1.0 -0.4892081463
O  O21  1  0.29170000  0.29600000  0.08570000  1.0 -0.5619352156
O  O22  1  0.70830000  0.70400000  0.91430000  1.0 -0.5619352156
O  O23  1  0.41380000  0.35770000  0.06110000  1.0 -0.5199235076
O  O24  1  0.58620000  0.64230000  0.93890000  1.0 -0.5199235076
O  O25  1  0.82050000  0.05320000  0.63205000  1.0 -0.4667278448
O  O26  1  0.17950000  0.94680000  0.36795000  1.0 -0.4667278448
O  O27  1  0.77780000  0.92590000  0.56905000  1.0 -0.5408703579
O  O28  1  0.22220000  0.07410000  0.43095000  1.0 -0.5408703579
O  O29  1  0.99530000  0.65720000  0.32100000  1.0 -0.4667278448
O  O30  1  0.00470000  0.34280000  0.67900000  1.0 -0.4667278448
O  O31  1  0.85310000  0.65720000  0.32340000  1.0 -0.5000048274
O  O32  1  0.14690000  0.34280000  0.67660000  1.0 -0.5000048274
O  O33  1  0.95260000  0.85960000  0.34170000  1.0 -0.4600442791
O  O34  1  0.04740000  0.14040000  0.65830000  1.0 -0.4600442791
O  O35  1  0.83800000  0.82840000  0.28180000  1.0 -0.5917072886
O  O36  1  0.16200000  0.17160000  0.71820000  1.0 -0.5917072886
O  O37  1  0.70730000  0.68550000  0.56940000  1.0 -0.4292649025
O  O38  1  0.29270000  0.31450000  0.43060000  1.0 -0.4292649025
O  O39  1  0.82410000  0.76490000  0.55500000  1.0 -0.4787163207
O  O40  1  0.17590000  0.23510000  0.44500000  1.0 -0.4787163207
O  O41  1  0.93060000  0.98970000  0.70830000  1.0 -0.5619352156
O  O42  1  0.06940000  0.01030000  0.29170000  1.0 -0.5619352156
O  O43  1  0.83470000  0.85350000  0.65490000  1.0 -0.6507676238
O  O44  1  0.16530000  0.14650000  0.34510000  1.0 -0.6507676238
O  O45  1  0.63270000  0.54620000  0.81650000  1.0 -0.6345311993
O  O46  1  0.36730000  0.45380000  0.18350000  1.0 -0.6345311993
O  O47  1  0.52200000  0.41380000  0.77110000  1.0 -0.5694279367
O  O48  1  0.47800000  0.58620000  0.22890000  1.0 -0.5694279367
O  O49  1  0.82220000  0.62200000  0.86020000  1.0 -0.5619352156
O  O50  1  0.17780000  0.37800000  0.13980000  1.0 -0.5619352156
O  O51  1  0.78460000  0.47950000  0.81300000  1.0 -0.6144306058
O  O52  1  0.21540000  0.52050000  0.18700000  1.0 -0.6206041171
O  O53  1  0.70320000  0.94710000  0.68740000  1.0 -0.6029791826
O  O54  1  0.29680000  0.05290000  0.31260000  1.0 -0.6029791826
O  O55  1  0.63990000  0.82530000  0.62270000  1.0 -0.5408703579
O  O56  1  0.36010000  0.17470000  0.37730000  1.0 -0.5408703579
