# DDEC6 charges by PACMAN v1.1 (https://github.com/mtap-research/PACMAN-charge/)
data_GOSVOC_ASR_pacman
_symmetry_space_group_name_H-M   'P 1'
_cell_length_a   12.36350000
_cell_length_b   55.77000000
_cell_length_c   22.45290000
_cell_angle_alpha   90.00000000
_cell_angle_beta   120.95000000
_cell_angle_gamma   90.00000000
_symmetry_Int_Tables_number   1
_chemical_formula_structural   Co4H88C136N16O21
_chemical_formula_sum   'Co16 H352 C544 N64 O84'
_cell_volume   13277.23408567
_cell_formula_units_Z   4
loop_
 _symmetry_equiv_pos_site_id
 _symmetry_equiv_pos_as_xyz
  1  'x, y, z'
loop_
 _atom_site_type_symbol
 _atom_site_label
 _atom_site_symmetry_multiplicity
 _atom_site_fract_x
 _atom_site_fract_y
 _atom_site_fract_z
 _atom_site_occupancy
 _atom_site_charge
Co  Co1  1  0.30806000  0.73430000  0.06198000  1.0 0.8496433461
Co  Co2  1  0.84323000  0.50830000  0.56718000  1.0 0.7432043367
Co  Co3  1  0.69194000  0.23430000  0.43802000  1.0 0.8496433461
Co  Co4  1  0.15677000  0.00830000  0.93282000  1.0 0.7432043367
Co  Co5  1  0.69194000  0.26570000  0.93802000  1.0 0.8496433461
Co  Co6  1  0.15677000  0.49170000  0.43282000  1.0 0.7432043367
Co  Co7  1  0.30806000  0.76570000  0.56198000  1.0 0.8496433461
Co  Co8  1  0.84323000  0.99170000  0.06718000  1.0 0.74597184
Co  Co9  1  0.29699000  0.49435000  0.03943000  1.0 0.8666512185
Co  Co10  1  0.23838000  0.21796000  0.96210000  1.0 0.8139033132
Co  Co11  1  0.70301000  0.99435000  0.46057000  1.0 0.8666512185
Co  Co12  1  0.76162000  0.71796000  0.53790000  1.0 0.8139033132
Co  Co13  1  0.70301000  0.50565000  0.96057000  1.0 0.8666512185
Co  Co14  1  0.76162000  0.78204000  0.03790000  1.0 0.8139033132
Co  Co15  1  0.29699000  0.00565000  0.53943000  1.0 0.8666512185
Co  Co16  1  0.23838000  0.28204000  0.46210000  1.0 0.8139033132
H  H1  1  0.01160000  0.75640000  0.96820000  1.0 0.1298568779
H  H2  1  0.82640000  0.73100000  0.89550000  1.0 0.1298568779
H  H3  1  0.12890000  0.68940000  0.00080000  1.0 0.1192856892
H  H4  1  0.82360000  0.69120000  0.80620000  1.0 0.1298568779
H  H5  1  0.69910000  0.65720000  0.75400000  1.0 0.1192856892
H  H6  1  0.77830000  0.63330000  0.94150000  1.0 0.1192856892
H  H7  1  0.91130000  0.66600000  0.99470000  1.0 0.1298568779
H  H8  1  0.54130000  0.60210000  0.68300000  1.0 0.1192856892
H  H9  1  0.61590000  0.56900000  0.64860000  1.0 0.1298568779
H  H10  1  0.92910000  0.56710000  0.84020000  1.0 0.1383517412
H  H11  1  0.85090000  0.59910000  0.87370000  1.0 0.1192856892
H  H12  1  0.95950000  0.52810000  0.81480000  1.0 0.1383517412
H  H13  1  0.97740000  0.49850000  0.73830000  1.0 0.1298568779
H  H14  1  0.72040000  0.54580000  0.61640000  1.0 0.1107927189
H  H15  1  0.27270000  0.61850000  0.73260000  1.0 0.1192856892
H  H16  1  0.13760000  0.58650000  0.67430000  1.0 0.1192856892
H  H17  1  0.43700000  0.54150000  0.75480000  1.0 0.1192856892
H  H18  1  0.56920000  0.57300000  0.81820000  1.0 0.1192856892
H  H19  1  0.30560000  0.52050000  0.64060000  1.0 0.1383517412
H  H20  1  0.11500000  0.49580000  0.57610000  1.0 0.1298568779
H  H21  1  0.02780000  0.54960000  0.65830000  1.0 0.1014860744
H  H22  1  0.43900000  0.62130000  0.89380000  1.0 0.1107927189
H  H23  1  0.37590000  0.65280000  0.93730000  1.0 0.1298568779
H  H24  1  0.42970000  0.69930000  0.81650000  1.0 0.1298568779
H  H25  1  0.49050000  0.66760000  0.77220000  1.0 0.1192856892
H  H26  1  0.26780000  0.72250000  0.82560000  1.0 0.1298568779
H  H27  1  0.23210000  0.74670000  0.90550000  1.0 0.1192856892
H  H28  1  0.42850000  0.68950000  0.01020000  1.0 0.1192856892
H  H29  1  0.24230000  0.66180000  0.10630000  1.0 0.1192856892
H  H30  1  0.23790000  0.62090000  0.12720000  1.0 0.1107927189
H  H31  1  0.60580000  0.62390000  0.27950000  1.0 0.1014860744
H  H32  1  0.60840000  0.66450000  0.25940000  1.0 0.1014860744
H  H33  1  0.50250000  0.54740000  0.23570000  1.0 0.1107927189
H  H34  1  0.63040000  0.52680000  0.33790000  1.0 0.1192856892
H  H35  1  0.65530000  0.58580000  0.44830000  1.0 0.1192856892
H  H36  1  0.53150000  0.60690000  0.34610000  1.0 0.1192856892
H  H37  1  0.66250000  0.41890000  0.46640000  1.0 0.1192856892
H  H38  1  0.71600000  0.38370000  0.43170000  1.0 0.1107927189
H  H39  1  0.05950000  0.41190000  0.49090000  1.0 0.1014860744
H  H40  1  0.00850000  0.44630000  0.52930000  1.0 0.1107927189
H  H41  1  0.87350000  0.35110000  0.51750000  1.0 0.1014860744
H  H42  1  0.81480000  0.31130000  0.51810000  1.0 0.1107927189
H  H43  1  0.78140000  0.30060000  0.33100000  1.0 0.1192856892
H  H44  1  0.85310000  0.33950000  0.33390000  1.0 0.1107927189
H  H45  1  0.98840000  0.25640000  0.53180000  1.0 0.1298568779
H  H46  1  0.17360000  0.23100000  0.60450000  1.0 0.1298568779
H  H47  1  0.87110000  0.18940000  0.49920000  1.0 0.1192856892
H  H48  1  0.17640000  0.19120000  0.69380000  1.0 0.1298568779
H  H49  1  0.30090000  0.15720000  0.74600000  1.0 0.1192856892
H  H50  1  0.22170000  0.13330000  0.55850000  1.0 0.1192856892
H  H51  1  0.08870000  0.16600000  0.50530000  1.0 0.1298568779
H  H52  1  0.45870000  0.10210000  0.81700000  1.0 0.1192856892
H  H53  1  0.38410000  0.06900000  0.85140000  1.0 0.1298568779
H  H54  1  0.07090000  0.06710000  0.65980000  1.0 0.1383517412
H  H55  1  0.14910000  0.09910000  0.62630000  1.0 0.1192856892
H  H56  1  0.04050000  0.02810000  0.68520000  1.0 0.1383517412
H  H57  1  0.02260000  0.99850000  0.76170000  1.0 0.1298568779
H  H58  1  0.27960000  0.04580000  0.88360000  1.0 0.1107927189
H  H59  1  0.72730000  0.11850000  0.76740000  1.0 0.1192856892
H  H60  1  0.86240000  0.08650000  0.82570000  1.0 0.1192856892
H  H61  1  0.56300000  0.04150000  0.74520000  1.0 0.1192856892
H  H62  1  0.43080000  0.07300000  0.68180000  1.0 0.1192856892
H  H63  1  0.69440000  0.02050000  0.85940000  1.0 0.1383517412
H  H64  1  0.88500000  0.99580000  0.92390000  1.0 0.1298568779
H  H65  1  0.97220000  0.04960000  0.84170000  1.0 0.1014860744
H  H66  1  0.56100000  0.12130000  0.60620000  1.0 0.1107927189
H  H67  1  0.62410000  0.15280000  0.56270000  1.0 0.1298568779
H  H68  1  0.57030000  0.19930000  0.68350000  1.0 0.1298568779
H  H69  1  0.50950000  0.16760000  0.72780000  1.0 0.1192856892
H  H70  1  0.73220000  0.22250000  0.67440000  1.0 0.1298568779
H  H71  1  0.76790000  0.24670000  0.59450000  1.0 0.1192856892
H  H72  1  0.57150000  0.18950000  0.48980000  1.0 0.1192856892
H  H73  1  0.75770000  0.16180000  0.39370000  1.0 0.1192856892
H  H74  1  0.76210000  0.12090000  0.37280000  1.0 0.1107927189
H  H75  1  0.39420000  0.12390000  0.22050000  1.0 0.1014860744
H  H76  1  0.39160000  0.16450000  0.24060000  1.0 0.1014860744
H  H77  1  0.49750000  0.04740000  0.26430000  1.0 0.1107927189
H  H78  1  0.36960000  0.02680000  0.16210000  1.0 0.1192856892
H  H79  1  0.34470000  0.08580000  0.05170000  1.0 0.1192856892
H  H80  1  0.46850000  0.10690000  0.15390000  1.0 0.1192856892
H  H81  1  0.33750000  0.91890000  0.03360000  1.0 0.1192856892
H  H82  1  0.28400000  0.88370000  0.06830000  1.0 0.1107927189
H  H83  1  0.94050000  0.91190000  0.00910000  1.0 0.1014860744
H  H84  1  0.99150000  0.94630000  0.97070000  1.0 0.1107927189
H  H85  1  0.12650000  0.85110000  0.98250000  1.0 0.1014860744
H  H86  1  0.18520000  0.81130000  0.98190000  1.0 0.1107927189
H  H87  1  0.21860000  0.80060000  0.16900000  1.0 0.1192856892
H  H88  1  0.14690000  0.83950000  0.16610000  1.0 0.1107927189
H  H89  1  0.98840000  0.24360000  0.03180000  1.0 0.1298568779
H  H90  1  0.17360000  0.26900000  0.10450000  1.0 0.1298568779
H  H91  1  0.87110000  0.31060000  0.99920000  1.0 0.1192856892
H  H92  1  0.17640000  0.30880000  0.19380000  1.0 0.1298568779
H  H93  1  0.30090000  0.34280000  0.24600000  1.0 0.1192856892
H  H94  1  0.22170000  0.36670000  0.05850000  1.0 0.1192856892
H  H95  1  0.08870000  0.33400000  0.00530000  1.0 0.1298568779
H  H96  1  0.45870000  0.39790000  0.31700000  1.0 0.1192856892
H  H97  1  0.38410000  0.43100000  0.35140000  1.0 0.1298568779
H  H98  1  0.07090000  0.43290000  0.15980000  1.0 0.1383517412
H  H99  1  0.14910000  0.40090000  0.12630000  1.0 0.1192856892
H  H100  1  0.04050000  0.47190000  0.18520000  1.0 0.1383517412
H  H101  1  0.02260000  0.50150000  0.26170000  1.0 0.1298568779
H  H102  1  0.27960000  0.45420000  0.38360000  1.0 0.1107927189
H  H103  1  0.72730000  0.38150000  0.26740000  1.0 0.1192856892
H  H104  1  0.86240000  0.41350000  0.32570000  1.0 0.1192856892
H  H105  1  0.56300000  0.45850000  0.24520000  1.0 0.1192856892
H  H106  1  0.43080000  0.42700000  0.18180000  1.0 0.1192856892
H  H107  1  0.69440000  0.47950000  0.35940000  1.0 0.1383517412
H  H108  1  0.88500000  0.50420000  0.42390000  1.0 0.1298568779
H  H109  1  0.97220000  0.45040000  0.34170000  1.0 0.1014860744
H  H110  1  0.56100000  0.37870000  0.10620000  1.0 0.1107927189
H  H111  1  0.62410000  0.34720000  0.06270000  1.0 0.1298568779
H  H112  1  0.57030000  0.30070000  0.18350000  1.0 0.1298568779
H  H113  1  0.50950000  0.33240000  0.22780000  1.0 0.1192856892
H  H114  1  0.73220000  0.27750000  0.17440000  1.0 0.1298568779
H  H115  1  0.76790000  0.25330000  0.09450000  1.0 0.1192856892
H  H116  1  0.57150000  0.31050000  0.98980000  1.0 0.1192856892
H  H117  1  0.75770000  0.33820000  0.89370000  1.0 0.1192856892
H  H118  1  0.76210000  0.37910000  0.87280000  1.0 0.1107927189
H  H119  1  0.39420000  0.37610000  0.72050000  1.0 0.1014860744
H  H120  1  0.39160000  0.33550000  0.74060000  1.0 0.1014860744
H  H121  1  0.49750000  0.45260000  0.76430000  1.0 0.1107927189
H  H122  1  0.36960000  0.47320000  0.66210000  1.0 0.1192856892
H  H123  1  0.34470000  0.41420000  0.55170000  1.0 0.1192856892
H  H124  1  0.46850000  0.39310000  0.65390000  1.0 0.1192856892
H  H125  1  0.33750000  0.58110000  0.53360000  1.0 0.1192856892
H  H126  1  0.28400000  0.61630000  0.56830000  1.0 0.1107927189
H  H127  1  0.94050000  0.58810000  0.50910000  1.0 0.1014860744
H  H128  1  0.99150000  0.55370000  0.47070000  1.0 0.1107927189
H  H129  1  0.12650000  0.64890000  0.48250000  1.0 0.1014860744
H  H130  1  0.18520000  0.68870000  0.48190000  1.0 0.1107927189
H  H131  1  0.21860000  0.69940000  0.66900000  1.0 0.1192856892
H  H132  1  0.14690000  0.66050000  0.66610000  1.0 0.1107927189
H  H133  1  0.01160000  0.74360000  0.46820000  1.0 0.1298568779
H  H134  1  0.82640000  0.76900000  0.39550000  1.0 0.1298568779
H  H135  1  0.12890000  0.81060000  0.50080000  1.0 0.1192856892
H  H136  1  0.82360000  0.80880000  0.30620000  1.0 0.1298568779
H  H137  1  0.69910000  0.84280000  0.25400000  1.0 0.1192856892
H  H138  1  0.77830000  0.86670000  0.44150000  1.0 0.1192856892
H  H139  1  0.91130000  0.83400000  0.49470000  1.0 0.1298568779
H  H140  1  0.54130000  0.89790000  0.18300000  1.0 0.1192856892
H  H141  1  0.61590000  0.93100000  0.14860000  1.0 0.1298568779
H  H142  1  0.92910000  0.93290000  0.34020000  1.0 0.1383517412
H  H143  1  0.85090000  0.90090000  0.37370000  1.0 0.1192856892
H  H144  1  0.95950000  0.97190000  0.31480000  1.0 0.1383517412
H  H145  1  0.97740000  0.00150000  0.23830000  1.0 0.1298568779
H  H146  1  0.72040000  0.95420000  0.11640000  1.0 0.1107927189
H  H147  1  0.27270000  0.88150000  0.23260000  1.0 0.1192856892
H  H148  1  0.13760000  0.91350000  0.17430000  1.0 0.1192856892
H  H149  1  0.43700000  0.95850000  0.25480000  1.0 0.1192856892
H  H150  1  0.56920000  0.92700000  0.31820000  1.0 0.1192856892
H  H151  1  0.30560000  0.97950000  0.14060000  1.0 0.1383517412
H  H152  1  0.11500000  0.00420000  0.07610000  1.0 0.1298568779
H  H153  1  0.02780000  0.95040000  0.15830000  1.0 0.1014860744
H  H154  1  0.43900000  0.87870000  0.39380000  1.0 0.1107927189
H  H155  1  0.37590000  0.84720000  0.43730000  1.0 0.1298568779
H  H156  1  0.42970000  0.80070000  0.31650000  1.0 0.1298568779
H  H157  1  0.49050000  0.83240000  0.27220000  1.0 0.1192856892
H  H158  1  0.26780000  0.77750000  0.32560000  1.0 0.1298568779
H  H159  1  0.23210000  0.75330000  0.40550000  1.0 0.1192856892
H  H160  1  0.42850000  0.81050000  0.51020000  1.0 0.1192856892
H  H161  1  0.24230000  0.83820000  0.60630000  1.0 0.1192856892
H  H162  1  0.23790000  0.87910000  0.62720000  1.0 0.1107927189
H  H163  1  0.60580000  0.87610000  0.77950000  1.0 0.1014860744
H  H164  1  0.60840000  0.83550000  0.75940000  1.0 0.1014860744
H  H165  1  0.50250000  0.95260000  0.73570000  1.0 0.1107927189
H  H166  1  0.63040000  0.97320000  0.83790000  1.0 0.1192856892
H  H167  1  0.65530000  0.91420000  0.94830000  1.0 0.1192856892
H  H168  1  0.53150000  0.89310000  0.84610000  1.0 0.1192856892
H  H169  1  0.66250000  0.08110000  0.96640000  1.0 0.1192856892
H  H170  1  0.71600000  0.11630000  0.93170000  1.0 0.1107927189
H  H171  1  0.05950000  0.08810000  0.99090000  1.0 0.1014860744
H  H172  1  0.00850000  0.05370000  0.02930000  1.0 0.1107927189
H  H173  1  0.87350000  0.14890000  0.01750000  1.0 0.1014860744
H  H174  1  0.81480000  0.18870000  0.01810000  1.0 0.1107927189
H  H175  1  0.78140000  0.19940000  0.83100000  1.0 0.1192856892
H  H176  1  0.85310000  0.16050000  0.83390000  1.0 0.1107927189
H  H177  1  0.65660000  0.97530000  0.31350000  1.0 0.1192856892
H  H178  1  0.67880000  0.99910000  0.22780000  1.0 0.1192856892
H  H179  1  0.82320000  0.03580000  0.40620000  1.0 0.1298568779
H  H180  1  0.95880000  0.05300000  0.37050000  1.0 0.1383517412
H  H181  1  0.01420000  0.08540000  0.32640000  1.0 0.1192856892
H  H182  1  0.71100000  0.07330000  0.13640000  1.0 0.1192856892
H  H183  1  0.65560000  0.04050000  0.17990000  1.0 0.1192856892
H  H184  1  0.79270000  0.12910000  0.25000000  1.0 0.1192856892
H  H185  1  0.66450000  0.16330000  0.20410000  1.0 0.1383517412
H  H186  1  0.66060000  0.15440000  0.02460000  1.0 0.1298568779
H  H187  1  0.79120000  0.12100000  0.07100000  1.0 0.1192856892
H  H188  1  0.71720000  0.20990000  0.09810000  1.0 0.1298568779
H  H189  1  0.53450000  0.23620000  0.02820000  1.0 0.1298568779
H  H190  1  0.40120000  0.17320000  0.04040000  1.0 0.1192856892
H  H191  1  0.12760000  0.10590000  0.12790000  1.0 0.1107927189
H  H192  1  0.18950000  0.13850000  0.08710000  1.0 0.1298568779
H  H193  1  0.08090000  0.18370000  0.18800000  1.0 0.1383517412
H  H194  1  0.02270000  0.15100000  0.23000000  1.0 0.1192856892
H  H195  1  0.24810000  0.20930000  0.18620000  1.0 0.1383517412
H  H196  1  0.26980000  0.23480000  0.10370000  1.0 0.1298568779
H  H197  1  0.11830000  0.17380000  0.00720000  1.0 0.1192856892
H  H198  1  0.98810000  0.05850000  0.15780000  1.0 0.1192856892
H  H199  1  0.12330000  0.02570000  0.20230000  1.0 0.1192856892
H  H200  1  0.38570000  0.06750000  0.35620000  1.0 0.1298568779
H  H201  1  0.25690000  0.10090000  0.30650000  1.0 0.1192856892
H  H202  1  0.22360000  0.99310000  0.27730000  1.0 0.1192856892
H  H203  1  0.41240000  0.96950000  0.35520000  1.0 0.1192856892
H  H204  1  0.51830000  0.03720000  0.37900000  1.0 0.1107927189
H  H205  1  0.12770000  0.14100000  0.83610000  1.0 0.1298568779
H  H206  1  0.02940000  0.12100000  0.73020000  1.0 0.1107927189
H  H207  1  0.86810000  0.18340000  0.63130000  1.0 0.1014860744
H  H208  1  0.95810000  0.20270000  0.73710000  1.0 0.1192856892
H  H209  1  0.80910000  0.10770000  0.66590000  1.0 0.1107927189
H  H210  1  0.71930000  0.06960000  0.62960000  1.0 0.1107927189
H  H211  1  0.78230000  0.07250000  0.46970000  1.0 0.1192856892
H  H212  1  0.85700000  0.11150000  0.50060000  1.0 0.1192856892
H  H213  1  0.28380000  0.29780000  0.01410000  1.0 0.1107927189
H  H214  1  0.31570000  0.33870000  0.00640000  1.0 0.1014860744
H  H215  1  0.32070000  0.32670000  0.83010000  1.0 0.1107927189
H  H216  1  0.28660000  0.28600000  0.83700000  1.0 0.1298568779
H  H217  1  0.15370000  0.36990000  0.92040000  1.0 0.1107927189
H  H218  1  0.09870000  0.40320000  0.96240000  1.0 0.1192856892
H  H219  1  0.44270000  0.43240000  0.02930000  1.0 0.1192856892
H  H220  1  0.49230000  0.40030000  0.98120000  1.0 0.1107927189
H  H221  1  0.34340000  0.47530000  0.18650000  1.0 0.1192856892
H  H222  1  0.32120000  0.49910000  0.27220000  1.0 0.1192856892
H  H223  1  0.17680000  0.53580000  0.09380000  1.0 0.1298568779
H  H224  1  0.04120000  0.55300000  0.12950000  1.0 0.1383517412
H  H225  1  0.98580000  0.58540000  0.17360000  1.0 0.1192856892
H  H226  1  0.28900000  0.57330000  0.36360000  1.0 0.1192856892
H  H227  1  0.34440000  0.54050000  0.32010000  1.0 0.1192856892
H  H228  1  0.20730000  0.62910000  0.25000000  1.0 0.1192856892
H  H229  1  0.33550000  0.66330000  0.29590000  1.0 0.1383517412
H  H230  1  0.33940000  0.65440000  0.47540000  1.0 0.1298568779
H  H231  1  0.20880000  0.62100000  0.42900000  1.0 0.1192856892
H  H232  1  0.28280000  0.70990000  0.40190000  1.0 0.1298568779
H  H233  1  0.46550000  0.73620000  0.47180000  1.0 0.1298568779
H  H234  1  0.59880000  0.67320000  0.45960000  1.0 0.1192856892
H  H235  1  0.87240000  0.60590000  0.37210000  1.0 0.1107927189
H  H236  1  0.81050000  0.63850000  0.41290000  1.0 0.1298568779
H  H237  1  0.91910000  0.68370000  0.31200000  1.0 0.1383517412
H  H238  1  0.97730000  0.65100000  0.27000000  1.0 0.1192856892
H  H239  1  0.75190000  0.70930000  0.31380000  1.0 0.1383517412
H  H240  1  0.73020000  0.73480000  0.39630000  1.0 0.1298568779
H  H241  1  0.88170000  0.67380000  0.49280000  1.0 0.1192856892
H  H242  1  0.01190000  0.55850000  0.34220000  1.0 0.1192856892
H  H243  1  0.87670000  0.52570000  0.29770000  1.0 0.1192856892
H  H244  1  0.61430000  0.56750000  0.14380000  1.0 0.1298568779
H  H245  1  0.74310000  0.60090000  0.19350000  1.0 0.1192856892
H  H246  1  0.77640000  0.49310000  0.22270000  1.0 0.1192856892
H  H247  1  0.58760000  0.46950000  0.14480000  1.0 0.1192856892
H  H248  1  0.48170000  0.53720000  0.12100000  1.0 0.1107927189
H  H249  1  0.87230000  0.64100000  0.66390000  1.0 0.1298568779
H  H250  1  0.97060000  0.62100000  0.76980000  1.0 0.1107927189
H  H251  1  0.13190000  0.68340000  0.86870000  1.0 0.1014860744
H  H252  1  0.04190000  0.70270000  0.76290000  1.0 0.1192856892
H  H253  1  0.19090000  0.60770000  0.83410000  1.0 0.1107927189
H  H254  1  0.28070000  0.56960000  0.87040000  1.0 0.1107927189
H  H255  1  0.21770000  0.57250000  0.03030000  1.0 0.1192856892
H  H256  1  0.14300000  0.61150000  0.99940000  1.0 0.1192856892
H  H257  1  0.71620000  0.79780000  0.48590000  1.0 0.1107927189
H  H258  1  0.68430000  0.83870000  0.49360000  1.0 0.1014860744
H  H259  1  0.67930000  0.82670000  0.66990000  1.0 0.1107927189
H  H260  1  0.71340000  0.78600000  0.66300000  1.0 0.1298568779
H  H261  1  0.84630000  0.86990000  0.57960000  1.0 0.1107927189
H  H262  1  0.90130000  0.90320000  0.53760000  1.0 0.1192856892
H  H263  1  0.55730000  0.93240000  0.47070000  1.0 0.1192856892
H  H264  1  0.50770000  0.90030000  0.51880000  1.0 0.1107927189
H  H265  1  0.34340000  0.02470000  0.68650000  1.0 0.1192856892
H  H266  1  0.32120000  0.00090000  0.77220000  1.0 0.1192856892
H  H267  1  0.17680000  0.96420000  0.59380000  1.0 0.1298568779
H  H268  1  0.04120000  0.94700000  0.62950000  1.0 0.1383517412
H  H269  1  0.98580000  0.91460000  0.67360000  1.0 0.1192856892
H  H270  1  0.28900000  0.92670000  0.86360000  1.0 0.1192856892
H  H271  1  0.34440000  0.95950000  0.82010000  1.0 0.1192856892
H  H272  1  0.20730000  0.87090000  0.75000000  1.0 0.1192856892
H  H273  1  0.33550000  0.83670000  0.79590000  1.0 0.1383517412
H  H274  1  0.33940000  0.84560000  0.97540000  1.0 0.1298568779
H  H275  1  0.20880000  0.87900000  0.92900000  1.0 0.1192856892
H  H276  1  0.28280000  0.79010000  0.90190000  1.0 0.1298568779
H  H277  1  0.46550000  0.76380000  0.97180000  1.0 0.1298568779
H  H278  1  0.59880000  0.82680000  0.95960000  1.0 0.1192856892
H  H279  1  0.87240000  0.89410000  0.87210000  1.0 0.1107927189
H  H280  1  0.81050000  0.86150000  0.91290000  1.0 0.1298568779
H  H281  1  0.91910000  0.81630000  0.81200000  1.0 0.1383517412
H  H282  1  0.97730000  0.84900000  0.77000000  1.0 0.1192856892
H  H283  1  0.75190000  0.79070000  0.81380000  1.0 0.1383517412
H  H284  1  0.73020000  0.76520000  0.89630000  1.0 0.1298568779
H  H285  1  0.88170000  0.82620000  0.99280000  1.0 0.1192856892
H  H286  1  0.01190000  0.94150000  0.84220000  1.0 0.1192856892
H  H287  1  0.87670000  0.97430000  0.79770000  1.0 0.1192856892
H  H288  1  0.61430000  0.93250000  0.64380000  1.0 0.1298568779
H  H289  1  0.74310000  0.89910000  0.69350000  1.0 0.1192856892
H  H290  1  0.77640000  0.00690000  0.72270000  1.0 0.1192856892
H  H291  1  0.58760000  0.03050000  0.64480000  1.0 0.1192856892
H  H292  1  0.48170000  0.96280000  0.62100000  1.0 0.1107927189
H  H293  1  0.87230000  0.85900000  0.16390000  1.0 0.1298568779
H  H294  1  0.97060000  0.87900000  0.26980000  1.0 0.1107927189
H  H295  1  0.13190000  0.81660000  0.36870000  1.0 0.1014860744
H  H296  1  0.04190000  0.79730000  0.26290000  1.0 0.1192856892
H  H297  1  0.19090000  0.89230000  0.33410000  1.0 0.1107927189
H  H298  1  0.28070000  0.93040000  0.37040000  1.0 0.1107927189
H  H299  1  0.21770000  0.92750000  0.53030000  1.0 0.1192856892
H  H300  1  0.14300000  0.88850000  0.49940000  1.0 0.1192856892
H  H301  1  0.71620000  0.70220000  0.98590000  1.0 0.1107927189
H  H302  1  0.68430000  0.66130000  0.99360000  1.0 0.1014860744
H  H303  1  0.67930000  0.67330000  0.16990000  1.0 0.1107927189
H  H304  1  0.71340000  0.71400000  0.16300000  1.0 0.1298568779
H  H305  1  0.84630000  0.63010000  0.07960000  1.0 0.1107927189
H  H306  1  0.90130000  0.59680000  0.03760000  1.0 0.1192856892
H  H307  1  0.55730000  0.56760000  0.97070000  1.0 0.1192856892
H  H308  1  0.50770000  0.59970000  0.01880000  1.0 0.1107927189
H  H309  1  0.65660000  0.52470000  0.81350000  1.0 0.1192856892
H  H310  1  0.67880000  0.50090000  0.72780000  1.0 0.1192856892
H  H311  1  0.82320000  0.46420000  0.90620000  1.0 0.1298568779
H  H312  1  0.95880000  0.44700000  0.87050000  1.0 0.1383517412
H  H313  1  0.01420000  0.41460000  0.82640000  1.0 0.1192856892
H  H314  1  0.71100000  0.42670000  0.63640000  1.0 0.1192856892
H  H315  1  0.65560000  0.45950000  0.67990000  1.0 0.1192856892
H  H316  1  0.79270000  0.37090000  0.75000000  1.0 0.1192856892
H  H317  1  0.66450000  0.33670000  0.70410000  1.0 0.1383517412
H  H318  1  0.66060000  0.34560000  0.52460000  1.0 0.1298568779
H  H319  1  0.79120000  0.37900000  0.57100000  1.0 0.1192856892
H  H320  1  0.71720000  0.29010000  0.59810000  1.0 0.1298568779
H  H321  1  0.53450000  0.26380000  0.52820000  1.0 0.1298568779
H  H322  1  0.40120000  0.32680000  0.54040000  1.0 0.1192856892
H  H323  1  0.12760000  0.39410000  0.62790000  1.0 0.1107927189
H  H324  1  0.18950000  0.36150000  0.58710000  1.0 0.1298568779
H  H325  1  0.08090000  0.31630000  0.68800000  1.0 0.1383517412
H  H326  1  0.02270000  0.34900000  0.73000000  1.0 0.1192856892
H  H327  1  0.24810000  0.29070000  0.68620000  1.0 0.1383517412
H  H328  1  0.26980000  0.26520000  0.60370000  1.0 0.1298568779
H  H329  1  0.11830000  0.32620000  0.50720000  1.0 0.1192856892
H  H330  1  0.98810000  0.44150000  0.65780000  1.0 0.1192856892
H  H331  1  0.12330000  0.47430000  0.70230000  1.0 0.1192856892
H  H332  1  0.38570000  0.43250000  0.85620000  1.0 0.1298568779
H  H333  1  0.25690000  0.39910000  0.80650000  1.0 0.1192856892
H  H334  1  0.22360000  0.50690000  0.77730000  1.0 0.1192856892
H  H335  1  0.41240000  0.53050000  0.85520000  1.0 0.1192856892
H  H336  1  0.51830000  0.46280000  0.87900000  1.0 0.1107927189
H  H337  1  0.12770000  0.35900000  0.33610000  1.0 0.1298568779
H  H338  1  0.02940000  0.37900000  0.23020000  1.0 0.1107927189
H  H339  1  0.86810000  0.31660000  0.13130000  1.0 0.1014860744
H  H340  1  0.95810000  0.29730000  0.23710000  1.0 0.1192856892
H  H341  1  0.80910000  0.39230000  0.16590000  1.0 0.1107927189
H  H342  1  0.71930000  0.43040000  0.12960000  1.0 0.1107927189
H  H343  1  0.78230000  0.42750000  0.96970000  1.0 0.1192856892
H  H344  1  0.85700000  0.38850000  0.00060000  1.0 0.1192856892
H  H345  1  0.28380000  0.20220000  0.51410000  1.0 0.1107927189
H  H346  1  0.31570000  0.16130000  0.50640000  1.0 0.1014860744
H  H347  1  0.32070000  0.17330000  0.33010000  1.0 0.1107927189
H  H348  1  0.28660000  0.21400000  0.33700000  1.0 0.1298568779
H  H349  1  0.15370000  0.13010000  0.42040000  1.0 0.1107927189
H  H350  1  0.09870000  0.09680000  0.46240000  1.0 0.1192856892
H  H351  1  0.44270000  0.06760000  0.52930000  1.0 0.1192856892
H  H352  1  0.49230000  0.09970000  0.48120000  1.0 0.1107927189
C  C1  1  0.01240000  0.73945000  0.96560000  1.0 -0.018476113
C  C2  1  0.91040000  0.72565000  0.92560000  1.0 -0.0996123587
C  C3  1  0.07667000  0.70323000  0.98347000  1.0 0.1192856892
C  C4  1  0.87620000  0.68173000  0.90480000  1.0 0.1599496993
C  C5  1  0.81450000  0.67931000  0.83370000  1.0 -0.1609534508
C  C6  1  0.73910000  0.65939000  0.80280000  1.0 -0.1286420857
C  C7  1  0.72150000  0.64263000  0.84240000  1.0 0.0690667595
C  C8  1  0.78710000  0.64510000  0.91380000  1.0 -0.1286420857
C  C9  1  0.86550000  0.66455000  0.94550000  1.0 -0.1609534508
C  C10  1  0.63392000  0.62192000  0.80882000  1.0 -0.018476113
C  C11  1  0.68520000  0.60295000  0.78270000  1.0 0.0635478013
C  C12  1  0.61860000  0.59459000  0.71560000  1.0 -0.1286420857
C  C13  1  0.66310000  0.57513000  0.69460000  1.0 -0.191386897
C  C14  1  0.77850000  0.56506000  0.74310000  1.0 0.1599496993
C  C15  1  0.84900000  0.57384000  0.80840000  1.0 -0.1609534508
C  C16  1  0.80190000  0.59283000  0.82800000  1.0 -0.1209783984
C  C17  1  0.91320000  0.52801000  0.76550000  1.0 -0.0996123587
C  C18  1  0.92230000  0.51193000  0.72310000  1.0 -0.0382266304
C  C19  1  0.78240000  0.53745000  0.65630000  1.0 0.0762838419
C  C20  1  0.52250000  0.62076000  0.80580000  1.0 -0.0090598768
C  C21  1  0.43670000  0.59974000  0.77690000  1.0 0.0690667595
C  C22  1  0.30700000  0.60290000  0.73640000  1.0 -0.1286420857
C  C23  1  0.22609000  0.58397000  0.70129000  1.0 -0.1801232799
C  C24  1  0.27570000  0.56139000  0.70610000  1.0 0.1599496993
C  C25  1  0.40380000  0.55721000  0.74990000  1.0 -0.1717181859
C  C26  1  0.48260000  0.57603000  0.78630000  1.0 -0.1117675421
C  C27  1  0.22620000  0.52330000  0.63650000  1.0 -0.0996123587
C  C28  1  0.12150000  0.50998000  0.60130000  1.0 -0.018476113
C  C29  1  0.07340000  0.53911000  0.64590000  1.0 0.0762838419
C  C30  1  0.47691000  0.64114000  0.83061000  1.0 0.0690667595
C  C31  1  0.43883000  0.63721000  0.87853000  1.0 -0.1209783984
C  C32  1  0.40072000  0.65587000  0.90442000  1.0 -0.1801232799
C  C33  1  0.39937000  0.67912000  0.88177000  1.0 0.1599496993
C  C34  1  0.43246000  0.68343000  0.83266000  1.0 -0.1801232799
C  C35  1  0.46965000  0.66455000  0.80675000  1.0 -0.1286420857
C  C36  1  0.29580000  0.71878000  0.87270000  1.0 -0.1117675421
C  C37  1  0.27719000  0.73195000  0.91679000  1.0 -0.0382266304
C  C38  1  0.38384000  0.70090000  0.97424000  1.0 0.1192856892
C  C39  1  0.43431000  0.69327000  0.16471000  1.0 0.565232914
C  C40  1  0.42698000  0.66715000  0.18018000  1.0 -0.0090598768
C  C41  1  0.31640000  0.65406000  0.14140000  1.0 -0.0996123587
C  C42  1  0.31381000  0.62975000  0.15381000  1.0 -0.1209783984
C  C43  1  0.42155000  0.61818000  0.20485000  1.0 0.0026192279
C  C44  1  0.53160000  0.63150000  0.24410000  1.0 -0.1286420857
C  C45  1  0.53311000  0.65560000  0.23191000  1.0 -0.0996123587
C  C46  1  0.41790000  0.59136000  0.21260000  1.0 0.3571512514
C  C47  1  0.50439000  0.57954000  0.28049000  1.0 0.0075289506
C  C48  1  0.53430000  0.55537000  0.27900000  1.0 -0.1209783984
C  C49  1  0.60930000  0.54308000  0.33980000  1.0 -0.1117675421
C  C50  1  0.65440000  0.55401000  0.40350000  1.0 -0.0521476938
C  C51  1  0.62450000  0.57796000  0.40490000  1.0 -0.1402653439
C  C52  1  0.55070000  0.59053000  0.34410000  1.0 -0.1209783984
C  C53  1  0.73080000  0.54057000  0.46980000  1.0 0.4438214042
C  C54  1  0.79340000  0.45872000  0.52430000  1.0 0.5491329643
C  C55  1  0.83000000  0.43608000  0.50170000  1.0 -0.0090598768
C  C56  1  0.74380000  0.41738000  0.47210000  1.0 -0.1286420857
C  C57  1  0.77510000  0.39651000  0.45080000  1.0 -0.1402653439
C  C58  1  0.89266000  0.39425000  0.45726000  1.0 -0.0090598768
C  C59  1  0.97908000  0.41320000  0.48648000  1.0 -0.1286420857
C  C60  1  0.94862000  0.43374000  0.50892000  1.0 -0.1286420857
C  C61  1  0.92419000  0.37326000  0.42829000  1.0 0.3307149002
C  C62  1  0.87112000  0.34905000  0.42622000  1.0 -0.0090598768
C  C63  1  0.85758000  0.34072000  0.48038000  1.0 -0.1464308983
C  C64  1  0.82085000  0.31712000  0.48015000  1.0 -0.1117675421
C  C65  1  0.79303000  0.30206000  0.42473000  1.0 0.0026192279
C  C66  1  0.80280000  0.31065000  0.36970000  1.0 -0.0996123587
C  C67  1  0.84370000  0.33387000  0.37090000  1.0 -0.1117675421
C  C68  1  0.75390000  0.27642000  0.42530000  1.0 0.5412445132
C  C69  1  0.98760000  0.23945000  0.53440000  1.0 -0.018476113
C  C70  1  0.08960000  0.22565000  0.57440000  1.0 -0.0996123587
C  C71  1  0.92333000  0.20323000  0.51653000  1.0 0.1192856892
C  C72  1  0.12380000  0.18173000  0.59520000  1.0 0.1599496993
C  C73  1  0.18550000  0.17931000  0.66630000  1.0 -0.1609534508
C  C74  1  0.26090000  0.15939000  0.69720000  1.0 -0.1286420857
C  C75  1  0.27850000  0.14263000  0.65760000  1.0 0.0690667595
C  C76  1  0.21290000  0.14510000  0.58620000  1.0 -0.1286420857
C  C77  1  0.13450000  0.16455000  0.55450000  1.0 -0.1609534508
C  C78  1  0.36608000  0.12192000  0.69118000  1.0 -0.018476113
C  C79  1  0.31480000  0.10295000  0.71730000  1.0 0.0635478013
C  C80  1  0.38140000  0.09459000  0.78440000  1.0 -0.1286420857
C  C81  1  0.33690000  0.07513000  0.80540000  1.0 -0.191386897
C  C82  1  0.22150000  0.06506000  0.75690000  1.0 0.1599496993
C  C83  1  0.15100000  0.07384000  0.69160000  1.0 -0.1609534508
C  C84  1  0.19810000  0.09283000  0.67200000  1.0 -0.1209783984
C  C85  1  0.08680000  0.02801000  0.73450000  1.0 -0.0996123587
C  C86  1  0.07770000  0.01193000  0.77690000  1.0 -0.0382266304
C  C87  1  0.21760000  0.03745000  0.84370000  1.0 0.0762838419
C  C88  1  0.47750000  0.12076000  0.69420000  1.0 -0.0090598768
C  C89  1  0.56330000  0.09974000  0.72310000  1.0 0.0690667595
C  C90  1  0.69300000  0.10290000  0.76360000  1.0 -0.1286420857
C  C91  1  0.77391000  0.08397000  0.79871000  1.0 -0.1801232799
C  C92  1  0.72430000  0.06139000  0.79390000  1.0 0.1599496993
C  C93  1  0.59620000  0.05721000  0.75010000  1.0 -0.1717181859
C  C94  1  0.51740000  0.07603000  0.71370000  1.0 -0.1117675421
C  C95  1  0.77380000  0.02330000  0.86350000  1.0 -0.0996123587
C  C96  1  0.87850000  0.00998000  0.89870000  1.0 -0.018476113
C  C97  1  0.92660000  0.03911000  0.85410000  1.0 0.0762838419
C  C98  1  0.52309000  0.14114000  0.66939000  1.0 0.0690667595
C  C99  1  0.56117000  0.13721000  0.62147000  1.0 -0.1209783984
C  C100  1  0.59928000  0.15587000  0.59558000  1.0 -0.1801232799
C  C101  1  0.60063000  0.17912000  0.61823000  1.0 0.1599496993
C  C102  1  0.56754000  0.18343000  0.66734000  1.0 -0.1801232799
C  C103  1  0.53035000  0.16455000  0.69325000  1.0 -0.1209783984
C  C104  1  0.70420000  0.21878000  0.62730000  1.0 -0.1117675421
C  C105  1  0.72281000  0.23195000  0.58321000  1.0 -0.0382266304
C  C106  1  0.61616000  0.20090000  0.52576000  1.0 0.1192856892
C  C107  1  0.56569000  0.19327000  0.33529000  1.0 0.565232914
C  C108  1  0.57302000  0.16715000  0.31982000  1.0 -0.0090598768
C  C109  1  0.68360000  0.15406000  0.35860000  1.0 -0.0996123587
C  C110  1  0.68619000  0.12975000  0.34619000  1.0 -0.1209783984
C  C111  1  0.57845000  0.11818000  0.29515000  1.0 0.0026192279
C  C112  1  0.46840000  0.13150000  0.25590000  1.0 -0.1286420857
C  C113  1  0.46689000  0.15560000  0.26809000  1.0 -0.0996123587
C  C114  1  0.58210000  0.09136000  0.28740000  1.0 0.3571512514
C  C115  1  0.49561000  0.07954000  0.21951000  1.0 0.0075289506
C  C116  1  0.46570000  0.05537000  0.22100000  1.0 -0.1209783984
C  C117  1  0.39070000  0.04308000  0.16020000  1.0 -0.1117675421
C  C118  1  0.34560000  0.05401000  0.09650000  1.0 -0.0521476938
C  C119  1  0.37550000  0.07796000  0.09510000  1.0 -0.1402653439
C  C120  1  0.44930000  0.09053000  0.15590000  1.0 -0.1209783984
C  C121  1  0.26920000  0.04057000  0.03020000  1.0 0.4438214042
C  C122  1  0.20660000  0.95872000  0.97570000  1.0 0.5491329643
C  C123  1  0.17000000  0.93608000  0.99830000  1.0 -0.0090598768
C  C124  1  0.25620000  0.91738000  0.02790000  1.0 -0.1286420857
C  C125  1  0.22490000  0.89651000  0.04920000  1.0 -0.1402653439
C  C126  1  0.10734000  0.89425000  0.04274000  1.0 -0.0090598768
C  C127  1  0.02092000  0.91320000  0.01352000  1.0 -0.1286420857
C  C128  1  0.05138000  0.93374000  0.99108000  1.0 -0.1286420857
C  C129  1  0.07581000  0.87326000  0.07171000  1.0 0.3307149002
C  C130  1  0.12888000  0.84905000  0.07378000  1.0 -0.0090598768
C  C131  1  0.14242000  0.84072000  0.01962000  1.0 -0.1464308983
C  C132  1  0.17915000  0.81712000  0.01985000  1.0 -0.1117675421
C  C133  1  0.20697000  0.80206000  0.07527000  1.0 0.0026192279
C  C134  1  0.19720000  0.81065000  0.13030000  1.0 -0.0996123587
C  C135  1  0.15630000  0.83387000  0.12910000  1.0 -0.1117675421
C  C136  1  0.24610000  0.77642000  0.07470000  1.0 0.5412445132
C  C137  1  0.98760000  0.26055000  0.03440000  1.0 -0.018476113
C  C138  1  0.08960000  0.27435000  0.07440000  1.0 -0.0996123587
C  C139  1  0.92333000  0.29677000  0.01653000  1.0 0.1192856892
C  C140  1  0.12380000  0.31827000  0.09520000  1.0 0.1599496993
C  C141  1  0.18550000  0.32069000  0.16630000  1.0 -0.1609534508
C  C142  1  0.26090000  0.34061000  0.19720000  1.0 -0.1286420857
C  C143  1  0.27850000  0.35737000  0.15760000  1.0 0.0690667595
C  C144  1  0.21290000  0.35490000  0.08620000  1.0 -0.1286420857
C  C145  1  0.13450000  0.33545000  0.05450000  1.0 -0.1609534508
C  C146  1  0.36608000  0.37808000  0.19118000  1.0 -0.018476113
C  C147  1  0.31480000  0.39705000  0.21730000  1.0 0.0635478013
C  C148  1  0.38140000  0.40541000  0.28440000  1.0 -0.1286420857
C  C149  1  0.33690000  0.42487000  0.30540000  1.0 -0.191386897
C  C150  1  0.22150000  0.43494000  0.25690000  1.0 0.1599496993
C  C151  1  0.15100000  0.42616000  0.19160000  1.0 -0.1609534508
C  C152  1  0.19810000  0.40717000  0.17200000  1.0 -0.1209783984
C  C153  1  0.08680000  0.47199000  0.23450000  1.0 -0.0996123587
C  C154  1  0.07770000  0.48807000  0.27690000  1.0 -0.0382266304
C  C155  1  0.21760000  0.46255000  0.34370000  1.0 0.0690667595
C  C156  1  0.47750000  0.37924000  0.19420000  1.0 -0.0090598768
C  C157  1  0.56330000  0.40026000  0.22310000  1.0 0.0690667595
C  C158  1  0.69300000  0.39710000  0.26360000  1.0 -0.1286420857
C  C159  1  0.77391000  0.41603000  0.29871000  1.0 -0.1801232799
C  C160  1  0.72430000  0.43861000  0.29390000  1.0 0.1599496993
C  C161  1  0.59620000  0.44279000  0.25010000  1.0 -0.1717181859
C  C162  1  0.51740000  0.42397000  0.21370000  1.0 -0.1117675421
C  C163  1  0.77380000  0.47670000  0.36350000  1.0 -0.0996123587
C  C164  1  0.87850000  0.49002000  0.39870000  1.0 -0.018476113
C  C165  1  0.92660000  0.46089000  0.35410000  1.0 0.0762838419
C  C166  1  0.52309000  0.35886000  0.16939000  1.0 0.0690667595
C  C167  1  0.56117000  0.36279000  0.12147000  1.0 -0.1209783984
C  C168  1  0.59928000  0.34413000  0.09558000  1.0 -0.1801232799
C  C169  1  0.60063000  0.32088000  0.11823000  1.0 0.1599496993
C  C170  1  0.56754000  0.31657000  0.16734000  1.0 -0.1801232799
C  C171  1  0.53035000  0.33545000  0.19325000  1.0 -0.1286420857
C  C172  1  0.70420000  0.28122000  0.12730000  1.0 -0.1117675421
C  C173  1  0.72281000  0.26805000  0.08321000  1.0 -0.0382266304
C  C174  1  0.61616000  0.29910000  0.02576000  1.0 0.1192856892
C  C175  1  0.56569000  0.30673000  0.83529000  1.0 0.5568665081
C  C176  1  0.57302000  0.33285000  0.81982000  1.0 -0.0090598768
C  C177  1  0.68360000  0.34594000  0.85860000  1.0 -0.0996123587
C  C178  1  0.68619000  0.37025000  0.84619000  1.0 -0.1209783984
C  C179  1  0.57845000  0.38182000  0.79515000  1.0 0.0026192279
C  C180  1  0.46840000  0.36850000  0.75590000  1.0 -0.1286420857
C  C181  1  0.46689000  0.34440000  0.76809000  1.0 -0.0996123587
C  C182  1  0.58210000  0.40864000  0.78740000  1.0 0.3571512514
C  C183  1  0.49561000  0.42046000  0.71951000  1.0 0.0075289506
C  C184  1  0.46570000  0.44463000  0.72100000  1.0 -0.1209783984
C  C185  1  0.39070000  0.45692000  0.66020000  1.0 -0.1117675421
C  C186  1  0.34560000  0.44599000  0.59650000  1.0 -0.0521476938
C  C187  1  0.37550000  0.42204000  0.59510000  1.0 -0.1402653439
C  C188  1  0.44930000  0.40947000  0.65590000  1.0 -0.1209783984
C  C189  1  0.26920000  0.45943000  0.53020000  1.0 0.4438214042
C  C190  1  0.20660000  0.54128000  0.47570000  1.0 0.5491329643
C  C191  1  0.17000000  0.56392000  0.49830000  1.0 -0.0090598768
C  C192  1  0.25620000  0.58262000  0.52790000  1.0 -0.1286420857
C  C193  1  0.22490000  0.60349000  0.54920000  1.0 -0.1402653439
C  C194  1  0.10734000  0.60575000  0.54274000  1.0 -0.0090598768
C  C195  1  0.02092000  0.58680000  0.51352000  1.0 -0.1286420857
C  C196  1  0.05138000  0.56626000  0.49108000  1.0 -0.1286420857
C  C197  1  0.07581000  0.62674000  0.57171000  1.0 0.3307149002
C  C198  1  0.12888000  0.65095000  0.57378000  1.0 -0.0090598768
C  C199  1  0.14242000  0.65928000  0.51962000  1.0 -0.1464308983
C  C200  1  0.17915000  0.68288000  0.51985000  1.0 -0.1117675421
C  C201  1  0.20697000  0.69794000  0.57527000  1.0 0.0026192279
C  C202  1  0.19720000  0.68935000  0.63030000  1.0 -0.0996123587
C  C203  1  0.15630000  0.66613000  0.62910000  1.0 -0.1117675421
C  C204  1  0.24610000  0.72358000  0.57470000  1.0 0.5412445132
C  C205  1  0.01240000  0.76055000  0.46560000  1.0 -0.018476113
C  C206  1  0.91040000  0.77435000  0.42560000  1.0 -0.0996123587
C  C207  1  0.07667000  0.79677000  0.48347000  1.0 0.1192856892
C  C208  1  0.87620000  0.81827000  0.40480000  1.0 0.1599496993
C  C209  1  0.81450000  0.82069000  0.33370000  1.0 -0.1609534508
C  C210  1  0.73910000  0.84061000  0.30280000  1.0 -0.1286420857
C  C211  1  0.72150000  0.85737000  0.34240000  1.0 0.0690667595
C  C212  1  0.78710000  0.85490000  0.41380000  1.0 -0.1286420857
C  C213  1  0.86550000  0.83545000  0.44550000  1.0 -0.1609534508
C  C214  1  0.63392000  0.87808000  0.30882000  1.0 -0.018476113
C  C215  1  0.68520000  0.89705000  0.28270000  1.0 0.0635478013
C  C216  1  0.61860000  0.90541000  0.21560000  1.0 -0.1286420857
C  C217  1  0.66310000  0.92487000  0.19460000  1.0 -0.191386897
C  C218  1  0.77850000  0.93494000  0.24310000  1.0 0.1599496993
C  C219  1  0.84900000  0.92616000  0.30840000  1.0 -0.1609534508
C  C220  1  0.80190000  0.90717000  0.32800000  1.0 -0.1209783984
C  C221  1  0.91320000  0.97199000  0.26550000  1.0 -0.0996123587
C  C222  1  0.92230000  0.98807000  0.22310000  1.0 -0.0382266304
C  C223  1  0.78240000  0.96255000  0.15630000  1.0 0.0762838419
C  C224  1  0.52250000  0.87924000  0.30580000  1.0 -0.0090598768
C  C225  1  0.43670000  0.90026000  0.27690000  1.0 0.0690667595
C  C226  1  0.30700000  0.89710000  0.23640000  1.0 -0.1286420857
C  C227  1  0.22609000  0.91603000  0.20129000  1.0 -0.1801232799
C  C228  1  0.27570000  0.93861000  0.20610000  1.0 0.1599496993
C  C229  1  0.40380000  0.94279000  0.24990000  1.0 -0.1717181859
C  C230  1  0.48260000  0.92397000  0.28630000  1.0 -0.1117675421
C  C231  1  0.22620000  0.97670000  0.13650000  1.0 -0.0996123587
C  C232  1  0.12150000  0.99002000  0.10130000  1.0 -0.018476113
C  C233  1  0.07340000  0.96089000  0.14590000  1.0 0.0762838419
C  C234  1  0.47691000  0.85886000  0.33061000  1.0 0.0690667595
C  C235  1  0.43883000  0.86279000  0.37853000  1.0 -0.1209783984
C  C236  1  0.40072000  0.84413000  0.40442000  1.0 -0.1801232799
C  C237  1  0.39937000  0.82088000  0.38177000  1.0 0.1599496993
C  C238  1  0.43246000  0.81657000  0.33266000  1.0 -0.1801232799
C  C239  1  0.46965000  0.83545000  0.30675000  1.0 -0.1286420857
C  C240  1  0.29580000  0.78122000  0.37270000  1.0 -0.1117675421
C  C241  1  0.27719000  0.76805000  0.41679000  1.0 -0.0382266304
C  C242  1  0.38384000  0.79910000  0.47424000  1.0 0.1192856892
C  C243  1  0.43431000  0.80673000  0.66471000  1.0 0.565232914
C  C244  1  0.42698000  0.83285000  0.68018000  1.0 -0.0090598768
C  C245  1  0.31640000  0.84594000  0.64140000  1.0 -0.0996123587
C  C246  1  0.31381000  0.87025000  0.65381000  1.0 -0.1209783984
C  C247  1  0.42155000  0.88182000  0.70485000  1.0 0.0026192279
C  C248  1  0.53160000  0.86850000  0.74410000  1.0 -0.1286420857
C  C249  1  0.53311000  0.84440000  0.73191000  1.0 -0.0996123587
C  C250  1  0.41790000  0.90864000  0.71260000  1.0 0.3571512514
C  C251  1  0.50439000  0.92046000  0.78049000  1.0 0.0075289506
C  C252  1  0.53430000  0.94463000  0.77900000  1.0 -0.1209783984
C  C253  1  0.60930000  0.95692000  0.83980000  1.0 -0.1117675421
C  C254  1  0.65440000  0.94599000  0.90350000  1.0 -0.0521476938
C  C255  1  0.62450000  0.92204000  0.90490000  1.0 -0.1402653439
C  C256  1  0.55070000  0.90947000  0.84410000  1.0 -0.1209783984
C  C257  1  0.73080000  0.95943000  0.96980000  1.0 0.4438214042
C  C258  1  0.79340000  0.04128000  0.02430000  1.0 0.5491329643
C  C259  1  0.83000000  0.06392000  0.00170000  1.0 -0.0090598768
C  C260  1  0.74380000  0.08262000  0.97210000  1.0 -0.1286420857
C  C261  1  0.77510000  0.10349000  0.95080000  1.0 -0.1402653439
C  C262  1  0.89266000  0.10575000  0.95726000  1.0 -0.0090598768
C  C263  1  0.97908000  0.08680000  0.98648000  1.0 -0.1286420857
C  C264  1  0.94862000  0.06626000  0.00892000  1.0 -0.1286420857
C  C265  1  0.92419000  0.12674000  0.92829000  1.0 0.3307149002
C  C266  1  0.87112000  0.15095000  0.92622000  1.0 -0.0090598768
C  C267  1  0.85758000  0.15928000  0.98038000  1.0 -0.1464308983
C  C268  1  0.82085000  0.18288000  0.98015000  1.0 -0.1117675421
C  C269  1  0.79303000  0.19794000  0.92473000  1.0 0.0026192279
C  C270  1  0.80280000  0.18935000  0.86970000  1.0 -0.0996123587
C  C271  1  0.84370000  0.16613000  0.87090000  1.0 -0.1117675421
C  C272  1  0.75390000  0.22358000  0.92530000  1.0 0.5412445132
C  C273  1  0.69410000  0.99077000  0.32160000  1.0 -0.0382266304
C  C274  1  0.70590000  0.00363000  0.27420000  1.0 -0.1286420857
C  C275  1  0.78484000  0.02348000  0.37244000  1.0 0.1298568779
C  C276  1  0.80095000  0.04416000  0.27935000  1.0 0.1599496993
C  C277  1  0.90810000  0.05717000  0.32280000  1.0 -0.1717181859
C  C278  1  0.94121000  0.07631000  0.29641000  1.0 -0.1209783984
C  C279  1  0.86921000  0.08242000  0.22671000  1.0 0.0690667595
C  C280  1  0.76210000  0.06913000  0.18410000  1.0 -0.1209783984
C  C281  1  0.72810000  0.04978000  0.20980000  1.0 -0.1717181859
C  C282  1  0.90607000  0.10305000  0.19857000  1.0 -0.018476113
C  C283  1  0.81135000  0.12279000  0.16655000  1.0 0.0690667595
C  C284  1  0.76900000  0.13469000  0.20490000  1.0 -0.1286420857
C  C285  1  0.69170000  0.15479000  0.17740000  1.0 -0.1717181859
C  C286  1  0.65540000  0.16221000  0.11120000  1.0 0.1527772659
C  C287  1  0.68990000  0.14958000  0.07110000  1.0 -0.1717181859
C  C288  1  0.76756000  0.12984000  0.09876000  1.0 -0.1286420857
C  C289  1  0.63090000  0.20570000  0.07820000  1.0 -0.0996123587
C  C290  1  0.53040000  0.21994000  0.03980000  1.0 -0.0090598768
C  C291  1  0.45750000  0.18583000  0.04640000  1.0 0.1107927189
C  C292  1  0.01880000  0.10382000  0.20250000  1.0 -0.018476113
C  C293  1  0.06375000  0.12500000  0.18075000  1.0 0.0690667595
C  C294  1  0.11672000  0.12168000  0.13962000  1.0 -0.1286420857
C  C295  1  0.15377000  0.14101000  0.11527000  1.0 -0.1801232799
C  C296  1  0.13792000  0.16395000  0.13282000  1.0 0.1599496993
C  C297  1  0.08970000  0.16782000  0.17550000  1.0 -0.1717181859
C  C298  1  0.05422000  0.14836000  0.19982000  1.0 -0.1209783984
C  C299  1  0.22400000  0.20531000  0.13990000  1.0 -0.0948670468
C  C300  1  0.23530000  0.21904000  0.09430000  1.0 -0.0382266304
C  C301  1  0.15290000  0.18608000  0.04140000  1.0 0.1107927189
C  C302  1  0.10655000  0.08292000  0.22935000  1.0 0.0690667595
C  C303  1  0.06918000  0.06039000  0.19808000  1.0 -0.1117675421
C  C304  1  0.14835000  0.04080000  0.22485000  1.0 -0.1801232799
C  C305  1  0.26525000  0.04344000  0.28515000  1.0 0.1599496993
C  C306  1  0.30502000  0.06573000  0.31552000  1.0 -0.1717181859
C  C307  1  0.22740000  0.08546000  0.28680000  1.0 -0.1209783984
C  C308  1  0.30610000  0.99918000  0.30720000  1.0 -0.1209783984
C  C309  1  0.41017000  0.98642000  0.35007000  1.0 -0.002619706
C  C310  1  0.46832000  0.02306000  0.36322000  1.0 0.1107927189
C  C311  1  0.12180000  0.18739000  0.86420000  1.0 0.5412445132
C  C312  1  0.05420000  0.17414000  0.79690000  1.0 -0.0090598768
C  C313  1  0.07430000  0.14957000  0.79450000  1.0 -0.0996123587
C  C314  1  0.01630000  0.13771000  0.73150000  1.0 -0.1402653439
C  C315  1  0.93940000  0.14988000  0.67030000  1.0 -0.0090598768
C  C316  1  0.91960000  0.17468000  0.67300000  1.0 -0.1286420857
C  C317  1  0.97460000  0.18614000  0.73550000  1.0 -0.1117675421
C  C318  1  0.88130000  0.13909000  0.59960000  1.0 0.3459259087
C  C319  1  0.84110000  0.11344000  0.58640000  1.0 -0.002619706
C  C320  1  0.80122000  0.10081000  0.62522000  1.0 -0.1402653439
C  C321  1  0.74957000  0.07795000  0.60417000  1.0 -0.1209783984
C  C322  1  0.74218000  0.06738000  0.54628000  1.0 -0.0090598768
C  C323  1  0.78500000  0.07988000  0.50860000  1.0 -0.0996123587
C  C324  1  0.83150000  0.10287000  0.52770000  1.0 -0.1117675421
C  C325  1  0.68786000  0.04265000  0.52336000  1.0 0.5491329643
C  C326  1  0.27650000  0.26126000  0.93530000  1.0 0.5412445132
C  C327  1  0.28570000  0.28790000  0.92750000  1.0 0.0026192279
C  C328  1  0.29242000  0.30363000  0.97702000  1.0 -0.1209783984
C  C329  1  0.31164000  0.32791000  0.97254000  1.0 -0.1464308983
C  C330  1  0.32508000  0.33653000  0.91868000  1.0 -0.0090598768
C  C331  1  0.31434000  0.32081000  0.86784000  1.0 -0.1117675421
C  C332  1  0.29446000  0.29668000  0.87206000  1.0 -0.0996123587
C  C333  1  0.36550000  0.36186000  0.91710000  1.0 0.3459259087
C  C334  1  0.32858000  0.38184000  0.94728000  1.0 -0.0090598768
C  C335  1  0.21177000  0.38270000  0.94177000  1.0 -0.1609534508
C  C336  1  0.17997000  0.40239000  0.96767000  1.0 -0.1286420857
C  C337  1  0.26576000  0.42079000  0.00106000  1.0 -0.0090598768
C  C338  1  0.38338000  0.41990000  0.00658000  1.0 -0.0996123587
C  C339  1  0.41325000  0.40066000  0.97875000  1.0 -0.1209783984
C  C340  1  0.22934000  0.44253000  0.02704000  1.0 0.5568665081
C  C341  1  0.30590000  0.49077000  0.17840000  1.0 -0.0382266304
C  C342  1  0.29410000  0.50363000  0.22580000  1.0 -0.1286420857
C  C343  1  0.21516000  0.52348000  0.12756000  1.0 0.1298568779
C  C344  1  0.19905000  0.54416000  0.22065000  1.0 0.1599496993
C  C345  1  0.09190000  0.55717000  0.17720000  1.0 -0.1717181859
C  C346  1  0.05879000  0.57631000  0.20359000  1.0 -0.1209783984
C  C347  1  0.13079000  0.58242000  0.27329000  1.0 0.0690667595
C  C348  1  0.23790000  0.56913000  0.31590000  1.0 -0.1209783984
C  C349  1  0.27190000  0.54978000  0.29020000  1.0 -0.1717181859
C  C350  1  0.09393000  0.60305000  0.30143000  1.0 -0.018476113
C  C351  1  0.18865000  0.62279000  0.33345000  1.0 0.0690667595
C  C352  1  0.23100000  0.63469000  0.29510000  1.0 -0.1286420857
C  C353  1  0.30830000  0.65479000  0.32260000  1.0 -0.1717181859
C  C354  1  0.34460000  0.66221000  0.38880000  1.0 0.1527772659
C  C355  1  0.31010000  0.64958000  0.42890000  1.0 -0.1717181859
C  C356  1  0.23244000  0.62984000  0.40124000  1.0 -0.1286420857
C  C357  1  0.36910000  0.70570000  0.42180000  1.0 -0.0996123587
C  C358  1  0.46960000  0.71994000  0.46020000  1.0 -0.0090598768
C  C359  1  0.54250000  0.68583000  0.45360000  1.0 0.1107927189
C  C360  1  0.98120000  0.60382000  0.29750000  1.0 -0.0090598768
C  C361  1  0.93625000  0.62500000  0.31925000  1.0 0.0690667595
C  C362  1  0.88328000  0.62168000  0.36038000  1.0 -0.1286420857
C  C363  1  0.84623000  0.64101000  0.38473000  1.0 -0.1801232799
C  C364  1  0.86208000  0.66395000  0.36718000  1.0 0.1599496993
C  C365  1  0.91030000  0.66782000  0.32450000  1.0 -0.1717181859
C  C366  1  0.94578000  0.64836000  0.30018000  1.0 -0.1209783984
C  C367  1  0.77600000  0.70531000  0.36010000  1.0 -0.0948670468
C  C368  1  0.76470000  0.71904000  0.40570000  1.0 -0.0382266304
C  C369  1  0.84710000  0.68608000  0.45860000  1.0 0.1107927189
C  C370  1  0.89345000  0.58292000  0.27065000  1.0 0.0690667595
C  C371  1  0.93082000  0.56039000  0.30192000  1.0 -0.1117675421
C  C372  1  0.85165000  0.54080000  0.27515000  1.0 -0.1801232799
C  C373  1  0.73475000  0.54344000  0.21485000  1.0 0.1599496993
C  C374  1  0.69498000  0.56573000  0.18448000  1.0 -0.1717181859
C  C375  1  0.77260000  0.58546000  0.21320000  1.0 -0.1209783984
C  C376  1  0.69390000  0.49918000  0.19280000  1.0 -0.1209783984
C  C377  1  0.58983000  0.48642000  0.14993000  1.0 -0.0090598768
C  C378  1  0.53168000  0.52306000  0.13678000  1.0 0.1107927189
C  C379  1  0.87820000  0.68739000  0.63580000  1.0 0.5412445132
C  C380  1  0.94580000  0.67414000  0.70310000  1.0 -0.0090598768
C  C381  1  0.92570000  0.64957000  0.70550000  1.0 -0.0996123587
C  C382  1  0.98370000  0.63771000  0.76850000  1.0 -0.1402653439
C  C383  1  0.06060000  0.64988000  0.82970000  1.0 -0.0090598768
C  C384  1  0.08040000  0.67468000  0.82700000  1.0 -0.1286420857
C  C385  1  0.02540000  0.68614000  0.76450000  1.0 -0.1117675421
C  C386  1  0.11870000  0.63909000  0.90040000  1.0 0.3459259087
C  C387  1  0.15890000  0.61344000  0.91360000  1.0 -0.002619706
C  C388  1  0.19878000  0.60081000  0.87478000  1.0 -0.1464308983
C  C389  1  0.25043000  0.57795000  0.89583000  1.0 -0.1209783984
C  C390  1  0.25782000  0.56738000  0.95372000  1.0 -0.0090598768
C  C391  1  0.21500000  0.57988000  0.99140000  1.0 -0.0996123587
C  C392  1  0.16850000  0.60287000  0.97230000  1.0 -0.1117675421
C  C393  1  0.31214000  0.54265000  0.97664000  1.0 0.5491329643
C  C394  1  0.72350000  0.76126000  0.56470000  1.0 0.5412445132
C  C395  1  0.71430000  0.78790000  0.57250000  1.0 0.0026192279
C  C396  1  0.70758000  0.80363000  0.52298000  1.0 -0.1209783984
C  C397  1  0.68836000  0.82791000  0.52746000  1.0 -0.1464308983
C  C398  1  0.67492000  0.83653000  0.58132000  1.0 -0.0090598768
C  C399  1  0.68566000  0.82081000  0.63216000  1.0 -0.1117675421
C  C400  1  0.70554000  0.79668000  0.62794000  1.0 -0.0948670468
C  C401  1  0.63450000  0.86186000  0.58290000  1.0 0.3459259087
C  C402  1  0.67142000  0.88184000  0.55272000  1.0 -0.0090598768
C  C403  1  0.78823000  0.88270000  0.55823000  1.0 -0.1609534508
C  C404  1  0.82003000  0.90239000  0.53233000  1.0 -0.1286420857
C  C405  1  0.73424000  0.92079000  0.49894000  1.0 -0.0090598768
C  C406  1  0.61662000  0.91990000  0.49342000  1.0 -0.0996123587
C  C407  1  0.58675000  0.90066000  0.52125000  1.0 -0.1209783984
C  C408  1  0.77066000  0.94253000  0.47296000  1.0 0.5568665081
C  C409  1  0.30590000  0.00923000  0.67840000  1.0 -0.0382266304
C  C410  1  0.29410000  0.99637000  0.72580000  1.0 -0.1286420857
C  C411  1  0.21516000  0.97652000  0.62756000  1.0 0.1298568779
C  C412  1  0.19905000  0.95584000  0.72065000  1.0 0.1599496993
C  C413  1  0.09190000  0.94283000  0.67720000  1.0 -0.1717181859
C  C414  1  0.05879000  0.92369000  0.70359000  1.0 -0.1209783984
C  C415  1  0.13079000  0.91758000  0.77329000  1.0 0.0690667595
C  C416  1  0.23790000  0.93087000  0.81590000  1.0 -0.1209783984
C  C417  1  0.27190000  0.95022000  0.79020000  1.0 -0.1717181859
C  C418  1  0.09393000  0.89695000  0.80143000  1.0 -0.018476113
C  C419  1  0.18865000  0.87721000  0.83345000  1.0 0.0690667595
C  C420  1  0.23100000  0.86531000  0.79510000  1.0 -0.1286420857
C  C421  1  0.30830000  0.84521000  0.82260000  1.0 -0.1717181859
C  C422  1  0.34460000  0.83779000  0.88880000  1.0 0.1527772659
C  C423  1  0.31010000  0.85042000  0.92890000  1.0 -0.1717181859
C  C424  1  0.23244000  0.87016000  0.90124000  1.0 -0.1286420857
C  C425  1  0.36910000  0.79430000  0.92180000  1.0 -0.0996123587
C  C426  1  0.46960000  0.78006000  0.96020000  1.0 -0.0090598768
C  C427  1  0.54250000  0.81417000  0.95360000  1.0 0.1107927189
C  C428  1  0.98120000  0.89618000  0.79750000  1.0 -0.018476113
C  C429  1  0.93625000  0.87500000  0.81925000  1.0 0.0690667595
C  C430  1  0.88328000  0.87832000  0.86038000  1.0 -0.1286420857
C  C431  1  0.84623000  0.85899000  0.88473000  1.0 -0.1801232799
C  C432  1  0.86208000  0.83605000  0.86718000  1.0 0.1599496993
C  C433  1  0.91030000  0.83218000  0.82450000  1.0 -0.1717181859
C  C434  1  0.94578000  0.85164000  0.80018000  1.0 -0.1209783984
C  C435  1  0.77600000  0.79469000  0.86010000  1.0 -0.0948670468
C  C436  1  0.76470000  0.78096000  0.90570000  1.0 -0.0382266304
C  C437  1  0.84710000  0.81392000  0.95860000  1.0 0.1107927189
C  C438  1  0.89345000  0.91708000  0.77065000  1.0 0.0690667595
C  C439  1  0.93082000  0.93961000  0.80192000  1.0 -0.1117675421
C  C440  1  0.85165000  0.95920000  0.77515000  1.0 -0.1801232799
C  C441  1  0.73475000  0.95656000  0.71485000  1.0 0.1599496993
C  C442  1  0.69498000  0.93427000  0.68448000  1.0 -0.1717181859
C  C443  1  0.77260000  0.91454000  0.71320000  1.0 -0.1209783984
C  C444  1  0.69390000  0.00082000  0.69280000  1.0 -0.1209783984
C  C445  1  0.58983000  0.01358000  0.64993000  1.0 -0.002619706
C  C446  1  0.53168000  0.97694000  0.63678000  1.0 0.1107927189
C  C447  1  0.87820000  0.81261000  0.13580000  1.0 0.5412445132
C  C448  1  0.94580000  0.82586000  0.20310000  1.0 -0.0090598768
C  C449  1  0.92570000  0.85043000  0.20550000  1.0 -0.0996123587
C  C450  1  0.98370000  0.86229000  0.26850000  1.0 -0.1402653439
C  C451  1  0.06060000  0.85012000  0.32970000  1.0 -0.0090598768
C  C452  1  0.08040000  0.82532000  0.32700000  1.0 -0.1286420857
C  C453  1  0.02540000  0.81386000  0.26450000  1.0 -0.1117675421
C  C454  1  0.11870000  0.86091000  0.40040000  1.0 0.3459259087
C  C455  1  0.15890000  0.88656000  0.41360000  1.0 -0.002619706
C  C456  1  0.19878000  0.89919000  0.37478000  1.0 -0.1464308983
C  C457  1  0.25043000  0.92205000  0.39583000  1.0 -0.1209783984
C  C458  1  0.25782000  0.93262000  0.45372000  1.0 -0.0090598768
C  C459  1  0.21500000  0.92012000  0.49140000  1.0 -0.0996123587
C  C460  1  0.16850000  0.89713000  0.47230000  1.0 -0.1117675421
C  C461  1  0.31214000  0.95735000  0.47664000  1.0 0.5568665081
C  C462  1  0.72350000  0.73874000  0.06470000  1.0 0.5412445132
C  C463  1  0.71430000  0.71210000  0.07250000  1.0 0.0026192279
C  C464  1  0.70758000  0.69637000  0.02298000  1.0 -0.1209783984
C  C465  1  0.68836000  0.67209000  0.02746000  1.0 -0.1464308983
C  C466  1  0.67492000  0.66347000  0.08132000  1.0 -0.0090598768
C  C467  1  0.68566000  0.67919000  0.13216000  1.0 -0.1117675421
C  C468  1  0.70554000  0.70332000  0.12794000  1.0 -0.0948670468
C  C469  1  0.63450000  0.63814000  0.08290000  1.0 0.3459259087
C  C470  1  0.67142000  0.61816000  0.05272000  1.0 -0.0090598768
C  C471  1  0.78823000  0.61730000  0.05823000  1.0 -0.1609534508
C  C472  1  0.82003000  0.59761000  0.03233000  1.0 -0.1286420857
C  C473  1  0.73424000  0.57921000  0.99894000  1.0 -0.0090598768
C  C474  1  0.61662000  0.58010000  0.99342000  1.0 -0.0996123587
C  C475  1  0.58675000  0.59934000  0.02125000  1.0 -0.1209783984
C  C476  1  0.77066000  0.55747000  0.97296000  1.0 0.5568665081
C  C477  1  0.69410000  0.50923000  0.82160000  1.0 -0.0382266304
C  C478  1  0.70590000  0.49637000  0.77420000  1.0 -0.1286420857
C  C479  1  0.78484000  0.47652000  0.87244000  1.0 0.1298568779
C  C480  1  0.80095000  0.45584000  0.77935000  1.0 0.1599496993
C  C481  1  0.90810000  0.44283000  0.82280000  1.0 -0.1717181859
C  C482  1  0.94121000  0.42369000  0.79641000  1.0 -0.1209783984
C  C483  1  0.86921000  0.41758000  0.72671000  1.0 0.0690667595
C  C484  1  0.76210000  0.43087000  0.68410000  1.0 -0.1209783984
C  C485  1  0.72810000  0.45022000  0.70980000  1.0 -0.1717181859
C  C486  1  0.90607000  0.39695000  0.69857000  1.0 -0.018476113
C  C487  1  0.81135000  0.37721000  0.66655000  1.0 0.0690667595
C  C488  1  0.76900000  0.36531000  0.70490000  1.0 -0.1286420857
C  C489  1  0.69170000  0.34521000  0.67740000  1.0 -0.1717181859
C  C490  1  0.65540000  0.33779000  0.61120000  1.0 0.1527772659
C  C491  1  0.68990000  0.35042000  0.57110000  1.0 -0.1717181859
C  C492  1  0.76756000  0.37016000  0.59876000  1.0 -0.1286420857
C  C493  1  0.63090000  0.29430000  0.57820000  1.0 -0.0996123587
C  C494  1  0.53040000  0.28006000  0.53980000  1.0 -0.0090598768
C  C495  1  0.45750000  0.31417000  0.54640000  1.0 0.1107927189
C  C496  1  0.01880000  0.39618000  0.70250000  1.0 -0.018476113
C  C497  1  0.06375000  0.37500000  0.68075000  1.0 0.0690667595
C  C498  1  0.11672000  0.37832000  0.63962000  1.0 -0.1286420857
C  C499  1  0.15377000  0.35899000  0.61527000  1.0 -0.1801232799
C  C500  1  0.13792000  0.33605000  0.63282000  1.0 0.1599496993
C  C501  1  0.08970000  0.33218000  0.67550000  1.0 -0.1717181859
C  C502  1  0.05422000  0.35164000  0.69982000  1.0 -0.1209783984
C  C503  1  0.22400000  0.29469000  0.63990000  1.0 -0.0948670468
C  C504  1  0.23530000  0.28096000  0.59430000  1.0 -0.0382266304
C  C505  1  0.15290000  0.31392000  0.54140000  1.0 0.1107927189
C  C506  1  0.10655000  0.41708000  0.72935000  1.0 0.0690667595
C  C507  1  0.06918000  0.43961000  0.69808000  1.0 -0.1117675421
C  C508  1  0.14835000  0.45920000  0.72485000  1.0 -0.1801232799
C  C509  1  0.26525000  0.45656000  0.78515000  1.0 0.1599496993
C  C510  1  0.30502000  0.43427000  0.81552000  1.0 -0.1717181859
C  C511  1  0.22740000  0.41454000  0.78680000  1.0 -0.1209783984
C  C512  1  0.30610000  0.50082000  0.80720000  1.0 -0.1209783984
C  C513  1  0.41017000  0.51358000  0.85007000  1.0 -0.002619706
C  C514  1  0.46832000  0.47694000  0.86322000  1.0 0.1107927189
C  C515  1  0.12180000  0.31261000  0.36420000  1.0 0.5412445132
C  C516  1  0.05420000  0.32586000  0.29690000  1.0 -0.0090598768
C  C517  1  0.07430000  0.35043000  0.29450000  1.0 -0.0996123587
C  C518  1  0.01630000  0.36229000  0.23150000  1.0 -0.1402653439
C  C519  1  0.93940000  0.35012000  0.17030000  1.0 -0.0090598768
C  C520  1  0.91960000  0.32532000  0.17300000  1.0 -0.1286420857
C  C521  1  0.97460000  0.31386000  0.23550000  1.0 -0.1117675421
C  C522  1  0.88130000  0.36091000  0.09960000  1.0 0.3459259087
C  C523  1  0.84110000  0.38656000  0.08640000  1.0 -0.002619706
C  C524  1  0.80122000  0.39919000  0.12522000  1.0 -0.1402653439
C  C525  1  0.74957000  0.42205000  0.10417000  1.0 -0.1209783984
C  C526  1  0.74218000  0.43262000  0.04628000  1.0 -0.0090598768
C  C527  1  0.78500000  0.42012000  0.00860000  1.0 -0.0996123587
C  C528  1  0.83150000  0.39713000  0.02770000  1.0 -0.1117675421
C  C529  1  0.68786000  0.45735000  0.02336000  1.0 0.5568665081
C  C530  1  0.27650000  0.23874000  0.43530000  1.0 0.5412445132
C  C531  1  0.28570000  0.21210000  0.42750000  1.0 0.0026192279
C  C532  1  0.29242000  0.19637000  0.47702000  1.0 -0.1209783984
C  C533  1  0.31164000  0.17209000  0.47254000  1.0 -0.1464308983
C  C534  1  0.32508000  0.16347000  0.41868000  1.0 -0.0090598768
C  C535  1  0.31434000  0.17919000  0.36784000  1.0 -0.1117675421
C  C536  1  0.29446000  0.20332000  0.37206000  1.0 -0.0996123587
C  C537  1  0.36550000  0.13814000  0.41710000  1.0 0.3459259087
C  C538  1  0.32858000  0.11816000  0.44728000  1.0 -0.0090598768
C  C539  1  0.21177000  0.11730000  0.44177000  1.0 -0.1609534508
C  C540  1  0.17997000  0.09761000  0.46767000  1.0 -0.1286420857
C  C541  1  0.26576000  0.07921000  0.50106000  1.0 -0.0090598768
C  C542  1  0.38338000  0.08010000  0.50658000  1.0 -0.0996123587
C  C543  1  0.41325000  0.09934000  0.47875000  1.0 -0.1209783984
C  C544  1  0.22934000  0.05747000  0.52704000  1.0 0.5568665081
N  N1  1  0.33396000  0.72080000  0.98156000  1.0 -0.3090285099
N  N2  1  0.36376000  0.69876000  0.90946000  1.0 -0.0090598768
N  N3  1  0.19537000  0.54197000  0.66557000  1.0 0.0075289506
N  N4  1  0.02531000  0.51968000  0.60701000  1.0 -0.3166842348
N  N5  1  0.82220000  0.54431000  0.72190000  1.0 0.0026192279
N  N6  1  0.83890000  0.51794000  0.65370000  1.0 -0.3090285099
N  N7  1  0.95157000  0.70258000  0.93677000  1.0 -0.002619706
N  N8  1  0.11721000  0.72531000  0.00191000  1.0 -0.2891515331
N  N9  1  0.66604000  0.22080000  0.51844000  1.0 -0.3090285099
N  N10  1  0.63624000  0.19876000  0.59054000  1.0 -0.0090598768
N  N11  1  0.80463000  0.04197000  0.83443000  1.0 0.0075289506
N  N12  1  0.97469000  0.01968000  0.89299000  1.0 -0.3166842348
N  N13  1  0.17780000  0.04431000  0.77810000  1.0 0.0026192279
N  N14  1  0.16110000  0.01794000  0.84630000  1.0 -0.3090285099
N  N15  1  0.04843000  0.20258000  0.56323000  1.0 -0.002619706
N  N16  1  0.88279000  0.22531000  0.49809000  1.0 -0.2891515331
N  N17  1  0.66604000  0.27920000  0.01844000  1.0 -0.3090285099
N  N18  1  0.63624000  0.30124000  0.09054000  1.0 -0.0090598768
N  N19  1  0.80463000  0.45803000  0.33443000  1.0 0.0075289506
N  N20  1  0.97469000  0.48032000  0.39299000  1.0 -0.3166842348
N  N21  1  0.17780000  0.45569000  0.27810000  1.0 0.0026192279
N  N22  1  0.16110000  0.48206000  0.34630000  1.0 -0.3090285099
N  N23  1  0.04843000  0.29742000  0.06323000  1.0 -0.002619706
N  N24  1  0.88279000  0.27469000  0.99809000  1.0 -0.2891515331
N  N25  1  0.33396000  0.77920000  0.48156000  1.0 -0.3090285099
N  N26  1  0.36376000  0.80124000  0.40946000  1.0 -0.0090598768
N  N27  1  0.19537000  0.95803000  0.16557000  1.0 0.0075289506
N  N28  1  0.02531000  0.98032000  0.10701000  1.0 -0.3166842348
N  N29  1  0.82220000  0.95569000  0.22190000  1.0 0.0026192279
N  N30  1  0.83890000  0.98206000  0.15370000  1.0 -0.3090285099
N  N31  1  0.95157000  0.79742000  0.43677000  1.0 -0.002619706
N  N32  1  0.11721000  0.77469000  0.50191000  1.0 -0.2891515331
N  N33  1  0.74381000  0.00318000  0.38311000  1.0 -0.2891515331
N  N34  1  0.76577000  0.02473000  0.30747000  1.0 -0.002619706
N  N35  1  0.34352000  0.02281000  0.31562000  1.0 0.0026192279
N  N36  1  0.51199000  0.00122000  0.38509000  1.0 -0.2803725935
N  N37  1  0.17023000  0.18411000  0.10553000  1.0 -0.002619706
N  N38  1  0.19015000  0.20722000  0.03225000  1.0 -0.3036980814
N  N39  1  0.58338000  0.18396000  0.08268000  1.0 -0.002619706
N  N40  1  0.42196000  0.20763000  0.02006000  1.0 -0.2891515331
N  N41  1  0.25619000  0.50318000  0.11689000  1.0 -0.2891515331
N  N42  1  0.23423000  0.52473000  0.19253000  1.0 -0.002619706
N  N43  1  0.65648000  0.52281000  0.18438000  1.0 0.0026192279
N  N44  1  0.48801000  0.50122000  0.11491000  1.0 -0.2803725935
N  N45  1  0.82977000  0.68411000  0.39447000  1.0 -0.002619706
N  N46  1  0.80985000  0.70722000  0.46775000  1.0 -0.3036980814
N  N47  1  0.41662000  0.68396000  0.41732000  1.0 -0.002619706
N  N48  1  0.57804000  0.70763000  0.47994000  1.0 -0.2891515331
N  N49  1  0.25619000  0.99682000  0.61689000  1.0 -0.2891515331
N  N50  1  0.23423000  0.97527000  0.69253000  1.0 -0.002619706
N  N51  1  0.65648000  0.97719000  0.68438000  1.0 0.0026192279
N  N52  1  0.48801000  0.99878000  0.61491000  1.0 -0.2803725935
N  N53  1  0.82977000  0.81589000  0.89447000  1.0 -0.002619706
N  N54  1  0.80985000  0.79278000  0.96775000  1.0 -0.3036980814
N  N55  1  0.41662000  0.81604000  0.91732000  1.0 -0.002619706
N  N56  1  0.57804000  0.79237000  0.97994000  1.0 -0.2891515331
N  N57  1  0.74381000  0.49682000  0.88311000  1.0 -0.2891515331
N  N58  1  0.76577000  0.47527000  0.80747000  1.0 -0.002619706
N  N59  1  0.34352000  0.47719000  0.81562000  1.0 0.0026192279
N  N60  1  0.51199000  0.49878000  0.88509000  1.0 -0.2803725935
N  N61  1  0.17023000  0.31589000  0.60553000  1.0 -0.002619706
N  N62  1  0.19015000  0.29278000  0.53225000  1.0 -0.3036980814
N  N63  1  0.58338000  0.31604000  0.58268000  1.0 -0.002619706
N  N64  1  0.42196000  0.29237000  0.52006000  1.0 -0.2891515331
O  O1  1  0.80540000  0.55300000  0.52840000  1.0 -0.0996123587
O  O2  1  0.74192000  0.51816000  0.46712000  1.0 -0.472004827
O  O3  1  0.34320000  0.57943000  0.16290000  1.0 -0.3913631302
O  O4  1  0.33628000  0.70229000  0.11358000  1.0 -0.5717921111
O  O5  1  0.53564000  0.70429000  0.20194000  1.0 -0.5717921111
O  O6  1  0.68510000  0.46084000  0.51160000  1.0 -0.5439684576
O  O7  1  0.87905000  0.47427000  0.55515000  1.0 -0.5596457786
O  O8  1  0.99321000  0.37587000  0.40451000  1.0 -0.3913631302
O  O9  1  0.74401000  0.26183000  0.37981000  1.0 -0.5278289056
O  O10  1  0.73299000  0.27015000  0.47259000  1.0 -0.5596457786
O  O11  1  0.74960000  0.54770000  0.52260000  1.0 0.0531173424
O  O12  1  0.19460000  0.05300000  0.97160000  1.0 -0.0996123587
O  O13  1  0.25808000  0.01816000  0.03288000  1.0 -0.472004827
O  O14  1  0.65680000  0.07943000  0.33710000  1.0 -0.3913631302
O  O15  1  0.66372000  0.20229000  0.38642000  1.0 -0.5717921111
O  O16  1  0.46436000  0.20429000  0.29806000  1.0 -0.5717921111
O  O17  1  0.31490000  0.96084000  0.98840000  1.0 -0.5439684576
O  O18  1  0.12095000  0.97427000  0.94485000  1.0 -0.5596457786
O  O19  1  0.00679000  0.87587000  0.09549000  1.0 -0.3913631302
O  O20  1  0.25599000  0.76183000  0.12019000  1.0 -0.5278289056
O  O21  1  0.26701000  0.77015000  0.02741000  1.0 -0.5596457786
O  O22  1  0.25040000  0.04770000  0.97740000  1.0 0.0531173424
O  O23  1  0.19460000  0.44700000  0.47160000  1.0 -0.0996123587
O  O24  1  0.25808000  0.48184000  0.53288000  1.0 -0.472004827
O  O25  1  0.65680000  0.42057000  0.83710000  1.0 -0.3913631302
O  O26  1  0.66372000  0.29771000  0.88642000  1.0 -0.5717921111
O  O27  1  0.46436000  0.29571000  0.79806000  1.0 -0.5717921111
O  O28  1  0.31490000  0.53916000  0.48840000  1.0 -0.5439684576
O  O29  1  0.12095000  0.52573000  0.44485000  1.0 -0.5596457786
O  O30  1  0.00679000  0.62413000  0.59549000  1.0 -0.3913631302
O  O31  1  0.25599000  0.73817000  0.62019000  1.0 -0.5278289056
O  O32  1  0.26701000  0.72985000  0.52741000  1.0 -0.5717921111
O  O33  1  0.25040000  0.45230000  0.47740000  1.0 0.0531173424
O  O34  1  0.80540000  0.94700000  0.02840000  1.0 -0.0996123587
O  O35  1  0.74192000  0.98184000  0.96712000  1.0 -0.472004827
O  O36  1  0.34320000  0.92057000  0.66290000  1.0 -0.3913631302
O  O37  1  0.33628000  0.79771000  0.61358000  1.0 -0.5717921111
O  O38  1  0.53564000  0.79571000  0.70194000  1.0 -0.5717921111
O  O39  1  0.68510000  0.03916000  0.01160000  1.0 -0.5439684576
O  O40  1  0.87905000  0.02573000  0.05515000  1.0 -0.5596457786
O  O41  1  0.99321000  0.12413000  0.90451000  1.0 -0.3913631302
O  O42  1  0.74401000  0.23817000  0.87981000  1.0 -0.5278289056
O  O43  1  0.73299000  0.22985000  0.97259000  1.0 -0.5596457786
O  O44  1  0.74960000  0.95230000  0.02260000  1.0 0.0531173424
O  O45  1  0.60396000  0.03566000  0.53446000  1.0 -0.5596457786
O  O46  1  0.73394000  0.03049000  0.49343000  1.0 -0.5990261919
O  O47  1  0.86327000  0.15159000  0.55067000  1.0 -0.3913631302
O  O48  1  0.19814000  0.17709000  0.91864000  1.0 -0.545474965
O  O49  1  0.10247000  0.21010000  0.86357000  1.0 -0.5278289056
O  O50  1  0.23476000  0.25383000  0.97286000  1.0 -0.5596457786
O  O51  1  0.31247000  0.24720000  0.90507000  1.0 -0.545474965
O  O52  1  0.43116000  0.36589000  0.89256000  1.0 -0.3676531202
O  O53  1  0.11597000  0.44407000  0.01117000  1.0 -0.5871512479
O  O54  1  0.31509000  0.45779000  0.06139000  1.0 -0.5774491465
O  O55  1  0.39604000  0.53566000  0.96554000  1.0 -0.5596457786
O  O56  1  0.26606000  0.53049000  0.00657000  1.0 -0.5990261919
O  O57  1  0.13673000  0.65159000  0.94933000  1.0 -0.3913631302
O  O58  1  0.80186000  0.67709000  0.58136000  1.0 -0.545474965
O  O59  1  0.89753000  0.71010000  0.63643000  1.0 -0.5278289056
O  O60  1  0.76524000  0.75383000  0.52714000  1.0 -0.5596457786
O  O61  1  0.68753000  0.74720000  0.59493000  1.0 -0.545474965
O  O62  1  0.56884000  0.86589000  0.60744000  1.0 -0.3676531202
O  O63  1  0.88403000  0.94407000  0.48883000  1.0 -0.5871512479
O  O64  1  0.68491000  0.95779000  0.43861000  1.0 -0.5774491465
O  O65  1  0.39604000  0.96434000  0.46554000  1.0 -0.5596457786
O  O66  1  0.26606000  0.96951000  0.50657000  1.0 -0.5990261919
O  O67  1  0.13673000  0.84841000  0.44933000  1.0 -0.3913631302
O  O68  1  0.80186000  0.82291000  0.08136000  1.0 -0.545474965
O  O69  1  0.89753000  0.78990000  0.13643000  1.0 -0.5278289056
O  O70  1  0.76524000  0.74617000  0.02714000  1.0 -0.5596457786
O  O71  1  0.68753000  0.75280000  0.09493000  1.0 -0.5439684576
O  O72  1  0.56884000  0.63411000  0.10744000  1.0 -0.3676531202
O  O73  1  0.88403000  0.55593000  0.98883000  1.0 -0.5871512479
O  O74  1  0.68491000  0.54221000  0.93861000  1.0 -0.5774491465
O  O75  1  0.60396000  0.46434000  0.03446000  1.0 -0.5596457786
O  O76  1  0.73394000  0.46951000  0.99343000  1.0 -0.5990261919
O  O77  1  0.86327000  0.34841000  0.05067000  1.0 -0.3913631302
O  O78  1  0.19814000  0.32291000  0.41864000  1.0 -0.545474965
O  O79  1  0.10247000  0.28990000  0.36357000  1.0 -0.5278289056
O  O80  1  0.23476000  0.24617000  0.47286000  1.0 -0.5596457786
O  O81  1  0.31247000  0.25280000  0.40507000  1.0 -0.545474965
O  O82  1  0.43116000  0.13411000  0.39256000  1.0 -0.3676531202
O  O83  1  0.11597000  0.05593000  0.51117000  1.0 -0.5871512479
O  O84  1  0.31509000  0.04221000  0.56139000  1.0 -0.5774491465
