# DDEC6 charges by PACMAN v1.1 (https://github.com/mtap-research/PACMAN-charge/)
data_GOTDIE_FSR_pacman
_symmetry_space_group_name_H-M   'P 1'
_cell_length_a   28.10780000
_cell_length_b   28.10780000
_cell_length_c   28.10780000
_cell_angle_alpha   91.52010000
_cell_angle_beta   91.52010000
_cell_angle_gamma   161.25200000
_symmetry_Int_Tables_number   1
_chemical_formula_structural   CdCo2H44C68N20(ClO4)2
_chemical_formula_sum   'Cd4 Co8 H176 C272 N80 Cl8 O32'
_cell_volume   7042.02056081
_cell_formula_units_Z   4
loop_
 _symmetry_equiv_pos_site_id
 _symmetry_equiv_pos_as_xyz
  1  'x, y, z'
loop_
 _atom_site_type_symbol
 _atom_site_label
 _atom_site_symmetry_multiplicity
 _atom_site_fract_x
 _atom_site_fract_y
 _atom_site_fract_z
 _atom_site_occupancy
 _atom_site_charge
Cd  Cd1  1  0.62500000  0.37500000  0.75000000  1.0 0.6469518303
Cd  Cd2  1  0.62500000  0.87500000  0.25000000  1.0 0.6469518303
Cd  Cd3  1  0.12500000  0.37500000  0.75000000  1.0 0.6469518303
Cd  Cd4  1  0.62500000  0.37500000  0.25000000  1.0 0.6469518303
Co  Co1  1  0.70498000  0.72339000  0.76361000  1.0 0.5362731681
Co  Co2  1  0.95978000  0.94137000  0.23639000  1.0 0.5362731681
Co  Co3  1  0.19137000  0.45498000  0.48159000  1.0 0.5362731681
Co  Co4  1  0.97339000  0.70978000  0.51841000  1.0 0.5362731681
Co  Co5  1  0.54502000  0.02661000  0.73639000  1.0 0.5362731681
Co  Co6  1  0.29022000  0.80863000  0.26361000  1.0 0.5362731681
Co  Co7  1  0.05863000  0.29502000  0.01841000  1.0 0.5339126198
Co  Co8  1  0.27661000  0.04022000  0.98159000  1.0 0.5362731681
H  H1  1  0.75450000  0.86070000  0.59880000  1.0 0.1013479977
H  H2  1  0.26190000  0.15570000  0.40120000  1.0 0.1013479977
H  H3  1  0.40570000  0.50450000  0.39380000  1.0 0.1013479977
H  H4  1  0.11070000  0.01190000  0.60620000  1.0 0.1013479977
H  H5  1  0.49550000  0.88930000  0.90120000  1.0 0.1013479977
H  H6  1  0.98810000  0.59430000  0.09880000  1.0 0.1013479977
H  H7  1  0.84430000  0.24550000  0.10620000  1.0 0.1013479977
H  H8  1  0.13930000  0.73810000  0.89380000  1.0 0.1013479977
H  H9  1  0.00630000  0.08260000  0.59370000  1.0 0.1395804121
H  H10  1  0.48890000  0.41260000  0.40630000  1.0 0.1395804121
H  H11  1  0.66260000  0.75630000  0.42370000  1.0 0.1395804121
H  H12  1  0.33260000  0.23890000  0.57630000  1.0 0.1395804121
H  H13  1  0.24370000  0.66740000  0.90630000  1.0 0.1395804121
H  H14  1  0.76110000  0.33740000  0.09370000  1.0 0.1395804121
H  H15  1  0.58740000  0.99370000  0.07630000  1.0 0.1395804121
H  H16  1  0.91740000  0.51110000  0.92370000  1.0 0.1395804121
H  H17  1  0.13940000  0.17390000  0.65630000  1.0 0.1395804121
H  H18  1  0.51760000  0.48310000  0.34370000  1.0 0.1395804121
H  H19  1  0.73310000  0.88940000  0.46550000  1.0 0.1395804121
H  H20  1  0.42390000  0.26760000  0.53450000  1.0 0.1395804121
H  H21  1  0.11060000  0.57610000  0.84370000  1.0 0.1395804121
H  H22  1  0.73240000  0.26690000  0.15630000  1.0 0.1395804121
H  H23  1  0.51690000  0.86060000  0.03450000  1.0 0.1395804121
H  H24  1  0.82610000  0.48240000  0.96550000  1.0 0.1395804121
H  H25  1  0.04630000  0.03610000  0.94700000  1.0 0.1013479977
H  H26  1  0.08910000  0.09930000  0.05300000  1.0 0.1013479977
H  H27  1  0.34930000  0.79630000  0.51020000  1.0 0.1013479977
H  H28  1  0.28610000  0.83910000  0.48980000  1.0 0.1013479977
H  H29  1  0.20370000  0.71390000  0.55300000  1.0 0.1013479977
H  H30  1  0.16090000  0.65070000  0.44700000  1.0 0.1013479977
H  H31  1  0.90070000  0.95370000  0.98980000  1.0 0.1013479977
H  H32  1  0.96390000  0.91090000  0.01020000  1.0 0.1013479977
H  H33  1  0.23480000  0.29770000  0.86730000  1.0 0.1235363231
H  H34  1  0.43040000  0.36750000  0.13270000  1.0 0.1235363231
H  H35  1  0.61750000  0.98480000  0.43710000  1.0 0.1235363231
H  H36  1  0.54770000  0.18040000  0.56290000  1.0 0.1235363231
H  H37  1  0.01520000  0.45230000  0.63270000  1.0 0.1235363231
H  H38  1  0.81960000  0.38250000  0.36730000  1.0 0.1235363231
H  H39  1  0.63250000  0.76520000  0.06290000  1.0 0.1235363231
H  H40  1  0.70230000  0.56960000  0.93710000  1.0 0.1235363231
H  H41  1  0.04930000  0.08730000  0.72740000  1.0 0.1276119754
H  H42  1  0.35990000  0.32190000  0.27260000  1.0 0.1276119754
H  H43  1  0.57190000  0.79930000  0.46200000  1.0 0.1276119754
H  H44  1  0.33730000  0.10990000  0.53800000  1.0 0.1276119754
H  H45  1  0.20070000  0.66270000  0.77260000  1.0 0.1276119754
H  H46  1  0.89010000  0.42810000  0.22740000  1.0 0.1276119754
H  H47  1  0.67810000  0.95070000  0.03800000  1.0 0.1276119754
H  H48  1  0.91270000  0.64010000  0.96200000  1.0 0.1276119754
H  H49  1  0.69580000  0.85970000  0.85670000  1.0 0.1510707189
H  H50  1  0.00300000  0.83910000  0.14330000  1.0 0.1510707189
H  H51  1  0.08910000  0.44580000  0.33610000  1.0 0.1510707189
H  H52  1  0.10970000  0.75300000  0.66390000  1.0 0.1510707189
H  H53  1  0.55420000  0.89030000  0.64330000  1.0 0.1510707189
H  H54  1  0.24700000  0.91090000  0.35670000  1.0 0.1510707189
H  H55  1  0.16090000  0.30420000  0.16390000  1.0 0.1510707189
H  H56  1  0.14030000  0.99700000  0.83610000  1.0 0.1510707189
H  H57  1  0.57360000  0.71140000  0.91600000  1.0 0.1395804121
H  H58  1  0.79540000  0.65760000  0.08400000  1.0 0.1395804121
H  H59  1  0.90760000  0.32360000  0.36220000  1.0 0.1395804121
H  H60  1  0.96140000  0.54540000  0.63780000  1.0 0.1395804121
H  H61  1  0.67640000  0.03860000  0.58400000  1.0 0.1395804121
H  H62  1  0.45460000  0.09240000  0.41600000  1.0 0.1395804121
H  H63  1  0.34240000  0.42640000  0.13780000  1.0 0.1395804121
H  H64  1  0.28860000  0.20460000  0.86220000  1.0 0.1395804121
H  H65  1  0.52410000  0.58590000  0.91200000  1.0 0.1669907628
H  H66  1  0.67390000  0.61210000  0.08800000  1.0 0.1669907628
H  H67  1  0.86210000  0.27410000  0.43820000  1.0 0.1669907628
H  H68  1  0.83590000  0.42390000  0.56180000  1.0 0.1669907628
H  H69  1  0.72590000  0.16410000  0.58800000  1.0 0.1669907628
H  H70  1  0.57610000  0.13790000  0.41200000  1.0 0.1669907628
H  H71  1  0.38790000  0.47590000  0.06180000  1.0 0.1669907628
H  H72  1  0.41410000  0.32610000  0.93820000  1.0 0.1669907628
H  H73  1  0.42180000  0.35530000  0.74330000  1.0 0.1589197892
H  H74  1  0.61200000  0.67850000  0.25670000  1.0 0.1589197892
H  H75  1  0.92850000  0.17180000  0.56650000  1.0 0.1589197892
H  H76  1  0.60530000  0.36200000  0.43350000  1.0 0.1589197892
H  H77  1  0.82820000  0.39470000  0.75670000  1.0 0.1589197892
H  H78  1  0.63800000  0.07150000  0.24330000  1.0 0.1589197892
H  H79  1  0.32150000  0.57820000  0.93350000  1.0 0.1589197892
H  H80  1  0.64470000  0.38800000  0.06650000  1.0 0.1589197892
H  H81  1  0.43190000  0.28610000  0.72460000  1.0 0.1087094008
H  H82  1  0.56150000  0.70730000  0.27540000  1.0 0.1087094008
H  H83  1  0.95730000  0.18190000  0.64580000  1.0 0.1087094008
H  H84  1  0.53610000  0.31150000  0.35420000  1.0 0.1087094008
H  H85  1  0.81810000  0.46390000  0.77540000  1.0 0.1087094008
H  H86  1  0.68850000  0.04270000  0.22460000  1.0 0.1087094008
H  H87  1  0.29270000  0.56810000  0.85420000  1.0 0.1087094008
H  H88  1  0.71390000  0.43850000  0.14580000  1.0 0.1087094008
H  H89  1  0.80840000  0.63210000  0.80750000  1.0 0.1087094008
H  H90  1  0.82460000  0.00090000  0.19250000  1.0 0.1087094008
H  H91  1  0.25090000  0.55840000  0.67630000  1.0 0.1087094008
H  H92  1  0.88210000  0.57460000  0.32370000  1.0 0.1087094008
H  H93  1  0.44160000  0.11790000  0.69250000  1.0 0.1087094008
H  H94  1  0.42540000  0.74910000  0.30750000  1.0 0.1087094008
H  H95  1  0.99910000  0.19160000  0.82370000  1.0 0.1087094008
H  H96  1  0.36790000  0.17540000  0.17630000  1.0 0.1087094008
H  H97  1  0.80230000  0.70570000  0.83120000  1.0 0.1510707189
H  H98  1  0.87450000  0.97110000  0.16880000  1.0 0.1510707189
H  H99  1  0.22110000  0.55230000  0.59660000  1.0 0.1510707189
H  H100  1  0.95570000  0.62450000  0.40340000  1.0 0.1510707189
H  H101  1  0.44770000  0.04430000  0.66880000  1.0 0.1510707189
H  H102  1  0.37550000  0.77890000  0.33120000  1.0 0.1510707189
H  H103  1  0.02890000  0.19770000  0.90340000  1.0 0.1510707189
H  H104  1  0.29430000  0.12550000  0.09660000  1.0 0.1510707189
H  H105  1  0.19540000  0.24220000  0.93920000  1.0 0.1395804121
H  H106  1  0.30300000  0.25620000  0.06080000  1.0 0.1395804121
H  H107  1  0.50620000  0.94540000  0.45320000  1.0 0.1395804121
H  H108  1  0.49220000  0.05300000  0.54680000  1.0 0.1395804121
H  H109  1  0.05460000  0.50780000  0.56080000  1.0 0.1395804121
H  H110  1  0.94700000  0.49380000  0.43920000  1.0 0.1395804121
H  H111  1  0.74380000  0.80460000  0.04680000  1.0 0.1395804121
H  H112  1  0.75780000  0.69700000  0.95320000  1.0 0.1395804121
H  H113  1  0.09920000  0.14060000  0.80020000  1.0 0.1276119754
H  H114  1  0.34040000  0.29900000  0.19980000  1.0 0.1276119754
H  H115  1  0.54900000  0.84920000  0.45860000  1.0 0.1276119754
H  H116  1  0.39060000  0.09040000  0.54140000  1.0 0.1276119754
H  H117  1  0.15080000  0.60940000  0.69980000  1.0 0.1276119754
H  H118  1  0.90960000  0.45100000  0.30020000  1.0 0.1276119754
H  H119  1  0.70100000  0.90080000  0.04140000  1.0 0.1276119754
H  H120  1  0.85940000  0.65960000  0.95860000  1.0 0.1276119754
H  H121  1  0.97840000  0.87040000  0.68160000  1.0 0.1510707189
H  H122  1  0.18880000  0.29680000  0.31840000  1.0 0.1510707189
H  H123  1  0.54680000  0.72840000  0.60800000  1.0 0.1510707189
H  H124  1  0.12040000  0.93880000  0.39200000  1.0 0.1510707189
H  H125  1  0.27160000  0.87960000  0.81840000  1.0 0.1510707189
H  H126  1  0.06120000  0.45320000  0.18160000  1.0 0.1510707189
H  H127  1  0.70320000  0.02160000  0.89200000  1.0 0.1510707189
H  H128  1  0.12960000  0.81120000  0.10800000  1.0 0.1510707189
H  H129  1  0.81090000  0.71010000  0.61040000  1.0 0.1235363231
H  H130  1  0.09970000  0.20050000  0.38960000  1.0 0.1235363231
H  H131  1  0.45050000  0.56090000  0.60080000  1.0 0.1235363231
H  H132  1  0.96010000  0.84970000  0.39920000  1.0 0.1235363231
H  H133  1  0.43910000  0.03990000  0.88960000  1.0 0.1235363231
H  H134  1  0.15030000  0.54950000  0.11040000  1.0 0.1235363231
H  H135  1  0.79950000  0.18910000  0.89920000  1.0 0.1235363231
H  H136  1  0.28990000  0.90030000  0.10080000  1.0 0.1235363231
H  H137  1  0.58070000  0.53350000  0.60580000  1.0 0.1510707189
H  H138  1  0.92770000  0.97490000  0.39420000  1.0 0.1510707189
H  H139  1  0.22490000  0.33070000  0.54720000  1.0 0.1510707189
H  H140  1  0.78350000  0.67770000  0.45280000  1.0 0.1510707189
H  H141  1  0.66930000  0.21650000  0.89420000  1.0 0.1510707189
H  H142  1  0.32230000  0.77510000  0.10580000  1.0 0.1510707189
H  H143  1  0.02510000  0.41930000  0.95280000  1.0 0.1510707189
H  H144  1  0.46650000  0.07230000  0.04720000  1.0 0.1510707189
H  H145  1  0.52120000  0.64730000  0.68810000  1.0 0.1395804121
H  H146  1  0.95920000  0.83310000  0.31190000  1.0 0.1395804121
H  H147  1  0.08310000  0.27120000  0.37390000  1.0 0.1395804121
H  H148  1  0.89730000  0.70920000  0.62610000  1.0 0.1395804121
H  H149  1  0.72880000  0.10270000  0.81190000  1.0 0.1395804121
H  H150  1  0.29080000  0.91690000  0.18810000  1.0 0.1395804121
H  H151  1  0.16690000  0.47880000  0.12610000  1.0 0.1395804121
H  H152  1  0.35270000  0.04080000  0.87390000  1.0 0.1395804121
H  H153  1  0.37500000  0.57240000  0.70440000  1.0 0.1087094008
H  H154  1  0.86800000  0.67060000  0.29560000  1.0 0.1087094008
H  H155  1  0.92060000  0.12500000  0.30260000  1.0 0.1087094008
H  H156  1  0.82240000  0.61800000  0.69740000  1.0 0.1087094008
H  H157  1  0.87500000  0.17760000  0.79560000  1.0 0.1087094008
H  H158  1  0.38200000  0.07940000  0.20440000  1.0 0.1087094008
H  H159  1  0.32940000  0.62500000  0.19740000  1.0 0.1087094008
H  H160  1  0.42760000  0.13200000  0.80260000  1.0 0.1087094008
H  H161  1  0.16260000  0.29730000  0.78210000  1.0 0.1087094008
H  H162  1  0.51520000  0.38050000  0.21790000  1.0 0.1087094008
H  H163  1  0.63050000  0.91260000  0.36530000  1.0 0.1087094008
H  H164  1  0.54730000  0.26520000  0.63470000  1.0 0.1087094008
H  H165  1  0.08740000  0.45270000  0.71790000  1.0 0.1087094008
H  H166  1  0.73480000  0.36950000  0.28210000  1.0 0.1087094008
H  H167  1  0.61950000  0.83740000  0.13470000  1.0 0.1087094008
H  H168  1  0.70270000  0.48480000  0.86530000  1.0 0.1087094008
H  H169  1  0.29980000  0.36000000  0.77020000  1.0 0.1395804121
H  H170  1  0.58980000  0.52960000  0.22980000  1.0 0.1395804121
H  H171  1  0.77960000  0.04980000  0.43980000  1.0 0.1395804121
H  H172  1  0.61000000  0.33980000  0.56020000  1.0 0.1395804121
H  H173  1  0.95020000  0.39000000  0.72980000  1.0 0.1395804121
H  H174  1  0.66020000  0.22040000  0.27020000  1.0 0.1395804121
H  H175  1  0.47040000  0.70020000  0.06020000  1.0 0.1395804121
H  H176  1  0.64000000  0.41020000  0.93980000  1.0 0.1395804121
C  C1  1  0.81860000  0.91120000  0.62580000  1.0 0.0910560578
C  C2  1  0.28540000  0.19280000  0.37420000  1.0 0.0910560578
C  C3  1  0.44280000  0.56860000  0.40740000  1.0 0.0910560578
C  C4  1  0.16120000  0.03540000  0.59260000  1.0 0.0910560578
C  C5  1  0.43140000  0.83880000  0.87420000  1.0 0.0910560578
C  C6  1  0.96460000  0.55720000  0.12580000  1.0 0.0910560578
C  C7  1  0.80720000  0.18140000  0.09260000  1.0 0.0910560578
C  C8  1  0.08880000  0.71460000  0.90740000  1.0 0.0910560578
C  C9  1  0.96730000  0.04050000  0.62180000  1.0 -0.1674493493
C  C10  1  0.41870000  0.34550000  0.37820000  1.0 -0.1674493493
C  C11  1  0.59550000  0.71730000  0.42680000  1.0 -0.1674493493
C  C12  1  0.29050000  0.16870000  0.57320000  1.0 -0.1674493493
C  C13  1  0.28270000  0.70950000  0.87820000  1.0 -0.1674493493
C  C14  1  0.83130000  0.40450000  0.12180000  1.0 -0.1674493493
C  C15  1  0.65450000  0.03270000  0.07320000  1.0 -0.1674493493
C  C16  1  0.95950000  0.58130000  0.92680000  1.0 -0.1674493493
C  C17  1  0.04430000  0.09580000  0.65810000  1.0 -0.0380490597
C  C18  1  0.43770000  0.38620000  0.34190000  1.0 -0.0380490597
C  C19  1  0.63620000  0.79430000  0.44850000  1.0 -0.0380490597
C  C20  1  0.34580000  0.18770000  0.55150000  1.0 -0.0380490597
C  C21  1  0.20570000  0.65420000  0.84190000  1.0 -0.0380490597
C  C22  1  0.81230000  0.36380000  0.15810000  1.0 -0.0380490597
C  C23  1  0.61380000  0.95570000  0.05150000  1.0 -0.0380490597
C  C24  1  0.90420000  0.56230000  0.94850000  1.0 -0.0380490597
C  C25  1  0.05280000  0.05420000  0.91700000  1.0 0.0072427219
C  C26  1  0.13720000  0.13580000  0.08300000  1.0 0.0072427219
C  C27  1  0.38580000  0.80280000  0.49860000  1.0 0.0072427219
C  C28  1  0.30420000  0.88720000  0.50140000  1.0 0.0072427219
C  C29  1  0.19720000  0.69580000  0.58300000  1.0 0.0072427219
C  C30  1  0.11280000  0.61420000  0.41700000  1.0 0.0072427219
C  C31  1  0.86420000  0.94720000  0.00140000  1.0 0.0072427219
C  C32  1  0.94580000  0.86280000  0.99860000  1.0 0.0072427219
C  C33  1  0.16300000  0.20690000  0.86990000  1.0 -0.0570307972
C  C34  1  0.33700000  0.29310000  0.13010000  1.0 -0.0570307972
C  C35  1  0.54310000  0.91300000  0.45610000  1.0 -0.0570307972
C  C36  1  0.45690000  0.08700000  0.54390000  1.0 -0.0570307972
C  C37  1  0.08700000  0.54310000  0.63010000  1.0 -0.0570307972
C  C38  1  0.91300000  0.45690000  0.36990000  1.0 -0.0570307972
C  C39  1  0.70690000  0.83700000  0.04390000  1.0 -0.0570307972
C  C40  1  0.79310000  0.66300000  0.95610000  1.0 -0.0570307972
C  C41  1  0.98870000  0.04160000  0.70030000  1.0 -0.25384563
C  C42  1  0.34130000  0.28840000  0.29970000  1.0 -0.25384563
C  C43  1  0.53840000  0.73870000  0.44710000  1.0 -0.25384563
C  C44  1  0.29160000  0.09130000  0.55290000  1.0 -0.25384563
C  C45  1  0.26130000  0.70840000  0.79970000  1.0 -0.25384563
C  C46  1  0.90870000  0.46160000  0.20030000  1.0 -0.25384563
C  C47  1  0.71160000  0.01130000  0.05290000  1.0 -0.25384563
C  C48  1  0.95840000  0.65870000  0.94710000  1.0 -0.25384563
C  C49  1  0.85000000  0.92480000  0.70440000  1.0 0.3435834891
C  C50  1  0.22040000  0.14560000  0.29560000  1.0 0.3435834891
C  C51  1  0.39560000  0.60000000  0.42520000  1.0 0.3435834891
C  C52  1  0.17480000  0.97040000  0.57480000  1.0 0.3435834891
C  C53  1  0.40000000  0.82520000  0.79560000  1.0 0.3435834891
C  C54  1  0.02960000  0.60440000  0.20440000  1.0 0.3435834891
C  C55  1  0.85440000  0.15000000  0.07480000  1.0 0.3435834891
C  C56  1  0.07520000  0.77960000  0.92520000  1.0 0.3435834891
C  C57  1  0.77510000  0.88580000  0.77890000  1.0 0.4060492462
C  C58  1  0.10690000  0.99620000  0.22110000  1.0 0.4060492462
C  C59  1  0.24620000  0.52510000  0.38930000  1.0 0.4060492462
C  C60  1  0.13580000  0.85690000  0.61070000  1.0 0.4060492462
C  C61  1  0.47490000  0.86420000  0.72110000  1.0 0.4060492462
C  C62  1  0.14310000  0.75380000  0.27890000  1.0 0.4060492462
C  C63  1  0.00380000  0.22490000  0.11070000  1.0 0.4060492462
C  C64  1  0.11420000  0.89310000  0.88930000  1.0 0.4060492462
C  C65  1  0.70590000  0.80700000  0.81950000  1.0 0.1087094008
C  C66  1  0.98750000  0.88640000  0.18050000  1.0 0.1087094008
C  C67  1  0.13640000  0.45590000  0.39890000  1.0 0.1087094008
C  C68  1  0.05700000  0.73750000  0.60110000  1.0 0.1087094008
C  C69  1  0.54410000  0.94300000  0.68050000  1.0 0.1087094008
C  C70  1  0.26250000  0.86360000  0.31950000  1.0 0.1087094008
C  C71  1  0.11360000  0.29410000  0.10110000  1.0 0.1087094008
C  C72  1  0.19300000  0.01250000  0.89890000  1.0 0.1087094008
C  C73  1  0.67140000  0.80440000  0.85580000  1.0 -0.1177665654
C  C74  1  0.94860000  0.81560000  0.14420000  1.0 -0.1177665654
C  C75  1  0.06560000  0.42140000  0.36700000  1.0 -0.1177665654
C  C76  1  0.05440000  0.69860000  0.63300000  1.0 -0.1177665654
C  C77  1  0.57860000  0.94560000  0.64420000  1.0 -0.1177665654
C  C78  1  0.30140000  0.93440000  0.35580000  1.0 -0.1177665654
C  C79  1  0.18440000  0.32860000  0.13300000  1.0 -0.1177665654
C  C80  1  0.19560000  0.05140000  0.86700000  1.0 -0.1177665654
C  C81  1  0.59980000  0.71720000  0.89100000  1.0 -0.0117252686
C  C82  1  0.82620000  0.70880000  0.10900000  1.0 -0.0117252686
C  C83  1  0.95880000  0.34980000  0.38260000  1.0 -0.0117252686
C  C84  1  0.96720000  0.57620000  0.61740000  1.0 -0.0117252686
C  C85  1  0.65020000  0.03280000  0.60900000  1.0 -0.0117252686
C  C86  1  0.42380000  0.04120000  0.39100000  1.0 -0.0117252686
C  C87  1  0.29120000  0.40020000  0.11740000  1.0 -0.0117252686
C  C88  1  0.28280000  0.17380000  0.88260000  1.0 -0.0117252686
C  C89  1  0.56950000  0.64240000  0.88790000  1.0 -0.1313131775
C  C90  1  0.75450000  0.68160000  0.11210000  1.0 -0.1313131775
C  C91  1  0.93160000  0.31950000  0.42710000  1.0 -0.1313131775
C  C92  1  0.89240000  0.50450000  0.57290000  1.0 -0.1313131775
C  C93  1  0.68050000  0.10760000  0.61210000  1.0 -0.1313131775
C  C94  1  0.49550000  0.06840000  0.38790000  1.0 -0.1313131775
C  C95  1  0.31840000  0.43050000  0.07290000  1.0 -0.1313131775
C  C96  1  0.35760000  0.24550000  0.92710000  1.0 -0.1313131775
C  C97  1  0.60100000  0.64360000  0.85120000  1.0 0.0752183816
C  C98  1  0.79240000  0.74980000  0.14880000  1.0 0.0752183816
C  C99  1  0.99980000  0.35100000  0.45740000  1.0 0.0752183816
C  C100  1  0.89360000  0.54240000  0.54260000  1.0 0.0752183816
C  C101  1  0.64900000  0.10640000  0.64880000  1.0 0.0752183816
C  C102  1  0.45760000  0.00020000  0.35120000  1.0 0.0752183816
C  C103  1  0.25020000  0.39900000  0.04260000  1.0 0.0752183816
C  C104  1  0.35640000  0.20760000  0.95740000  1.0 0.0752183816
C  C105  1  0.57820000  0.57120000  0.84420000  1.0 0.4220939449
C  C106  1  0.72700000  0.73400000  0.15580000  1.0 0.4220939449
C  C107  1  0.98400000  0.32820000  0.50700000  1.0 0.4220939449
C  C108  1  0.82120000  0.47700000  0.49300000  1.0 0.4220939449
C  C109  1  0.67180000  0.17880000  0.65580000  1.0 0.4220939449
C  C110  1  0.52300000  0.01600000  0.34420000  1.0 0.4220939449
C  C111  1  0.26600000  0.42180000  0.99300000  1.0 0.4220939449
C  C112  1  0.42880000  0.27300000  0.00700000  1.0 0.4220939449
C  C113  1  0.61170000  0.54000000  0.78950000  1.0 0.2448595374
C  C114  1  0.75050000  0.82220000  0.21050000  1.0 0.2488004127
C  C115  1  0.07220000  0.36170000  0.57170000  1.0 0.2448595374
C  C116  1  0.79000000  0.50050000  0.42830000  1.0 0.2448595374
C  C117  1  0.63830000  0.21000000  0.71050000  1.0 0.2448595374
C  C118  1  0.49950000  0.92780000  0.28950000  1.0 0.2448595374
C  C119  1  0.17780000  0.38830000  0.92830000  1.0 0.2448595374
C  C120  1  0.46000000  0.24950000  0.07170000  1.0 0.2448595374
C  C121  1  0.50330000  0.41500000  0.75770000  1.0 -0.2009234133
C  C122  1  0.65730000  0.74560000  0.24230000  1.0 -0.2009234133
C  C123  1  0.99560000  0.25330000  0.58830000  1.0 -0.2009234133
C  C124  1  0.66500000  0.40730000  0.41170000  1.0 -0.2009234133
C  C125  1  0.74670000  0.33500000  0.74230000  1.0 -0.2009234133
C  C126  1  0.59270000  0.00440000  0.25770000  1.0 -0.2009234133
C  C127  1  0.25440000  0.49670000  0.91170000  1.0 -0.2009234133
C  C128  1  0.58500000  0.34270000  0.08830000  1.0 -0.2009234133
C  C129  1  0.51010000  0.37410000  0.74620000  1.0 0.1013479977
C  C130  1  0.62790000  0.76390000  0.25380000  1.0 0.1013479977
C  C131  1  0.01390000  0.26010000  0.63600000  1.0 0.1013479977
C  C132  1  0.62410000  0.37790000  0.36400000  1.0 0.1013479977
C  C133  1  0.73990000  0.37590000  0.75380000  1.0 0.1013479977
C  C134  1  0.62210000  0.98610000  0.24620000  1.0 0.1013479977
C  C135  1  0.23610000  0.48990000  0.86400000  1.0 0.1013479977
C  C136  1  0.62590000  0.37210000  0.13600000  1.0 0.1013479977
C  C137  1  0.72700000  0.57340000  0.79460000  1.0 0.0910560578
C  C138  1  0.77880000  0.93240000  0.20540000  1.0 0.0910560578
C  C139  1  0.18240000  0.47700000  0.65360000  1.0 0.0910560578
C  C140  1  0.82340000  0.52880000  0.34640000  1.0 0.0910560578
C  C141  1  0.52300000  0.17660000  0.70540000  1.0 0.0910560578
C  C142  1  0.47120000  0.81760000  0.29460000  1.0 0.0910560578
C  C143  1  0.06760000  0.27300000  0.84640000  1.0 0.0910560578
C  C144  1  0.42660000  0.22120000  0.15360000  1.0 0.0910560578
C  C145  1  0.72490000  0.61970000  0.80860000  1.0 -0.1937649825
C  C146  1  0.81110000  0.91630000  0.19140000  1.0 -0.1937649825
C  C147  1  0.16630000  0.47490000  0.60520000  1.0 -0.1937649825
C  C148  1  0.86970000  0.56110000  0.39480000  1.0 -0.1937649825
C  C149  1  0.52510000  0.13030000  0.69140000  1.0 -0.1937649825
C  C150  1  0.43890000  0.83370000  0.30860000  1.0 -0.1937649825
C  C151  1  0.08370000  0.27510000  0.89480000  1.0 -0.1937649825
C  C152  1  0.38030000  0.18890000  0.10520000  1.0 -0.1937649825
C  C153  1  0.14560000  0.17870000  0.91230000  1.0 -0.1313131775
C  C154  1  0.26640000  0.23330000  0.08770000  1.0 -0.1313131775
C  C155  1  0.48330000  0.89560000  0.46690000  1.0 -0.1313131775
C  C156  1  0.42870000  0.01640000  0.53310000  1.0 -0.1313131775
C  C157  1  0.10440000  0.57130000  0.58770000  1.0 -0.1313131775
C  C158  1  0.98360000  0.51670000  0.41230000  1.0 -0.1313131775
C  C159  1  0.76670000  0.85440000  0.03310000  1.0 -0.1313131775
C  C160  1  0.82130000  0.73360000  0.96690000  1.0 -0.1313131775
C  C161  1  0.08590000  0.11590000  0.82980000  1.0 -0.2009234133
C  C162  1  0.28610000  0.25610000  0.17020000  1.0 -0.2009234133
C  C163  1  0.50610000  0.83590000  0.47000000  1.0 -0.2009234133
C  C164  1  0.36590000  0.03610000  0.53000000  1.0 -0.2009234133
C  C165  1  0.16410000  0.63410000  0.67020000  1.0 -0.2009234133
C  C166  1  0.96390000  0.49390000  0.32980000  1.0 -0.2009234133
C  C167  1  0.74390000  0.91410000  0.03000000  1.0 -0.2009234133
C  C168  1  0.88410000  0.71390000  0.97000000  1.0 -0.2009234133
C  C169  1  0.99170000  0.99160000  0.83170000  1.0 0.3206904365
C  C170  1  0.15990000  0.16000000  0.16830000  1.0 0.3206904365
C  C171  1  0.41000000  0.74170000  0.50010000  1.0 0.3206904365
C  C172  1  0.24160000  0.90990000  0.49990000  1.0 0.3206904365
C  C173  1  0.25830000  0.75840000  0.66830000  1.0 0.3206904365
C  C174  1  0.09010000  0.59000000  0.33170000  1.0 0.3206904365
C  C175  1  0.84000000  0.00830000  0.99990000  1.0 0.3206904365
C  C176  1  0.00840000  0.84010000  0.00010000  1.0 0.3206904365
C  C177  1  0.96490000  0.91490000  0.76220000  1.0 0.4220939449
C  C178  1  0.15270000  0.20270000  0.23780000  1.0 0.4220939449
C  C179  1  0.45270000  0.71490000  0.55000000  1.0 0.4220939449
C  C180  1  0.16490000  0.90270000  0.45000000  1.0 0.4220939449
C  C181  1  0.28510000  0.83510000  0.73780000  1.0 0.4220939449
C  C182  1  0.09730000  0.54730000  0.26220000  1.0 0.4220939449
C  C183  1  0.79730000  0.03510000  0.95000000  1.0 0.4220939449
C  C184  1  0.08510000  0.84730000  0.05000000  1.0 0.4220939449
C  C185  1  0.85990000  0.80490000  0.71560000  1.0 0.1235363231
C  C186  1  0.08930000  0.14430000  0.28440000  1.0 0.1235363231
C  C187  1  0.39430000  0.60990000  0.55500000  1.0 0.1235363231
C  C188  1  0.05490000  0.83930000  0.44500000  1.0 0.1235363231
C  C189  1  0.39010000  0.94510000  0.78440000  1.0 0.1235363231
C  C190  1  0.16070000  0.60570000  0.21560000  1.0 0.1235363231
C  C191  1  0.85570000  0.14010000  0.94500000  1.0 0.1235363231
C  C192  1  0.19510000  0.91070000  0.05500000  1.0 0.1235363231
C  C193  1  0.89110000  0.80560000  0.67850000  1.0 -0.1364531329
C  C194  1  0.12710000  0.21260000  0.32150000  1.0 -0.1364531329
C  C195  1  0.46260000  0.64110000  0.58550000  1.0 -0.1364531329
C  C196  1  0.05560000  0.87710000  0.41450000  1.0 -0.1364531329
C  C197  1  0.35890000  0.94440000  0.82150000  1.0 -0.1364531329
C  C198  1  0.12290000  0.53740000  0.17850000  1.0 -0.1364531329
C  C199  1  0.78740000  0.10890000  0.91450000  1.0 -0.1364531329
C  C200  1  0.19440000  0.87290000  0.08550000  1.0 -0.1364531329
C  C201  1  0.79020000  0.70850000  0.63670000  1.0 -0.0380490597
C  C202  1  0.07180000  0.15350000  0.36330000  1.0 -0.0380490597
C  C203  1  0.40350000  0.54020000  0.58170000  1.0 -0.0380490597
C  C204  1  0.95850000  0.82180000  0.41830000  1.0 -0.0380490597
C  C205  1  0.45980000  0.04150000  0.86330000  1.0 -0.0380490597
C  C206  1  0.17820000  0.59650000  0.13670000  1.0 -0.0380490597
C  C207  1  0.84650000  0.20980000  0.91830000  1.0 -0.0380490597
C  C208  1  0.29150000  0.92820000  0.08170000  1.0 -0.0380490597
C  C209  1  0.65300000  0.60400000  0.63340000  1.0 -0.1177665654
C  C210  1  0.97060000  0.01960000  0.36660000  1.0 -0.1177665654
C  C211  1  0.26960000  0.40300000  0.54900000  1.0 -0.1177665654
C  C212  1  0.85400000  0.72060000  0.45100000  1.0 -0.1177665654
C  C213  1  0.59700000  0.14600000  0.86660000  1.0 -0.1177665654
C  C214  1  0.27940000  0.73040000  0.13340000  1.0 -0.1177665654
C  C215  1  0.98040000  0.34700000  0.95100000  1.0 -0.1177665654
C  C216  1  0.39600000  0.02940000  0.04900000  1.0 -0.1177665654
C  C217  1  0.63160000  0.61190000  0.67290000  1.0 0.1087094008
C  C218  1  0.93900000  0.95870000  0.32710000  1.0 0.1087094008
C  C219  1  0.20870000  0.38160000  0.51970000  1.0 0.1087094008
C  C220  1  0.86190000  0.68900000  0.48030000  1.0 0.1087094008
C  C221  1  0.61840000  0.13810000  0.82710000  1.0 0.1087094008
C  C222  1  0.31100000  0.79130000  0.17290000  1.0 0.1087094008
C  C223  1  0.04130000  0.36840000  0.98030000  1.0 0.1087094008
C  C224  1  0.38810000  0.06100000  0.01970000  1.0 0.1087094008
C  C225  1  0.50580000  0.52530000  0.67590000  1.0 0.4220939449
C  C226  1  0.84940000  0.82990000  0.32410000  1.0 0.4220939449
C  C227  1  0.07990000  0.25580000  0.48050000  1.0 0.4220939449
C  C228  1  0.77530000  0.59940000  0.51950000  1.0 0.4220939449
C  C229  1  0.74420000  0.22470000  0.82410000  1.0 0.4220939449
C  C230  1  0.40060000  0.92010000  0.17590000  1.0 0.4220939449
C  C231  1  0.17010000  0.49420000  0.01950000  1.0 0.4220939449
C  C232  1  0.47470000  0.15060000  0.98050000  1.0 0.4220939449
C  C233  1  0.42160000  0.50640000  0.72700000  1.0 0.2488004127
C  C234  1  0.77940000  0.69460000  0.27300000  1.0 0.2488004127
C  C235  1  0.94460000  0.17160000  0.41520000  1.0 0.2488004127
C  C236  1  0.75640000  0.52940000  0.58480000  1.0 0.2488004127
C  C237  1  0.82840000  0.24360000  0.77300000  1.0 0.2488004127
C  C238  1  0.47060000  0.05540000  0.22700000  1.0 0.2488004127
C  C239  1  0.30540000  0.57840000  0.08480000  1.0 0.2488004127
C  C240  1  0.49360000  0.22060000  0.91520000  1.0 0.2488004127
C  C241  1  0.44690000  0.57350000  0.70720000  1.0 -0.1937649825
C  C242  1  0.86630000  0.73970000  0.29280000  1.0 -0.1937649825
C  C243  1  0.98970000  0.19690000  0.37340000  1.0 -0.1937649825
C  C244  1  0.82350000  0.61630000  0.62660000  1.0 -0.1937649825
C  C245  1  0.80310000  0.17650000  0.79280000  1.0 -0.1937649825
C  C246  1  0.38370000  0.01030000  0.20720000  1.0 -0.1937649825
C  C247  1  0.26030000  0.55310000  0.12660000  1.0 -0.1937649825
C  C248  1  0.42650000  0.13370000  0.87340000  1.0 -0.1937649825
C  C249  1  0.35720000  0.52620000  0.71700000  1.0 0.1087094008
C  C250  1  0.80920000  0.64020000  0.28300000  1.0 0.1087094008
C  C251  1  0.89020000  0.10720000  0.33100000  1.0 0.1087094008
C  C252  1  0.77620000  0.55920000  0.66900000  1.0 0.1087094008
C  C253  1  0.89280000  0.22380000  0.78300000  1.0 0.1087094008
C  C254  1  0.44080000  0.10980000  0.21700000  1.0 0.1087094008
C  C255  1  0.35980000  0.64280000  0.16900000  1.0 0.1087094008
C  C256  1  0.47380000  0.19080000  0.83100000  1.0 0.1087094008
C  C257  1  0.23450000  0.36730000  0.76200000  1.0 0.0910560578
C  C258  1  0.60530000  0.47250000  0.23800000  1.0 0.0910560578
C  C259  1  0.72250000  0.98450000  0.36720000  1.0 0.0910560578
C  C260  1  0.61730000  0.35530000  0.63280000  1.0 0.0910560578
C  C261  1  0.01550000  0.38270000  0.73800000  1.0 0.0910560578
C  C262  1  0.64470000  0.27750000  0.26200000  1.0 0.0910560578
C  C263  1  0.52750000  0.76550000  0.13280000  1.0 0.0910560578
C  C264  1  0.63270000  0.39470000  0.86720000  1.0 0.0910560578
C  C265  1  0.31700000  0.40440000  0.75540000  1.0 -0.2009234133
C  C266  1  0.64900000  0.56160000  0.24460000  1.0 -0.2009234133
C  C267  1  0.81160000  0.06700000  0.41260000  1.0 -0.2009234133
C  C268  1  0.65440000  0.39900000  0.58740000  1.0 -0.2009234133
C  C269  1  0.93300000  0.34560000  0.74460000  1.0 -0.2009234133
C  C270  1  0.60100000  0.18840000  0.25540000  1.0 -0.2009234133
C  C271  1  0.43840000  0.68300000  0.08740000  1.0 -0.2009234133
C  C272  1  0.59560000  0.35100000  0.91260000  1.0 -0.2009234133
N  N1  1  0.76900000  0.86120000  0.66620000  1.0 -0.2196889629
N  N2  1  0.19500000  0.10280000  0.33380000  1.0 -0.2196889629
N  N3  1  0.35280000  0.51900000  0.40780000  1.0 -0.2196889629
N  N4  1  0.11120000  0.94500000  0.59220000  1.0 -0.2196889629
N  N5  1  0.48100000  0.88880000  0.83380000  1.0 -0.2196889629
N  N6  1  0.05500000  0.64720000  0.16620000  1.0 -0.2196889629
N  N7  1  0.89720000  0.23100000  0.09220000  1.0 -0.2196889629
N  N8  1  0.13880000  0.80500000  0.90780000  1.0 -0.2196889629
N  N9  1  0.78870000  0.86210000  0.74520000  1.0 -0.4379268975
N  N10  1  0.11690000  0.04350000  0.25480000  1.0 -0.4379268975
N  N11  1  0.29350000  0.53870000  0.42660000  1.0 -0.4379268975
N  N12  1  0.11210000  0.86690000  0.57340000  1.0 -0.4379268975
N  N13  1  0.46130000  0.88790000  0.75480000  1.0 -0.4379268975
N  N14  1  0.13310000  0.70650000  0.24520000  1.0 -0.4379268975
N  N15  1  0.95650000  0.21130000  0.07340000  1.0 -0.4379268975
N  N16  1  0.13790000  0.88310000  0.92660000  1.0 -0.4379268975
N  N17  1  0.66780000  0.72670000  0.81710000  1.0 -0.1937649825
N  N18  1  0.90960000  0.85070000  0.18290000  1.0 -0.1937649825
N  N19  1  0.10070000  0.41780000  0.44110000  1.0 -0.1937649825
N  N20  1  0.97670000  0.65960000  0.55890000  1.0 -0.1937649825
N  N21  1  0.58220000  0.02330000  0.68290000  1.0 -0.1937649825
N  N22  1  0.34040000  0.89930000  0.31710000  1.0 -0.1937649825
N  N23  1  0.14930000  0.33220000  0.05890000  1.0 -0.1937649825
N  N24  1  0.27330000  0.09040000  0.94110000  1.0 -0.1937649825
N  N25  1  0.60980000  0.58700000  0.79940000  1.0 -0.4137505346
N  N26  1  0.78760000  0.81040000  0.20060000  1.0 -0.4137505346
N  N27  1  0.06040000  0.35980000  0.52280000  1.0 -0.4137505346
N  N28  1  0.83700000  0.53760000  0.47720000  1.0 -0.4137505346
N  N29  1  0.64020000  0.16300000  0.70060000  1.0 -0.4137505346
N  N30  1  0.46240000  0.93960000  0.29940000  1.0 -0.4137505346
N  N31  1  0.18960000  0.39020000  0.97720000  1.0 -0.4137505346
N  N32  1  0.41300000  0.21240000  0.02280000  1.0 -0.4137505346
N  N33  1  0.62120000  0.45330000  0.76450000  1.0 -0.2196889629
N  N34  1  0.68880000  0.85670000  0.23550000  1.0 -0.2196889629
N  N35  1  0.10670000  0.37120000  0.66790000  1.0 -0.2196889629
N  N36  1  0.70330000  0.43880000  0.33210000  1.0 -0.2196889629
N  N37  1  0.62880000  0.29670000  0.73550000  1.0 -0.2196889629
N  N38  1  0.56120000  0.89330000  0.26450000  1.0 -0.2196889629
N  N39  1  0.14330000  0.37880000  0.83210000  1.0 -0.2196889629
N  N40  1  0.54670000  0.31120000  0.16790000  1.0 -0.2196889629
N  N41  1  0.96520000  0.95160000  0.87480000  1.0 -0.3258764238
N  N42  1  0.07680000  0.09040000  0.12520000  1.0 -0.3258764238
N  N43  1  0.34040000  0.71520000  0.51360000  1.0 -0.3258764238
N  N44  1  0.20160000  0.82680000  0.48640000  1.0 -0.3258764238
N  N45  1  0.28480000  0.79840000  0.62520000  1.0 -0.3258764238
N  N46  1  0.17320000  0.65960000  0.37480000  1.0 -0.3258764238
N  N47  1  0.90960000  0.03480000  0.98640000  1.0 -0.3258764238
N  N48  1  0.04840000  0.92320000  0.01360000  1.0 -0.3258764238
N  N49  1  0.90540000  0.89040000  0.78980000  1.0 -0.4289693979
N  N50  1  0.10060000  0.11560000  0.21020000  1.0 -0.4289693979
N  N51  1  0.36560000  0.65540000  0.51500000  1.0 -0.4289693979
N  N52  1  0.14040000  0.85060000  0.48500000  1.0 -0.4289693979
N  N53  1  0.34460000  0.85960000  0.71020000  1.0 -0.4289693979
N  N54  1  0.14940000  0.63440000  0.28980000  1.0 -0.4289693979
N  N55  1  0.88440000  0.09460000  0.98500000  1.0 -0.4289693979
N  N56  1  0.10960000  0.89940000  0.01500000  1.0 -0.4289693979
N  N57  1  0.73520000  0.71180000  0.71160000  1.0 -0.2009234133
N  N58  1  0.00020000  0.02360000  0.28840000  1.0 -0.2009234133
N  N59  1  0.27360000  0.48520000  0.52340000  1.0 -0.2009234133
N  N60  1  0.96180000  0.75020000  0.47660000  1.0 -0.2009234133
N  N61  1  0.51480000  0.03820000  0.78840000  1.0 -0.2009234133
N  N62  1  0.24980000  0.72640000  0.21160000  1.0 -0.2009234133
N  N63  1  0.97640000  0.26480000  0.97660000  1.0 -0.2009234133
N  N64  1  0.28820000  0.99980000  0.02340000  1.0 -0.2009234133
N  N65  1  0.51710000  0.55710000  0.72000000  1.0 -0.4289693979
N  N66  1  0.83710000  0.79710000  0.28000000  1.0 -0.4289693979
N  N67  1  0.04710000  0.26710000  0.46000000  1.0 -0.4289693979
N  N68  1  0.80710000  0.58710000  0.54000000  1.0 -0.4289693979
N  N69  1  0.73290000  0.19290000  0.78000000  1.0 -0.4289693979
N  N70  1  0.41290000  0.95290000  0.22000000  1.0 -0.4289693979
N  N71  1  0.20290000  0.48290000  0.04000000  1.0 -0.4289693979
N  N72  1  0.44290000  0.16290000  0.96000000  1.0 -0.4289693979
N  N73  1  0.25120000  0.42330000  0.74210000  1.0 -0.2077335881
N  N74  1  0.68120000  0.50910000  0.25790000  1.0 -0.2077335881
N  N75  1  0.75910000  0.00120000  0.32790000  1.0 -0.2077335881
N  N76  1  0.67330000  0.43120000  0.67210000  1.0 -0.2077335881
N  N77  1  0.99880000  0.32670000  0.75790000  1.0 -0.2077335881
N  N78  1  0.56880000  0.24090000  0.24210000  1.0 -0.2077335881
N  N79  1  0.49090000  0.74880000  0.17210000  1.0 -0.2077335881
N  N80  1  0.57670000  0.31880000  0.82790000  1.0 -0.2077335881
Cl  Cl1  1  0.36360000  0.13210000  0.72230000  1.0 -0.4851055534
Cl  Cl2  1  0.40980000  0.64130000  0.27770000  1.0 -0.4840293915
Cl  Cl3  1  0.89130000  0.11360000  0.73150000  1.0 -0.4840293915
Cl  Cl4  1  0.38210000  0.15980000  0.26850000  1.0 -0.4851055534
Cl  Cl5  1  0.88640000  0.61790000  0.77770000  1.0 -0.4851055534
Cl  Cl6  1  0.84020000  0.10870000  0.22230000  1.0 -0.4851055534
Cl  Cl7  1  0.35870000  0.63640000  0.76850000  1.0 -0.4851055534
Cl  Cl8  1  0.86790000  0.59020000  0.23150000  1.0 -0.4851055534
O  O1  1  0.08350000  0.00620000  0.77190000  1.0 -0.4289693979
O  O2  1  0.23430000  0.31160000  0.22810000  1.0 -0.4289693979
O  O3  1  0.56160000  0.83350000  0.57730000  1.0 -0.4289693979
O  O4  1  0.25620000  0.98430000  0.42270000  1.0 -0.4289693979
O  O5  1  0.16650000  0.74380000  0.72810000  1.0 -0.4289693979
O  O6  1  0.01570000  0.43840000  0.27190000  1.0 -0.4289693979
O  O7  1  0.68840000  0.91650000  0.92270000  1.0 -0.4289693979
O  O8  1  0.99380000  0.76570000  0.07730000  1.0 -0.4289693979
O  O9  1  0.40660000  0.43810000  0.64070000  1.0 -0.4723943823
O  O10  1  0.79740000  0.76590000  0.35930000  1.0 -0.4723943823
O  O11  1  0.01590000  0.15660000  0.46850000  1.0 -0.4723943823
O  O12  1  0.68810000  0.54740000  0.53150000  1.0 -0.4723943823
O  O13  1  0.84340000  0.31190000  0.85930000  1.0 -0.4723943823
O  O14  1  0.45260000  0.98410000  0.14070000  1.0 -0.4723943823
O  O15  1  0.23410000  0.59340000  0.03150000  1.0 -0.4723943823
O  O16  1  0.56190000  0.20260000  0.96850000  1.0 -0.4723943823
O  O17  1  0.82690000  0.97660000  0.77490000  1.0 -0.4208352358
O  O18  1  0.20170000  0.05200000  0.22510000  1.0 -0.4208352358
O  O19  1  0.30200000  0.57690000  0.35030000  1.0 -0.4208352358
O  O20  1  0.22660000  0.95170000  0.64970000  1.0 -0.4208352358
O  O21  1  0.42310000  0.77340000  0.72510000  1.0 -0.4208352358
O  O22  1  0.04830000  0.69800000  0.27490000  1.0 -0.4208352358
O  O23  1  0.94800000  0.17310000  0.14970000  1.0 -0.4208352358
O  O24  1  0.02340000  0.79830000  0.85030000  1.0 -0.4208352358
O  O25  1  0.52780000  0.49880000  0.87300000  1.0 -0.4289693979
O  O26  1  0.62580000  0.65480000  0.12700000  1.0 -0.4289693979
O  O27  1  0.90480000  0.27780000  0.52900000  1.0 -0.4289693979
O  O28  1  0.74880000  0.37580000  0.47100000  1.0 -0.4289693979
O  O29  1  0.72220000  0.25120000  0.62700000  1.0 -0.4289693979
O  O30  1  0.62420000  0.09520000  0.37300000  1.0 -0.4289693979
O  O31  1  0.34520000  0.47220000  0.97100000  1.0 -0.4289693979
O  O32  1  0.50120000  0.37420000  0.02900000  1.0 -0.4289693979
