# DDEC6 charges by PACMAN v1.1 (https://github.com/mtap-research/PACMAN-charge/)
data_GOTNEK_FSR_pacman
_symmetry_space_group_name_H-M   'P 1'
_cell_length_a   14.46030000
_cell_length_b   19.12370000
_cell_length_c   30.62470000
_cell_angle_alpha   90.00000000
_cell_angle_beta   90.00000000
_cell_angle_gamma   90.00000000
_symmetry_Int_Tables_number   1
_chemical_formula_structural   Dy2H72C79(NO11)2
_chemical_formula_sum   'Dy8 H288 C316 N8 O88'
_cell_volume   8468.78423741
_cell_formula_units_Z   4
loop_
 _symmetry_equiv_pos_site_id
 _symmetry_equiv_pos_as_xyz
  1  'x, y, z'
loop_
 _atom_site_type_symbol
 _atom_site_label
 _atom_site_symmetry_multiplicity
 _atom_site_fract_x
 _atom_site_fract_y
 _atom_site_fract_z
 _atom_site_occupancy
 _atom_site_charge
Dy  Dy1  1  0.53713000  0.35892000  0.53661000  1.0 2.039752097
Dy  Dy2  1  0.46287000  0.64108000  0.03661000  1.0 2.039752097
Dy  Dy3  1  0.03713000  0.14108000  0.03661000  1.0 2.039752097
Dy  Dy4  1  0.96287000  0.85892000  0.53661000  1.0 2.039752097
Dy  Dy5  1  0.47468000  0.31381000  0.41236000  1.0 2.0570465635
Dy  Dy6  1  0.52532000  0.68619000  0.91236000  1.0 2.0570465635
Dy  Dy7  1  0.97468000  0.18619000  0.91236000  1.0 2.0570465635
Dy  Dy8  1  0.02532000  0.81381000  0.41236000  1.0 2.0570465635
H  H1  1  0.77710000  0.40080000  0.51260000  1.0 0.3406430195
H  H2  1  0.22290000  0.59920000  0.01260000  1.0 0.3406430195
H  H3  1  0.27710000  0.09920000  0.01260000  1.0 0.3406430195
H  H4  1  0.72290000  0.90080000  0.51260000  1.0 0.3406430195
H  H5  1  0.98830000  0.60160000  0.42590000  1.0 0.3576910059
H  H6  1  0.01170000  0.39840000  0.92590000  1.0 0.3576910059
H  H7  1  0.48830000  0.89840000  0.92590000  1.0 0.3576910059
H  H8  1  0.51170000  0.10160000  0.42590000  1.0 0.3576910059
H  H9  1  0.22600000  0.24230000  0.43530000  1.0 0.3576910059
H  H10  1  0.77400000  0.75770000  0.93530000  1.0 0.3576910059
H  H11  1  0.72600000  0.25770000  0.93530000  1.0 0.3576910059
H  H12  1  0.27400000  0.74230000  0.43530000  1.0 0.3576910059
H  H13  1  0.01290000  0.07170000  0.52010000  1.0 0.3483602714
H  H14  1  0.98710000  0.92830000  0.02010000  1.0 0.3483602714
H  H15  1  0.51290000  0.42830000  0.02010000  1.0 0.3483602714
H  H16  1  0.48710000  0.57170000  0.52010000  1.0 0.3483602714
H  H17  1  0.64170000  0.29570000  0.33040000  1.0 0.3483602714
H  H18  1  0.35830000  0.70430000  0.83040000  1.0 0.3483602714
H  H19  1  0.14170000  0.20430000  0.83040000  1.0 0.3483602714
H  H20  1  0.85830000  0.79570000  0.33040000  1.0 0.3483602714
H  H21  1  0.95690000  0.25000000  0.15050000  1.0 0.3483602714
H  H22  1  0.04310000  0.75000000  0.65050000  1.0 0.3483602714
H  H23  1  0.45690000  0.25000000  0.65050000  1.0 0.3483602714
H  H24  1  0.54310000  0.75000000  0.15050000  1.0 0.3483602714
H  H25  1  0.69830000  0.27340000  0.53820000  1.0 0.3831416081
H  H26  1  0.30170000  0.72660000  0.03820000  1.0 0.3831416081
H  H27  1  0.19830000  0.22660000  0.03820000  1.0 0.3831416081
H  H28  1  0.80170000  0.77340000  0.53820000  1.0 0.3831416081
H  H29  1  0.68870000  0.29790000  0.58250000  1.0 0.3877836998
H  H30  1  0.31130000  0.70210000  0.08250000  1.0 0.3877836998
H  H31  1  0.18870000  0.20210000  0.08250000  1.0 0.3877836998
H  H32  1  0.81130000  0.79790000  0.58250000  1.0 0.3877836998
H  H33  1  0.34690000  0.42430000  0.39020000  1.0 0.4005478333
H  H34  1  0.65310000  0.57570000  0.89020000  1.0 0.4005478333
H  H35  1  0.84690000  0.07570000  0.89020000  1.0 0.4005478333
H  H36  1  0.15310000  0.92430000  0.39020000  1.0 0.4005478333
H  H37  1  0.36200000  0.38440000  0.34930000  1.0 0.4005478333
H  H38  1  0.63800000  0.61560000  0.84930000  1.0 0.4005478333
H  H39  1  0.86200000  0.11560000  0.84930000  1.0 0.4005478333
H  H40  1  0.13800000  0.88440000  0.34930000  1.0 0.4005478333
H  H41  1  0.75550000  0.37070000  0.37150000  1.0 0.1306341242
H  H42  1  0.24450000  0.62930000  0.87150000  1.0 0.1306341242
H  H43  1  0.25550000  0.12930000  0.87150000  1.0 0.1306341242
H  H44  1  0.74450000  0.87070000  0.37150000  1.0 0.1306341242
H  H45  1  0.86310000  0.38370000  0.31050000  1.0 0.1191918978
H  H46  1  0.13690000  0.61630000  0.81050000  1.0 0.1191918978
H  H47  1  0.36310000  0.11630000  0.81050000  1.0 0.1191918978
H  H48  1  0.63690000  0.88370000  0.31050000  1.0 0.1191918978
H  H49  1  0.01000000  0.40170000  0.28580000  1.0 0.1107839361
H  H50  1  0.99000000  0.59830000  0.78580000  1.0 0.1107839361
H  H51  1  0.51000000  0.09830000  0.78580000  1.0 0.1107839361
H  H52  1  0.49000000  0.90170000  0.28580000  1.0 0.1107839361
H  H53  1  0.12940000  0.42270000  0.33540000  1.0 0.1191918978
H  H54  1  0.87060000  0.57730000  0.83540000  1.0 0.1191918978
H  H55  1  0.62940000  0.07730000  0.83540000  1.0 0.1191918978
H  H56  1  0.37060000  0.92270000  0.33540000  1.0 0.1191918978
H  H57  1  0.10010000  0.43700000  0.40790000  1.0 0.1191918978
H  H58  1  0.89990000  0.56300000  0.90790000  1.0 0.1191918978
H  H59  1  0.60010000  0.06300000  0.90790000  1.0 0.1191918978
H  H60  1  0.39990000  0.93700000  0.40790000  1.0 0.1191918978
H  H61  1  0.07040000  0.43840000  0.47210000  1.0 0.1107839361
H  H62  1  0.92960000  0.56160000  0.97210000  1.0 0.1107839361
H  H63  1  0.57040000  0.06160000  0.97210000  1.0 0.1107839361
H  H64  1  0.42960000  0.93840000  0.47210000  1.0 0.1107839361
H  H65  1  0.00790000  0.40520000  0.50820000  1.0 0.1107839361
H  H66  1  0.99210000  0.59480000  0.00820000  1.0 0.1107839361
H  H67  1  0.50790000  0.09480000  0.00820000  1.0 0.1107839361
H  H68  1  0.49210000  0.90520000  0.50820000  1.0 0.1107839361
H  H69  1  0.01930000  0.41730000  0.57270000  1.0 0.1107839361
H  H70  1  0.98070000  0.58270000  0.07270000  1.0 0.1107839361
H  H71  1  0.51930000  0.08270000  0.07270000  1.0 0.1107839361
H  H72  1  0.48070000  0.91730000  0.57270000  1.0 0.1107839361
H  H73  1  0.03460000  0.43610000  0.64460000  1.0 0.1107839361
H  H74  1  0.96540000  0.56390000  0.14460000  1.0 0.1107839361
H  H75  1  0.53460000  0.06390000  0.14460000  1.0 0.1107839361
H  H76  1  0.46540000  0.93610000  0.64460000  1.0 0.1107839361
H  H77  1  0.02850000  0.54720000  0.67440000  1.0 0.1191918978
H  H78  1  0.97150000  0.45280000  0.17440000  1.0 0.1191918978
H  H79  1  0.52850000  0.95280000  0.17440000  1.0 0.1191918978
H  H80  1  0.47150000  0.04720000  0.67440000  1.0 0.1191918978
H  H81  1  0.00460000  0.64040000  0.63030000  1.0 0.1191918978
H  H82  1  0.99540000  0.35960000  0.13030000  1.0 0.1191918978
H  H83  1  0.50460000  0.85960000  0.13030000  1.0 0.1191918978
H  H84  1  0.49540000  0.14040000  0.63030000  1.0 0.1191918978
H  H85  1  0.98720000  0.68990000  0.55740000  1.0 0.1306341242
H  H86  1  0.01280000  0.31010000  0.05740000  1.0 0.1306341242
H  H87  1  0.48720000  0.81010000  0.05740000  1.0 0.1306341242
H  H88  1  0.51280000  0.18990000  0.55740000  1.0 0.1306341242
H  H89  1  0.25820000  0.31040000  0.57460000  1.0 0.1306341242
H  H90  1  0.74180000  0.68960000  0.07460000  1.0 0.1306341242
H  H91  1  0.75820000  0.18960000  0.07460000  1.0 0.1306341242
H  H92  1  0.24180000  0.81040000  0.57460000  1.0 0.1306341242
H  H93  1  0.15130000  0.30500000  0.63540000  1.0 0.1107839361
H  H94  1  0.84870000  0.69500000  0.13540000  1.0 0.1107839361
H  H95  1  0.65130000  0.19500000  0.13540000  1.0 0.1107839361
H  H96  1  0.34870000  0.80500000  0.63540000  1.0 0.1107839361
H  H97  1  0.00600000  0.28760000  0.66210000  1.0 0.1191918978
H  H98  1  0.99400000  0.71240000  0.16210000  1.0 0.1191918978
H  H99  1  0.50600000  0.21240000  0.16210000  1.0 0.1191918978
H  H100  1  0.49400000  0.78760000  0.66210000  1.0 0.1191918978
H  H101  1  0.88480000  0.26110000  0.61410000  1.0 0.1107839361
H  H102  1  0.11520000  0.73890000  0.11410000  1.0 0.1107839361
H  H103  1  0.38480000  0.23890000  0.11410000  1.0 0.1107839361
H  H104  1  0.61520000  0.76110000  0.61410000  1.0 0.1107839361
H  H105  1  0.91180000  0.24090000  0.54390000  1.0 0.1107839361
H  H106  1  0.08820000  0.75910000  0.04390000  1.0 0.1107839361
H  H107  1  0.41180000  0.25910000  0.04390000  1.0 0.1107839361
H  H108  1  0.58820000  0.74090000  0.54390000  1.0 0.1107839361
H  H109  1  0.93790000  0.23600000  0.47850000  1.0 0.1107839361
H  H110  1  0.06210000  0.76400000  0.97850000  1.0 0.1107839361
H  H111  1  0.43790000  0.26400000  0.97850000  1.0 0.1107839361
H  H112  1  0.56210000  0.73600000  0.47850000  1.0 0.1107839361
H  H113  1  0.99700000  0.27190000  0.44220000  1.0 0.1107839361
H  H114  1  0.00300000  0.72810000  0.94220000  1.0 0.1107839361
H  H115  1  0.49700000  0.22810000  0.94220000  1.0 0.1107839361
H  H116  1  0.50300000  0.77190000  0.44220000  1.0 0.1107839361
H  H117  1  0.00630000  0.26320000  0.37660000  1.0 0.1107839361
H  H118  1  0.99370000  0.73680000  0.87660000  1.0 0.1107839361
H  H119  1  0.50630000  0.23680000  0.87660000  1.0 0.1107839361
H  H120  1  0.49370000  0.76320000  0.37660000  1.0 0.1107839361
H  H121  1  0.98280000  0.24970000  0.30370000  1.0 0.1107839361
H  H122  1  0.01720000  0.75030000  0.80370000  1.0 0.1107839361
H  H123  1  0.48280000  0.25030000  0.80370000  1.0 0.1107839361
H  H124  1  0.51720000  0.74970000  0.30370000  1.0 0.1107839361
H  H125  1  0.97570000  0.13900000  0.27180000  1.0 0.1107839361
H  H126  1  0.02430000  0.86100000  0.77180000  1.0 0.1107839361
H  H127  1  0.47570000  0.36100000  0.77180000  1.0 0.1107839361
H  H128  1  0.52430000  0.63900000  0.27180000  1.0 0.1107839361
H  H129  1  0.98830000  0.04230000  0.31590000  1.0 0.1191918978
H  H130  1  0.01170000  0.95770000  0.81590000  1.0 0.1191918978
H  H131  1  0.48830000  0.45770000  0.81590000  1.0 0.1191918978
H  H132  1  0.51170000  0.54230000  0.31590000  1.0 0.1191918978
H  H133  1  0.00560000  0.98920000  0.38670000  1.0 0.1191918978
H  H134  1  0.99440000  0.01080000  0.88670000  1.0 0.1191918978
H  H135  1  0.50560000  0.51080000  0.88670000  1.0 0.1191918978
H  H136  1  0.49440000  0.48920000  0.38670000  1.0 0.1191918978
H  H137  1  0.48760000  0.40180000  0.22760000  1.0 0.1306341242
H  H138  1  0.51240000  0.59820000  0.72760000  1.0 0.1306341242
H  H139  1  0.98760000  0.09820000  0.72760000  1.0 0.1306341242
H  H140  1  0.01240000  0.90180000  0.22760000  1.0 0.1306341242
H  H141  1  0.51800000  0.42450000  0.14910000  1.0 0.1191918978
H  H142  1  0.48200000  0.57550000  0.64910000  1.0 0.1191918978
H  H143  1  0.01800000  0.07550000  0.64910000  1.0 0.1191918978
H  H144  1  0.98200000  0.92450000  0.14910000  1.0 0.1191918978
H  H145  1  0.61480000  0.41580000  0.08960000  1.0 0.1191918978
H  H146  1  0.38520000  0.58420000  0.58960000  1.0 0.1191918978
H  H147  1  0.11480000  0.08420000  0.58960000  1.0 0.1191918978
H  H148  1  0.88520000  0.91580000  0.08960000  1.0 0.1191918978
H  H149  1  0.75710000  0.36580000  0.09770000  1.0 0.1107839361
H  H150  1  0.24290000  0.63420000  0.59770000  1.0 0.1107839361
H  H151  1  0.25710000  0.13420000  0.59770000  1.0 0.1107839361
H  H152  1  0.74290000  0.86580000  0.09770000  1.0 0.1107839361
H  H153  1  0.80770000  0.32040000  0.16220000  1.0 0.1107839361
H  H154  1  0.19230000  0.67960000  0.66220000  1.0 0.1107839361
H  H155  1  0.30770000  0.17960000  0.66220000  1.0 0.1107839361
H  H156  1  0.69230000  0.82040000  0.16220000  1.0 0.1107839361
H  H157  1  0.81390000  0.26060000  0.27370000  1.0 0.1107839361
H  H158  1  0.18610000  0.73940000  0.77370000  1.0 0.1107839361
H  H159  1  0.31390000  0.23940000  0.77370000  1.0 0.1107839361
H  H160  1  0.68610000  0.76060000  0.27370000  1.0 0.1107839361
H  H161  1  0.85680000  0.30250000  0.23480000  1.0 0.1107839361
H  H162  1  0.14320000  0.69750000  0.73480000  1.0 0.1107839361
H  H163  1  0.35680000  0.19750000  0.73480000  1.0 0.1107839361
H  H164  1  0.64320000  0.80250000  0.23480000  1.0 0.1107839361
H  H165  1  0.69570000  0.17970000  0.28230000  1.0 0.1191918978
H  H166  1  0.30430000  0.82030000  0.78230000  1.0 0.1191918978
H  H167  1  0.19570000  0.32030000  0.78230000  1.0 0.1191918978
H  H168  1  0.80430000  0.67970000  0.28230000  1.0 0.1191918978
H  H169  1  0.60890000  0.08210000  0.29640000  1.0 0.1191918978
H  H170  1  0.39110000  0.91790000  0.79640000  1.0 0.1191918978
H  H171  1  0.10890000  0.41790000  0.79640000  1.0 0.1191918978
H  H172  1  0.89110000  0.58210000  0.29640000  1.0 0.1191918978
H  H173  1  0.62180000  0.98400000  0.25320000  1.0 0.1107839361
H  H174  1  0.37820000  0.01600000  0.75320000  1.0 0.1107839361
H  H175  1  0.12180000  0.51600000  0.75320000  1.0 0.1107839361
H  H176  1  0.87820000  0.48400000  0.25320000  1.0 0.1107839361
H  H177  1  0.71720000  0.98520000  0.19380000  1.0 0.1107839361
H  H178  1  0.28280000  0.01480000  0.69380000  1.0 0.1107839361
H  H179  1  0.21720000  0.51480000  0.69380000  1.0 0.1107839361
H  H180  1  0.78280000  0.48520000  0.19380000  1.0 0.1107839361
H  H181  1  0.82920000  0.04350000  0.14670000  1.0 0.1191918978
H  H182  1  0.17080000  0.95650000  0.64670000  1.0 0.1191918978
H  H183  1  0.32920000  0.45650000  0.64670000  1.0 0.1191918978
H  H184  1  0.67080000  0.54350000  0.14670000  1.0 0.1191918978
H  H185  1  0.57410000  0.50950000  0.58170000  1.0 0.0997227657
H  H186  1  0.42590000  0.49050000  0.08170000  1.0 0.0997227657
H  H187  1  0.07410000  0.99050000  0.08170000  1.0 0.0997227657
H  H188  1  0.92590000  0.00950000  0.58170000  1.0 0.0997227657
H  H189  1  0.64630000  0.61220000  0.63420000  1.0 0.0695402679
H  H190  1  0.35370000  0.38780000  0.13420000  1.0 0.0695402679
H  H191  1  0.14630000  0.88780000  0.13420000  1.0 0.0695402679
H  H192  1  0.85370000  0.11220000  0.63420000  1.0 0.0695402679
H  H193  1  0.70990000  0.63980000  0.59650000  1.0 0.0586356256
H  H194  1  0.29010000  0.36020000  0.09650000  1.0 0.0695402679
H  H195  1  0.20990000  0.86020000  0.09650000  1.0 0.0586356256
H  H196  1  0.79010000  0.13980000  0.59650000  1.0 0.0586356256
H  H197  1  0.60990000  0.61300000  0.58590000  1.0 0.1107839361
H  H198  1  0.39010000  0.38700000  0.08590000  1.0 0.1107839361
H  H199  1  0.10990000  0.88700000  0.08590000  1.0 0.1107839361
H  H200  1  0.89010000  0.11300000  0.58590000  1.0 0.1107839361
H  H201  1  0.80590000  0.55520000  0.55820000  1.0 0.0997227657
H  H202  1  0.19410000  0.44480000  0.05820000  1.0 0.0997227657
H  H203  1  0.30590000  0.94480000  0.05820000  1.0 0.0894942145
H  H204  1  0.69410000  0.05520000  0.55820000  1.0 0.0997227657
H  H205  1  0.83450000  0.54820000  0.60740000  1.0 0.0805909281
H  H206  1  0.16550000  0.45180000  0.10740000  1.0 0.0805909281
H  H207  1  0.33450000  0.95180000  0.10740000  1.0 0.0805909281
H  H208  1  0.66550000  0.04820000  0.60740000  1.0 0.0805909281
H  H209  1  0.81150000  0.48110000  0.58000000  1.0 0.0805909281
H  H210  1  0.18850000  0.51890000  0.08000000  1.0 0.0805909281
H  H211  1  0.31150000  0.01890000  0.08000000  1.0 0.0805909281
H  H212  1  0.68850000  0.98110000  0.58000000  1.0 0.0805909281
H  H213  1  0.27850000  0.23220000  0.36490000  1.0 0.1191918978
H  H214  1  0.72150000  0.76780000  0.86490000  1.0 0.1191918978
H  H215  1  0.77850000  0.26780000  0.86490000  1.0 0.1191918978
H  H216  1  0.22150000  0.73220000  0.36490000  1.0 0.1191918978
H  H217  1  0.39170000  0.06540000  0.35560000  1.0 0.0997227657
H  H218  1  0.60830000  0.93460000  0.85560000  1.0 0.0997227657
H  H219  1  0.89170000  0.43460000  0.85560000  1.0 0.0997227657
H  H220  1  0.10830000  0.56540000  0.35560000  1.0 0.0997227657
H  H221  1  0.38050000  0.07170000  0.30480000  1.0 0.0586356256
H  H222  1  0.61950000  0.92830000  0.80480000  1.0 0.0586356256
H  H223  1  0.88050000  0.42830000  0.80480000  1.0 0.0586356256
H  H224  1  0.11950000  0.57170000  0.30480000  1.0 0.0586356256
H  H225  1  0.44910000  0.12120000  0.32970000  1.0 0.0695402679
H  H226  1  0.55090000  0.87880000  0.82970000  1.0 0.0695402679
H  H227  1  0.94910000  0.37880000  0.82970000  1.0 0.0695402679
H  H228  1  0.05090000  0.62120000  0.32970000  1.0 0.0695402679
H  H229  1  0.18940000  0.11830000  0.32130000  1.0 0.0512496986
H  H230  1  0.81060000  0.88170000  0.82130000  1.0 0.0512496986
H  H231  1  0.68940000  0.38170000  0.82130000  1.0 0.0512496986
H  H232  1  0.31060000  0.61830000  0.32130000  1.0 0.0512496986
H  H233  1  0.26220000  0.05830000  0.31550000  1.0 0.0997227657
H  H234  1  0.73780000  0.94170000  0.81550000  1.0 0.0997227657
H  H235  1  0.76220000  0.44170000  0.81550000  1.0 0.0997227657
H  H236  1  0.23780000  0.55830000  0.31550000  1.0 0.0997227657
H  H237  1  0.22780000  0.07870000  0.36230000  1.0 0.0805909281
H  H238  1  0.77220000  0.92130000  0.86230000  1.0 0.0805909281
H  H239  1  0.72780000  0.42130000  0.86230000  1.0 0.0805909281
H  H240  1  0.27220000  0.57870000  0.36230000  1.0 0.0805909281
H  H241  1  0.69600000  0.61880000  0.63610000  1.0 0.0695402679
H  H242  1  0.30400000  0.38120000  0.13610000  1.0 0.0695402679
H  H243  1  0.19600000  0.88120000  0.13610000  1.0 0.0695402679
H  H244  1  0.80400000  0.11880000  0.63610000  1.0 0.0695402679
H  H245  1  0.76580000  0.62650000  0.59730000  1.0 0.1107839361
H  H246  1  0.23420000  0.37350000  0.09730000  1.0 0.1107839361
H  H247  1  0.26580000  0.87350000  0.09730000  1.0 0.1191918978
H  H248  1  0.73420000  0.12650000  0.59730000  1.0 0.1107839361
H  H249  1  0.65930000  0.63370000  0.58890000  1.0 0.0695402679
H  H250  1  0.34070000  0.36630000  0.08890000  1.0 0.0695402679
H  H251  1  0.15930000  0.86630000  0.08890000  1.0 0.0695402679
H  H252  1  0.84070000  0.13370000  0.58890000  1.0 0.0695402679
H  H253  1  0.79340000  0.45720000  0.59060000  1.0 0.0894942145
H  H254  1  0.20660000  0.54280000  0.09060000  1.0 0.0894942145
H  H255  1  0.29340000  0.04280000  0.09060000  1.0 0.0894942145
H  H256  1  0.70660000  0.95720000  0.59060000  1.0 0.0894942145
H  H257  1  0.83420000  0.52320000  0.61400000  1.0 0.0695402679
H  H258  1  0.16580000  0.47680000  0.11400000  1.0 0.0695402679
H  H259  1  0.33420000  0.97680000  0.11400000  1.0 0.0695402679
H  H260  1  0.66580000  0.02320000  0.61400000  1.0 0.0695402679
H  H261  1  0.76870000  0.47230000  0.63950000  1.0 0.1107839361
H  H262  1  0.23130000  0.52770000  0.13950000  1.0 0.1107839361
H  H263  1  0.26870000  0.02770000  0.13950000  1.0 0.1107839361
H  H264  1  0.73130000  0.97230000  0.63950000  1.0 0.1107839361
H  H265  1  0.43480000  0.09080000  0.33600000  1.0 0.0586356256
H  H266  1  0.56520000  0.90920000  0.83600000  1.0 0.0586356256
H  H267  1  0.93480000  0.40920000  0.83600000  1.0 0.0586356256
H  H268  1  0.06520000  0.59080000  0.33600000  1.0 0.0586356256
H  H269  1  0.39640000  0.10760000  0.28930000  1.0 0.0805909281
H  H270  1  0.60360000  0.89240000  0.78930000  1.0 0.0805909281
H  H271  1  0.89640000  0.39240000  0.78930000  1.0 0.0805909281
H  H272  1  0.10360000  0.60760000  0.28930000  1.0 0.0805909281
H  H273  1  0.44720000  0.16580000  0.31620000  1.0 0.1107839361
H  H274  1  0.55280000  0.83420000  0.81620000  1.0 0.1107839361
H  H275  1  0.94720000  0.33420000  0.81620000  1.0 0.1107839361
H  H276  1  0.05280000  0.66580000  0.31620000  1.0 0.1107839361
H  H277  1  0.19580000  0.16750000  0.30990000  1.0 0.0997227657
H  H278  1  0.80420000  0.83250000  0.80990000  1.0 0.0997227657
H  H279  1  0.69580000  0.33250000  0.80990000  1.0 0.0997227657
H  H280  1  0.30420000  0.66750000  0.30990000  1.0 0.0997227657
H  H281  1  0.22230000  0.08800000  0.30870000  1.0 0.0695402679
H  H282  1  0.77770000  0.91200000  0.80870000  1.0 0.0695402679
H  H283  1  0.72230000  0.41200000  0.80870000  1.0 0.0695402679
H  H284  1  0.27770000  0.58800000  0.30870000  1.0 0.0695402679
H  H285  1  0.18810000  0.12210000  0.35240000  1.0 0.0695402679
H  H286  1  0.81190000  0.87790000  0.85240000  1.0 0.0695402679
H  H287  1  0.68810000  0.37790000  0.85240000  1.0 0.0695402679
H  H288  1  0.31190000  0.62210000  0.35240000  1.0 0.0695402679
C  C1  1  0.84900000  0.40530000  0.46419000  1.0 0.1919494654
C  C2  1  0.15100000  0.59470000  0.96419000  1.0 0.1919494654
C  C3  1  0.34900000  0.09470000  0.96419000  1.0 0.1919494654
C  C4  1  0.65100000  0.90530000  0.46419000  1.0 0.1919494654
C  C5  1  0.78010000  0.38460000  0.43412000  1.0 -0.148552707
C  C6  1  0.21990000  0.61540000  0.93412000  1.0 -0.148552707
C  C7  1  0.28010000  0.11540000  0.93412000  1.0 -0.148552707
C  C8  1  0.71990000  0.88460000  0.43412000  1.0 -0.148552707
C  C9  1  0.80150000  0.38250000  0.39137000  1.0 -0.1409256712
C  C10  1  0.19850000  0.61750000  0.89137000  1.0 -0.1409256712
C  C11  1  0.30150000  0.11750000  0.89137000  1.0 -0.1409256712
C  C12  1  0.69850000  0.88250000  0.39137000  1.0 -0.1409256712
C  C13  1  0.89030000  0.39750000  0.37573000  1.0 0.0586356256
C  C14  1  0.10970000  0.60250000  0.87573000  1.0 0.0586356256
C  C15  1  0.39030000  0.10250000  0.87573000  1.0 0.0586356256
C  C16  1  0.60970000  0.89750000  0.37573000  1.0 0.0586356256
C  C17  1  0.91030000  0.39350000  0.33020000  1.0 -0.1409256712
C  C18  1  0.08970000  0.60650000  0.83020000  1.0 -0.1409256712
C  C19  1  0.41030000  0.10650000  0.83020000  1.0 -0.1409256712
C  C20  1  0.58970000  0.89350000  0.33020000  1.0 -0.1409256712
C  C21  1  0.99740000  0.40390000  0.31555000  1.0 -0.1088289195
C  C22  1  0.00260000  0.59610000  0.81555000  1.0 -0.1088289195
C  C23  1  0.49740000  0.09610000  0.81555000  1.0 -0.1088289195
C  C24  1  0.50260000  0.90390000  0.31555000  1.0 -0.1088289195
C  C25  1  0.06910000  0.41810000  0.34560000  1.0 -0.1088289195
C  C26  1  0.93090000  0.58190000  0.84560000  1.0 -0.1088289195
C  C27  1  0.56910000  0.08190000  0.84560000  1.0 -0.1088289195
C  C28  1  0.43090000  0.91810000  0.34560000  1.0 -0.1088289195
C  C29  1  0.05210000  0.42530000  0.38906000  1.0 -0.1307120889
C  C30  1  0.94790000  0.57470000  0.88906000  1.0 -0.1307120889
C  C31  1  0.55210000  0.07470000  0.88906000  1.0 -0.1307120889
C  C32  1  0.44790000  0.92530000  0.38906000  1.0 -0.1307120889
C  C33  1  0.96030000  0.41493000  0.40603000  1.0 0.0423504735
C  C34  1  0.03970000  0.58507000  0.90603000  1.0 0.0423504735
C  C35  1  0.46030000  0.08507000  0.90603000  1.0 0.0423504735
C  C36  1  0.53970000  0.91493000  0.40603000  1.0 0.0423504735
C  C37  1  0.93810000  0.42117000  0.45099000  1.0 -0.0042333525
C  C38  1  0.06190000  0.57883000  0.95099000  1.0 -0.0042333525
C  C39  1  0.43810000  0.07883000  0.95099000  1.0 -0.0042333525
C  C40  1  0.56190000  0.92117000  0.45099000  1.0 -0.0042333525
C  C41  1  0.00960000  0.44050000  0.48547000  1.0 -0.2513528009
C  C42  1  0.99040000  0.55950000  0.98547000  1.0 -0.2513528009
C  C43  1  0.50960000  0.05950000  0.98547000  1.0 -0.2513528009
C  C44  1  0.49040000  0.94050000  0.48547000  1.0 -0.2513528009
C  C45  1  0.99890000  0.51100000  0.50669000  1.0 -0.0106469718
C  C46  1  0.00110000  0.48900000  0.00669000  1.0 -0.0106469718
C  C47  1  0.49890000  0.98900000  0.00669000  1.0 -0.0106469718
C  C48  1  0.50110000  0.01100000  0.50669000  1.0 -0.0152697189
C  C49  1  0.00650000  0.51990000  0.55331000  1.0 0.0423504735
C  C50  1  0.99350000  0.48010000  0.05331000  1.0 0.0423504735
C  C51  1  0.50650000  0.98010000  0.05331000  1.0 0.0423504735
C  C52  1  0.49350000  0.01990000  0.55331000  1.0 0.0423504735
C  C53  1  0.01770000  0.46280000  0.58327000  1.0 -0.1307120889
C  C54  1  0.98230000  0.53720000  0.08327000  1.0 -0.1307120889
C  C55  1  0.51770000  0.03720000  0.08327000  1.0 -0.1307120889
C  C56  1  0.48230000  0.96280000  0.58327000  1.0 -0.1307120889
C  C57  1  0.02590000  0.47420000  0.62610000  1.0 -0.0996257508
C  C58  1  0.97410000  0.52580000  0.12610000  1.0 -0.0996257508
C  C59  1  0.52590000  0.02580000  0.12610000  1.0 -0.0996257508
C  C60  1  0.47410000  0.97420000  0.62610000  1.0 -0.0996257508
C  C61  1  0.02210000  0.54100000  0.64440000  1.0 -0.1152356703
C  C62  1  0.97790000  0.45900000  0.14440000  1.0 -0.1088289195
C  C63  1  0.52210000  0.95900000  0.14440000  1.0 -0.1152356703
C  C64  1  0.47790000  0.04100000  0.64440000  1.0 -0.1152356703
C  C65  1  0.00910000  0.59600000  0.61811000  1.0 -0.148552707
C  C66  1  0.99090000  0.40400000  0.11811000  1.0 -0.148552707
C  C67  1  0.50910000  0.90400000  0.11811000  1.0 -0.148552707
C  C68  1  0.49090000  0.09600000  0.61811000  1.0 -0.148552707
C  C69  1  0.00180000  0.58830000  0.57180000  1.0 0.0512496986
C  C70  1  0.99820000  0.41170000  0.07180000  1.0 0.0512496986
C  C71  1  0.50180000  0.91170000  0.07180000  1.0 0.0512496986
C  C72  1  0.49820000  0.08830000  0.57180000  1.0 0.0512496986
C  C73  1  0.99060000  0.64560000  0.54496000  1.0 -0.148552707
C  C74  1  0.00940000  0.35440000  0.04496000  1.0 -0.148552707
C  C75  1  0.49060000  0.85440000  0.04496000  1.0 -0.148552707
C  C76  1  0.50940000  0.14560000  0.54496000  1.0 -0.148552707
C  C77  1  0.98440000  0.63920000  0.50022000  1.0 -0.148552707
C  C78  1  0.01560000  0.36080000  0.00022000  1.0 -0.148552707
C  C79  1  0.48440000  0.86080000  0.00022000  1.0 -0.148552707
C  C80  1  0.51560000  0.13920000  0.50022000  1.0 -0.148552707
C  C81  1  0.99290000  0.57090000  0.48150000  1.0 0.2080901773
C  C82  1  0.00710000  0.42910000  0.98150000  1.0 0.2080901773
C  C83  1  0.49290000  0.92910000  0.98150000  1.0 0.2080901773
C  C84  1  0.50710000  0.07090000  0.48150000  1.0 0.2080901773
C  C85  1  0.68370000  0.36580000  0.44898000  1.0 0.6503629695
C  C86  1  0.31630000  0.63420000  0.94898000  1.0 0.6503629695
C  C87  1  0.18370000  0.13420000  0.94898000  1.0 0.6503629695
C  C88  1  0.81630000  0.86580000  0.44898000  1.0 0.6503629695
C  C89  1  0.97670000  0.70240000  0.47278000  1.0 0.6314021658
C  C90  1  0.02330000  0.29760000  0.97278000  1.0 0.6314021658
C  C91  1  0.47670000  0.79760000  0.97278000  1.0 0.6314021658
C  C92  1  0.52330000  0.20240000  0.47278000  1.0 0.6314021658
C  C93  1  0.15870000  0.26750000  0.48255000  1.0 0.2080901773
C  C94  1  0.84130000  0.73250000  0.98255000  1.0 0.2080901773
C  C95  1  0.65870000  0.23250000  0.98255000  1.0 0.2080901773
C  C96  1  0.34130000  0.76750000  0.48255000  1.0 0.2080901773
C  C97  1  0.23090000  0.28950000  0.51272000  1.0 -0.148552707
C  C98  1  0.76910000  0.71050000  0.01272000  1.0 -0.148552707
C  C99  1  0.73090000  0.21050000  0.01272000  1.0 -0.148552707
C  C100  1  0.26910000  0.78950000  0.51272000  1.0 -0.148552707
C  C101  1  0.21140000  0.29670000  0.55562000  1.0 -0.1409256712
C  C102  1  0.78860000  0.70330000  0.05562000  1.0 -0.1409256712
C  C103  1  0.71140000  0.20330000  0.05562000  1.0 -0.1409256712
C  C104  1  0.28860000  0.79670000  0.55562000  1.0 -0.1409256712
C  C105  1  0.12150000  0.28390000  0.57255000  1.0 0.0512496986
C  C106  1  0.87850000  0.71610000  0.07255000  1.0 0.0512496986
C  C107  1  0.62150000  0.21610000  0.07255000  1.0 0.0512496986
C  C108  1  0.37850000  0.78390000  0.57255000  1.0 0.0512496986
C  C109  1  0.10360000  0.29250000  0.61659000  1.0 -0.1307120889
C  C110  1  0.89640000  0.70750000  0.11659000  1.0 -0.1307120889
C  C111  1  0.60360000  0.20750000  0.11659000  1.0 -0.1409256712
C  C112  1  0.39640000  0.79250000  0.61659000  1.0 -0.1409256712
C  C113  1  0.01760000  0.28270000  0.63230000  1.0 -0.0996257508
C  C114  1  0.98240000  0.71730000  0.13230000  1.0 -0.0996257508
C  C115  1  0.51760000  0.21730000  0.13230000  1.0 -0.0996257508
C  C116  1  0.48240000  0.78270000  0.63230000  1.0 -0.0996257508
C  C117  1  0.94480000  0.26510000  0.60340000  1.0 -0.1307120889
C  C118  1  0.05520000  0.73490000  0.10340000  1.0 -0.1307120889
C  C119  1  0.44480000  0.23490000  0.10340000  1.0 -0.1307120889
C  C120  1  0.55520000  0.76510000  0.60340000  1.0 -0.1307120889
C  C121  1  0.96060000  0.25450000  0.56170000  1.0 -0.1577653338
C  C122  1  0.03940000  0.74550000  0.06170000  1.0 -0.1577653338
C  C123  1  0.46060000  0.24550000  0.06170000  1.0 -0.1577653338
C  C124  1  0.53940000  0.75450000  0.56170000  1.0 -0.1577653338
C  C125  1  0.05070000  0.26290000  0.54271000  1.0 0.0512496986
C  C126  1  0.94930000  0.73710000  0.04271000  1.0 0.0512496986
C  C127  1  0.55070000  0.23710000  0.04271000  1.0 0.0512496986
C  C128  1  0.44930000  0.76290000  0.54271000  1.0 0.0512496986
C  C129  1  0.07030000  0.25360000  0.49752000  1.0 -0.0282911778
C  C130  1  0.92970000  0.74640000  0.99752000  1.0 -0.0282911778
C  C131  1  0.57030000  0.24640000  0.99752000  1.0 -0.0282911778
C  C132  1  0.42970000  0.75360000  0.49752000  1.0 -0.0282911778
C  C133  1  0.99760000  0.23520000  0.46406000  1.0 -0.2572102163
C  C134  1  0.00240000  0.76480000  0.96406000  1.0 -0.2572102163
C  C135  1  0.49760000  0.26480000  0.96406000  1.0 -0.2572102163
C  C136  1  0.50240000  0.73520000  0.46406000  1.0 -0.2572102163
C  C137  1  0.00670000  0.16570000  0.44055000  1.0 -0.0106469718
C  C138  1  0.99330000  0.83430000  0.94055000  1.0 -0.0106469718
C  C139  1  0.50670000  0.33430000  0.94055000  1.0 -0.0106469718
C  C140  1  0.49330000  0.66570000  0.44055000  1.0 -0.0106469718
C  C141  1  0.00320000  0.15930000  0.39425000  1.0 0.0423504735
C  C142  1  0.99680000  0.84070000  0.89425000  1.0 0.0423504735
C  C143  1  0.50320000  0.34070000  0.89425000  1.0 0.0423504735
C  C144  1  0.49680000  0.65930000  0.39425000  1.0 0.0423504735
C  C145  1  0.00000000  0.21840000  0.36520000  1.0 -0.1307120889
C  C146  1  0.00000000  0.78160000  0.86520000  1.0 -0.1307120889
C  C147  1  0.50000000  0.28160000  0.86520000  1.0 -0.1307120889
C  C148  1  0.50000000  0.71840000  0.36520000  1.0 -0.1307120889
C  C149  1  0.98790000  0.21020000  0.32120000  1.0 -0.0929380073
C  C150  1  0.01210000  0.78980000  0.82120000  1.0 -0.0929380073
C  C151  1  0.48790000  0.28980000  0.82120000  1.0 -0.0929380073
C  C152  1  0.51210000  0.71020000  0.32120000  1.0 -0.0929380073
C  C153  1  0.98310000  0.14390000  0.30180000  1.0 -0.0996257508
C  C154  1  0.01690000  0.85610000  0.80180000  1.0 -0.0996257508
C  C155  1  0.48310000  0.35610000  0.80180000  1.0 -0.0996257508
C  C156  1  0.51690000  0.64390000  0.30180000  1.0 -0.0996257508
C  C157  1  0.98980000  0.08660000  0.32840000  1.0 -0.1307120889
C  C158  1  0.01020000  0.91340000  0.82840000  1.0 -0.1307120889
C  C159  1  0.48980000  0.41340000  0.82840000  1.0 -0.1307120889
C  C160  1  0.51020000  0.58660000  0.32840000  1.0 -0.1307120889
C  C161  1  0.99880000  0.09230000  0.37395000  1.0 0.0512496986
C  C162  1  0.00120000  0.90770000  0.87395000  1.0 0.0512496986
C  C163  1  0.49880000  0.40770000  0.87395000  1.0 0.0512496986
C  C164  1  0.50120000  0.59230000  0.37395000  1.0 0.0512496986
C  C165  1  0.00470000  0.03300000  0.40001000  1.0 -0.1577653338
C  C166  1  0.99530000  0.96700000  0.90001000  1.0 -0.1577653338
C  C167  1  0.50470000  0.46700000  0.90001000  1.0 -0.1577653338
C  C168  1  0.49530000  0.53300000  0.40001000  1.0 -0.1577653338
C  C169  1  0.00920000  0.03690000  0.44466000  1.0 -0.148552707
C  C170  1  0.99080000  0.96310000  0.94466000  1.0 -0.148552707
C  C171  1  0.50920000  0.46310000  0.94466000  1.0 -0.148552707
C  C172  1  0.49080000  0.53690000  0.44466000  1.0 -0.148552707
C  C173  1  0.00740000  0.10300000  0.46462000  1.0 0.2080901773
C  C174  1  0.99260000  0.89700000  0.96462000  1.0 0.2080901773
C  C175  1  0.50740000  0.39700000  0.96462000  1.0 0.2080901773
C  C176  1  0.49260000  0.60300000  0.46462000  1.0 0.2080901773
C  C177  1  0.32770000  0.30590000  0.49727000  1.0 0.6503629695
C  C178  1  0.67230000  0.69410000  0.99727000  1.0 0.6503629695
C  C179  1  0.82770000  0.19410000  0.99727000  1.0 0.6503629695
C  C180  1  0.17230000  0.80590000  0.49727000  1.0 0.6503629695
C  C181  1  0.00960000  0.97160000  0.47124000  1.0 0.6503629695
C  C182  1  0.99040000  0.02840000  0.97124000  1.0 0.6503629695
C  C183  1  0.50960000  0.52840000  0.97124000  1.0 0.6503629695
C  C184  1  0.49040000  0.47160000  0.47124000  1.0 0.6503629695
C  C185  1  0.65720000  0.31970000  0.27317000  1.0 0.1919494654
C  C186  1  0.34280000  0.68030000  0.77317000  1.0 0.1919494654
C  C187  1  0.15720000  0.18030000  0.77317000  1.0 0.1919494654
C  C188  1  0.84280000  0.81970000  0.27317000  1.0 0.1919494654
C  C189  1  0.57000000  0.35420000  0.26945000  1.0 -0.1409256712
C  C190  1  0.43000000  0.64580000  0.76945000  1.0 -0.1409256712
C  C191  1  0.07000000  0.14580000  0.76945000  1.0 -0.1409256712
C  C192  1  0.93000000  0.85420000  0.26945000  1.0 -0.1409256712
C  C193  1  0.54480000  0.37990000  0.23014000  1.0 -0.1409256712
C  C194  1  0.45520000  0.62010000  0.73014000  1.0 -0.148552707
C  C195  1  0.04480000  0.12010000  0.73014000  1.0 -0.148552707
C  C196  1  0.95520000  0.87990000  0.23014000  1.0 -0.1409256712
C  C197  1  0.60120000  0.37480000  0.19305000  1.0 0.0512496986
C  C198  1  0.39880000  0.62520000  0.69305000  1.0 0.0512496986
C  C199  1  0.10120000  0.12520000  0.69305000  1.0 0.0512496986
C  C200  1  0.89880000  0.87480000  0.19305000  1.0 0.0512496986
C  C201  1  0.57520000  0.40270000  0.15207000  1.0 -0.1409256712
C  C202  1  0.42480000  0.59730000  0.65207000  1.0 -0.1409256712
C  C203  1  0.07520000  0.09730000  0.65207000  1.0 -0.1409256712
C  C204  1  0.92480000  0.90270000  0.15207000  1.0 -0.148552707
C  C205  1  0.63290000  0.39830000  0.11662000  1.0 -0.0996257508
C  C206  1  0.36710000  0.60170000  0.61662000  1.0 -0.0996257508
C  C207  1  0.13290000  0.10170000  0.61662000  1.0 -0.0996257508
C  C208  1  0.86710000  0.89830000  0.11662000  1.0 -0.0996257508
C  C209  1  0.71800000  0.36760000  0.12181000  1.0 -0.0929380073
C  C210  1  0.28200000  0.63240000  0.62181000  1.0 -0.0929380073
C  C211  1  0.21800000  0.13240000  0.62181000  1.0 -0.0929380073
C  C212  1  0.78200000  0.86760000  0.12181000  1.0 -0.0929380073
C  C213  1  0.74870000  0.33960000  0.16020000  1.0 -0.148552707
C  C214  1  0.25130000  0.66040000  0.66020000  1.0 -0.148552707
C  C215  1  0.24870000  0.16040000  0.66020000  1.0 -0.148552707
C  C216  1  0.75130000  0.83960000  0.16020000  1.0 -0.148552707
C  C217  1  0.68800000  0.34030000  0.19759000  1.0 0.0276323083
C  C218  1  0.31200000  0.65970000  0.69759000  1.0 0.0276323083
C  C219  1  0.18800000  0.15970000  0.69759000  1.0 0.0276323083
C  C220  1  0.81200000  0.84030000  0.19759000  1.0 0.0276323083
C  C221  1  0.71610000  0.31170000  0.23755000  1.0 -0.0282911778
C  C222  1  0.28390000  0.68830000  0.73755000  1.0 -0.0282911778
C  C223  1  0.21610000  0.18830000  0.73755000  1.0 -0.0282911778
C  C224  1  0.78390000  0.81170000  0.23755000  1.0 -0.0282911778
C  C225  1  0.80630000  0.27170000  0.24298000  1.0 -0.2712501277
C  C226  1  0.19370000  0.72830000  0.74298000  1.0 -0.2712501277
C  C227  1  0.30630000  0.22830000  0.74298000  1.0 -0.2712501277
C  C228  1  0.69370000  0.77170000  0.24298000  1.0 -0.2712501277
C  C229  1  0.81550000  0.20450000  0.21692000  1.0 -0.0447009083
C  C230  1  0.18450000  0.79550000  0.71692000  1.0 -0.0447009083
C  C231  1  0.31550000  0.29550000  0.71692000  1.0 -0.0447009083
C  C232  1  0.68450000  0.70450000  0.21692000  1.0 -0.0447009083
C  C233  1  0.75920000  0.14480000  0.22708000  1.0 0.0423504735
C  C234  1  0.24080000  0.85520000  0.72708000  1.0 0.0423504735
C  C235  1  0.25920000  0.35520000  0.72708000  1.0 0.0423504735
C  C236  1  0.74080000  0.64480000  0.22708000  1.0 0.0423504735
C  C237  1  0.70010000  0.14140000  0.26375000  1.0 -0.1307120889
C  C238  1  0.29990000  0.85860000  0.76375000  1.0 -0.1307120889
C  C239  1  0.20010000  0.35860000  0.76375000  1.0 -0.1307120889
C  C240  1  0.79990000  0.64140000  0.26375000  1.0 -0.1307120889
C  C241  1  0.64880000  0.08240000  0.27256000  1.0 -0.0929380073
C  C242  1  0.35120000  0.91760000  0.77256000  1.0 -0.0929380073
C  C243  1  0.14880000  0.41760000  0.77256000  1.0 -0.0929380073
C  C244  1  0.85120000  0.58240000  0.27256000  1.0 -0.0929380073
C  C245  1  0.65580000  0.02390000  0.24660000  1.0 -0.1088289195
C  C246  1  0.34420000  0.97610000  0.74660000  1.0 -0.1088289195
C  C247  1  0.15580000  0.47610000  0.74660000  1.0 -0.1088289195
C  C248  1  0.84420000  0.52390000  0.24660000  1.0 -0.1088289195
C  C249  1  0.71280000  0.02480000  0.21130000  1.0 -0.1409256712
C  C250  1  0.28720000  0.97520000  0.71130000  1.0 -0.1409256712
C  C251  1  0.21280000  0.47520000  0.71130000  1.0 -0.1409256712
C  C252  1  0.78720000  0.52480000  0.21130000  1.0 -0.1409256712
C  C253  1  0.76480000  0.08380000  0.20062000  1.0 0.0512496986
C  C254  1  0.23520000  0.91620000  0.70062000  1.0 0.0512496986
C  C255  1  0.26480000  0.41620000  0.70062000  1.0 0.0512496986
C  C256  1  0.73520000  0.58380000  0.20062000  1.0 0.0512496986
C  C257  1  0.82660000  0.08270000  0.16459000  1.0 -0.1409256712
C  C258  1  0.17340000  0.91730000  0.66459000  1.0 -0.1409256712
C  C259  1  0.32660000  0.41730000  0.66459000  1.0 -0.1409256712
C  C260  1  0.67340000  0.58270000  0.16459000  1.0 -0.1409256712
C  C261  1  0.88240000  0.13890000  0.15594000  1.0 -0.1577653338
C  C262  1  0.11760000  0.86110000  0.65594000  1.0 -0.1577653338
C  C263  1  0.38240000  0.36110000  0.65594000  1.0 -0.1577653338
C  C264  1  0.61760000  0.63890000  0.15594000  1.0 -0.1577653338
C  C265  1  0.87860000  0.19910000  0.18346000  1.0 0.2005962293
C  C266  1  0.12140000  0.80090000  0.68346000  1.0 0.2005962293
C  C267  1  0.37860000  0.30090000  0.68346000  1.0 0.2005962293
C  C268  1  0.62140000  0.69910000  0.18346000  1.0 0.2005962293
C  C269  1  0.50480000  0.36490000  0.30747000  1.0 0.6020551632
C  C270  1  0.49520000  0.63510000  0.80747000  1.0 0.6020551632
C  C271  1  0.00480000  0.13510000  0.80747000  1.0 0.6020551632
C  C272  1  0.99520000  0.86490000  0.30747000  1.0 0.6020551632
C  C273  1  0.94300000  0.13630000  0.11668000  1.0 0.5771771978
C  C274  1  0.05700000  0.86370000  0.61668000  1.0 0.5771771978
C  C275  1  0.44300000  0.36370000  0.61668000  1.0 0.5771771978
C  C276  1  0.55700000  0.63630000  0.11668000  1.0 0.5771771978
C  C277  1  0.63340000  0.49110000  0.58440000  1.0 0.1306341242
C  C278  1  0.36660000  0.50890000  0.08440000  1.0 0.1306341242
C  C279  1  0.13340000  0.00890000  0.08440000  1.0 0.1306341242
C  C280  1  0.86660000  0.99110000  0.58440000  1.0 0.1306341242
C  C281  1  0.66330000  0.60620000  0.60410000  1.0 -0.1577653338
C  C282  1  0.33670000  0.39380000  0.10410000  1.0 -0.1577653338
C  C283  1  0.16330000  0.89380000  0.10410000  1.0 -0.1577653338
C  C284  1  0.83670000  0.10620000  0.60410000  1.0 -0.1577653338
C  C285  1  0.79600000  0.52940000  0.58470000  1.0 -0.1762024526
C  C286  1  0.20400000  0.47060000  0.08470000  1.0 -0.1762024526
C  C287  1  0.29600000  0.97060000  0.08470000  1.0 -0.1762024526
C  C288  1  0.70400000  0.02940000  0.58470000  1.0 -0.1762024526
C  C289  1  0.33190000  0.20770000  0.35760000  1.0 0.1191918978
C  C290  1  0.66810000  0.79230000  0.85760000  1.0 0.1191918978
C  C291  1  0.83190000  0.29230000  0.85760000  1.0 0.1191918978
C  C292  1  0.16810000  0.70770000  0.35760000  1.0 0.1191918978
C  C293  1  0.39090000  0.09730000  0.33140000  1.0 -0.148552707
C  C294  1  0.60910000  0.90270000  0.83140000  1.0 -0.148552707
C  C295  1  0.89090000  0.40270000  0.83140000  1.0 -0.148552707
C  C296  1  0.10910000  0.59730000  0.33140000  1.0 -0.148552707
C  C297  1  0.24290000  0.09630000  0.33380000  1.0 -0.1706206266
C  C298  1  0.75710000  0.90370000  0.83380000  1.0 -0.1706206266
C  C299  1  0.74290000  0.40370000  0.83380000  1.0 -0.1706206266
C  C300  1  0.25710000  0.59630000  0.33380000  1.0 -0.1706206266
C  C301  1  0.70570000  0.60990000  0.60560000  1.0 -0.1706206266
C  C302  1  0.29430000  0.39010000  0.10560000  1.0 -0.1706206266
C  C303  1  0.20570000  0.89010000  0.10560000  1.0 -0.1706206266
C  C304  1  0.79430000  0.10990000  0.60560000  1.0 -0.1706206266
C  C305  1  0.78130000  0.49320000  0.61160000  1.0 -0.1706206266
C  C306  1  0.21870000  0.50680000  0.11160000  1.0 -0.1706206266
C  C307  1  0.28130000  0.00680000  0.11160000  1.0 -0.1706206266
C  C308  1  0.71870000  0.99320000  0.61160000  1.0 -0.1706206266
C  C309  1  0.40680000  0.12600000  0.31800000  1.0 -0.1577653338
C  C310  1  0.59320000  0.87400000  0.81800000  1.0 -0.1577653338
C  C311  1  0.90680000  0.37400000  0.81800000  1.0 -0.1577653338
C  C312  1  0.09320000  0.62600000  0.31800000  1.0 -0.1577653338
C  C313  1  0.22290000  0.12980000  0.32610000  1.0 -0.1409256712
C  C314  1  0.77710000  0.87020000  0.82610000  1.0 -0.1409256712
C  C315  1  0.72290000  0.37020000  0.82610000  1.0 -0.1409256712
C  C316  1  0.27710000  0.62980000  0.32610000  1.0 -0.1409256712
N  N1  1  0.69980000  0.53480000  0.59746000  1.0 -0.0106469718
N  N2  1  0.30020000  0.46520000  0.09746000  1.0 -0.0106469718
N  N3  1  0.19980000  0.96520000  0.09746000  1.0 -0.0106469718
N  N4  1  0.80020000  0.03480000  0.59746000  1.0 -0.0106469718
N  N5  1  0.31790000  0.14740000  0.33734000  1.0 -0.0608346573
N  N6  1  0.68210000  0.85260000  0.83734000  1.0 -0.0608346573
N  N7  1  0.81790000  0.35260000  0.83734000  1.0 -0.0608346573
N  N8  1  0.18210000  0.64740000  0.33734000  1.0 -0.0608346573
O  O1  1  0.63139000  0.33700000  0.42085000  1.0 -0.6568385501
O  O2  1  0.36861000  0.66300000  0.92085000  1.0 -0.6568385501
O  O3  1  0.13139000  0.16300000  0.92085000  1.0 -0.6568385501
O  O4  1  0.86861000  0.83700000  0.42085000  1.0 -0.6568385501
O  O5  1  0.66030000  0.37956000  0.48754000  1.0 -0.6749775697
O  O6  1  0.33970000  0.62044000  0.98754000  1.0 -0.6755911399
O  O7  1  0.16030000  0.12044000  0.98754000  1.0 -0.6755911399
O  O8  1  0.83970000  0.87956000  0.48754000  1.0 -0.6755911399
O  O9  1  0.83160000  0.40975000  0.50800000  1.0 -0.4646930386
O  O10  1  0.16840000  0.59025000  0.00800000  1.0 -0.4646930386
O  O11  1  0.33160000  0.09025000  0.00800000  1.0 -0.4646930386
O  O12  1  0.66840000  0.90975000  0.50800000  1.0 -0.4646930386
O  O13  1  0.97060000  0.76260000  0.48948000  1.0 -0.7269421359
O  O14  1  0.02940000  0.23740000  0.98948000  1.0 -0.7269421359
O  O15  1  0.47060000  0.73740000  0.98948000  1.0 -0.7269421359
O  O16  1  0.52940000  0.26260000  0.48948000  1.0 -0.7269421359
O  O17  1  0.98020000  0.69696000  0.43130000  1.0 -0.6306709339
O  O18  1  0.01980000  0.30304000  0.93130000  1.0 -0.6306709339
O  O19  1  0.48020000  0.80304000  0.93130000  1.0 -0.6306709339
O  O20  1  0.51980000  0.19696000  0.43130000  1.0 -0.6306709339
O  O21  1  0.99340000  0.56314000  0.43756000  1.0 -0.4197786142
O  O22  1  0.00660000  0.43686000  0.93756000  1.0 -0.4197786142
O  O23  1  0.49340000  0.93686000  0.93756000  1.0 -0.4197786142
O  O24  1  0.50660000  0.06314000  0.43756000  1.0 -0.4197786142
O  O25  1  0.38150000  0.33201000  0.52331000  1.0 -0.6099070374
O  O26  1  0.61850000  0.66799000  0.02331000  1.0 -0.6099070374
O  O27  1  0.88150000  0.16799000  0.02331000  1.0 -0.6099070374
O  O28  1  0.11850000  0.83201000  0.52331000  1.0 -0.6099070374
O  O29  1  0.34630000  0.29265000  0.45666000  1.0 -0.7047820975
O  O30  1  0.65370000  0.70735000  0.95666000  1.0 -0.7047820975
O  O31  1  0.84630000  0.20735000  0.95666000  1.0 -0.7047820975
O  O32  1  0.15370000  0.79265000  0.45666000  1.0 -0.7047820975
O  O33  1  0.17580000  0.26127000  0.43896000  1.0 -0.4197786142
O  O34  1  0.82420000  0.73873000  0.93896000  1.0 -0.4149223555
O  O35  1  0.67580000  0.23873000  0.93896000  1.0 -0.4197786142
O  O36  1  0.32420000  0.76127000  0.43896000  1.0 -0.4197786142
O  O37  1  0.01990000  0.91296000  0.45296000  1.0 -0.7357268025
O  O38  1  0.98010000  0.08704000  0.95296000  1.0 -0.7357268025
O  O39  1  0.51990000  0.58704000  0.95296000  1.0 -0.7357268025
O  O40  1  0.48010000  0.41296000  0.45296000  1.0 -0.7357268025
O  O41  1  0.99840000  0.97505000  0.51170000  1.0 -0.6099070374
O  O42  1  0.00160000  0.02495000  0.01170000  1.0 -0.6099070374
O  O43  1  0.49840000  0.52495000  0.01170000  1.0 -0.6099070374
O  O44  1  0.50160000  0.47505000  0.51170000  1.0 -0.6099070374
O  O45  1  0.00570000  0.11005000  0.50871000  1.0 -0.4277651299
O  O46  1  0.99430000  0.88995000  0.00871000  1.0 -0.4277651299
O  O47  1  0.50570000  0.38995000  0.00871000  1.0 -0.4277651299
O  O48  1  0.49430000  0.61005000  0.50871000  1.0 -0.4277651299
O  O49  1  0.43050000  0.39260000  0.30177000  1.0 -0.4897150238
O  O50  1  0.56950000  0.60740000  0.80177000  1.0 -0.4897150238
O  O51  1  0.93050000  0.10740000  0.80177000  1.0 -0.4897150238
O  O52  1  0.06950000  0.89260000  0.30177000  1.0 -0.4897150238
O  O53  1  0.53280000  0.34020000  0.34455000  1.0 -0.7061548819
O  O54  1  0.46720000  0.65980000  0.84455000  1.0 -0.7061548819
O  O55  1  0.03280000  0.15980000  0.84455000  1.0 -0.7061548819
O  O56  1  0.96720000  0.84020000  0.34455000  1.0 -0.7061548819
O  O57  1  0.68510000  0.29410000  0.31325000  1.0 -0.4277651299
O  O58  1  0.31490000  0.70590000  0.81325000  1.0 -0.4277651299
O  O59  1  0.18510000  0.20590000  0.81325000  1.0 -0.4277651299
O  O60  1  0.81490000  0.79410000  0.31325000  1.0 -0.4277651299
O  O61  1  0.94620000  0.08306000  0.09373000  1.0 -0.5729882707
O  O62  1  0.05380000  0.91694000  0.59373000  1.0 -0.5729882707
O  O63  1  0.44620000  0.41694000  0.59373000  1.0 -0.5729882707
O  O64  1  0.55380000  0.58306000  0.09373000  1.0 -0.5729882707
O  O65  1  0.99050000  0.19057000  0.10618000  1.0 -0.6487502743
O  O66  1  0.00950000  0.80943000  0.60618000  1.0 -0.6487502743
O  O67  1  0.49050000  0.30943000  0.60618000  1.0 -0.6487502743
O  O68  1  0.50950000  0.69057000  0.10618000  1.0 -0.6487502743
O  O69  1  0.93690000  0.25302000  0.17551000  1.0 -0.4197786142
O  O70  1  0.06310000  0.74698000  0.67551000  1.0 -0.4277651299
O  O71  1  0.43690000  0.24698000  0.67551000  1.0 -0.4277651299
O  O72  1  0.56310000  0.75302000  0.17551000  1.0 -0.4277651299
O  O73  1  0.64310000  0.42963000  0.57553000  1.0 -0.5348205258
O  O74  1  0.35690000  0.57037000  0.07553000  1.0 -0.5350914885
O  O75  1  0.14310000  0.07037000  0.07553000  1.0 -0.5348205258
O  O76  1  0.85690000  0.92963000  0.57553000  1.0 -0.5350914885
O  O77  1  0.39930000  0.23400000  0.36752000  1.0 -0.4733501141
O  O78  1  0.60070000  0.76600000  0.86752000  1.0 -0.4733501141
O  O79  1  0.89930000  0.26600000  0.86752000  1.0 -0.4733501141
O  O80  1  0.10070000  0.73400000  0.36752000  1.0 -0.4733501141
O  O81  1  0.65710000  0.28080000  0.55964000  1.0 -0.7880999734
O  O82  1  0.34290000  0.71920000  0.05964000  1.0 -0.7880999734
O  O83  1  0.15710000  0.21920000  0.05964000  1.0 -0.7880999734
O  O84  1  0.84290000  0.78080000  0.55964000  1.0 -0.7880999734
O  O85  1  0.35340000  0.37879000  0.37930000  1.0 -0.8146274377
O  O86  1  0.64660000  0.62121000  0.87930000  1.0 -0.8146274377
O  O87  1  0.85340000  0.12121000  0.87930000  1.0 -0.8146274377
O  O88  1  0.14660000  0.87879000  0.37930000  1.0 -0.8146274377
