# DDEC6 charges by PACMAN v1.1 (https://github.com/mtap-research/PACMAN-charge/)
data_GOZBUV_ASR_pacman
_symmetry_space_group_name_H-M   'P 1'
_cell_length_a   10.05510000
_cell_length_b   18.10790000
_cell_length_c   14.34580000
_cell_angle_alpha   90.00000000
_cell_angle_beta   101.43900000
_cell_angle_gamma   90.00000000
_symmetry_Int_Tables_number   1
_chemical_formula_structural   CoH8C13NO4
_chemical_formula_sum   'Co4 H32 C52 N4 O16'
_cell_volume   2560.15213978
_cell_formula_units_Z   4
loop_
 _symmetry_equiv_pos_site_id
 _symmetry_equiv_pos_as_xyz
  1  'x, y, z'
loop_
 _atom_site_type_symbol
 _atom_site_label
 _atom_site_symmetry_multiplicity
 _atom_site_fract_x
 _atom_site_fract_y
 _atom_site_fract_z
 _atom_site_occupancy
 _atom_site_charge
Co  Co1  1  0.15964000  0.88735000  0.53112000  1.0 1.0231047766
Co  Co2  1  0.89455000  0.83093000  0.35345000  1.0 0.9904403584
Co  Co3  1  0.84036000  0.38735000  0.46888000  1.0 1.0231047766
Co  Co4  1  0.10545000  0.33093000  0.64655000  1.0 0.9904403584
H  H1  1  0.52520000  0.10230000  0.98710000  1.0 0.2793483035
H  H2  1  0.51920000  0.15690000  0.90550000  1.0 0.2746487753
H  H3  1  0.03590000  0.09770000  0.50890000  1.0 0.1383560793
H  H4  1  0.91910000  0.26690000  0.32700000  1.0 0.1080266865
H  H5  1  0.85330000  0.05510000  0.23880000  1.0 0.1318048136
H  H6  1  0.58900000  0.29990000  0.04510000  1.0 0.1020980242
H  H7  1  0.87250000  0.17770000  0.94850000  1.0 0.1080266865
H  H8  1  0.95760000  0.13660000  0.10780000  1.0 0.1020980242
H  H9  1  0.47600000  0.27240000  0.88800000  1.0 0.1203858749
H  H10  1  0.55850000  0.34480000  0.63730000  1.0 0.1383560793
H  H11  1  0.86250000  0.27820000  0.85240000  1.0 0.1203858749
H  H12  1  0.67450000  0.11630000  0.13290000  1.0 0.1020980242
H  H13  1  0.88400000  0.31750000  0.01750000  1.0 0.1020980242
H  H14  1  0.96090000  0.27130000  0.16720000  1.0 0.1080266865
H  H15  1  0.71880000  0.23780000  0.26000000  1.0 0.2422267394
H  H16  1  0.59700000  0.29290000  0.18200000  1.0 0.2568210261
H  H17  1  0.47480000  0.60230000  0.01290000  1.0 0.2793483035
H  H18  1  0.48080000  0.65690000  0.09450000  1.0 0.2746487753
H  H19  1  0.96410000  0.59770000  0.49110000  1.0 0.1383560793
H  H20  1  0.08090000  0.76690000  0.67300000  1.0 0.1080266865
H  H21  1  0.14670000  0.55510000  0.76120000  1.0 0.1318048136
H  H22  1  0.41100000  0.79990000  0.95490000  1.0 0.1020980242
H  H23  1  0.12750000  0.67770000  0.05150000  1.0 0.1020980242
H  H24  1  0.04240000  0.63660000  0.89220000  1.0 0.1020980242
H  H25  1  0.52400000  0.77240000  0.11200000  1.0 0.1203858749
H  H26  1  0.44150000  0.84480000  0.36270000  1.0 0.1383560793
H  H27  1  0.13750000  0.77820000  0.14760000  1.0 0.1203858749
H  H28  1  0.32550000  0.61630000  0.86710000  1.0 0.1020980242
H  H29  1  0.11600000  0.81750000  0.98250000  1.0 0.1020980242
H  H30  1  0.03910000  0.77130000  0.83280000  1.0 0.1080266865
H  H31  1  0.28120000  0.73780000  0.74000000  1.0 0.2422267394
H  H32  1  0.40300000  0.79290000  0.81800000  1.0 0.2568210261
C  C1  1  0.95700000  0.98440000  0.39730000  1.0 0.6137892799
C  C2  1  0.94720000  0.06540000  0.37650000  1.0 -0.0224331348
C  C3  1  0.99440000  0.11510000  0.44750000  1.0 -0.1041306614
C  C4  1  0.98220000  0.19070000  0.43040000  1.0 -0.0224331348
C  C5  1  0.92670000  0.21540000  0.33930000  1.0 -0.1711858589
C  C6  1  0.88210000  0.16560000  0.26590000  1.0 0.0918128201
C  C7  1  0.88900000  0.08980000  0.28690000  1.0 -0.161848615
C  C8  1  0.03280000  0.24240000  0.50880000  1.0 0.5796637134
C  C9  1  0.82620000  0.19260000  0.16690000  1.0 -0.0096341177
C  C10  1  0.72120000  0.23920000  0.14780000  1.0 0.1892294408
C  C11  1  0.66380000  0.26680000  0.05550000  1.0 -0.161848615
C  C12  1  0.72320000  0.24250000  0.98210000  1.0 0.0245145345
C  C13  1  0.83190000  0.19430000  0.99920000  1.0 -0.1112255209
C  C14  1  0.88280000  0.16960000  0.09530000  1.0 -0.0805431838
C  C15  1  0.67520000  0.27080000  0.88220000  1.0 0.068767515
C  C16  1  0.53950000  0.28230000  0.84850000  1.0 -0.1711858589
C  C17  1  0.49430000  0.30850000  0.75560000  1.0 -0.0096341177
C  C18  1  0.58830000  0.32530000  0.69950000  1.0 -0.1041306614
C  C19  1  0.72380000  0.31360000  0.73380000  1.0 -0.0096341177
C  C20  1  0.76870000  0.28590000  0.82790000  1.0 -0.1711858589
C  C21  1  0.34880000  0.31930000  0.71540000  1.0 0.5383151071
C  C22  1  0.82520000  0.33080000  0.67330000  1.0 0.603431155
C  C23  1  0.71420000  0.15800000  0.10880000  1.0 -0.161848615
C  C24  1  0.66010000  0.18270000  0.01780000  1.0 0.1726352172
C  C25  1  0.83960000  0.27690000  0.04020000  1.0 -0.0805431838
C  C26  1  0.88330000  0.24900000  0.12900000  1.0 -0.1112255209
C  C27  1  0.04300000  0.48440000  0.60270000  1.0 0.6137892799
C  C28  1  0.05280000  0.56540000  0.62350000  1.0 -0.0224331348
C  C29  1  0.00560000  0.61510000  0.55250000  1.0 -0.1041306614
C  C30  1  0.01780000  0.69070000  0.56960000  1.0 -0.0224331348
C  C31  1  0.07330000  0.71540000  0.66070000  1.0 -0.1711858589
C  C32  1  0.11790000  0.66560000  0.73410000  1.0 0.0918128201
C  C33  1  0.11100000  0.58980000  0.71310000  1.0 -0.161848615
C  C34  1  0.96720000  0.74240000  0.49120000  1.0 0.5796637134
C  C35  1  0.17380000  0.69260000  0.83310000  1.0 -0.0096341177
C  C36  1  0.27880000  0.73920000  0.85220000  1.0 0.1892294408
C  C37  1  0.33620000  0.76680000  0.94450000  1.0 -0.161848615
C  C38  1  0.27680000  0.74250000  0.01790000  1.0 0.0245145345
C  C39  1  0.16810000  0.69430000  0.00080000  1.0 -0.1041306614
C  C40  1  0.11720000  0.66960000  0.90470000  1.0 -0.0805431838
C  C41  1  0.32480000  0.77080000  0.11780000  1.0 0.068767515
C  C42  1  0.46050000  0.78230000  0.15150000  1.0 -0.1711858589
C  C43  1  0.50570000  0.80850000  0.24440000  1.0 -0.0096341177
C  C44  1  0.41170000  0.82530000  0.30050000  1.0 -0.1041306614
C  C45  1  0.27620000  0.81360000  0.26620000  1.0 -0.0096341177
C  C46  1  0.23130000  0.78590000  0.17210000  1.0 -0.1711858589
C  C47  1  0.65120000  0.81930000  0.28460000  1.0 0.5383151071
C  C48  1  0.17480000  0.83080000  0.32670000  1.0 0.603431155
C  C49  1  0.28580000  0.65800000  0.89120000  1.0 -0.161848615
C  C50  1  0.33990000  0.68270000  0.98220000  1.0 0.1726352172
C  C51  1  0.16040000  0.77690000  0.95980000  1.0 -0.0805431838
C  C52  1  0.11670000  0.74900000  0.87100000  1.0 -0.1112255209
N  N1  1  0.55500000  0.14240000  0.96350000  1.0 -0.608357857
N  N2  1  0.65810000  0.26420000  0.21780000  1.0 -0.5822647018
N  N3  1  0.44500000  0.64240000  0.03650000  1.0 -0.608357857
N  N4  1  0.34190000  0.76420000  0.78220000  1.0 -0.5822647018
O  O1  1  0.02180000  0.96670000  0.47980000  1.0 -0.5873966319
O  O2  1  0.90270000  0.94040000  0.33480000  1.0 -0.5215211613
O  O3  1  0.10330000  0.21980000  0.58580000  1.0 -0.4995480283
O  O4  1  0.00460000  0.31160000  0.49850000  1.0 -0.6360840304
O  O5  1  0.31160000  0.33880000  0.63010000  1.0 -0.5355253322
O  O6  1  0.26140000  0.30790000  0.76660000  1.0 -0.5460642977
O  O7  1  0.78380000  0.36650000  0.59740000  1.0 -0.6035956247
O  O8  1  0.94430000  0.30730000  0.70300000  1.0 -0.5460642977
O  O9  1  0.97820000  0.46670000  0.52020000  1.0 -0.5873966319
O  O10  1  0.09730000  0.44040000  0.66520000  1.0 -0.5215211613
O  O11  1  0.89670000  0.71980000  0.41420000  1.0 -0.4995480283
O  O12  1  0.99540000  0.81160000  0.50150000  1.0 -0.6360840304
O  O13  1  0.68840000  0.83880000  0.36990000  1.0 -0.5355253322
O  O14  1  0.73860000  0.80790000  0.23340000  1.0 -0.5460642977
O  O15  1  0.21620000  0.86650000  0.40260000  1.0 -0.6035956247
O  O16  1  0.05570000  0.80730000  0.29700000  1.0 -0.5460642977
