# DDEC6 charges by PACMAN v1.1 (https://github.com/mtap-research/PACMAN-charge/)
data_GOZNEQ_ASR_pacman
_symmetry_space_group_name_H-M   'P 1'
_cell_length_a   10.67610000
_cell_length_b   16.10120000
_cell_length_c   18.01310000
_cell_angle_alpha   103.52100000
_cell_angle_beta   106.26100000
_cell_angle_gamma   108.66800000
_symmetry_Int_Tables_number   1
_chemical_formula_structural   Mn3H28W2C46(N14O)2
_chemical_formula_sum   'Mn3 H28 W2 C46 N28 O2'
_cell_volume   2632.07277466
_cell_formula_units_Z   1
loop_
 _symmetry_equiv_pos_site_id
 _symmetry_equiv_pos_as_xyz
  1  'x, y, z'
loop_
 _atom_site_type_symbol
 _atom_site_label
 _atom_site_symmetry_multiplicity
 _atom_site_fract_x
 _atom_site_fract_y
 _atom_site_fract_z
 _atom_site_occupancy
 _atom_site_charge
Mn  Mn1  1  0.48960000  0.16574000  0.16687000  1.0 0.7427868629
Mn  Mn2  1  0.51040000  0.83426000  0.83313000  1.0 0.7427868629
Mn  Mn3  1  0.50000000  0.50000000  0.50000000  1.0 0.8198163296
H  H1  1  0.68970000  0.09260000  0.27460000  1.0 0.1225835617
H  H2  1  0.31030000  0.90740000  0.72540000  1.0 0.1225835617
H  H3  1  0.67190000  0.97820000  0.33690000  1.0 0.1428412209
H  H4  1  0.32810000  0.02180000  0.66310000  1.0 0.1428412209
H  H5  1  0.24140000  0.86850000  0.22610000  1.0 0.1535471256
H  H6  1  0.75860000  0.13150000  0.77390000  1.0 0.1535471256
H  H7  1  0.25680000  0.98290000  0.16590000  1.0 0.1428412209
H  H8  1  0.74320000  0.01710000  0.83410000  1.0 0.1428412209
H  H9  1  0.75280000  0.68840000  0.50860000  1.0 0.1225835617
H  H10  1  0.24720000  0.31160000  0.49140000  1.0 0.1225835617
H  H11  1  0.76970000  0.80570000  0.44900000  1.0 0.1535471256
H  H12  1  0.23030000  0.19430000  0.55100000  1.0 0.1535471256
H  H13  1  0.34030000  0.68980000  0.33020000  1.0 0.1301312196
H  H14  1  0.65970000  0.31020000  0.66980000  1.0 0.1301312196
H  H15  1  0.32180000  0.57320000  0.38850000  1.0 0.1010321351
H  H16  1  0.67820000  0.42680000  0.61150000  1.0 0.1093428209
H  H17  1  0.68490000  0.35090000  0.15950000  1.0 0.1301312196
H  H18  1  0.31510000  0.64910000  0.84050000  1.0 0.1301312196
H  H19  1  0.66890000  0.45410000  0.08730000  1.0 0.1301312196
H  H20  1  0.33110000  0.54590000  0.91270000  1.0 0.1301312196
H  H21  1  0.23800000  0.30660000  0.97920000  1.0 0.1535471256
H  H22  1  0.76200000  0.69340000  0.02080000  1.0 0.1556493128
H  H23  1  0.25620000  0.20130000  0.04720000  1.0 0.1301312196
H  H24  1  0.74380000  0.79870000  0.95280000  1.0 0.1301312196
H  H25  1  0.64060000  0.40420000  0.46730000  1.0 0.3498183275
H  H26  1  0.35940000  0.59580000  0.53270000  1.0 0.3498183275
H  H27  1  0.72230000  0.49600000  0.51860000  1.0 0.3498183275
H  H28  1  0.27770000  0.50400000  0.48140000  1.0 0.3498183275
W  W1  1  0.03855000  0.21714000  0.23215000  1.0 0.6334596659
W  W2  1  0.96145000  0.78286000  0.76785000  1.0 0.6334596659
C  C1  1  0.20510000  0.18790000  0.20510000  1.0 0.0820123489
C  C2  1  0.79490000  0.81210000  0.79490000  1.0 0.0820123489
C  C3  1  0.23570000  0.32550000  0.33220000  1.0 0.0656114454
C  C4  1  0.76430000  0.67450000  0.66780000  1.0 0.0656114454
C  C5  1  0.03280000  0.24150000  0.12120000  1.0 0.002625865
C  C6  1  0.96720000  0.75850000  0.87880000  1.0 0.002625865
C  C7  1  0.02050000  0.34850000  0.24840000  1.0 0.002625865
C  C8  1  0.97950000  0.65150000  0.75160000  1.0 0.0063869432
C  C9  1  0.81390000  0.18010000  0.18160000  1.0 0.0896993041
C  C10  1  0.18610000  0.81990000  0.81840000  1.0 0.1010321351
C  C11  1  0.97540000  0.24760000  0.33710000  1.0 -0.0104238229
C  C12  1  0.02460000  0.75240000  0.66290000  1.0 -0.0104238229
C  C13  1  0.93570000  0.07440000  0.14300000  1.0 0.002625865
C  C14  1  0.06430000  0.92560000  0.85700000  1.0 0.002625865
C  C15  1  0.07730000  0.12700000  0.30200000  1.0 -0.0172351961
C  C16  1  0.92270000  0.87300000  0.69800000  1.0 -0.0104238229
C  C17  1  0.59830000  0.04740000  0.26490000  1.0 0.1093428209
C  C18  1  0.40170000  0.95260000  0.73510000  1.0 0.1093428209
C  C19  1  0.58750000  0.97890000  0.30170000  1.0 -0.1697838967
C  C20  1  0.41250000  0.02110000  0.69830000  1.0 -0.1697838967
C  C21  1  0.45640000  0.91330000  0.28720000  1.0 0.2076592828
C  C22  1  0.54360000  0.08670000  0.71280000  1.0 0.2076592828
C  C23  1  0.33250000  0.91440000  0.23620000  1.0 -0.1799069012
C  C24  1  0.66750000  0.08560000  0.76380000  1.0 -0.1799069012
C  C25  1  0.34150000  0.98190000  0.20030000  1.0 0.0896993041
C  C26  1  0.65850000  0.01810000  0.79970000  1.0 0.0896993041
C  C27  1  0.66880000  0.68840000  0.47230000  1.0 0.1225835617
C  C28  1  0.33120000  0.31160000  0.52770000  1.0 0.1225835617
C  C29  1  0.67930000  0.75810000  0.43750000  1.0 -0.1561764692
C  C30  1  0.32070000  0.24190000  0.56250000  1.0 -0.1561764692
C  C31  1  0.55240000  0.75560000  0.38530000  1.0 0.1988047893
C  C32  1  0.44760000  0.24440000  0.61470000  1.0 0.1988047893
C  C33  1  0.42380000  0.68950000  0.36670000  1.0 -0.1538282176
C  C34  1  0.57620000  0.31050000  0.63330000  1.0 -0.1538282176
C  C35  1  0.41310000  0.62040000  0.40100000  1.0 0.0571703474
C  C36  1  0.58690000  0.37960000  0.59900000  1.0 0.0571703474
C  C37  1  0.59430000  0.34100000  0.12200000  1.0 0.1093428209
C  C38  1  0.40570000  0.65900000  0.87800000  1.0 0.1093428209
C  C39  1  0.58500000  0.40330000  0.07980000  1.0 -0.1885026112
C  C40  1  0.41500000  0.59670000  0.92020000  1.0 -0.1885026112
C  C41  1  0.45150000  0.38970000  0.02720000  1.0 0.1988047893
C  C42  1  0.54850000  0.61030000  0.97280000  1.0 0.2076592828
C  C43  1  0.32910000  0.31510000  0.01520000  1.0 -0.1697838967
C  C44  1  0.67090000  0.68490000  0.98480000  1.0 -0.1697838967
C  C45  1  0.33990000  0.25300000  0.05580000  1.0 0.1093428209
C  C46  1  0.66010000  0.74700000  0.94420000  1.0 0.1093428209
N  N1  1  0.30130000  0.17710000  0.18960000  1.0 -0.3438353653
N  N2  1  0.69870000  0.82290000  0.81040000  1.0 -0.3438353653
N  N3  1  0.33620000  0.38250000  0.38800000  1.0 -0.3844823455
N  N4  1  0.66380000  0.61750000  0.61200000  1.0 -0.3844823455
N  N5  1  0.03570000  0.25410000  0.05980000  1.0 -0.3127534067
N  N6  1  0.96430000  0.74590000  0.94020000  1.0 -0.3127534067
N  N7  1  0.02140000  0.42220000  0.25560000  1.0 -0.3183254664
N  N8  1  0.97860000  0.57780000  0.74440000  1.0 -0.3258818602
N  N9  1  0.69200000  0.16210000  0.15840000  1.0 -0.3451616382
N  N10  1  0.30800000  0.83790000  0.84160000  1.0 -0.3438353653
N  N11  1  0.94740000  0.26590000  0.39550000  1.0 -0.3183254664
N  N12  1  0.05260000  0.73410000  0.60450000  1.0 -0.3127534067
N  N13  1  0.87890000  0.00080000  0.09120000  1.0 -0.3022904908
N  N14  1  0.12110000  0.99920000  0.90880000  1.0 -0.3022904908
N  N15  1  0.09610000  0.08000000  0.33920000  1.0 -0.3127534067
N  N16  1  0.90390000  0.92000000  0.66080000  1.0 -0.3127534067
N  N17  1  0.47600000  0.04870000  0.21470000  1.0 -0.234469301
N  N18  1  0.52400000  0.95130000  0.78530000  1.0 -0.2357105975
N  N19  1  0.44550000  0.83940000  0.32030000  1.0 -0.1885026112
N  N20  1  0.55450000  0.16060000  0.67970000  1.0 -0.1799069012
N  N21  1  0.56970000  0.82980000  0.35480000  1.0 -0.1538282176
N  N22  1  0.43030000  0.17020000  0.64520000  1.0 -0.1538282176
N  N23  1  0.53680000  0.62000000  0.45400000  1.0 -0.2856438374
N  N24  1  0.46320000  0.38000000  0.54600000  1.0 -0.2856438374
N  N25  1  0.47440000  0.26610000  0.10970000  1.0 -0.2545104836
N  N26  1  0.52560000  0.73390000  0.89030000  1.0 -0.2545104836
N  N27  1  0.43860000  0.45970000  0.98510000  1.0 -0.1538282176
N  N28  1  0.56140000  0.54030000  0.01490000  1.0 -0.1538282176
O  O1  1  0.66090000  0.46070000  0.47016000  1.0 -0.6163737689
O  O2  1  0.33910000  0.53930000  0.52984000  1.0 -0.6163737689
