# DDEC6 charges by PACMAN v1.1 (https://github.com/mtap-research/PACMAN-charge/)
data_GUBJAR_ASR_pacman
_symmetry_space_group_name_H-M   'P 1'
_cell_length_a   13.90050000
_cell_length_b   13.90050000
_cell_length_c   21.10430000
_cell_angle_alpha   63.98040000
_cell_angle_beta   116.02000000
_cell_angle_gamma   122.38400000
_symmetry_Int_Tables_number   1
_chemical_formula_structural   Zn3H32C52(NO2)6
_chemical_formula_sum   'Zn6 H64 C104 N12 O24'
_cell_volume   2981.01814914
_cell_formula_units_Z   2
loop_
 _symmetry_equiv_pos_site_id
 _symmetry_equiv_pos_as_xyz
  1  'x, y, z'
loop_
 _atom_site_type_symbol
 _atom_site_label
 _atom_site_symmetry_multiplicity
 _atom_site_fract_x
 _atom_site_fract_y
 _atom_site_fract_z
 _atom_site_occupancy
 _atom_site_charge
Zn  Zn1  1  0.45589000  0.62811000  0.82023000  1.0 0.8312550588
Zn  Zn2  1  0.54411000  0.37189000  0.17977000  1.0 0.8312550588
Zn  Zn3  1  0.50000000  0.50000000  0.00000000  1.0 1.0162149175
Zn  Zn4  1  0.62811000  0.45589000  0.67977000  1.0 0.8312550588
Zn  Zn5  1  0.37189000  0.54411000  0.32023000  1.0 0.8312550588
Zn  Zn6  1  0.50000000  0.50000000  0.50000000  1.0 1.0162149175
H  H1  1  0.09728000  0.76916000  0.85900000  1.0 0.1204740675
H  H2  1  0.18853000  0.68655000  0.84210000  1.0 0.1204740675
H  H3  1  0.44347000  0.61191000  0.67668000  1.0 0.1204740675
H  H4  1  0.46039000  0.73369000  0.56096000  1.0 0.146489273
H  H5  1  0.49334000  0.99200000  0.61843000  1.0 0.1287039689
H  H6  1  0.47058000  0.86194000  0.73068000  1.0 0.1204740675
H  H7  1  0.87030000  0.63746000  0.02244000  1.0 0.1204740675
H  H8  1  0.07113000  0.73323000  0.03196000  1.0 0.1204740675
H  H9  1  0.01464000  0.95870000  0.83697000  1.0 0.1287039689
H  H10  1  0.81377000  0.86317000  0.82684000  1.0 0.1204740675
H  H11  1  0.39910000  0.26598000  0.81646000  1.0 0.1204740675
H  H12  1  0.32006000  0.06132000  0.85056000  1.0 0.1287039689
H  H13  1  0.18217000  0.04993000  0.98730000  1.0 0.1287039689
H  H14  1  0.27114000  0.25342000  0.95880000  1.0 0.1204740675
H  H15  1  0.47656000  0.81278000  0.99803000  1.0 0.1204740675
H  H16  1  0.38992000  0.90520000  0.01013000  1.0 0.1287039689
H  H17  1  0.90272000  0.23084000  0.14100000  1.0 0.1204740675
H  H18  1  0.81147000  0.31345000  0.15790000  1.0 0.1204740675
H  H19  1  0.55653000  0.38809000  0.32332000  1.0 0.1204740675
H  H20  1  0.53961000  0.26631000  0.43904000  1.0 0.146489273
H  H21  1  0.50666000  0.00800000  0.38157000  1.0 0.1287039689
H  H22  1  0.52942000  0.13806000  0.26932000  1.0 0.1204740675
H  H23  1  0.12970000  0.36254000  0.97756000  1.0 0.1204740675
H  H24  1  0.92887000  0.26677000  0.96804000  1.0 0.1204740675
H  H25  1  0.98536000  0.04130000  0.16303000  1.0 0.1287039689
H  H26  1  0.18623000  0.13683000  0.17316000  1.0 0.1204740675
H  H27  1  0.60090000  0.73402000  0.18354000  1.0 0.1204740675
H  H28  1  0.67994000  0.93868000  0.14944000  1.0 0.1287039689
H  H29  1  0.81783000  0.95007000  0.01270000  1.0 0.1287039689
H  H30  1  0.72886000  0.74658000  0.04120000  1.0 0.1204740675
H  H31  1  0.52344000  0.18722000  0.00197000  1.0 0.1204740675
H  H32  1  0.61008000  0.09480000  0.98987000  1.0 0.1287039689
H  H33  1  0.76916000  0.09728000  0.64100000  1.0 0.1204740675
H  H34  1  0.68655000  0.18853000  0.65790000  1.0 0.1204740675
H  H35  1  0.61191000  0.44347000  0.82332000  1.0 0.1204740675
H  H36  1  0.73369000  0.46039000  0.93904000  1.0 0.146489273
H  H37  1  0.99200000  0.49334000  0.88157000  1.0 0.1287039689
H  H38  1  0.86194000  0.47058000  0.76932000  1.0 0.1204740675
H  H39  1  0.63746000  0.87030000  0.47756000  1.0 0.1204740675
H  H40  1  0.73323000  0.07113000  0.46804000  1.0 0.1204740675
H  H41  1  0.95870000  0.01464000  0.66303000  1.0 0.1287039689
H  H42  1  0.86317000  0.81377000  0.67316000  1.0 0.1204740675
H  H43  1  0.26598000  0.39910000  0.68354000  1.0 0.1204740675
H  H44  1  0.06132000  0.32006000  0.64944000  1.0 0.1287039689
H  H45  1  0.04993000  0.18217000  0.51270000  1.0 0.1287039689
H  H46  1  0.25342000  0.27114000  0.54120000  1.0 0.1204740675
H  H47  1  0.81278000  0.47656000  0.50197000  1.0 0.1204740675
H  H48  1  0.90520000  0.38992000  0.48987000  1.0 0.1287039689
H  H49  1  0.23084000  0.90272000  0.35900000  1.0 0.1204740675
H  H50  1  0.31345000  0.81147000  0.34210000  1.0 0.1204740675
H  H51  1  0.38809000  0.55653000  0.17668000  1.0 0.1204740675
H  H52  1  0.26631000  0.53961000  0.06096000  1.0 0.146489273
H  H53  1  0.00800000  0.50666000  0.11843000  1.0 0.1287039689
H  H54  1  0.13806000  0.52942000  0.23068000  1.0 0.1204740675
H  H55  1  0.36254000  0.12970000  0.52244000  1.0 0.1204740675
H  H56  1  0.26677000  0.92887000  0.53196000  1.0 0.1204740675
H  H57  1  0.04130000  0.98536000  0.33697000  1.0 0.1287039689
H  H58  1  0.13683000  0.18623000  0.32684000  1.0 0.1204740675
H  H59  1  0.73402000  0.60090000  0.31646000  1.0 0.1204740675
H  H60  1  0.93868000  0.67994000  0.35056000  1.0 0.1287039689
H  H61  1  0.95007000  0.81783000  0.48730000  1.0 0.1287039689
H  H62  1  0.74658000  0.72886000  0.45880000  1.0 0.1204740675
H  H63  1  0.18722000  0.52344000  0.49803000  1.0 0.1204740675
H  H64  1  0.09480000  0.61008000  0.51013000  1.0 0.1287039689
C  C1  1  0.69153000  0.67491000  0.91606000  1.0 0.5766508534
C  C2  1  0.82106000  0.73928000  0.92340000  1.0 -0.0556814828
C  C3  1  0.17471000  0.78069000  0.88579000  1.0 -0.1877431114
C  C4  1  0.22886000  0.72954000  0.87653000  1.0 -0.095489648
C  C5  1  0.45248000  0.68872000  0.66432000  1.0 0.1062330633
C  C6  1  0.46343000  0.76145000  0.59497000  1.0 -0.1877431114
C  C7  1  0.47895000  0.87607000  0.57745000  1.0 0.1788688629
C  C8  1  0.48240000  0.91500000  0.62898000  1.0 -0.1985226962
C  C9  1  0.46918000  0.83662000  0.69603000  1.0 0.0896248474
C  C10  1  0.89867000  0.70173000  0.98458000  1.0 -0.0872697106
C  C11  1  0.01953000  0.75927000  0.99028000  1.0 -0.1877431114
C  C12  1  0.06253000  0.85353000  0.93505000  1.0 0.1788688629
C  C13  1  0.98570000  0.89330000  0.87420000  1.0 -0.1985226962
C  C14  1  0.86510000  0.83610000  0.86820000  1.0 -0.0872697106
C  C15  1  0.39278000  0.41016000  0.86315000  1.0 0.5647277935
C  C16  1  0.34315000  0.28009000  0.88428000  1.0 -0.0490774707
C  C17  1  0.35704000  0.22242000  0.85158000  1.0 -0.0872697106
C  C18  1  0.30833000  0.09987000  0.87123000  1.0 -0.1985226962
C  C19  1  0.24175000  0.03445000  0.92192000  1.0 0.1889638408
C  C20  1  0.22721000  0.09319000  0.95381000  1.0 -0.1832260684
C  C21  1  0.27900000  0.21480000  0.93607000  1.0 -0.0690481857
C  C22  1  0.40166000  0.68906000  0.90723000  1.0 0.5954004034
C  C23  1  0.34222000  0.74228000  0.91808000  1.0 -0.0374370849
C  C24  1  0.40122000  0.80598000  0.96877000  1.0 -0.095489648
C  C25  1  0.34873000  0.86047000  0.97657000  1.0 -0.1877431114
C  C26  1  0.23567000  0.84831000  0.93456000  1.0 0.1788688629
C  C27  1  0.30847000  0.32509000  0.08394000  1.0 0.5766508534
C  C28  1  0.17894000  0.26072000  0.07660000  1.0 -0.0556814828
C  C29  1  0.82529000  0.21931000  0.11421000  1.0 -0.1877431114
C  C30  1  0.77114000  0.27046000  0.12347000  1.0 -0.095489648
C  C31  1  0.54752000  0.31128000  0.33568000  1.0 0.1062330633
C  C32  1  0.53657000  0.23855000  0.40503000  1.0 -0.1877431114
C  C33  1  0.52105000  0.12393000  0.42255000  1.0 0.1788688629
C  C34  1  0.51760000  0.08500000  0.37102000  1.0 -0.1985226962
C  C35  1  0.53082000  0.16338000  0.30397000  1.0 0.0896248474
C  C36  1  0.10133000  0.29827000  0.01542000  1.0 -0.0872697106
C  C37  1  0.98047000  0.24073000  0.00972000  1.0 -0.1877431114
C  C38  1  0.93747000  0.14647000  0.06495000  1.0 0.1788688629
C  C39  1  0.01430000  0.10670000  0.12580000  1.0 -0.1985226962
C  C40  1  0.13490000  0.16390000  0.13180000  1.0 -0.0872697106
C  C41  1  0.60722000  0.58984000  0.13685000  1.0 0.5647277935
C  C42  1  0.65685000  0.71991000  0.11572000  1.0 -0.0490774707
C  C43  1  0.64296000  0.77758000  0.14842000  1.0 -0.0872697106
C  C44  1  0.69167000  0.90013000  0.12877000  1.0 -0.1985226962
C  C45  1  0.75825000  0.96555000  0.07808000  1.0 0.1889638408
C  C46  1  0.77279000  0.90681000  0.04619000  1.0 -0.1832260684
C  C47  1  0.72100000  0.78520000  0.06393000  1.0 -0.0690481857
C  C48  1  0.59834000  0.31094000  0.09277000  1.0 0.5954004034
C  C49  1  0.65778000  0.25772000  0.08192000  1.0 -0.0374370849
C  C50  1  0.59878000  0.19402000  0.03123000  1.0 -0.095489648
C  C51  1  0.65127000  0.13953000  0.02343000  1.0 -0.1877431114
C  C52  1  0.76433000  0.15169000  0.06544000  1.0 0.1788688629
C  C53  1  0.67491000  0.69153000  0.58394000  1.0 0.5766508534
C  C54  1  0.73928000  0.82106000  0.57660000  1.0 -0.0556814828
C  C55  1  0.78069000  0.17471000  0.61421000  1.0 -0.1877431114
C  C56  1  0.72954000  0.22886000  0.62347000  1.0 -0.095489648
C  C57  1  0.68872000  0.45248000  0.83568000  1.0 0.1062330633
C  C58  1  0.76145000  0.46343000  0.90503000  1.0 -0.1877431114
C  C59  1  0.87607000  0.47895000  0.92255000  1.0 0.1788688629
C  C60  1  0.91500000  0.48240000  0.87102000  1.0 -0.1985226962
C  C61  1  0.83662000  0.46918000  0.80397000  1.0 0.0896248474
C  C62  1  0.70173000  0.89867000  0.51542000  1.0 -0.0872697106
C  C63  1  0.75927000  0.01953000  0.50972000  1.0 -0.1877431114
C  C64  1  0.85353000  0.06253000  0.56495000  1.0 0.1788688629
C  C65  1  0.89330000  0.98570000  0.62580000  1.0 -0.1985226962
C  C66  1  0.83610000  0.86510000  0.63180000  1.0 -0.0872697106
C  C67  1  0.41016000  0.39278000  0.63685000  1.0 0.5647277935
C  C68  1  0.28009000  0.34315000  0.61572000  1.0 -0.0490774707
C  C69  1  0.22242000  0.35704000  0.64842000  1.0 -0.0872697106
C  C70  1  0.09987000  0.30833000  0.62877000  1.0 -0.1985226962
C  C71  1  0.03445000  0.24175000  0.57808000  1.0 0.1889638408
C  C72  1  0.09319000  0.22721000  0.54619000  1.0 -0.1832260684
C  C73  1  0.21480000  0.27900000  0.56393000  1.0 -0.0690481857
C  C74  1  0.68906000  0.40166000  0.59277000  1.0 0.5954004034
C  C75  1  0.74228000  0.34222000  0.58192000  1.0 -0.0374370849
C  C76  1  0.80598000  0.40122000  0.53123000  1.0 -0.095489648
C  C77  1  0.86047000  0.34873000  0.52343000  1.0 -0.1877431114
C  C78  1  0.84831000  0.23567000  0.56544000  1.0 0.1788688629
C  C79  1  0.32509000  0.30847000  0.41606000  1.0 0.5766508534
C  C80  1  0.26072000  0.17894000  0.42340000  1.0 -0.0556814828
C  C81  1  0.21931000  0.82529000  0.38579000  1.0 -0.1877431114
C  C82  1  0.27046000  0.77114000  0.37653000  1.0 -0.095489648
C  C83  1  0.31128000  0.54752000  0.16432000  1.0 0.1062330633
C  C84  1  0.23855000  0.53657000  0.09497000  1.0 -0.1877431114
C  C85  1  0.12393000  0.52105000  0.07745000  1.0 0.1788688629
C  C86  1  0.08500000  0.51760000  0.12898000  1.0 -0.1985226962
C  C87  1  0.16338000  0.53082000  0.19603000  1.0 0.0896248474
C  C88  1  0.29827000  0.10133000  0.48458000  1.0 -0.0872697106
C  C89  1  0.24073000  0.98047000  0.49028000  1.0 -0.1877431114
C  C90  1  0.14647000  0.93747000  0.43505000  1.0 0.1788688629
C  C91  1  0.10670000  0.01430000  0.37420000  1.0 -0.1985226962
C  C92  1  0.16390000  0.13490000  0.36820000  1.0 -0.0872697106
C  C93  1  0.58984000  0.60722000  0.36315000  1.0 0.5647277935
C  C94  1  0.71991000  0.65685000  0.38428000  1.0 -0.0490774707
C  C95  1  0.77758000  0.64296000  0.35158000  1.0 -0.0872697106
C  C96  1  0.90013000  0.69167000  0.37123000  1.0 -0.1985226962
C  C97  1  0.96555000  0.75825000  0.42192000  1.0 0.1889638408
C  C98  1  0.90681000  0.77279000  0.45381000  1.0 -0.1832260684
C  C99  1  0.78520000  0.72100000  0.43607000  1.0 -0.0690481857
C  C100  1  0.31094000  0.59834000  0.40723000  1.0 0.5954004034
C  C101  1  0.25772000  0.65778000  0.41808000  1.0 -0.0374370849
C  C102  1  0.19402000  0.59878000  0.46877000  1.0 -0.095489648
C  C103  1  0.13953000  0.65127000  0.47657000  1.0 -0.1877431114
C  C104  1  0.15169000  0.76433000  0.43456000  1.0 0.1788688629
N  N1  1  0.18628000  0.90944000  0.94159000  1.0 -0.1985226962
N  N2  1  0.45439000  0.72495000  0.71381000  1.0 -0.2202394352
N  N3  1  0.49094000  0.94860000  0.50538000  1.0 -0.1158923403
N  N4  1  0.81372000  0.09056000  0.05841000  1.0 -0.1985226962
N  N5  1  0.54561000  0.27505000  0.28619000  1.0 -0.2202394352
N  N6  1  0.50906000  0.05140000  0.49462000  1.0 -0.1158923403
N  N7  1  0.90944000  0.18628000  0.55841000  1.0 -0.1985226962
N  N8  1  0.72495000  0.45439000  0.78619000  1.0 -0.2202394352
N  N9  1  0.94860000  0.49094000  0.99462000  1.0 -0.1158923403
N  N10  1  0.09056000  0.81372000  0.44159000  1.0 -0.1985226962
N  N11  1  0.27505000  0.54561000  0.21381000  1.0 -0.2202394352
N  N12  1  0.05140000  0.50906000  0.00538000  1.0 -0.1158923403
O  O1  1  0.46980000  0.65062000  0.96147000  1.0 -0.5505118266
O  O2  1  0.37699000  0.68845000  0.84201000  1.0 -0.5505118266
O  O3  1  0.39174000  0.46208000  0.89956000  1.0 -0.5505118266
O  O4  1  0.43262000  0.47108000  0.80843000  1.0 -0.5183741198
O  O5  1  0.62706000  0.71300000  0.85687000  1.0 -0.5434445486
O  O6  1  0.65542000  0.58864000  0.96738000  1.0 -0.5505118266
O  O7  1  0.53020000  0.34938000  0.03853000  1.0 -0.5505118266
O  O8  1  0.62301000  0.31155000  0.15799000  1.0 -0.5505118266
O  O9  1  0.60826000  0.53792000  0.10044000  1.0 -0.5505118266
O  O10  1  0.56738000  0.52892000  0.19157000  1.0 -0.5183741198
O  O11  1  0.37294000  0.28700000  0.14313000  1.0 -0.5434445486
O  O12  1  0.34458000  0.41136000  0.03262000  1.0 -0.5505118266
O  O13  1  0.65062000  0.46980000  0.53853000  1.0 -0.5505118266
O  O14  1  0.68845000  0.37699000  0.65799000  1.0 -0.5505118266
O  O15  1  0.46208000  0.39174000  0.60044000  1.0 -0.5505118266
O  O16  1  0.47108000  0.43262000  0.69157000  1.0 -0.5183741198
O  O17  1  0.71300000  0.62706000  0.64313000  1.0 -0.5434445486
O  O18  1  0.58864000  0.65542000  0.53262000  1.0 -0.5505118266
O  O19  1  0.34938000  0.53020000  0.46147000  1.0 -0.5505118266
O  O20  1  0.31155000  0.62301000  0.34201000  1.0 -0.5505118266
O  O21  1  0.53792000  0.60826000  0.39956000  1.0 -0.5505118266
O  O22  1  0.52892000  0.56738000  0.30843000  1.0 -0.5183741198
O  O23  1  0.28700000  0.37294000  0.35687000  1.0 -0.5434445486
O  O24  1  0.41136000  0.34458000  0.46738000  1.0 -0.5505118266
