# DDEC6 charges by PACMAN v1.1 (https://github.com/mtap-research/PACMAN-charge/)
data_GUBKUL_ASR_pacman
_symmetry_space_group_name_H-M   'P 1'
_cell_length_a   16.62700000
_cell_length_b   16.62700000
_cell_length_c   13.41090000
_cell_angle_alpha   74.20140000
_cell_angle_beta   105.79900000
_cell_angle_gamma   121.46800000
_symmetry_Int_Tables_number   1
_chemical_formula_structural   Ba(CO)4
_chemical_formula_sum   'Ba12 C48 O48'
_cell_volume   3004.32382854
_cell_formula_units_Z   12
loop_
 _symmetry_equiv_pos_site_id
 _symmetry_equiv_pos_as_xyz
  1  'x, y, z'
loop_
 _atom_site_type_symbol
 _atom_site_label
 _atom_site_symmetry_multiplicity
 _atom_site_fract_x
 _atom_site_fract_y
 _atom_site_fract_z
 _atom_site_occupancy
 _atom_site_charge
Ba  Ba1  1  0.43614000  0.07644000  0.05166000  1.0 1.4804602426
Ba  Ba2  1  0.07644000  0.43614000  0.44834000  1.0 1.4804602426
Ba  Ba3  1  0.56386000  0.92356000  0.94834000  1.0 1.4804602426
Ba  Ba4  1  0.92356000  0.56386000  0.55166000  1.0 1.4804602426
Ba  Ba5  1  0.37192000  0.90806000  0.38271000  1.0 1.4562192422
Ba  Ba6  1  0.90806000  0.37192000  0.11729000  1.0 1.4562192422
Ba  Ba7  1  0.62808000  0.09194000  0.61729000  1.0 1.4562192422
Ba  Ba8  1  0.09194000  0.62808000  0.88271000  1.0 1.4562192422
Ba  Ba9  1  0.44662000  0.36462000  0.92722000  1.0 1.4730487925
Ba  Ba10  1  0.36462000  0.44662000  0.57278000  1.0 1.4730487925
Ba  Ba11  1  0.55338000  0.63538000  0.07278000  1.0 1.4730487925
Ba  Ba12  1  0.63538000  0.55338000  0.42722000  1.0 1.4730487925
C  C1  1  0.59768000  0.22692000  0.29788000  1.0 -0.1015616033
C  C2  1  0.22692000  0.59768000  0.20212000  1.0 -0.1015616033
C  C3  1  0.40232000  0.77308000  0.70212000  1.0 -0.1015616033
C  C4  1  0.77308000  0.40232000  0.79788000  1.0 -0.1015616033
C  C5  1  0.53000000  0.12240000  0.32470000  1.0 0.6078723532
C  C6  1  0.12240000  0.53000000  0.17530000  1.0 0.6078723532
C  C7  1  0.47000000  0.87760000  0.67530000  1.0 0.6078723532
C  C8  1  0.87760000  0.47000000  0.82470000  1.0 0.6078723532
C  C9  1  0.56425000  0.29015000  0.24185000  1.0 -0.0613338712
C  C10  1  0.29015000  0.56425000  0.25815000  1.0 -0.0613338712
C  C11  1  0.43575000  0.70985000  0.75815000  1.0 -0.0613338712
C  C12  1  0.70985000  0.43575000  0.74185000  1.0 -0.0613338712
C  C13  1  0.46050000  0.25090000  0.19530000  1.0 0.5819579896
C  C14  1  0.25090000  0.46050000  0.30470000  1.0 0.5819579896
C  C15  1  0.53950000  0.74910000  0.80470000  1.0 0.5819579896
C  C16  1  0.74910000  0.53950000  0.69530000  1.0 0.5819579896
C  C17  1  0.62458000  0.38822000  0.23928000  1.0 -0.1063083292
C  C18  1  0.38822000  0.62458000  0.26072000  1.0 -0.1063083292
C  C19  1  0.37542000  0.61178000  0.76072000  1.0 -0.1015616033
C  C20  1  0.61178000  0.37542000  0.73928000  1.0 -0.1063083292
C  C21  1  0.58763000  0.45697000  0.18743000  1.0 0.6006740492
C  C22  1  0.45697000  0.58763000  0.31257000  1.0 0.6006740492
C  C23  1  0.41237000  0.54303000  0.81257000  1.0 0.6006740492
C  C24  1  0.54303000  0.41237000  0.68743000  1.0 0.6006740492
C  C25  1  0.71944000  0.42236000  0.28774000  1.0 -0.0516731113
C  C26  1  0.42236000  0.71944000  0.21226000  1.0 -0.0516731113
C  C27  1  0.28056000  0.57764000  0.71226000  1.0 -0.0516731113
C  C28  1  0.57764000  0.28056000  0.78774000  1.0 -0.0516731113
C  C29  1  0.78231000  0.52789000  0.29741000  1.0 0.5819579896
C  C30  1  0.52789000  0.78231000  0.20259000  1.0 0.5819579896
C  C31  1  0.21769000  0.47211000  0.70259000  1.0 0.5819579896
C  C32  1  0.47211000  0.21769000  0.79741000  1.0 0.5819579896
C  C33  1  0.75680000  0.35940000  0.32940000  1.0 -0.1063083292
C  C34  1  0.35940000  0.75680000  0.17060000  1.0 -0.1063083292
C  C35  1  0.24320000  0.64060000  0.67060000  1.0 -0.1063083292
C  C36  1  0.64060000  0.24320000  0.82940000  1.0 -0.1063083292
C  C37  1  0.86181000  0.39559000  0.35911000  1.0 0.6006740492
C  C38  1  0.39559000  0.86181000  0.14089000  1.0 0.6006740492
C  C39  1  0.13819000  0.60441000  0.64089000  1.0 0.6006740492
C  C40  1  0.60441000  0.13819000  0.85911000  1.0 0.6006740492
C  C41  1  0.69494000  0.26146000  0.33604000  1.0 -0.0434155173
C  C42  1  0.26146000  0.69494000  0.16396000  1.0 -0.0434155173
C  C43  1  0.30506000  0.73854000  0.66396000  1.0 -0.0434155173
C  C44  1  0.73854000  0.30506000  0.83604000  1.0 -0.0434155173
C  C45  1  0.73060000  0.18960000  0.38590000  1.0 0.5626046818
C  C46  1  0.18960000  0.73060000  0.11410000  1.0 0.5626046818
C  C47  1  0.26940000  0.81040000  0.61410000  1.0 0.5626046818
C  C48  1  0.81040000  0.26940000  0.88590000  1.0 0.5626046818
O  O1  1  0.54310000  0.08210000  0.41610000  1.0 -0.6591952233
O  O2  1  0.08210000  0.54310000  0.08390000  1.0 -0.6591952233
O  O3  1  0.45690000  0.91790000  0.58390000  1.0 -0.6591952233
O  O4  1  0.91790000  0.45690000  0.91610000  1.0 -0.6591952233
O  O5  1  0.46136000  0.08164000  0.25516000  1.0 -0.6794324121
O  O6  1  0.08164000  0.46136000  0.24484000  1.0 -0.6794324121
O  O7  1  0.53864000  0.91836000  0.74484000  1.0 -0.6794324121
O  O8  1  0.91836000  0.53864000  0.75516000  1.0 -0.6794324121
O  O9  1  0.43437000  0.23283000  0.10327000  1.0 -0.6794324121
O  O10  1  0.23283000  0.43437000  0.39673000  1.0 -0.6794324121
O  O11  1  0.56563000  0.76717000  0.89673000  1.0 -0.6794324121
O  O12  1  0.76717000  0.56563000  0.60327000  1.0 -0.6862176198
O  O13  1  0.40489000  0.23831000  0.25309000  1.0 -0.4899168748
O  O14  1  0.23831000  0.40489000  0.24691000  1.0 -0.4899168748
O  O15  1  0.59511000  0.76169000  0.74691000  1.0 -0.4899168748
O  O16  1  0.76169000  0.59511000  0.75309000  1.0 -0.4899168748
O  O17  1  0.52782000  0.44218000  0.10492000  1.0 -0.6591952233
O  O18  1  0.44218000  0.52782000  0.39508000  1.0 -0.6591952233
O  O19  1  0.47218000  0.55782000  0.89508000  1.0 -0.6591952233
O  O20  1  0.55782000  0.47218000  0.60492000  1.0 -0.6591952233
O  O21  1  0.62191000  0.53029000  0.22941000  1.0 -0.6794324121
O  O22  1  0.53029000  0.62191000  0.27059000  1.0 -0.6794324121
O  O23  1  0.37809000  0.46971000  0.77059000  1.0 -0.6794324121
O  O24  1  0.46971000  0.37809000  0.72941000  1.0 -0.6794324121
O  O25  1  0.82384000  0.58296000  0.22164000  1.0 -0.4818157542
O  O26  1  0.58296000  0.82384000  0.27836000  1.0 -0.4818157542
O  O27  1  0.17616000  0.41704000  0.77836000  1.0 -0.4818157542
O  O28  1  0.41704000  0.17616000  0.72164000  1.0 -0.4818157542
O  O29  1  0.78894000  0.55086000  0.38104000  1.0 -0.6794324121
O  O30  1  0.55086000  0.78894000  0.11896000  1.0 -0.6794324121
O  O31  1  0.21106000  0.44914000  0.61896000  1.0 -0.6794324121
O  O32  1  0.44914000  0.21106000  0.88104000  1.0 -0.6794324121
O  O33  1  0.91337000  0.46263000  0.41197000  1.0 -0.6591952233
O  O34  1  0.46263000  0.91337000  0.08803000  1.0 -0.6591952233
O  O35  1  0.08663000  0.53737000  0.58803000  1.0 -0.6591952233
O  O36  1  0.53737000  0.08663000  0.91197000  1.0 -0.6591952233
O  O37  1  0.89456000  0.35684000  0.32416000  1.0 -0.6794324121
O  O38  1  0.35684000  0.89456000  0.17584000  1.0 -0.6794324121
O  O39  1  0.10544000  0.64316000  0.67584000  1.0 -0.6794324121
O  O40  1  0.64316000  0.10544000  0.82416000  1.0 -0.6794324121
O  O41  1  0.76406000  0.18474000  0.48156000  1.0 -0.606040273
O  O42  1  0.18474000  0.76406000  0.01844000  1.0 -0.606040273
O  O43  1  0.23594000  0.81526000  0.51844000  1.0 -0.6040371794
O  O44  1  0.81526000  0.23594000  0.98156000  1.0 -0.606040273
O  O45  1  0.71857000  0.13583000  0.32587000  1.0 -0.5223391491
O  O46  1  0.13583000  0.71857000  0.17413000  1.0 -0.5223391491
O  O47  1  0.28143000  0.86417000  0.67413000  1.0 -0.5223391491
O  O48  1  0.86417000  0.28143000  0.82587000  1.0 -0.5223391491
