# DDEC6 charges by PACMAN v1.1 (https://github.com/mtap-research/PACMAN-charge/)
data_GUCTAB_ASR_pacman
_symmetry_space_group_name_H-M   'P 1'
_cell_length_a   27.29500000
_cell_length_b   27.29500000
_cell_length_c   27.29500000
_cell_angle_alpha   109.47100000
_cell_angle_beta   109.47100000
_cell_angle_gamma   109.47100000
_symmetry_Int_Tables_number   1
_chemical_formula_structural   Tb4H43C57(N3O8)2
_chemical_formula_sum   'Tb32 H344 C456 N48 O128'
_cell_volume   15654.20269109
_cell_formula_units_Z   8
loop_
 _symmetry_equiv_pos_site_id
 _symmetry_equiv_pos_as_xyz
  1  'x, y, z'
loop_
 _atom_site_type_symbol
 _atom_site_label
 _atom_site_symmetry_multiplicity
 _atom_site_fract_x
 _atom_site_fract_y
 _atom_site_fract_z
 _atom_site_occupancy
 _atom_site_charge
Tb  Tb1  1  0.00000000  0.14812000  0.50000000  1.0 2.1280839567
Tb  Tb2  1  0.14812000  0.50000000  0.00000000  1.0 2.1280839567
Tb  Tb3  1  0.35188000  0.35188000  0.35188000  1.0 2.1280839567
Tb  Tb4  1  0.50000000  0.00000000  0.14812000  1.0 2.1280839567
Tb  Tb5  1  0.91243000  0.22912000  0.49147000  1.0 2.1280839567
Tb  Tb6  1  0.23765000  0.42096000  0.00853000  1.0 2.1280839567
Tb  Tb7  1  0.27088000  0.18331000  0.26235000  1.0 2.1241238071
Tb  Tb8  1  0.22912000  0.49147000  0.91243000  1.0 2.1280839567
Tb  Tb9  1  0.00853000  0.23765000  0.42096000  1.0 2.1280839567
Tb  Tb10  1  0.18331000  0.26235000  0.27088000  1.0 2.1241238071
Tb  Tb11  1  0.26235000  0.27088000  0.18331000  1.0 2.1241238071
Tb  Tb12  1  0.58757000  0.07904000  0.31669000  1.0 2.1280839567
Tb  Tb13  1  0.42096000  0.00853000  0.23765000  1.0 2.1280839567
Tb  Tb14  1  0.07904000  0.31669000  0.58757000  1.0 2.1280839567
Tb  Tb15  1  0.49147000  0.91243000  0.22912000  1.0 2.1280839567
Tb  Tb16  1  0.31669000  0.58757000  0.07904000  1.0 2.1241238071
Tb  Tb17  1  0.50000000  0.00000000  0.64812000  1.0 2.1280839567
Tb  Tb18  1  0.85188000  0.85188000  0.85188000  1.0 2.1280839567
Tb  Tb19  1  0.00000000  0.64812000  0.50000000  1.0 2.1280839567
Tb  Tb20  1  0.64812000  0.50000000  0.00000000  1.0 2.1280839567
Tb  Tb21  1  0.57904000  0.08757000  0.81669000  1.0 2.1280839567
Tb  Tb22  1  0.77088000  0.76235000  0.68331000  1.0 2.1280839567
Tb  Tb23  1  0.92096000  0.73765000  0.50853000  1.0 2.1280839567
Tb  Tb24  1  0.72912000  0.41243000  0.99147000  1.0 2.1280839567
Tb  Tb25  1  0.81669000  0.57904000  0.08757000  1.0 2.1280839567
Tb  Tb26  1  0.08757000  0.81669000  0.57904000  1.0 2.1280839567
Tb  Tb27  1  0.73765000  0.50853000  0.92096000  1.0 2.1280839567
Tb  Tb28  1  0.68331000  0.77088000  0.76235000  1.0 2.1280839567
Tb  Tb29  1  0.76235000  0.68331000  0.77088000  1.0 2.1280839567
Tb  Tb30  1  0.99147000  0.72912000  0.41243000  1.0 2.1280839567
Tb  Tb31  1  0.50853000  0.92096000  0.73765000  1.0 2.1280839567
Tb  Tb32  1  0.41243000  0.99147000  0.72912000  1.0 2.1280839567
H  H1  1  0.98790000  0.22320000  0.58470000  1.0 0.3741588434
H  H2  1  0.13850000  0.40320000  0.91530000  1.0 0.3741588434
H  H3  1  0.27680000  0.26470000  0.36150000  1.0 0.3741588434
H  H4  1  0.22320000  0.58470000  0.98790000  1.0 0.3741588434
H  H5  1  0.91530000  0.13850000  0.40320000  1.0 0.3741588434
H  H6  1  0.26470000  0.36150000  0.27680000  1.0 0.3741588434
H  H7  1  0.36150000  0.27680000  0.26470000  1.0 0.3741588434
H  H8  1  0.51210000  0.09680000  0.23530000  1.0 0.3741588434
H  H9  1  0.40320000  0.91530000  0.13850000  1.0 0.3741588434
H  H10  1  0.09680000  0.23530000  0.51210000  1.0 0.3741588434
H  H11  1  0.58470000  0.98790000  0.22320000  1.0 0.3741588434
H  H12  1  0.23530000  0.51210000  0.09680000  1.0 0.3741588434
H  H13  1  0.00000000  0.32920000  0.50000000  1.0 0.4043099088
H  H14  1  0.32920000  0.50000000  0.00000000  1.0 0.4043099088
H  H15  1  0.17080000  0.17080000  0.17080000  1.0 0.4043099088
H  H16  1  0.50000000  0.00000000  0.32920000  1.0 0.4043099088
H  H17  1  0.82730000  0.97170000  0.43420000  1.0 0.1170392288
H  H18  1  0.03750000  0.39310000  0.06580000  1.0 0.1170392288
H  H19  1  0.52830000  0.35560000  0.46250000  1.0 0.1170392288
H  H20  1  0.97170000  0.43420000  0.82730000  1.0 0.1170392288
H  H21  1  0.06580000  0.03750000  0.39310000  1.0 0.1170392288
H  H22  1  0.35560000  0.46250000  0.52830000  1.0 0.1170392288
H  H23  1  0.46250000  0.52830000  0.35560000  1.0 0.1170392288
H  H24  1  0.67270000  0.10690000  0.14440000  1.0 0.1170392288
H  H25  1  0.39310000  0.06580000  0.03750000  1.0 0.1170392288
H  H26  1  0.10690000  0.14440000  0.67270000  1.0 0.1170392288
H  H27  1  0.43420000  0.82730000  0.97170000  1.0 0.1170392288
H  H28  1  0.14440000  0.67270000  0.10690000  1.0 0.1170392288
H  H29  1  0.74810000  0.07090000  0.40260000  1.0 0.1362068948
H  H30  1  0.16830000  0.34550000  0.09740000  1.0 0.1362068948
H  H31  1  0.42910000  0.17720000  0.33170000  1.0 0.1362068948
H  H32  1  0.07090000  0.40260000  0.74810000  1.0 0.1362068948
H  H33  1  0.09740000  0.16830000  0.34550000  1.0 0.1362068948
H  H34  1  0.17720000  0.33170000  0.42910000  1.0 0.1362068948
H  H35  1  0.33170000  0.42910000  0.17720000  1.0 0.1362068948
H  H36  1  0.75190000  0.15450000  0.32280000  1.0 0.1362068948
H  H37  1  0.34550000  0.09740000  0.16830000  1.0 0.1362068948
H  H38  1  0.15450000  0.32280000  0.75190000  1.0 0.1362068948
H  H39  1  0.40260000  0.74810000  0.07090000  1.0 0.1362068948
H  H40  1  0.32280000  0.75190000  0.15450000  1.0 0.1362068948
H  H41  1  0.64810000  0.89770000  0.32980000  1.0 0.10791441
H  H42  1  0.06790000  0.31830000  0.17020000  1.0 0.10791441
H  H43  1  0.60230000  0.25040000  0.43210000  1.0 0.10791441
H  H44  1  0.89770000  0.32980000  0.64810000  1.0 0.10791441
H  H45  1  0.17020000  0.06790000  0.31830000  1.0 0.10791441
H  H46  1  0.25040000  0.43210000  0.60230000  1.0 0.10791441
H  H47  1  0.43210000  0.60230000  0.25040000  1.0 0.10791441
H  H48  1  0.85190000  0.18170000  0.24960000  1.0 0.10791441
H  H49  1  0.31830000  0.17020000  0.06790000  1.0 0.10791441
H  H50  1  0.18170000  0.24960000  0.85190000  1.0 0.10791441
H  H51  1  0.32980000  0.64810000  0.89770000  1.0 0.10791441
H  H52  1  0.24960000  0.85190000  0.18170000  1.0 0.10791441
H  H53  1  0.69260000  0.83970000  0.37630000  1.0 0.10791441
H  H54  1  0.96340000  0.31630000  0.12370000  1.0 0.10791441
H  H55  1  0.66030000  0.35290000  0.53660000  1.0 0.10791441
H  H56  1  0.83970000  0.37630000  0.69260000  1.0 0.10791441
H  H57  1  0.12370000  0.96340000  0.31630000  1.0 0.10791441
H  H58  1  0.35290000  0.53660000  0.66030000  1.0 0.10791441
H  H59  1  0.53660000  0.66030000  0.35290000  1.0 0.10791441
H  H60  1  0.80740000  0.18370000  0.14710000  1.0 0.10791441
H  H61  1  0.31630000  0.12370000  0.96340000  1.0 0.10791441
H  H62  1  0.18370000  0.14710000  0.80740000  1.0 0.10791441
H  H63  1  0.37630000  0.69260000  0.83970000  1.0 0.10791441
H  H64  1  0.14710000  0.80740000  0.18370000  1.0 0.10791441
H  H65  1  0.76390000  0.86900000  0.41210000  1.0 0.10791441
H  H66  1  0.95690000  0.35180000  0.08790000  1.0 0.10791441
H  H67  1  0.63100000  0.39490000  0.54310000  1.0 0.10791441
H  H68  1  0.86900000  0.41210000  0.76390000  1.0 0.10791441
H  H69  1  0.08790000  0.95690000  0.35180000  1.0 0.10791441
H  H70  1  0.39490000  0.54310000  0.63100000  1.0 0.10791441
H  H71  1  0.54310000  0.63100000  0.39490000  1.0 0.10791441
H  H72  1  0.73610000  0.14820000  0.10510000  1.0 0.10791441
H  H73  1  0.35180000  0.08790000  0.95690000  1.0 0.10791441
H  H74  1  0.14820000  0.10510000  0.73610000  1.0 0.10791441
H  H75  1  0.41210000  0.76390000  0.86900000  1.0 0.10791441
H  H76  1  0.10510000  0.73610000  0.14820000  1.0 0.10791441
H  H77  1  0.81250000  0.85040000  0.36510000  1.0 0.1012172131
H  H78  1  0.98530000  0.44740000  0.13490000  1.0 0.1012172131
H  H79  1  0.64960000  0.46210000  0.51470000  1.0 0.1012172131
H  H80  1  0.85040000  0.36510000  0.81250000  1.0 0.1012172131
H  H81  1  0.13490000  0.98530000  0.44740000  1.0 0.1012172131
H  H82  1  0.46210000  0.51470000  0.64960000  1.0 0.1012172131
H  H83  1  0.51470000  0.64960000  0.46210000  1.0 0.1012172131
H  H84  1  0.68750000  0.05260000  0.03790000  1.0 0.1012172131
H  H85  1  0.44740000  0.13490000  0.98530000  1.0 0.1012172131
H  H86  1  0.05260000  0.03790000  0.68750000  1.0 0.1012172131
H  H87  1  0.36510000  0.81250000  0.85040000  1.0 0.1012172131
H  H88  1  0.03790000  0.68750000  0.05260000  1.0 0.1012172131
H  H89  1  0.64160000  0.79290000  0.27390000  1.0 0.0898084929
H  H90  1  0.01900000  0.36770000  0.22610000  1.0 0.0898084929
H  H91  1  0.70710000  0.34870000  0.48100000  1.0 0.0898084929
H  H92  1  0.79290000  0.27390000  0.64160000  1.0 0.0898084929
H  H93  1  0.22610000  0.01900000  0.36770000  1.0 0.0898084929
H  H94  1  0.34870000  0.48100000  0.70710000  1.0 0.0898084929
H  H95  1  0.48100000  0.70710000  0.34870000  1.0 0.0898084929
H  H96  1  0.85840000  0.13230000  0.15130000  1.0 0.0898084929
H  H97  1  0.36770000  0.22610000  0.01900000  1.0 0.0898084929
H  H98  1  0.13230000  0.15130000  0.85840000  1.0 0.0898084929
H  H99  1  0.27390000  0.64160000  0.79290000  1.0 0.0898084929
H  H100  1  0.15130000  0.85840000  0.13230000  1.0 0.0898084929
H  H101  1  0.81390000  0.80010000  0.27800000  1.0 0.1259007026
H  H102  1  0.02210000  0.53590000  0.22200000  1.0 0.1259007026
H  H103  1  0.69990000  0.51380000  0.47790000  1.0 0.1259007026
H  H104  1  0.80010000  0.27800000  0.81390000  1.0 0.1259007026
H  H105  1  0.22200000  0.02210000  0.53590000  1.0 0.1259007026
H  H106  1  0.51380000  0.47790000  0.69990000  1.0 0.1259007026
H  H107  1  0.47790000  0.69990000  0.51380000  1.0 0.1259007026
H  H108  1  0.68610000  0.96410000  0.98620000  1.0 0.1259007026
H  H109  1  0.53590000  0.22200000  0.02210000  1.0 0.1259007026
H  H110  1  0.96410000  0.98620000  0.68610000  1.0 0.1259007026
H  H111  1  0.27800000  0.81390000  0.80010000  1.0 0.1259007026
H  H112  1  0.98620000  0.68610000  0.96410000  1.0 0.1259007026
H  H113  1  0.63980000  0.73990000  0.19050000  1.0 0.1259007026
H  H114  1  0.04940000  0.44930000  0.30950000  1.0 0.1259007026
H  H115  1  0.76010000  0.39990000  0.45060000  1.0 0.1259007026
H  H116  1  0.73990000  0.19050000  0.63980000  1.0 0.1259007026
H  H117  1  0.30950000  0.04940000  0.44930000  1.0 0.1259007026
H  H118  1  0.39990000  0.45060000  0.76010000  1.0 0.1259007026
H  H119  1  0.45060000  0.76010000  0.39990000  1.0 0.1259007026
H  H120  1  0.86020000  0.05070000  0.10010000  1.0 0.1259007026
H  H121  1  0.44930000  0.30950000  0.04940000  1.0 0.1259007026
H  H122  1  0.05070000  0.10010000  0.86020000  1.0 0.1259007026
H  H123  1  0.19050000  0.63980000  0.73990000  1.0 0.1259007026
H  H124  1  0.10010000  0.86020000  0.05070000  1.0 0.1259007026
H  H125  1  0.82180000  0.78310000  0.20070000  1.0 0.10791441
H  H126  1  0.08240000  0.62110000  0.29930000  1.0 0.10791441
H  H127  1  0.71690000  0.53870000  0.41760000  1.0 0.10791441
H  H128  1  0.78310000  0.20070000  0.82180000  1.0 0.10791441
H  H129  1  0.29930000  0.08240000  0.62110000  1.0 0.10791441
H  H130  1  0.53870000  0.41760000  0.71690000  1.0 0.10791441
H  H131  1  0.41760000  0.71690000  0.53870000  1.0 0.10791441
H  H132  1  0.67820000  0.87890000  0.96130000  1.0 0.10791441
H  H133  1  0.62110000  0.29930000  0.08240000  1.0 0.10791441
H  H134  1  0.87890000  0.96130000  0.67820000  1.0 0.10791441
H  H135  1  0.20070000  0.82180000  0.78310000  1.0 0.10791441
H  H136  1  0.96130000  0.67820000  0.87890000  1.0 0.10791441
H  H137  1  0.63590000  0.68930000  0.11000000  1.0 0.1012172131
H  H138  1  0.07930000  0.52590000  0.39000000  1.0 0.1012172131
H  H139  1  0.81070000  0.44660000  0.42070000  1.0 0.1012172131
H  H140  1  0.68930000  0.11000000  0.63590000  1.0 0.1012172131
H  H141  1  0.39000000  0.07930000  0.52590000  1.0 0.1012172131
H  H142  1  0.44660000  0.42070000  0.81070000  1.0 0.1012172131
H  H143  1  0.42070000  0.81070000  0.44660000  1.0 0.1012172131
H  H144  1  0.86410000  0.97410000  0.05340000  1.0 0.1012172131
H  H145  1  0.52590000  0.39000000  0.07930000  1.0 0.1012172131
H  H146  1  0.97410000  0.05340000  0.86410000  1.0 0.1012172131
H  H147  1  0.11000000  0.63590000  0.68930000  1.0 0.1012172131
H  H148  1  0.05340000  0.86410000  0.97410000  1.0 0.1012172131
H  H149  1  0.82090000  0.72540000  0.11730000  1.0 0.0898084929
H  H150  1  0.10810000  0.70360000  0.38270000  1.0 0.0898084929
H  H151  1  0.77460000  0.59550000  0.39190000  1.0 0.0898084929
H  H152  1  0.72540000  0.11730000  0.82090000  1.0 0.0898084929
H  H153  1  0.38270000  0.10810000  0.70360000  1.0 0.0898084929
H  H154  1  0.59550000  0.39190000  0.77460000  1.0 0.0898084929
H  H155  1  0.39190000  0.77460000  0.59550000  1.0 0.0898084929
H  H156  1  0.67910000  0.79640000  0.90450000  1.0 0.0898084929
H  H157  1  0.70360000  0.38270000  0.10810000  1.0 0.0898084929
H  H158  1  0.79640000  0.90450000  0.67910000  1.0 0.0898084929
H  H159  1  0.11730000  0.82090000  0.72540000  1.0 0.0898084929
H  H160  1  0.90450000  0.67910000  0.79640000  1.0 0.0898084929
H  H161  1  0.64110000  0.63670000  0.02400000  1.0 0.0898084929
H  H162  1  0.11270000  0.61710000  0.47600000  1.0 0.0898084929
H  H163  1  0.86330000  0.50440000  0.38730000  1.0 0.0898084929
H  H164  1  0.63670000  0.02400000  0.64110000  1.0 0.0898084929
H  H165  1  0.47600000  0.11270000  0.61710000  1.0 0.0898084929
H  H166  1  0.50440000  0.38730000  0.86330000  1.0 0.0898084929
H  H167  1  0.38730000  0.86330000  0.50440000  1.0 0.0898084929
H  H168  1  0.85890000  0.88290000  0.99560000  1.0 0.0898084929
H  H169  1  0.61710000  0.47600000  0.11270000  1.0 0.0898084929
H  H170  1  0.88290000  0.99560000  0.85890000  1.0 0.0898084929
H  H171  1  0.02400000  0.64110000  0.63670000  1.0 0.0898084929
H  H172  1  0.99560000  0.85890000  0.88290000  1.0 0.0898084929
H  H173  1  0.59680000  0.01210000  0.73530000  1.0 0.3741588434
H  H174  1  0.77680000  0.86150000  0.76470000  1.0 0.3741588434
H  H175  1  0.90320000  0.63850000  0.41530000  1.0 0.3741588434
H  H176  1  0.72320000  0.48790000  0.08470000  1.0 0.3741588434
H  H177  1  0.73530000  0.59680000  0.01210000  1.0 0.3741588434
H  H178  1  0.01210000  0.73530000  0.59680000  1.0 0.3741588434
H  H179  1  0.63850000  0.41530000  0.90320000  1.0 0.3741588434
H  H180  1  0.76470000  0.77680000  0.86150000  1.0 0.3741588434
H  H181  1  0.86150000  0.76470000  0.77680000  1.0 0.3741588434
H  H182  1  0.08470000  0.72320000  0.48790000  1.0 0.3741588434
H  H183  1  0.41530000  0.90320000  0.63850000  1.0 0.3741588434
H  H184  1  0.48790000  0.08470000  0.72320000  1.0 0.3741588434
H  H185  1  0.50000000  0.00000000  0.82920000  1.0 0.4043099088
H  H186  1  0.67080000  0.67080000  0.67080000  1.0 0.4043099088
H  H187  1  0.00000000  0.82920000  0.50000000  1.0 0.4043099088
H  H188  1  0.82920000  0.50000000  0.00000000  1.0 0.4043099088
H  H189  1  0.60690000  0.17270000  0.64440000  1.0 0.1170392288
H  H190  1  0.02830000  0.96250000  0.85560000  1.0 0.1170392288
H  H191  1  0.89310000  0.53750000  0.56580000  1.0 0.1170392288
H  H192  1  0.47170000  0.32730000  0.93420000  1.0 0.1170392288
H  H193  1  0.64440000  0.60690000  0.17270000  1.0 0.1170392288
H  H194  1  0.17270000  0.64440000  0.60690000  1.0 0.1170392288
H  H195  1  0.53750000  0.56580000  0.89310000  1.0 0.1170392288
H  H196  1  0.85560000  0.02830000  0.96250000  1.0 0.1170392288
H  H197  1  0.96250000  0.85560000  0.02830000  1.0 0.1170392288
H  H198  1  0.93420000  0.47170000  0.32730000  1.0 0.1170392288
H  H199  1  0.56580000  0.89310000  0.53750000  1.0 0.1170392288
H  H200  1  0.32730000  0.93420000  0.47170000  1.0 0.1170392288
H  H201  1  0.65450000  0.25190000  0.82280000  1.0 0.1362068948
H  H202  1  0.92910000  0.83170000  0.67720000  1.0 0.1362068948
H  H203  1  0.84550000  0.66830000  0.59740000  1.0 0.1362068948
H  H204  1  0.57090000  0.24810000  0.90260000  1.0 0.1362068948
H  H205  1  0.82280000  0.65450000  0.25190000  1.0 0.1362068948
H  H206  1  0.25190000  0.82280000  0.65450000  1.0 0.1362068948
H  H207  1  0.66830000  0.59740000  0.84550000  1.0 0.1362068948
H  H208  1  0.67720000  0.92910000  0.83170000  1.0 0.1362068948
H  H209  1  0.83170000  0.67720000  0.92910000  1.0 0.1362068948
H  H210  1  0.90260000  0.57090000  0.24810000  1.0 0.1362068948
H  H211  1  0.59740000  0.84550000  0.66830000  1.0 0.1362068948
H  H212  1  0.24810000  0.90260000  0.57090000  1.0 0.1362068948
H  H213  1  0.68170000  0.35190000  0.74960000  1.0 0.10791441
H  H214  1  0.10230000  0.93210000  0.75040000  1.0 0.10791441
H  H215  1  0.81830000  0.56790000  0.67020000  1.0 0.10791441
H  H216  1  0.39770000  0.14810000  0.82980000  1.0 0.10791441
H  H217  1  0.74960000  0.68170000  0.35190000  1.0 0.10791441
H  H218  1  0.35190000  0.74960000  0.68170000  1.0 0.10791441
H  H219  1  0.56790000  0.67020000  0.81830000  1.0 0.10791441
H  H220  1  0.75040000  0.10230000  0.93210000  1.0 0.10791441
H  H221  1  0.93210000  0.75040000  0.10230000  1.0 0.10791441
H  H222  1  0.82980000  0.39770000  0.14810000  1.0 0.10791441
H  H223  1  0.67020000  0.81830000  0.56790000  1.0 0.10791441
H  H224  1  0.14810000  0.82980000  0.39770000  1.0 0.10791441
H  H225  1  0.68370000  0.30740000  0.64710000  1.0 0.10791441
H  H226  1  0.16030000  0.03660000  0.85290000  1.0 0.10791441
H  H227  1  0.81630000  0.46340000  0.62370000  1.0 0.10791441
H  H228  1  0.33970000  0.19260000  0.87630000  1.0 0.10791441
H  H229  1  0.64710000  0.68370000  0.30740000  1.0 0.10791441
H  H230  1  0.30740000  0.64710000  0.68370000  1.0 0.10791441
H  H231  1  0.46340000  0.62370000  0.81630000  1.0 0.10791441
H  H232  1  0.85290000  0.16030000  0.03660000  1.0 0.10791441
H  H233  1  0.03660000  0.85290000  0.16030000  1.0 0.10791441
H  H234  1  0.87630000  0.33970000  0.19260000  1.0 0.10791441
H  H235  1  0.62370000  0.81630000  0.46340000  1.0 0.10791441
H  H236  1  0.19260000  0.87630000  0.33970000  1.0 0.10791441
H  H237  1  0.64820000  0.23610000  0.60510000  1.0 0.10791441
H  H238  1  0.13100000  0.04310000  0.89490000  1.0 0.10791441
H  H239  1  0.85180000  0.45690000  0.58790000  1.0 0.10791441
H  H240  1  0.36900000  0.26390000  0.91210000  1.0 0.10791441
H  H241  1  0.60510000  0.64820000  0.23610000  1.0 0.10791441
H  H242  1  0.23610000  0.60510000  0.64820000  1.0 0.10791441
H  H243  1  0.45690000  0.58790000  0.85180000  1.0 0.10791441
H  H244  1  0.89490000  0.13100000  0.04310000  1.0 0.10791441
H  H245  1  0.04310000  0.89490000  0.13100000  1.0 0.10791441
H  H246  1  0.91210000  0.36900000  0.26390000  1.0 0.10791441
H  H247  1  0.58790000  0.85180000  0.45690000  1.0 0.10791441
H  H248  1  0.26390000  0.91210000  0.36900000  1.0 0.10791441
H  H249  1  0.55260000  0.18750000  0.53790000  1.0 0.1012172131
H  H250  1  0.14960000  0.01470000  0.96210000  1.0 0.1012172131
H  H251  1  0.94740000  0.48530000  0.63490000  1.0 0.1012172131
H  H252  1  0.35040000  0.31250000  0.86510000  1.0 0.1012172131
H  H253  1  0.53790000  0.55260000  0.18750000  1.0 0.1012172131
H  H254  1  0.18750000  0.53790000  0.55260000  1.0 0.1012172131
H  H255  1  0.48530000  0.63490000  0.94740000  1.0 0.1012172131
H  H256  1  0.96210000  0.14960000  0.01470000  1.0 0.1012172131
H  H257  1  0.01470000  0.96210000  0.14960000  1.0 0.1012172131
H  H258  1  0.86510000  0.35040000  0.31250000  1.0 0.1012172131
H  H259  1  0.63490000  0.94740000  0.48530000  1.0 0.1012172131
H  H260  1  0.31250000  0.86510000  0.35040000  1.0 0.1012172131
H  H261  1  0.63230000  0.35840000  0.65130000  1.0 0.0898084929
H  H262  1  0.20710000  0.98100000  0.84870000  1.0 0.0898084929
H  H263  1  0.86770000  0.51900000  0.72610000  1.0 0.0898084929
H  H264  1  0.29290000  0.14160000  0.77390000  1.0 0.0898084929
H  H265  1  0.65130000  0.63230000  0.35840000  1.0 0.0898084929
H  H266  1  0.35840000  0.65130000  0.63230000  1.0 0.0898084929
H  H267  1  0.51900000  0.72610000  0.86770000  1.0 0.0898084929
H  H268  1  0.84870000  0.20710000  0.98100000  1.0 0.0898084929
H  H269  1  0.98100000  0.84870000  0.20710000  1.0 0.0898084929
H  H270  1  0.77390000  0.29290000  0.14160000  1.0 0.0898084929
H  H271  1  0.72610000  0.86770000  0.51900000  1.0 0.0898084929
H  H272  1  0.14160000  0.77390000  0.29290000  1.0 0.0898084929
H  H273  1  0.46410000  0.18610000  0.48620000  1.0 0.1259007026
H  H274  1  0.19990000  0.97790000  0.01380000  1.0 0.1259007026
H  H275  1  0.03590000  0.52210000  0.72200000  1.0 0.1259007026
H  H276  1  0.30010000  0.31390000  0.77800000  1.0 0.1259007026
H  H277  1  0.48620000  0.46410000  0.18610000  1.0 0.1259007026
H  H278  1  0.18610000  0.48620000  0.46410000  1.0 0.1259007026
H  H279  1  0.52210000  0.72200000  0.03590000  1.0 0.1259007026
H  H280  1  0.01380000  0.19990000  0.97790000  1.0 0.1259007026
H  H281  1  0.97790000  0.01380000  0.19990000  1.0 0.1259007026
H  H282  1  0.77800000  0.30010000  0.31390000  1.0 0.1259007026
H  H283  1  0.72200000  0.03590000  0.52210000  1.0 0.1259007026
H  H284  1  0.31390000  0.77800000  0.30010000  1.0 0.1259007026
H  H285  1  0.55070000  0.36020000  0.60010000  1.0 0.1259007026
H  H286  1  0.26010000  0.95060000  0.89990000  1.0 0.1259007026
H  H287  1  0.94930000  0.54940000  0.80950000  1.0 0.1259007026
H  H288  1  0.23990000  0.13980000  0.69050000  1.0 0.1259007026
H  H289  1  0.60010000  0.55070000  0.36020000  1.0 0.1259007026
H  H290  1  0.36020000  0.60010000  0.55070000  1.0 0.1259007026
H  H291  1  0.54940000  0.80950000  0.94930000  1.0 0.1259007026
H  H292  1  0.89990000  0.26010000  0.95060000  1.0 0.1259007026
H  H293  1  0.95060000  0.89990000  0.26010000  1.0 0.1259007026
H  H294  1  0.69050000  0.23990000  0.13980000  1.0 0.1259007026
H  H295  1  0.80950000  0.94930000  0.54940000  1.0 0.1259007026
H  H296  1  0.13980000  0.69050000  0.23990000  1.0 0.1259007026
H  H297  1  0.37890000  0.17820000  0.46130000  1.0 0.10791441
H  H298  1  0.21690000  0.91760000  0.03870000  1.0 0.10791441
H  H299  1  0.12110000  0.58240000  0.79930000  1.0 0.10791441
H  H300  1  0.28310000  0.32180000  0.70070000  1.0 0.10791441
H  H301  1  0.46130000  0.37890000  0.17820000  1.0 0.10791441
H  H302  1  0.17820000  0.46130000  0.37890000  1.0 0.10791441
H  H303  1  0.58240000  0.79930000  0.12110000  1.0 0.10791441
H  H304  1  0.03870000  0.21690000  0.91760000  1.0 0.10791441
H  H305  1  0.91760000  0.03870000  0.21690000  1.0 0.10791441
H  H306  1  0.70070000  0.28310000  0.32180000  1.0 0.10791441
H  H307  1  0.79930000  0.12110000  0.58240000  1.0 0.10791441
H  H308  1  0.32180000  0.70070000  0.28310000  1.0 0.10791441
H  H309  1  0.47410000  0.36410000  0.55340000  1.0 0.1012172131
H  H310  1  0.31070000  0.92070000  0.94660000  1.0 0.1012172131
H  H311  1  0.02590000  0.57930000  0.89000000  1.0 0.1012172131
H  H312  1  0.18930000  0.13590000  0.61000000  1.0 0.1012172131
H  H313  1  0.55340000  0.47410000  0.36410000  1.0 0.1012172131
H  H314  1  0.36410000  0.55340000  0.47410000  1.0 0.1012172131
H  H315  1  0.57930000  0.89000000  0.02590000  1.0 0.1012172131
H  H316  1  0.94660000  0.31070000  0.92070000  1.0 0.1012172131
H  H317  1  0.92070000  0.94660000  0.31070000  1.0 0.1012172131
H  H318  1  0.61000000  0.18930000  0.13590000  1.0 0.1012172131
H  H319  1  0.89000000  0.02590000  0.57930000  1.0 0.1012172131
H  H320  1  0.13590000  0.61000000  0.18930000  1.0 0.1012172131
H  H321  1  0.29640000  0.17910000  0.40450000  1.0 0.0898084929
H  H322  1  0.27460000  0.89190000  0.09550000  1.0 0.0898084929
H  H323  1  0.20360000  0.60810000  0.88270000  1.0 0.0898084929
H  H324  1  0.22540000  0.32090000  0.61730000  1.0 0.0898084929
H  H325  1  0.40450000  0.29640000  0.17910000  1.0 0.0898084929
H  H326  1  0.17910000  0.40450000  0.29640000  1.0 0.0898084929
H  H327  1  0.60810000  0.88270000  0.20360000  1.0 0.0898084929
H  H328  1  0.09550000  0.27460000  0.89190000  1.0 0.0898084929
H  H329  1  0.89190000  0.09550000  0.27460000  1.0 0.0898084929
H  H330  1  0.61730000  0.22540000  0.32090000  1.0 0.0898084929
H  H331  1  0.88270000  0.20360000  0.60810000  1.0 0.0898084929
H  H332  1  0.32090000  0.61730000  0.22540000  1.0 0.0898084929
H  H333  1  0.38290000  0.35890000  0.49560000  1.0 0.0898084929
H  H334  1  0.36330000  0.88730000  0.00440000  1.0 0.0898084929
H  H335  1  0.11710000  0.61270000  0.97600000  1.0 0.0898084929
H  H336  1  0.13670000  0.14110000  0.52400000  1.0 0.0898084929
H  H337  1  0.49560000  0.38290000  0.35890000  1.0 0.0898084929
H  H338  1  0.35890000  0.49560000  0.38290000  1.0 0.0898084929
H  H339  1  0.61270000  0.97600000  0.11710000  1.0 0.0898084929
H  H340  1  0.00440000  0.36330000  0.88730000  1.0 0.0898084929
H  H341  1  0.88730000  0.00440000  0.36330000  1.0 0.0898084929
H  H342  1  0.52400000  0.13670000  0.14110000  1.0 0.0898084929
H  H343  1  0.97600000  0.11710000  0.61270000  1.0 0.0898084929
H  H344  1  0.14110000  0.52400000  0.13670000  1.0 0.0898084929
C  C1  1  0.85810000  0.08630000  0.45860000  1.0 0.6308578653
C  C2  1  0.12770000  0.39950000  0.04140000  1.0 0.6308578653
C  C3  1  0.41370000  0.27180000  0.37230000  1.0 0.6308578653
C  C4  1  0.08630000  0.45860000  0.85810000  1.0 0.6308578653
C  C5  1  0.04140000  0.12770000  0.39950000  1.0 0.6308578653
C  C6  1  0.27180000  0.37230000  0.41370000  1.0 0.6308578653
C  C7  1  0.37230000  0.41370000  0.27180000  1.0 0.6308578653
C  C8  1  0.64190000  0.10050000  0.22820000  1.0 0.6308578653
C  C9  1  0.39950000  0.04140000  0.12770000  1.0 0.6308578653
C  C10  1  0.10050000  0.22820000  0.64190000  1.0 0.6308578653
C  C11  1  0.45860000  0.85810000  0.08630000  1.0 0.6308578653
C  C12  1  0.22820000  0.64190000  0.10050000  1.0 0.6308578653
C  C13  1  0.79730000  0.03000000  0.42530000  1.0 -0.0159064834
C  C14  1  0.10470000  0.37200000  0.07470000  1.0 -0.0159064834
C  C15  1  0.47000000  0.26730000  0.39530000  1.0 -0.0159064834
C  C16  1  0.03000000  0.42530000  0.79730000  1.0 -0.0159064834
C  C17  1  0.07470000  0.10470000  0.37200000  1.0 -0.0159064834
C  C18  1  0.26730000  0.39530000  0.47000000  1.0 -0.0159064834
C  C19  1  0.39530000  0.47000000  0.26730000  1.0 -0.0159064834
C  C20  1  0.70270000  0.12800000  0.23270000  1.0 -0.0159064834
C  C21  1  0.37200000  0.07470000  0.10470000  1.0 -0.0159064834
C  C22  1  0.12800000  0.23270000  0.70270000  1.0 -0.0159064834
C  C23  1  0.42530000  0.79730000  0.03000000  1.0 -0.0159064834
C  C24  1  0.23270000  0.70270000  0.12800000  1.0 -0.0159064834
C  C25  1  0.79200000  0.97400000  0.41800000  1.0 -0.1922796536
C  C26  1  0.05600000  0.37400000  0.08200000  1.0 -0.1922796536
C  C27  1  0.52600000  0.31800000  0.44400000  1.0 -0.1922796536
C  C28  1  0.97400000  0.41800000  0.79200000  1.0 -0.1922796536
C  C29  1  0.08200000  0.05600000  0.37400000  1.0 -0.1922796536
C  C30  1  0.31800000  0.44400000  0.52600000  1.0 -0.1922796536
C  C31  1  0.44400000  0.52600000  0.31800000  1.0 -0.1922796536
C  C32  1  0.70800000  0.12600000  0.18200000  1.0 -0.1922796536
C  C33  1  0.37400000  0.08200000  0.05600000  1.0 -0.1922796536
C  C34  1  0.12600000  0.18200000  0.70800000  1.0 -0.1922796536
C  C35  1  0.41800000  0.79200000  0.97400000  1.0 -0.1922796536
C  C36  1  0.18200000  0.70800000  0.12600000  1.0 -0.1922796536
C  C37  1  0.74480000  0.03370000  0.39790000  1.0 -0.1455526039
C  C38  1  0.13580000  0.34690000  0.10210000  1.0 -0.1455526039
C  C39  1  0.46630000  0.21110000  0.36420000  1.0 -0.1455526039
C  C40  1  0.03370000  0.39790000  0.74480000  1.0 -0.1455526039
C  C41  1  0.10210000  0.13580000  0.34690000  1.0 -0.1455526039
C  C42  1  0.21110000  0.36420000  0.46630000  1.0 -0.1455526039
C  C43  1  0.36420000  0.46630000  0.21110000  1.0 -0.1455526039
C  C44  1  0.75520000  0.15310000  0.28890000  1.0 -0.1455526039
C  C45  1  0.34690000  0.10210000  0.13580000  1.0 -0.1455526039
C  C46  1  0.15310000  0.28890000  0.75520000  1.0 -0.1455526039
C  C47  1  0.39790000  0.74480000  0.03370000  1.0 -0.1455526039
C  C48  1  0.28890000  0.75520000  0.15310000  1.0 -0.1455526039
C  C49  1  0.63840000  0.98830000  0.33390000  1.0 0.6308578653
C  C50  1  0.15440000  0.30450000  0.16610000  1.0 0.6308578653
C  C51  1  0.51170000  0.15010000  0.34560000  1.0 0.6308578653
C  C52  1  0.98830000  0.33390000  0.63840000  1.0 0.6308578653
C  C53  1  0.16610000  0.15440000  0.30450000  1.0 0.6308578653
C  C54  1  0.15010000  0.34560000  0.51170000  1.0 0.6308578653
C  C55  1  0.34560000  0.51170000  0.15010000  1.0 0.6308578653
C  C56  1  0.86160000  0.19550000  0.34990000  1.0 0.6308578653
C  C57  1  0.30450000  0.16610000  0.15440000  1.0 0.6308578653
C  C58  1  0.19550000  0.34990000  0.86160000  1.0 0.6308578653
C  C59  1  0.33390000  0.63840000  0.98830000  1.0 0.6308578653
C  C60  1  0.34990000  0.86160000  0.19550000  1.0 0.6308578653
C  C61  1  0.73760000  0.92400000  0.38860000  1.0 0.0732728557
C  C62  1  0.03540000  0.34900000  0.11140000  1.0 0.0732728557
C  C63  1  0.57600000  0.31360000  0.46460000  1.0 0.0732728557
C  C64  1  0.92400000  0.38860000  0.73760000  1.0 0.0732728557
C  C65  1  0.11140000  0.03540000  0.34900000  1.0 0.0732728557
C  C66  1  0.31360000  0.46460000  0.57600000  1.0 0.0732728557
C  C67  1  0.46460000  0.57600000  0.31360000  1.0 0.0732728557
C  C68  1  0.76240000  0.15100000  0.18640000  1.0 0.0732728557
C  C69  1  0.34900000  0.11140000  0.03540000  1.0 0.0732728557
C  C70  1  0.15100000  0.18640000  0.76240000  1.0 0.0732728557
C  C71  1  0.38860000  0.73760000  0.92400000  1.0 0.0732728557
C  C72  1  0.18640000  0.76240000  0.15100000  1.0 0.0732728557
C  C73  1  0.69160000  0.98410000  0.36590000  1.0 -0.0105876044
C  C74  1  0.11820000  0.32570000  0.13410000  1.0 -0.0105876044
C  C75  1  0.51590000  0.20750000  0.38180000  1.0 -0.0105876044
C  C76  1  0.98410000  0.36590000  0.69160000  1.0 -0.0105876044
C  C77  1  0.13410000  0.11820000  0.32570000  1.0 -0.0105876044
C  C78  1  0.20750000  0.38180000  0.51590000  1.0 -0.0105876044
C  C79  1  0.38180000  0.51590000  0.20750000  1.0 -0.0105876044
C  C80  1  0.80840000  0.17430000  0.29250000  1.0 -0.0105876044
C  C81  1  0.32570000  0.13410000  0.11820000  1.0 -0.0105876044
C  C82  1  0.17430000  0.29250000  0.80840000  1.0 -0.0105876044
C  C83  1  0.36590000  0.69160000  0.98410000  1.0 -0.0105876044
C  C84  1  0.29250000  0.80840000  0.17430000  1.0 -0.0105876044
C  C85  1  0.68660000  0.93250000  0.35750000  1.0 -0.1922796536
C  C86  1  0.07500000  0.32910000  0.14250000  1.0 -0.1922796536
C  C87  1  0.56750000  0.25410000  0.42500000  1.0 -0.1922796536
C  C88  1  0.93250000  0.35750000  0.68660000  1.0 -0.1922796536
C  C89  1  0.14250000  0.07500000  0.32910000  1.0 -0.1922796536
C  C90  1  0.25410000  0.42500000  0.56750000  1.0 -0.1922796536
C  C91  1  0.42500000  0.56750000  0.25410000  1.0 -0.1922796536
C  C92  1  0.81340000  0.17090000  0.24590000  1.0 -0.1922796536
C  C93  1  0.32910000  0.14250000  0.07500000  1.0 -0.1922796536
C  C94  1  0.17090000  0.24590000  0.81340000  1.0 -0.1922796536
C  C95  1  0.35750000  0.68660000  0.93250000  1.0 -0.1922796536
C  C96  1  0.24590000  0.81340000  0.17090000  1.0 -0.1922796536
C  C97  1  0.73020000  0.86330000  0.37790000  1.0 -0.2375797125
C  C98  1  0.98540000  0.35230000  0.12210000  1.0 -0.2375797125
C  C99  1  0.63670000  0.36690000  0.51460000  1.0 -0.2375797125
C  C100  1  0.86330000  0.37790000  0.73020000  1.0 -0.2375797125
C  C101  1  0.12210000  0.98540000  0.35230000  1.0 -0.2375797125
C  C102  1  0.36690000  0.51460000  0.63670000  1.0 -0.2375797125
C  C103  1  0.51460000  0.63670000  0.36690000  1.0 -0.2375797125
C  C104  1  0.76980000  0.14770000  0.13310000  1.0 -0.2375797125
C  C105  1  0.35230000  0.12210000  0.98540000  1.0 -0.2375797125
C  C106  1  0.14770000  0.13310000  0.76980000  1.0 -0.2375797125
C  C107  1  0.37790000  0.73020000  0.86330000  1.0 -0.2375797125
C  C108  1  0.13310000  0.76980000  0.14770000  1.0 -0.2375797125
C  C109  1  0.77740000  0.83020000  0.32720000  1.0 -0.0420766711
C  C110  1  0.00300000  0.45020000  0.17280000  1.0 -0.0420766711
C  C111  1  0.66980000  0.44720000  0.49700000  1.0 -0.0420766711
C  C112  1  0.83020000  0.32720000  0.77740000  1.0 -0.0420766711
C  C113  1  0.17280000  0.00300000  0.45020000  1.0 -0.0420766711
C  C114  1  0.44720000  0.49700000  0.66980000  1.0 -0.0420766711
C  C115  1  0.49700000  0.66980000  0.44720000  1.0 -0.0420766711
C  C116  1  0.72260000  0.04980000  0.05280000  1.0 -0.0420766711
C  C117  1  0.45020000  0.17280000  0.00300000  1.0 -0.0420766711
C  C118  1  0.04980000  0.05280000  0.72260000  1.0 -0.0420766711
C  C119  1  0.32720000  0.77740000  0.83020000  1.0 -0.0420766711
C  C120  1  0.05280000  0.72260000  0.04980000  1.0 -0.0420766711
C  C121  1  0.67790000  0.79660000  0.27490000  1.0 -0.0295217604
C  C122  1  0.02170000  0.40300000  0.22510000  1.0 -0.0295217604
C  C123  1  0.70340000  0.38130000  0.47830000  1.0 -0.0295217604
C  C124  1  0.79660000  0.27490000  0.67790000  1.0 -0.0295217604
C  C125  1  0.22510000  0.02170000  0.40300000  1.0 -0.0295217604
C  C126  1  0.38130000  0.47830000  0.70340000  1.0 -0.0295217604
C  C127  1  0.47830000  0.70340000  0.38130000  1.0 -0.0295217604
C  C128  1  0.82210000  0.09700000  0.11870000  1.0 -0.0295217604
C  C129  1  0.40300000  0.22510000  0.02170000  1.0 -0.0295217604
C  C130  1  0.09700000  0.11870000  0.82210000  1.0 -0.0295217604
C  C131  1  0.27490000  0.67790000  0.79660000  1.0 -0.0295217604
C  C132  1  0.11870000  0.82210000  0.09700000  1.0 -0.0295217604
C  C133  1  0.77840000  0.80030000  0.27530000  1.0 -0.2279988948
C  C134  1  0.02500000  0.50310000  0.22470000  1.0 -0.2279988948
C  C135  1  0.69970000  0.47810000  0.47500000  1.0 -0.2279988948
C  C136  1  0.80030000  0.27530000  0.77840000  1.0 -0.2279988948
C  C137  1  0.22470000  0.02500000  0.50310000  1.0 -0.2279988948
C  C138  1  0.47810000  0.47500000  0.69970000  1.0 -0.2279988948
C  C139  1  0.47500000  0.69970000  0.47810000  1.0 -0.2279988948
C  C140  1  0.72160000  0.99690000  0.02190000  1.0 -0.2279988948
C  C141  1  0.50310000  0.22470000  0.02500000  1.0 -0.2279988948
C  C142  1  0.99690000  0.02190000  0.72160000  1.0 -0.2279988948
C  C143  1  0.27530000  0.77840000  0.80030000  1.0 -0.2279988948
C  C144  1  0.02190000  0.72160000  0.99690000  1.0 -0.2279988948
C  C145  1  0.67800000  0.76700000  0.22560000  1.0 -0.2375797125
C  C146  1  0.04140000  0.45240000  0.27440000  1.0 -0.2375797125
C  C147  1  0.73300000  0.41100000  0.45860000  1.0 -0.2375797125
C  C148  1  0.76700000  0.22560000  0.67800000  1.0 -0.2279988948
C  C149  1  0.27440000  0.04140000  0.45240000  1.0 -0.2375797125
C  C150  1  0.41100000  0.45860000  0.73300000  1.0 -0.2375797125
C  C151  1  0.45860000  0.73300000  0.41100000  1.0 -0.2375797125
C  C152  1  0.82200000  0.04760000  0.08900000  1.0 -0.2279988948
C  C153  1  0.45240000  0.27440000  0.04140000  1.0 -0.2375797125
C  C154  1  0.04760000  0.08900000  0.82200000  1.0 -0.2375797125
C  C155  1  0.22560000  0.67800000  0.76700000  1.0 -0.2375797125
C  C156  1  0.08900000  0.82200000  0.04760000  1.0 -0.2375797125
C  C157  1  0.72620000  0.77030000  0.21870000  1.0 0.0898084929
C  C158  1  0.05160000  0.50750000  0.28130000  1.0 0.0898084929
C  C159  1  0.72970000  0.45590000  0.44840000  1.0 0.0898084929
C  C160  1  0.77030000  0.21870000  0.72620000  1.0 0.0898084929
C  C161  1  0.28130000  0.05160000  0.50750000  1.0 0.0898084929
C  C162  1  0.45590000  0.44840000  0.72970000  1.0 0.0898084929
C  C163  1  0.44840000  0.72970000  0.45590000  1.0 0.0898084929
C  C164  1  0.77380000  0.99250000  0.04410000  1.0 0.0898084929
C  C165  1  0.50750000  0.28130000  0.05160000  1.0 0.0898084929
C  C166  1  0.99250000  0.04410000  0.77380000  1.0 0.0898084929
C  C167  1  0.21870000  0.72620000  0.77030000  1.0 0.0898084929
C  C168  1  0.04410000  0.77380000  0.99250000  1.0 0.0898084929
C  C169  1  0.72930000  0.74120000  0.16550000  1.0 0.1012172131
C  C170  1  0.07570000  0.56380000  0.33450000  1.0 0.1012172131
C  C171  1  0.75880000  0.48810000  0.42430000  1.0 0.1012172131
C  C172  1  0.74120000  0.16550000  0.72930000  1.0 0.1012172131
C  C173  1  0.33450000  0.07570000  0.56380000  1.0 0.1012172131
C  C174  1  0.48810000  0.42430000  0.75880000  1.0 0.1012172131
C  C175  1  0.42430000  0.75880000  0.48810000  1.0 0.1012172131
C  C176  1  0.77070000  0.93620000  0.01190000  1.0 0.1012172131
C  C177  1  0.56380000  0.33450000  0.07570000  1.0 0.1012172131
C  C178  1  0.93620000  0.01190000  0.77070000  1.0 0.1012172131
C  C179  1  0.16550000  0.72930000  0.74120000  1.0 0.1012172131
C  C180  1  0.01190000  0.77070000  0.93620000  1.0 0.1012172131
C  C181  1  0.78460000  0.75250000  0.16550000  1.0 -0.2196692368
C  C182  1  0.08700000  0.61910000  0.33450000  1.0 -0.2196692368
C  C183  1  0.74750000  0.53210000  0.41300000  1.0 -0.2196692368
C  C184  1  0.75250000  0.16550000  0.78460000  1.0 -0.2196692368
C  C185  1  0.33450000  0.08700000  0.61910000  1.0 -0.2196692368
C  C186  1  0.53210000  0.41300000  0.74750000  1.0 -0.2196692368
C  C187  1  0.41300000  0.74750000  0.53210000  1.0 -0.2196692368
C  C188  1  0.71540000  0.88090000  0.96790000  1.0 -0.2196692368
C  C189  1  0.61910000  0.33450000  0.08700000  1.0 -0.2196692368
C  C190  1  0.88090000  0.96790000  0.71540000  1.0 -0.2196692368
C  C191  1  0.16550000  0.78460000  0.75250000  1.0 -0.2196692368
C  C192  1  0.96790000  0.71540000  0.88090000  1.0 -0.2196692368
C  C193  1  0.67330000  0.69750000  0.11180000  1.0 -0.2279988948
C  C194  1  0.08570000  0.56150000  0.38820000  1.0 -0.2279988948
C  C195  1  0.80250000  0.47580000  0.41430000  1.0 -0.2279988948
C  C196  1  0.69750000  0.11180000  0.67330000  1.0 -0.2279988948
C  C197  1  0.38820000  0.08570000  0.56150000  1.0 -0.2279988948
C  C198  1  0.47580000  0.41430000  0.80250000  1.0 -0.2279988948
C  C199  1  0.41430000  0.80250000  0.47580000  1.0 -0.2279988948
C  C200  1  0.82670000  0.93850000  0.02420000  1.0 -0.2279988948
C  C201  1  0.56150000  0.38820000  0.08570000  1.0 -0.2279988948
C  C202  1  0.93850000  0.02420000  0.82670000  1.0 -0.2279988948
C  C203  1  0.11180000  0.67330000  0.69750000  1.0 -0.2279988948
C  C204  1  0.02420000  0.82670000  0.93850000  1.0 -0.2279988948
C  C205  1  0.78380000  0.71960000  0.11520000  1.0 0.0591842281
C  C206  1  0.10440000  0.66860000  0.38480000  1.0 0.0591842281
C  C207  1  0.78040000  0.56420000  0.39560000  1.0 0.0591842281
C  C208  1  0.71960000  0.11520000  0.78380000  1.0 0.0591842281
C  C209  1  0.38480000  0.10440000  0.66860000  1.0 0.0591842281
C  C210  1  0.56420000  0.39560000  0.78040000  1.0 0.0591842281
C  C211  1  0.39560000  0.78040000  0.56420000  1.0 0.0591842281
C  C212  1  0.71620000  0.83140000  0.93580000  1.0 0.0591842281
C  C213  1  0.66860000  0.38480000  0.10440000  1.0 0.0591842281
C  C214  1  0.83140000  0.93580000  0.71620000  1.0 0.0591842281
C  C215  1  0.11520000  0.78380000  0.71960000  1.0 0.0591842281
C  C216  1  0.93580000  0.71620000  0.83140000  1.0 0.0591842281
C  C217  1  0.67740000  0.66666667  0.06060000  1.0 0.052134765
C  C218  1  0.10600000  0.61680000  0.43940000  1.0 0.052134765
C  C219  1  0.83340000  0.51080000  0.39400000  1.0 0.052134765
C  C220  1  0.66666667  0.06060000  0.67740000  1.0 0.052134765
C  C221  1  0.43940000  0.10600000  0.61680000  1.0 0.052134765
C  C222  1  0.51080000  0.39400000  0.83340000  1.0 0.052134765
C  C223  1  0.39400000  0.83340000  0.51080000  1.0 0.052134765
C  C224  1  0.82260000  0.88320000  0.98920000  1.0 0.052134765
C  C225  1  0.61680000  0.43940000  0.10600000  1.0 0.052134765
C  C226  1  0.88320000  0.98920000  0.82260000  1.0 0.052134765
C  C227  1  0.06060000  0.67740000  0.66666667  1.0 0.052134765
C  C228  1  0.98920000  0.82260000  0.88320000  1.0 0.052134765
C  C229  1  0.60050000  0.14190000  0.72820000  1.0 0.6308578653
C  C230  1  0.91370000  0.87230000  0.77180000  1.0 0.6308578653
C  C231  1  0.89950000  0.62770000  0.54140000  1.0 0.6308578653
C  C232  1  0.58630000  0.35810000  0.95860000  1.0 0.6308578653
C  C233  1  0.72820000  0.60050000  0.14190000  1.0 0.6308578653
C  C234  1  0.14190000  0.72820000  0.60050000  1.0 0.6308578653
C  C235  1  0.62770000  0.54140000  0.89950000  1.0 0.6308578653
C  C236  1  0.77180000  0.91370000  0.87230000  1.0 0.6308578653
C  C237  1  0.87230000  0.77180000  0.91370000  1.0 0.6308578653
C  C238  1  0.95860000  0.58630000  0.35810000  1.0 0.6308578653
C  C239  1  0.54140000  0.89950000  0.62770000  1.0 0.6308578653
C  C240  1  0.35810000  0.95860000  0.58630000  1.0 0.6308578653
C  C241  1  0.62800000  0.20270000  0.73270000  1.0 -0.0159064834
C  C242  1  0.97000000  0.89530000  0.76730000  1.0 -0.0159064834
C  C243  1  0.87200000  0.60470000  0.57470000  1.0 -0.0159064834
C  C244  1  0.53000000  0.29730000  0.92530000  1.0 -0.0159064834
C  C245  1  0.73270000  0.62800000  0.20270000  1.0 -0.0159064834
C  C246  1  0.20270000  0.73270000  0.62800000  1.0 -0.0159064834
C  C247  1  0.60470000  0.57470000  0.87200000  1.0 -0.0159064834
C  C248  1  0.76730000  0.97000000  0.89530000  1.0 -0.0159064834
C  C249  1  0.89530000  0.76730000  0.97000000  1.0 -0.0159064834
C  C250  1  0.92530000  0.53000000  0.29730000  1.0 -0.0159064834
C  C251  1  0.57470000  0.87200000  0.60470000  1.0 -0.0159064834
C  C252  1  0.29730000  0.92530000  0.53000000  1.0 -0.0159064834
C  C253  1  0.62600000  0.20800000  0.68200000  1.0 -0.1922796536
C  C254  1  0.02600000  0.94400000  0.81800000  1.0 -0.1922796536
C  C255  1  0.87400000  0.55600000  0.58200000  1.0 -0.1922796536
C  C256  1  0.47400000  0.29200000  0.91800000  1.0 -0.1922796536
C  C257  1  0.68200000  0.62600000  0.20800000  1.0 -0.1922796536
C  C258  1  0.20800000  0.68200000  0.62600000  1.0 -0.1922796536
C  C259  1  0.55600000  0.58200000  0.87400000  1.0 -0.1922796536
C  C260  1  0.81800000  0.02600000  0.94400000  1.0 -0.1922796536
C  C261  1  0.94400000  0.81800000  0.02600000  1.0 -0.1922796536
C  C262  1  0.91800000  0.47400000  0.29200000  1.0 -0.1922796536
C  C263  1  0.58200000  0.87400000  0.55600000  1.0 -0.1922796536
C  C264  1  0.29200000  0.91800000  0.47400000  1.0 -0.1922796536
C  C265  1  0.65310000  0.25520000  0.78890000  1.0 -0.1455526039
C  C266  1  0.96630000  0.86420000  0.71110000  1.0 -0.1455526039
C  C267  1  0.84690000  0.63580000  0.60210000  1.0 -0.1455526039
C  C268  1  0.53370000  0.24480000  0.89790000  1.0 -0.1455526039
C  C269  1  0.78890000  0.65310000  0.25520000  1.0 -0.1455526039
C  C270  1  0.25520000  0.78890000  0.65310000  1.0 -0.1455526039
C  C271  1  0.63580000  0.60210000  0.84690000  1.0 -0.1455526039
C  C272  1  0.71110000  0.96630000  0.86420000  1.0 -0.1455526039
C  C273  1  0.86420000  0.71110000  0.96630000  1.0 -0.1455526039
C  C274  1  0.89790000  0.53370000  0.24480000  1.0 -0.1455526039
C  C275  1  0.60210000  0.84690000  0.63580000  1.0 -0.1455526039
C  C276  1  0.24480000  0.89790000  0.53370000  1.0 -0.1455526039
C  C277  1  0.69550000  0.36160000  0.84990000  1.0 0.6308578653
C  C278  1  0.01170000  0.84560000  0.65010000  1.0 0.6308578653
C  C279  1  0.80450000  0.65440000  0.66610000  1.0 0.6308578653
C  C280  1  0.48830000  0.13840000  0.83390000  1.0 0.6308578653
C  C281  1  0.84990000  0.69550000  0.36160000  1.0 0.6308578653
C  C282  1  0.36160000  0.84990000  0.69550000  1.0 0.6308578653
C  C283  1  0.65440000  0.66610000  0.80450000  1.0 0.6308578653
C  C284  1  0.65010000  0.01170000  0.84560000  1.0 0.6308578653
C  C285  1  0.84560000  0.65010000  0.01170000  1.0 0.6308578653
C  C286  1  0.83390000  0.48830000  0.13840000  1.0 0.6308578653
C  C287  1  0.66610000  0.80450000  0.65440000  1.0 0.6308578653
C  C288  1  0.13840000  0.83390000  0.48830000  1.0 0.6308578653
C  C289  1  0.65100000  0.26240000  0.68640000  1.0 0.0732728557
C  C290  1  0.07600000  0.96460000  0.81360000  1.0 0.0732728557
C  C291  1  0.84900000  0.53540000  0.61140000  1.0 0.0732728557
C  C292  1  0.42400000  0.23760000  0.88860000  1.0 0.0732728557
C  C293  1  0.68640000  0.65100000  0.26240000  1.0 0.0732728557
C  C294  1  0.26240000  0.68640000  0.65100000  1.0 0.0732728557
C  C295  1  0.53540000  0.61140000  0.84900000  1.0 0.0732728557
C  C296  1  0.81360000  0.07600000  0.96460000  1.0 0.0732728557
C  C297  1  0.96460000  0.81360000  0.07600000  1.0 0.0732728557
C  C298  1  0.88860000  0.42400000  0.23760000  1.0 0.0732728557
C  C299  1  0.61140000  0.84900000  0.53540000  1.0 0.0732728557
C  C300  1  0.23760000  0.88860000  0.42400000  1.0 0.0732728557
C  C301  1  0.67430000  0.30840000  0.79250000  1.0 -0.0105876044
C  C302  1  0.01590000  0.88180000  0.70750000  1.0 -0.0105876044
C  C303  1  0.82570000  0.61820000  0.63410000  1.0 -0.0105876044
C  C304  1  0.48410000  0.19160000  0.86590000  1.0 -0.0105876044
C  C305  1  0.79250000  0.67430000  0.30840000  1.0 -0.0105876044
C  C306  1  0.30840000  0.79250000  0.67430000  1.0 -0.0105876044
C  C307  1  0.61820000  0.63410000  0.82570000  1.0 -0.0105876044
C  C308  1  0.70750000  0.01590000  0.88180000  1.0 -0.0105876044
C  C309  1  0.88180000  0.70750000  0.01590000  1.0 -0.0105876044
C  C310  1  0.86590000  0.48410000  0.19160000  1.0 -0.0105876044
C  C311  1  0.63410000  0.82570000  0.61820000  1.0 -0.0105876044
C  C312  1  0.19160000  0.86590000  0.48410000  1.0 -0.0105876044
C  C313  1  0.67090000  0.31340000  0.74590000  1.0 -0.1922796536
C  C314  1  0.06750000  0.92500000  0.75410000  1.0 -0.1922796536
C  C315  1  0.82910000  0.57500000  0.64250000  1.0 -0.1922796536
C  C316  1  0.43250000  0.18660000  0.85750000  1.0 -0.1922796536
C  C317  1  0.74590000  0.67090000  0.31340000  1.0 -0.1922796536
C  C318  1  0.31340000  0.74590000  0.67090000  1.0 -0.1922796536
C  C319  1  0.57500000  0.64250000  0.82910000  1.0 -0.1922796536
C  C320  1  0.75410000  0.06750000  0.92500000  1.0 -0.1922796536
C  C321  1  0.92500000  0.75410000  0.06750000  1.0 -0.1922796536
C  C322  1  0.85750000  0.43250000  0.18660000  1.0 -0.1922796536
C  C323  1  0.64250000  0.82910000  0.57500000  1.0 -0.1922796536
C  C324  1  0.18660000  0.85750000  0.43250000  1.0 -0.1922796536
C  C325  1  0.64770000  0.26980000  0.63310000  1.0 -0.2375797125
C  C326  1  0.13670000  0.01460000  0.86690000  1.0 -0.2375797125
C  C327  1  0.85230000  0.48540000  0.62210000  1.0 -0.2375797125
C  C328  1  0.36330000  0.23020000  0.87790000  1.0 -0.2375797125
C  C329  1  0.63310000  0.64770000  0.26980000  1.0 -0.2375797125
C  C330  1  0.26980000  0.63310000  0.64770000  1.0 -0.2375797125
C  C331  1  0.48540000  0.62210000  0.85230000  1.0 -0.2375797125
C  C332  1  0.86690000  0.13670000  0.01460000  1.0 -0.2375797125
C  C333  1  0.01460000  0.86690000  0.13670000  1.0 -0.2375797125
C  C334  1  0.87790000  0.36330000  0.23020000  1.0 -0.2375797125
C  C335  1  0.62210000  0.85230000  0.48540000  1.0 -0.2375797125
C  C336  1  0.23020000  0.87790000  0.36330000  1.0 -0.2375797125
C  C337  1  0.54980000  0.22260000  0.55280000  1.0 -0.0420766711
C  C338  1  0.16980000  0.99700000  0.94720000  1.0 -0.0420766711
C  C339  1  0.95020000  0.50300000  0.67280000  1.0 -0.0420766711
C  C340  1  0.33020000  0.27740000  0.82720000  1.0 -0.0420766711
C  C341  1  0.55280000  0.54980000  0.22260000  1.0 -0.0420766711
C  C342  1  0.22260000  0.55280000  0.54980000  1.0 -0.0420766711
C  C343  1  0.50300000  0.67280000  0.95020000  1.0 -0.0420766711
C  C344  1  0.94720000  0.16980000  0.99700000  1.0 -0.0420766711
C  C345  1  0.99700000  0.94720000  0.16980000  1.0 -0.0420766711
C  C346  1  0.82720000  0.33020000  0.27740000  1.0 -0.0420766711
C  C347  1  0.67280000  0.95020000  0.50300000  1.0 -0.0420766711
C  C348  1  0.27740000  0.82720000  0.33020000  1.0 -0.0420766711
C  C349  1  0.59700000  0.32210000  0.61870000  1.0 -0.0295217604
C  C350  1  0.20340000  0.97830000  0.88130000  1.0 -0.0295217604
C  C351  1  0.90300000  0.52170000  0.72510000  1.0 -0.0295217604
C  C352  1  0.29660000  0.17790000  0.77490000  1.0 -0.0295217604
C  C353  1  0.61870000  0.59700000  0.32210000  1.0 -0.0295217604
C  C354  1  0.32210000  0.61870000  0.59700000  1.0 -0.0295217604
C  C355  1  0.52170000  0.72510000  0.90300000  1.0 -0.0295217604
C  C356  1  0.88130000  0.20340000  0.97830000  1.0 -0.0295217604
C  C357  1  0.97830000  0.88130000  0.20340000  1.0 -0.0295217604
C  C358  1  0.77490000  0.29660000  0.17790000  1.0 -0.0295217604
C  C359  1  0.72510000  0.90300000  0.52170000  1.0 -0.0295217604
C  C360  1  0.17790000  0.77490000  0.29660000  1.0 -0.0295217604
C  C361  1  0.49690000  0.22160000  0.52190000  1.0 -0.2279988948
C  C362  1  0.19970000  0.97500000  0.97810000  1.0 -0.2279988948
C  C363  1  0.00310000  0.52500000  0.72470000  1.0 -0.2279988948
C  C364  1  0.30030000  0.27840000  0.77530000  1.0 -0.2279988948
C  C365  1  0.52190000  0.49690000  0.22160000  1.0 -0.2279988948
C  C366  1  0.22160000  0.52190000  0.49690000  1.0 -0.2279988948
C  C367  1  0.52500000  0.72470000  0.00310000  1.0 -0.2279988948
C  C368  1  0.97810000  0.19970000  0.97500000  1.0 -0.2279988948
C  C369  1  0.97500000  0.97810000  0.19970000  1.0 -0.2279988948
C  C370  1  0.77530000  0.30030000  0.27840000  1.0 -0.2279988948
C  C371  1  0.72470000  0.00310000  0.52500000  1.0 -0.2279988948
C  C372  1  0.27840000  0.77530000  0.30030000  1.0 -0.2279988948
C  C373  1  0.54760000  0.32200000  0.58900000  1.0 -0.2279988948
C  C374  1  0.23300000  0.95860000  0.91100000  1.0 -0.2375797125
C  C375  1  0.95240000  0.54140000  0.77440000  1.0 -0.2279988948
C  C376  1  0.26700000  0.17800000  0.72560000  1.0 -0.2375797125
C  C377  1  0.58900000  0.54760000  0.32200000  1.0 -0.2375797125
C  C378  1  0.32200000  0.58900000  0.54760000  1.0 -0.2375797125
C  C379  1  0.54140000  0.77440000  0.95240000  1.0 -0.2375797125
C  C380  1  0.91100000  0.23300000  0.95860000  1.0 -0.2279988948
C  C381  1  0.95860000  0.91100000  0.23300000  1.0 -0.2375797125
C  C382  1  0.72560000  0.26700000  0.17800000  1.0 -0.2375797125
C  C383  1  0.77440000  0.95240000  0.54140000  1.0 -0.2375797125
C  C384  1  0.17800000  0.72560000  0.26700000  1.0 -0.2375797125
C  C385  1  0.49250000  0.27380000  0.54410000  1.0 0.0898084929
C  C386  1  0.22970000  0.94840000  0.95590000  1.0 0.0898084929
C  C387  1  0.00750000  0.55160000  0.78130000  1.0 0.0898084929
C  C388  1  0.27030000  0.22620000  0.71870000  1.0 0.0898084929
C  C389  1  0.54410000  0.49250000  0.27380000  1.0 0.0898084929
C  C390  1  0.27380000  0.54410000  0.49250000  1.0 0.0898084929
C  C391  1  0.55160000  0.78130000  0.00750000  1.0 0.0898084929
C  C392  1  0.95590000  0.22970000  0.94840000  1.0 0.0898084929
C  C393  1  0.94840000  0.95590000  0.22970000  1.0 0.0898084929
C  C394  1  0.71870000  0.27030000  0.22620000  1.0 0.0898084929
C  C395  1  0.78130000  0.00750000  0.55160000  1.0 0.0898084929
C  C396  1  0.22620000  0.71870000  0.27030000  1.0 0.0898084929
C  C397  1  0.43620000  0.27070000  0.51190000  1.0 0.1012172131
C  C398  1  0.25880000  0.92430000  0.98810000  1.0 0.1012172131
C  C399  1  0.06380000  0.57570000  0.83450000  1.0 0.1012172131
C  C400  1  0.24120000  0.22930000  0.66550000  1.0 0.1012172131
C  C401  1  0.51190000  0.43620000  0.27070000  1.0 0.1012172131
C  C402  1  0.27070000  0.51190000  0.43620000  1.0 0.1012172131
C  C403  1  0.57570000  0.83450000  0.06380000  1.0 0.1012172131
C  C404  1  0.98810000  0.25880000  0.92430000  1.0 0.1012172131
C  C405  1  0.92430000  0.98810000  0.25880000  1.0 0.1012172131
C  C406  1  0.66550000  0.24120000  0.22930000  1.0 0.1012172131
C  C407  1  0.83450000  0.06380000  0.57570000  1.0 0.1012172131
C  C408  1  0.22930000  0.66550000  0.24120000  1.0 0.1012172131
C  C409  1  0.38090000  0.21540000  0.46790000  1.0 -0.2196692368
C  C410  1  0.24750000  0.91300000  0.03210000  1.0 -0.2196692368
C  C411  1  0.11910000  0.58700000  0.83450000  1.0 -0.2196692368
C  C412  1  0.25250000  0.28460000  0.66550000  1.0 -0.2196692368
C  C413  1  0.46790000  0.38090000  0.21540000  1.0 -0.2196692368
C  C414  1  0.21540000  0.46790000  0.38090000  1.0 -0.2196692368
C  C415  1  0.58700000  0.83450000  0.11910000  1.0 -0.2196692368
C  C416  1  0.03210000  0.24750000  0.91300000  1.0 -0.2196692368
C  C417  1  0.91300000  0.03210000  0.24750000  1.0 -0.2196692368
C  C418  1  0.66550000  0.25250000  0.28460000  1.0 -0.2196692368
C  C419  1  0.83450000  0.11910000  0.58700000  1.0 -0.2196692368
C  C420  1  0.28460000  0.66550000  0.25250000  1.0 -0.2196692368
C  C421  1  0.43850000  0.32670000  0.52420000  1.0 -0.2279988948
C  C422  1  0.30250000  0.91430000  0.97580000  1.0 -0.2279988948
C  C423  1  0.06150000  0.58570000  0.88820000  1.0 -0.2279988948
C  C424  1  0.19750000  0.17330000  0.61180000  1.0 -0.2279988948
C  C425  1  0.52420000  0.43850000  0.32670000  1.0 -0.2279988948
C  C426  1  0.32670000  0.52420000  0.43850000  1.0 -0.2279988948
C  C427  1  0.58570000  0.88820000  0.06150000  1.0 -0.2279988948
C  C428  1  0.97580000  0.30250000  0.91430000  1.0 -0.2279988948
C  C429  1  0.91430000  0.97580000  0.30250000  1.0 -0.2279988948
C  C430  1  0.61180000  0.19750000  0.17330000  1.0 -0.2279988948
C  C431  1  0.88820000  0.06150000  0.58570000  1.0 -0.2279988948
C  C432  1  0.17330000  0.61180000  0.19750000  1.0 -0.2279988948
C  C433  1  0.33140000  0.21620000  0.43580000  1.0 0.0591842281
C  C434  1  0.28040000  0.89560000  0.06420000  1.0 0.0591842281
C  C435  1  0.16860000  0.60440000  0.88480000  1.0 0.0591842281
C  C436  1  0.21960000  0.28380000  0.61520000  1.0 0.0591842281
C  C437  1  0.43580000  0.33140000  0.21620000  1.0 0.0591842281
C  C438  1  0.21620000  0.43580000  0.33140000  1.0 0.0591842281
C  C439  1  0.60440000  0.88480000  0.16860000  1.0 0.0591842281
C  C440  1  0.06420000  0.28040000  0.89560000  1.0 0.0591842281
C  C441  1  0.89560000  0.06420000  0.28040000  1.0 0.0591842281
C  C442  1  0.61520000  0.21960000  0.28380000  1.0 0.0591842281
C  C443  1  0.88480000  0.16860000  0.60440000  1.0 0.0591842281
C  C444  1  0.28380000  0.61520000  0.21960000  1.0 0.0591842281
C  C445  1  0.38320000  0.32260000  0.48920000  1.0 0.052134765
C  C446  1  0.33340000  0.89400000  0.01080000  1.0 0.052134765
C  C447  1  0.11680000  0.60600000  0.93940000  1.0 0.052134765
C  C448  1  0.16660000  0.17740000  0.56060000  1.0 0.052134765
C  C449  1  0.48920000  0.38320000  0.32260000  1.0 0.052134765
C  C450  1  0.32260000  0.48920000  0.38320000  1.0 0.052134765
C  C451  1  0.60600000  0.93940000  0.11680000  1.0 0.052134765
C  C452  1  0.01080000  0.33340000  0.89400000  1.0 0.052134765
C  C453  1  0.89400000  0.01080000  0.33340000  1.0 0.052134765
C  C454  1  0.56060000  0.16660000  0.17740000  1.0 0.052134765
C  C455  1  0.93940000  0.11680000  0.60600000  1.0 0.052134765
C  C456  1  0.17740000  0.56060000  0.16660000  1.0 0.052134765
N  N1  1  0.72840000  0.83070000  0.32430000  1.0 0.0782943731
N  N2  1  0.00640000  0.40410000  0.17570000  1.0 0.0782943731
N  N3  1  0.66930000  0.39770000  0.49360000  1.0 0.0782943731
N  N4  1  0.83070000  0.32430000  0.72840000  1.0 0.0782943731
N  N5  1  0.17570000  0.00640000  0.40410000  1.0 0.0782943731
N  N6  1  0.39770000  0.49360000  0.66930000  1.0 0.0782943731
N  N7  1  0.49360000  0.66930000  0.39770000  1.0 0.0782943731
N  N8  1  0.77160000  0.09590000  0.10230000  1.0 0.0782943731
N  N9  1  0.40410000  0.17570000  0.00640000  1.0 0.0782943731
N  N10  1  0.09590000  0.10230000  0.77160000  1.0 0.0782943731
N  N11  1  0.32430000  0.72840000  0.83070000  1.0 0.0782943731
N  N12  1  0.10230000  0.77160000  0.09590000  1.0 0.0782943731
N  N13  1  0.73150000  0.67800000  0.06110000  1.0 -0.2763949902
N  N14  1  0.11690000  0.67040000  0.43890000  1.0 -0.2763949902
N  N15  1  0.82200000  0.55350000  0.38310000  1.0 -0.2763949902
N  N16  1  0.67800000  0.06110000  0.73150000  1.0 -0.2763949902
N  N17  1  0.43890000  0.11690000  0.67040000  1.0 -0.2763949902
N  N18  1  0.55350000  0.38310000  0.82200000  1.0 -0.2763949902
N  N19  1  0.38310000  0.82200000  0.55350000  1.0 -0.2763949902
N  N20  1  0.76850000  0.82960000  0.94650000  1.0 -0.2763949902
N  N21  1  0.67040000  0.43890000  0.11690000  1.0 -0.2763949902
N  N22  1  0.82960000  0.94650000  0.76850000  1.0 -0.2763949902
N  N23  1  0.06110000  0.73150000  0.67800000  1.0 -0.2763949902
N  N24  1  0.94650000  0.76850000  0.82960000  1.0 -0.2763949902
N  N25  1  0.59590000  0.27160000  0.60230000  1.0 0.0782943731
N  N26  1  0.16930000  0.99360000  0.89770000  1.0 0.0782943731
N  N27  1  0.90410000  0.50640000  0.67570000  1.0 0.0782943731
N  N28  1  0.33070000  0.22840000  0.82430000  1.0 0.0782943731
N  N29  1  0.60230000  0.59590000  0.27160000  1.0 0.0782943731
N  N30  1  0.27160000  0.60230000  0.59590000  1.0 0.0782943731
N  N31  1  0.50640000  0.67570000  0.90410000  1.0 0.0782943731
N  N32  1  0.89770000  0.16930000  0.99360000  1.0 0.0782943731
N  N33  1  0.99360000  0.89770000  0.16930000  1.0 0.0782943731
N  N34  1  0.82430000  0.33070000  0.22840000  1.0 0.0782943731
N  N35  1  0.67570000  0.90410000  0.50640000  1.0 0.0782943731
N  N36  1  0.22840000  0.82430000  0.33070000  1.0 0.0782943731
N  N37  1  0.32960000  0.26850000  0.44650000  1.0 -0.2763949902
N  N38  1  0.32200000  0.88310000  0.05350000  1.0 -0.2763949902
N  N39  1  0.17040000  0.61690000  0.93890000  1.0 -0.2763949902
N  N40  1  0.17800000  0.23150000  0.56110000  1.0 -0.2763949902
N  N41  1  0.44650000  0.32960000  0.26850000  1.0 -0.2763949902
N  N42  1  0.26850000  0.44650000  0.32960000  1.0 -0.2763949902
N  N43  1  0.61690000  0.93890000  0.17040000  1.0 -0.2763949902
N  N44  1  0.05350000  0.32200000  0.88310000  1.0 -0.2763949902
N  N45  1  0.88310000  0.05350000  0.32200000  1.0 -0.2763949902
N  N46  1  0.56110000  0.17800000  0.23150000  1.0 -0.2763949902
N  N47  1  0.93890000  0.17040000  0.61690000  1.0 -0.2763949902
N  N48  1  0.23150000  0.56110000  0.17800000  1.0 -0.2763949902
O  O1  1  0.90460000  0.08100000  0.47080000  1.0 -0.7128442473
O  O2  1  0.11020000  0.43380000  0.02920000  1.0 -0.7128442473
O  O3  1  0.41900000  0.32360000  0.38980000  1.0 -0.7128442473
O  O4  1  0.08100000  0.47080000  0.90460000  1.0 -0.7128442473
O  O5  1  0.02920000  0.11020000  0.43380000  1.0 -0.7128442473
O  O6  1  0.32360000  0.38980000  0.41900000  1.0 -0.7128442473
O  O7  1  0.38980000  0.41900000  0.32360000  1.0 -0.7128442473
O  O8  1  0.59540000  0.06620000  0.17640000  1.0 -0.7128442473
O  O9  1  0.43380000  0.02920000  0.11020000  1.0 -0.7128442473
O  O10  1  0.06620000  0.17640000  0.59540000  1.0 -0.7128442473
O  O11  1  0.47080000  0.90460000  0.08100000  1.0 -0.7128442473
O  O12  1  0.17640000  0.59540000  0.06620000  1.0 -0.7128442473
O  O13  1  0.99130000  0.22520000  0.55550000  1.0 -1.1576569485
O  O14  1  0.16970000  0.43580000  0.94450000  1.0 -1.15387728
O  O15  1  0.27480000  0.26610000  0.33030000  1.0 -1.1576569485
O  O16  1  0.22520000  0.55550000  0.99130000  1.0 -1.15387728
O  O17  1  0.94450000  0.16970000  0.43580000  1.0 -1.1576569485
O  O18  1  0.26610000  0.33030000  0.27480000  1.0 -1.15387728
O  O19  1  0.33030000  0.27480000  0.26610000  1.0 -1.15387728
O  O20  1  0.50870000  0.06420000  0.23390000  1.0 -1.15387728
O  O21  1  0.43580000  0.94450000  0.16970000  1.0 -1.1576569485
O  O22  1  0.06420000  0.23390000  0.50870000  1.0 -1.15387728
O  O23  1  0.55550000  0.99130000  0.22520000  1.0 -1.1576569485
O  O24  1  0.23390000  0.50870000  0.06420000  1.0 -1.15387728
O  O25  1  0.85650000  0.13560000  0.47170000  1.0 -0.7289214528
O  O26  1  0.16390000  0.38480000  0.02830000  1.0 -0.7289214528
O  O27  1  0.36440000  0.22090000  0.33610000  1.0 -0.7289214528
O  O28  1  0.13560000  0.47170000  0.85650000  1.0 -0.7289214528
O  O29  1  0.02830000  0.16390000  0.38480000  1.0 -0.7289214528
O  O30  1  0.22090000  0.33610000  0.36440000  1.0 -0.7289214528
O  O31  1  0.33610000  0.36440000  0.22090000  1.0 -0.7289214528
O  O32  1  0.64350000  0.11520000  0.27910000  1.0 -0.7289214528
O  O33  1  0.38480000  0.02830000  0.16390000  1.0 -0.7289214528
O  O34  1  0.11520000  0.27910000  0.64350000  1.0 -0.7289214528
O  O35  1  0.47170000  0.85650000  0.13560000  1.0 -0.7289214528
O  O36  1  0.27910000  0.64350000  0.11520000  1.0 -0.7289214528
O  O37  1  0.00000000  0.29260000  0.50000000  1.0 -1.2802515971
O  O38  1  0.29260000  0.50000000  0.00000000  1.0 -1.2802515971
O  O39  1  0.20740000  0.20740000  0.20740000  1.0 -1.2802515971
O  O40  1  0.50000000  0.00000000  0.29260000  1.0 -1.2802515971
O  O41  1  0.64380000  0.03870000  0.34610000  1.0 -0.6764896459
O  O42  1  0.19260000  0.29770000  0.15390000  1.0 -0.6764896459
O  O43  1  0.46130000  0.10510000  0.30740000  1.0 -0.6764896459
O  O44  1  0.03870000  0.34610000  0.64380000  1.0 -0.6764896459
O  O45  1  0.15390000  0.19260000  0.29770000  1.0 -0.6764896459
O  O46  1  0.10510000  0.30740000  0.46130000  1.0 -0.6764896459
O  O47  1  0.30740000  0.46130000  0.10510000  1.0 -0.6764896459
O  O48  1  0.85620000  0.20230000  0.39490000  1.0 -0.6764896459
O  O49  1  0.29770000  0.15390000  0.19260000  1.0 -0.6764896459
O  O50  1  0.20230000  0.39490000  0.85620000  1.0 -0.6764896459
O  O51  1  0.34610000  0.64380000  0.03870000  1.0 -0.6764896459
O  O52  1  0.39490000  0.85620000  0.20230000  1.0 -0.6764896459
O  O53  1  0.58810000  0.93990000  0.29660000  1.0 -0.7160189074
O  O54  1  0.14330000  0.29150000  0.20340000  1.0 -0.7160189074
O  O55  1  0.56010000  0.14820000  0.35670000  1.0 -0.7160189074
O  O56  1  0.93990000  0.29660000  0.58810000  1.0 -0.7160189074
O  O57  1  0.20340000  0.14330000  0.29150000  1.0 -0.7160189074
O  O58  1  0.14820000  0.35670000  0.56010000  1.0 -0.7160189074
O  O59  1  0.35670000  0.56010000  0.14820000  1.0 -0.7160189074
O  O60  1  0.91190000  0.20850000  0.35180000  1.0 -0.7160189074
O  O61  1  0.29150000  0.20340000  0.14330000  1.0 -0.7160189074
O  O62  1  0.20850000  0.35180000  0.91190000  1.0 -0.7160189074
O  O63  1  0.29660000  0.58810000  0.93990000  1.0 -0.7160189074
O  O64  1  0.35180000  0.91190000  0.20850000  1.0 -0.7160189074
O  O65  1  0.56620000  0.09540000  0.67640000  1.0 -0.7128442473
O  O66  1  0.91900000  0.88980000  0.82360000  1.0 -0.7128442473
O  O67  1  0.93380000  0.61020000  0.52920000  1.0 -0.7128442473
O  O68  1  0.58100000  0.40460000  0.97080000  1.0 -0.7128442473
O  O69  1  0.67640000  0.56620000  0.09540000  1.0 -0.7128442473
O  O70  1  0.09540000  0.67640000  0.56620000  1.0 -0.7128442473
O  O71  1  0.61020000  0.52920000  0.93380000  1.0 -0.7128442473
O  O72  1  0.82360000  0.91900000  0.88980000  1.0 -0.7128442473
O  O73  1  0.88980000  0.82360000  0.91900000  1.0 -0.7128442473
O  O74  1  0.97080000  0.58100000  0.40460000  1.0 -0.7128442473
O  O75  1  0.52920000  0.93380000  0.61020000  1.0 -0.7128442473
O  O76  1  0.40460000  0.97080000  0.58100000  1.0 -0.7128442473
O  O77  1  0.56420000  0.00870000  0.73390000  1.0 -1.1576569485
O  O78  1  0.77480000  0.83030000  0.76610000  1.0 -1.15387728
O  O79  1  0.93580000  0.66970000  0.44450000  1.0 -1.1576569485
O  O80  1  0.72520000  0.49130000  0.05550000  1.0 -1.1576569485
O  O81  1  0.73390000  0.56420000  0.00870000  1.0 -1.15387728
O  O82  1  0.00870000  0.73390000  0.56420000  1.0 -1.15387728
O  O83  1  0.66970000  0.44450000  0.93580000  1.0 -1.15387728
O  O84  1  0.76610000  0.77480000  0.83030000  1.0 -1.1576569485
O  O85  1  0.83030000  0.76610000  0.77480000  1.0 -1.1576569485
O  O86  1  0.05550000  0.72520000  0.49130000  1.0 -1.15387728
O  O87  1  0.44450000  0.93580000  0.66970000  1.0 -1.15387728
O  O88  1  0.49130000  0.05550000  0.72520000  1.0 -1.15387728
O  O89  1  0.61520000  0.14350000  0.77910000  1.0 -0.7289214528
O  O90  1  0.86440000  0.83610000  0.72090000  1.0 -0.7289214528
O  O91  1  0.88480000  0.66390000  0.52830000  1.0 -0.7289214528
O  O92  1  0.63560000  0.35650000  0.97170000  1.0 -0.7289214528
O  O93  1  0.77910000  0.61520000  0.14350000  1.0 -0.7289214528
O  O94  1  0.14350000  0.77910000  0.61520000  1.0 -0.7289214528
O  O95  1  0.66390000  0.52830000  0.88480000  1.0 -0.7289214528
O  O96  1  0.72090000  0.86440000  0.83610000  1.0 -0.7289214528
O  O97  1  0.83610000  0.72090000  0.86440000  1.0 -0.7289214528
O  O98  1  0.97170000  0.63560000  0.35650000  1.0 -0.7289214528
O  O99  1  0.52830000  0.88480000  0.66390000  1.0 -0.7289214528
O  O100  1  0.35650000  0.97170000  0.63560000  1.0 -0.7289214528
O  O101  1  0.50000000  0.00000000  0.79260000  1.0 -1.2802515971
O  O102  1  0.70740000  0.70740000  0.70740000  1.0 -1.2802515971
O  O103  1  0.00000000  0.79260000  0.50000000  1.0 -1.2802515971
O  O104  1  0.79260000  0.50000000  0.00000000  1.0 -1.2802515971
O  O105  1  0.70230000  0.35620000  0.89490000  1.0 -0.6764896459
O  O106  1  0.96130000  0.80740000  0.60510000  1.0 -0.6764896459
O  O107  1  0.79770000  0.69260000  0.65390000  1.0 -0.6764896459
O  O108  1  0.53870000  0.14380000  0.84610000  1.0 -0.6764896459
O  O109  1  0.89490000  0.70230000  0.35620000  1.0 -0.6764896459
O  O110  1  0.35620000  0.89490000  0.70230000  1.0 -0.6764896459
O  O111  1  0.69260000  0.65390000  0.79770000  1.0 -0.6764896459
O  O112  1  0.60510000  0.96130000  0.80740000  1.0 -0.6764896459
O  O113  1  0.80740000  0.60510000  0.96130000  1.0 -0.6764896459
O  O114  1  0.84610000  0.53870000  0.14380000  1.0 -0.6764896459
O  O115  1  0.65390000  0.79770000  0.69260000  1.0 -0.6764896459
O  O116  1  0.14380000  0.84610000  0.53870000  1.0 -0.6764896459
O  O117  1  0.70850000  0.41190000  0.85180000  1.0 -0.7160189074
O  O118  1  0.06010000  0.85670000  0.64820000  1.0 -0.7160189074
O  O119  1  0.79150000  0.64330000  0.70340000  1.0 -0.7160189074
O  O120  1  0.43990000  0.08810000  0.79660000  1.0 -0.7160189074
O  O121  1  0.85180000  0.70850000  0.41190000  1.0 -0.7160189074
O  O122  1  0.41190000  0.85180000  0.70850000  1.0 -0.7160189074
O  O123  1  0.64330000  0.70340000  0.79150000  1.0 -0.7160189074
O  O124  1  0.64820000  0.06010000  0.85670000  1.0 -0.7160189074
O  O125  1  0.85670000  0.64820000  0.06010000  1.0 -0.7160189074
O  O126  1  0.79660000  0.43990000  0.08810000  1.0 -0.7160189074
O  O127  1  0.70340000  0.79150000  0.64330000  1.0 -0.7160189074
O  O128  1  0.08810000  0.79660000  0.43990000  1.0 -0.7160189074
