# DDEC6 charges by PACMAN v1.1 (https://github.com/mtap-research/PACMAN-charge/)
data_GUFXUD_ASR_pacman
_symmetry_space_group_name_H-M   'P 1'
_cell_length_a   11.77200000
_cell_length_b   12.74800000
_cell_length_c   23.64300000
_cell_angle_alpha   95.87500000
_cell_angle_beta   96.51100000
_cell_angle_gamma   101.30300000
_symmetry_Int_Tables_number   1
_chemical_formula_structural   Cd2H9C21NO8
_chemical_formula_sum   'Cd8 H36 C84 N4 O32'
_cell_volume   3428.45538202
_cell_formula_units_Z   4
loop_
 _symmetry_equiv_pos_site_id
 _symmetry_equiv_pos_as_xyz
  1  'x, y, z'
loop_
 _atom_site_type_symbol
 _atom_site_label
 _atom_site_symmetry_multiplicity
 _atom_site_fract_x
 _atom_site_fract_y
 _atom_site_fract_z
 _atom_site_occupancy
 _atom_site_charge
Cd  Cd1  1  0.49685000  0.98203000  0.29214000  1.0 1.096447336
Cd  Cd2  1  0.19189000  0.92959000  0.26615000  1.0 0.9902182692
Cd  Cd3  1  0.72043000  0.31903000  0.13238000  1.0 1.0433121197
Cd  Cd4  1  0.63699000  0.25286000  0.27250000  1.0 1.0008587115
Cd  Cd5  1  0.50315000  0.01797000  0.70786000  1.0 1.096447336
Cd  Cd6  1  0.80811000  0.07041000  0.73385000  1.0 0.9902182692
Cd  Cd7  1  0.27957000  0.68097000  0.86762000  1.0 1.0433121197
Cd  Cd8  1  0.36301000  0.74714000  0.72750000  1.0 1.0008587115
H  H1  1  0.36700000  0.02140000  0.48190000  1.0 0.1295215016
H  H2  1  0.36960000  0.98400000  0.57500000  1.0 0.1193337751
H  H3  1  0.29270000  0.66870000  0.51940000  1.0 0.1193337751
H  H4  1  0.14790000  0.57500000  0.44390000  1.0 0.1295215016
H  H5  1  0.10920000  0.43040000  0.37180000  1.0 0.1193337751
H  H6  1  0.21380000  0.44000000  0.29450000  1.0 0.1193337751
H  H7  1  0.45660000  0.47720000  0.28770000  1.0 0.1295215016
H  H8  1  0.05990000  0.29410000  0.17520000  1.0 0.1295215016
H  H9  1  0.56640000  0.90760000  0.13520000  1.0 0.1295215016
H  H10  1  0.48320000  0.79740000  0.05120000  1.0 0.1193337751
H  H11  1  0.29320000  0.01330000  0.00940000  1.0 0.1295215016
H  H12  1  0.40670000  0.24360000  0.03660000  1.0 0.1295215016
H  H13  1  0.34860000  0.40100000  0.06940000  1.0 0.1193337751
H  H14  1  0.25760000  0.40430000  0.15140000  1.0 0.1295215016
H  H15  1  0.18930000  0.16720000  0.34140000  1.0 0.1295215016
H  H16  1  0.00610000  0.20500000  0.32890000  1.0 0.1295215016
H  H17  1  0.54780000  0.60970000  0.14840000  1.0 0.1295215016
H  H18  1  0.43400000  0.73430000  0.16490000  1.0 0.1193337751
H  H19  1  0.63300000  0.97860000  0.51810000  1.0 0.1295215016
H  H20  1  0.63040000  0.01600000  0.42500000  1.0 0.1193337751
H  H21  1  0.70730000  0.33130000  0.48060000  1.0 0.1193337751
H  H22  1  0.85210000  0.42500000  0.55610000  1.0 0.1295215016
H  H23  1  0.89080000  0.56960000  0.62820000  1.0 0.1193337751
H  H24  1  0.78620000  0.56000000  0.70550000  1.0 0.1193337751
H  H25  1  0.54340000  0.52280000  0.71230000  1.0 0.1295215016
H  H26  1  0.94010000  0.70590000  0.82480000  1.0 0.1295215016
H  H27  1  0.43360000  0.09240000  0.86480000  1.0 0.1295215016
H  H28  1  0.51680000  0.20260000  0.94880000  1.0 0.1193337751
H  H29  1  0.70680000  0.98670000  0.99060000  1.0 0.1295215016
H  H30  1  0.59330000  0.75640000  0.96340000  1.0 0.1295215016
H  H31  1  0.65140000  0.59900000  0.93060000  1.0 0.1193337751
H  H32  1  0.74240000  0.59570000  0.84860000  1.0 0.1295215016
H  H33  1  0.81070000  0.83280000  0.65860000  1.0 0.1295215016
H  H34  1  0.99390000  0.79500000  0.67110000  1.0 0.1295215016
H  H35  1  0.45220000  0.39030000  0.85160000  1.0 0.1295215016
H  H36  1  0.56600000  0.26570000  0.83510000  1.0 0.1193337751
C  C1  1  0.29800000  0.75980000  0.24174000  1.0 0.5762788527
C  C2  1  0.37190000  0.67800000  0.23457000  1.0 -0.0503303945
C  C3  1  0.37730000  0.59880000  0.27161000  1.0 0.0265483376
C  C4  1  0.30780000  0.59090000  0.32083000  1.0 0.2156975292
C  C5  1  0.27330000  0.66780000  0.40765000  1.0 0.2103117926
C  C6  1  0.30320000  0.75980000  0.45432000  1.0 0.0111809079
C  C7  1  0.32820000  0.86670000  0.44370000  1.0 -0.0219154321
C  C8  1  0.32820000  0.90010000  0.38406000  1.0 0.6010231647
C  C9  1  0.35230000  0.95010000  0.48935000  1.0 -0.1289346841
C  C10  1  0.35450000  0.92790000  0.54498000  1.0 -0.0959153264
C  C11  1  0.33410000  0.82200000  0.55641000  1.0 -0.0219154321
C  C12  1  0.34260000  0.79670000  0.61707000  1.0 0.588737356
C  C13  1  0.30780000  0.73970000  0.51151000  1.0 -0.135859055
C  C14  1  0.18840000  0.57730000  0.41230000  1.0 -0.1907857745
C  C15  1  0.16540000  0.49170000  0.36960000  1.0 -0.042123945
C  C16  1  0.22670000  0.49780000  0.32350000  1.0 -0.1907857745
C  C17  1  0.45100000  0.52850000  0.26285000  1.0 -0.1462421394
C  C18  1  0.51680000  0.53280000  0.21774000  1.0 -0.0219154321
C  C19  1  0.59780000  0.45760000  0.20915000  1.0 0.588737356
C  C20  1  0.88950000  0.26600000  0.23867000  1.0 0.6010231647
C  C21  1  0.01310000  0.25060000  0.25015000  1.0 -0.0299803201
C  C22  1  0.08590000  0.26730000  0.20831000  1.0 -0.1289346841
C  C23  1  0.19670000  0.24480000  0.21496000  1.0 0.0210637287
C  C24  1  0.26510000  0.25210000  0.16565000  1.0 0.2103117926
C  C25  1  0.35660000  0.16160000  0.10087000  1.0 0.2103117926
C  C26  1  0.39740000  0.05990000  0.08501000  1.0 0.0265483376
C  C27  1  0.48230000  0.02830000  0.12209000  1.0 -0.0503303945
C  C28  1  0.54700000  0.10140000  0.17424000  1.0 0.6053055995
C  C29  1  0.51230000  0.92950000  0.10967000  1.0 -0.1102360476
C  C30  1  0.46210000  0.86330000  0.05952000  1.0 -0.1102360476
C  C31  1  0.38010000  0.89480000  0.02144000  1.0 -0.0088969218
C  C32  1  0.32990000  0.82260000  0.96654000  1.0 0.549242007
C  C33  1  0.34850000  0.99240000  0.03471000  1.0 -0.1289346841
C  C34  1  0.37230000  0.24780000  0.07003000  1.0 -0.1827488072
C  C35  1  0.33640000  0.34100000  0.08907000  1.0 -0.0219154321
C  C36  1  0.28240000  0.34280000  0.13756000  1.0 -0.1977084554
C  C37  1  0.23530000  0.20550000  0.26519000  1.0 -0.0503303945
C  C38  1  0.35320000  0.17600000  0.27436000  1.0 0.6010231647
C  C39  1  0.16310000  0.19180000  0.30758000  1.0 -0.1596505172
C  C40  1  0.05350000  0.21430000  0.30012000  1.0 -0.0959153264
C  C41  1  0.50710000  0.60860000  0.17989000  1.0 -0.1102360476
C  C42  1  0.43730000  0.68170000  0.18926000  1.0 -0.1243302389
C  C43  1  0.70200000  0.24020000  0.75826000  1.0 0.5762788527
C  C44  1  0.62810000  0.32200000  0.76543000  1.0 -0.0503303945
C  C45  1  0.62270000  0.40120000  0.72839000  1.0 0.0265483376
C  C46  1  0.69220000  0.40910000  0.67917000  1.0 0.2156975292
C  C47  1  0.72670000  0.33220000  0.59235000  1.0 0.2103117926
C  C48  1  0.69680000  0.24020000  0.54568000  1.0 0.0111809079
C  C49  1  0.67180000  0.13330000  0.55630000  1.0 -0.0219154321
C  C50  1  0.67180000  0.09990000  0.61594000  1.0 0.6010231647
C  C51  1  0.64770000  0.04990000  0.51065000  1.0 -0.1289346841
C  C52  1  0.64550000  0.07210000  0.45502000  1.0 -0.0959153264
C  C53  1  0.66590000  0.17800000  0.44359000  1.0 -0.0219154321
C  C54  1  0.65740000  0.20330000  0.38293000  1.0 0.588737356
C  C55  1  0.69220000  0.26030000  0.48849000  1.0 -0.135859055
C  C56  1  0.81160000  0.42270000  0.58770000  1.0 -0.1907857745
C  C57  1  0.83460000  0.50830000  0.63040000  1.0 -0.042123945
C  C58  1  0.77330000  0.50220000  0.67650000  1.0 -0.1907857745
C  C59  1  0.54900000  0.47150000  0.73715000  1.0 -0.1462421394
C  C60  1  0.48320000  0.46720000  0.78226000  1.0 -0.0219154321
C  C61  1  0.40220000  0.54240000  0.79085000  1.0 0.588737356
C  C62  1  0.11050000  0.73400000  0.76133000  1.0 0.6010231647
C  C63  1  0.98690000  0.74940000  0.74985000  1.0 -0.0299803201
C  C64  1  0.91410000  0.73270000  0.79169000  1.0 -0.1289346841
C  C65  1  0.80330000  0.75520000  0.78504000  1.0 0.0210637287
C  C66  1  0.73490000  0.74790000  0.83435000  1.0 0.2103117926
C  C67  1  0.64340000  0.83840000  0.89913000  1.0 0.2103117926
C  C68  1  0.60260000  0.94010000  0.91499000  1.0 0.0265483376
C  C69  1  0.51770000  0.97170000  0.87791000  1.0 -0.0503303945
C  C70  1  0.45300000  0.89860000  0.82576000  1.0 0.6053055995
C  C71  1  0.48770000  0.07050000  0.89033000  1.0 -0.1102360476
C  C72  1  0.53790000  0.13670000  0.94048000  1.0 -0.1102360476
C  C73  1  0.61990000  0.10520000  0.97856000  1.0 -0.0088969218
C  C74  1  0.67010000  0.17740000  0.03346000  1.0 0.549242007
C  C75  1  0.65150000  0.00760000  0.96529000  1.0 -0.1289346841
C  C76  1  0.62770000  0.75220000  0.92997000  1.0 -0.1827488072
C  C77  1  0.66360000  0.65900000  0.91093000  1.0 -0.0219154321
C  C78  1  0.71760000  0.65720000  0.86244000  1.0 -0.1977084554
C  C79  1  0.76470000  0.79450000  0.73481000  1.0 -0.0503303945
C  C80  1  0.64680000  0.82400000  0.72564000  1.0 0.6010231647
C  C81  1  0.83690000  0.80820000  0.69242000  1.0 -0.1596505172
C  C82  1  0.94650000  0.78570000  0.69988000  1.0 -0.0959153264
C  C83  1  0.49290000  0.39140000  0.82011000  1.0 -0.1102360476
C  C84  1  0.56270000  0.31830000  0.81074000  1.0 -0.1243302389
N  N1  1  0.33110000  0.67490000  0.36227000  1.0 -0.3146903045
N  N2  1  0.30240000  0.16240000  0.14813000  1.0 -0.3260929711
N  N3  1  0.66890000  0.32510000  0.63773000  1.0 -0.3146903045
N  N4  1  0.69760000  0.83760000  0.85187000  1.0 -0.3260929711
O  O1  1  0.34550000  0.85700000  0.23807000  1.0 -0.6016938365
O  O2  1  0.19340000  0.73390000  0.24770000  1.0 -0.4998034762
O  O3  1  0.42650000  0.92580000  0.36858000  1.0 -0.5625228411
O  O4  1  0.23050000  0.90170000  0.35715000  1.0 -0.5493691392
O  O5  1  0.37110000  0.87360000  0.65745000  1.0 -0.5871041543
O  O6  1  0.32020000  0.70110000  0.62679000  1.0 -0.4998034762
O  O7  1  0.61860000  0.43770000  0.15870000  1.0 -0.5493691392
O  O8  1  0.86580000  0.30970000  0.19523000  1.0 -0.5691672789
O  O9  1  0.82130000  0.23380000  0.27227000  1.0 -0.5164369471
O  O10  1  0.64170000  0.42260000  0.25267000  1.0 -0.5493691392
O  O11  1  0.57160000  0.06070000  0.21922000  1.0 -0.5691672789
O  O12  1  0.57750000  0.20050000  0.17203000  1.0 -0.5625228411
O  O13  1  0.35910000  0.73220000  0.95914000  1.0 -0.5691672789
O  O14  1  0.26330000  0.85190000  0.92924000  1.0 -0.5493691392
O  O15  1  0.35150000  0.07840000  0.28251000  1.0 -0.6016938365
O  O16  1  0.44090000  0.24650000  0.27432000  1.0 -0.4998034762
O  O17  1  0.65450000  0.14300000  0.76193000  1.0 -0.6016938365
O  O18  1  0.80660000  0.26610000  0.75230000  1.0 -0.4998034762
O  O19  1  0.57350000  0.07420000  0.63142000  1.0 -0.5625228411
O  O20  1  0.76950000  0.09830000  0.64285000  1.0 -0.5493691392
O  O21  1  0.62890000  0.12640000  0.34255000  1.0 -0.5871041543
O  O22  1  0.67980000  0.29890000  0.37321000  1.0 -0.4998034762
O  O23  1  0.38140000  0.56230000  0.84130000  1.0 -0.5493691392
O  O24  1  0.13420000  0.69030000  0.80477000  1.0 -0.5691672789
O  O25  1  0.17870000  0.76620000  0.72773000  1.0 -0.5164369471
O  O26  1  0.35830000  0.57740000  0.74733000  1.0 -0.5493691392
O  O27  1  0.42840000  0.93930000  0.78078000  1.0 -0.5691672789
O  O28  1  0.42250000  0.79950000  0.82797000  1.0 -0.5625228411
O  O29  1  0.64090000  0.26780000  0.04086000  1.0 -0.5691672789
O  O30  1  0.73670000  0.14810000  0.07076000  1.0 -0.5493691392
O  O31  1  0.64850000  0.92160000  0.71749000  1.0 -0.6016938365
O  O32  1  0.55910000  0.75350000  0.72568000  1.0 -0.4998034762
