# DDEC6 charges by PACMAN v1.1 (https://github.com/mtap-research/PACMAN-charge/)
data_GUGJEZ_ASR_pacman
_symmetry_space_group_name_H-M   'P 1'
_cell_length_a   31.10750000
_cell_length_b   31.10750000
_cell_length_c   31.10750000
_cell_angle_alpha   110.34300000
_cell_angle_beta   110.34300000
_cell_angle_gamma   110.34300000
_symmetry_Int_Tables_number   1
_chemical_formula_structural   Zn4H21C42N3O13
_chemical_formula_sum   'Zn32 H168 C336 N24 O104'
_cell_volume   22393.41503050
_cell_formula_units_Z   8
loop_
 _symmetry_equiv_pos_site_id
 _symmetry_equiv_pos_as_xyz
  1  'x, y, z'
loop_
 _atom_site_type_symbol
 _atom_site_label
 _atom_site_symmetry_multiplicity
 _atom_site_fract_x
 _atom_site_fract_y
 _atom_site_fract_z
 _atom_site_occupancy
 _atom_site_charge
Zn  Zn1  1  0.57960000  0.44680000  0.94180000  1.0 0.9185919443
Zn  Zn2  1  0.44680000  0.94180000  0.57960000  1.0 0.9185919443
Zn  Zn3  1  0.94180000  0.57960000  0.44680000  1.0 0.9185919443
Zn  Zn4  1  0.62530000  0.37280000  0.91400000  1.0 0.8896428823
Zn  Zn5  1  0.37280000  0.91400000  0.62530000  1.0 0.8896428823
Zn  Zn6  1  0.91400000  0.62530000  0.37280000  1.0 0.8896428823
Zn  Zn7  1  0.66360000  0.47450000  0.90540000  1.0 0.9263039112
Zn  Zn8  1  0.47450000  0.90540000  0.66360000  1.0 0.9263039112
Zn  Zn9  1  0.90540000  0.66360000  0.47450000  1.0 0.9263039112
Zn  Zn10  1  0.70600000  0.49000000  0.02180000  1.0 0.9684383253
Zn  Zn11  1  0.49000000  0.02180000  0.70600000  1.0 0.9684383253
Zn  Zn12  1  0.02180000  0.70600000  0.49000000  1.0 0.9684383253
Zn  Zn13  1  0.74970000  0.70410000  0.77480000  1.0 0.9574732363
Zn  Zn14  1  0.70410000  0.77480000  0.74970000  1.0 0.9574732363
Zn  Zn15  1  0.77480000  0.74970000  0.70410000  1.0 0.9574732363
Zn  Zn16  1  0.82877000  0.82877000  0.82877000  1.0 0.8896428823
Zn  Zn17  1  0.42040000  0.55320000  0.05820000  1.0 0.9185919443
Zn  Zn18  1  0.55320000  0.05820000  0.42040000  1.0 0.9185919443
Zn  Zn19  1  0.05820000  0.42040000  0.55320000  1.0 0.9185919443
Zn  Zn20  1  0.37470000  0.62720000  0.08600000  1.0 0.8896428823
Zn  Zn21  1  0.62720000  0.08600000  0.37470000  1.0 0.8896428823
Zn  Zn22  1  0.08600000  0.37470000  0.62720000  1.0 0.8896428823
Zn  Zn23  1  0.33640000  0.52550000  0.09460000  1.0 0.9263039112
Zn  Zn24  1  0.52550000  0.09460000  0.33640000  1.0 0.9263039112
Zn  Zn25  1  0.09460000  0.33640000  0.52550000  1.0 0.9263039112
Zn  Zn26  1  0.29400000  0.51000000  0.97820000  1.0 0.9684383253
Zn  Zn27  1  0.51000000  0.97820000  0.29400000  1.0 0.9684383253
Zn  Zn28  1  0.97820000  0.29400000  0.51000000  1.0 0.9684383253
Zn  Zn29  1  0.25030000  0.29590000  0.22520000  1.0 0.9574732363
Zn  Zn30  1  0.29590000  0.22520000  0.25030000  1.0 0.9574732363
Zn  Zn31  1  0.22520000  0.25030000  0.29590000  1.0 0.9574732363
Zn  Zn32  1  0.17123000  0.17123000  0.17123000  1.0 0.8896428823
H  H1  1  0.69000000  0.40440000  0.77990000  1.0 0.1097371401
H  H2  1  0.40440000  0.77990000  0.69000000  1.0 0.1097371401
H  H3  1  0.77990000  0.69000000  0.40440000  1.0 0.1097371401
H  H4  1  0.69100000  0.36040000  0.70440000  1.0 0.1394532631
H  H5  1  0.36040000  0.70440000  0.69100000  1.0 0.1394532631
H  H6  1  0.70440000  0.69100000  0.36040000  1.0 0.1309442037
H  H7  1  0.60580000  0.27240000  0.76990000  1.0 0.1394532631
H  H8  1  0.27240000  0.76990000  0.60580000  1.0 0.1394532631
H  H9  1  0.76990000  0.60580000  0.27240000  1.0 0.1394532631
H  H10  1  0.60650000  0.14130000  0.57150000  1.0 0.1309442037
H  H11  1  0.14130000  0.57150000  0.60650000  1.0 0.1309442037
H  H12  1  0.57150000  0.60650000  0.14130000  1.0 0.1309442037
H  H13  1  0.55440000  0.06440000  0.56820000  1.0 0.1215079353
H  H14  1  0.06440000  0.56820000  0.55440000  1.0 0.1215079353
H  H15  1  0.56820000  0.55440000  0.06440000  1.0 0.1215079353
H  H16  1  0.55830000  0.15700000  0.69910000  1.0 0.1394532631
H  H17  1  0.15700000  0.69910000  0.55830000  1.0 0.1394532631
H  H18  1  0.69910000  0.55830000  0.15700000  1.0 0.1394532631
H  H19  1  0.42910000  0.31950000  0.89320000  1.0 0.1215079353
H  H20  1  0.31950000  0.89320000  0.42910000  1.0 0.1215079353
H  H21  1  0.89320000  0.42910000  0.31950000  1.0 0.1215079353
H  H22  1  0.47620000  0.22530000  0.82420000  1.0 0.1394532631
H  H23  1  0.22530000  0.82420000  0.47620000  1.0 0.1394532631
H  H24  1  0.82420000  0.47620000  0.22530000  1.0 0.1394532631
H  H25  1  0.34470000  0.24330000  0.85220000  1.0 0.1309442037
H  H26  1  0.24330000  0.85220000  0.34470000  1.0 0.1309442037
H  H27  1  0.85220000  0.34470000  0.24330000  1.0 0.1309442037
H  H28  1  0.42850000  0.11270000  0.75350000  1.0 0.1309442037
H  H29  1  0.11270000  0.75350000  0.42850000  1.0 0.1309442037
H  H30  1  0.75350000  0.42850000  0.11270000  1.0 0.1309442037
H  H31  1  0.25610000  0.02740000  0.72320000  1.0 0.1309442037
H  H32  1  0.02740000  0.72320000  0.25610000  1.0 0.1309442037
H  H33  1  0.72320000  0.25610000  0.02740000  1.0 0.1309442037
H  H34  1  0.28460000  0.97680000  0.67990000  1.0 0.1215079353
H  H35  1  0.97680000  0.67990000  0.28460000  1.0 0.1215079353
H  H36  1  0.67990000  0.28460000  0.97680000  1.0 0.1215079353
H  H37  1  0.80870000  0.64800000  0.09380000  1.0 0.1309442037
H  H38  1  0.64800000  0.09380000  0.80870000  1.0 0.1309442037
H  H39  1  0.09380000  0.80870000  0.64800000  1.0 0.1309442037
H  H40  1  0.78370000  0.63260000  0.95210000  1.0 0.1309442037
H  H41  1  0.63260000  0.95210000  0.78370000  1.0 0.1309442037
H  H42  1  0.95210000  0.78370000  0.63260000  1.0 0.1309442037
H  H43  1  0.87330000  0.73950000  0.13930000  1.0 0.1309442037
H  H44  1  0.73950000  0.13930000  0.87330000  1.0 0.1309442037
H  H45  1  0.13930000  0.87330000  0.73950000  1.0 0.1309442037
H  H46  1  0.81200000  0.70550000  0.91660000  1.0 0.1309442037
H  H47  1  0.70550000  0.91660000  0.81200000  1.0 0.1309442037
H  H48  1  0.91660000  0.81200000  0.70550000  1.0 0.1309442037
H  H49  1  0.93840000  0.87890000  0.06860000  1.0 0.1215079353
H  H50  1  0.87890000  0.06860000  0.93840000  1.0 0.1215079353
H  H51  1  0.06860000  0.93840000  0.87890000  1.0 0.1215079353
H  H52  1  0.90710000  0.86540000  0.98290000  1.0 0.1215079353
H  H53  1  0.86540000  0.98290000  0.90710000  1.0 0.1215079353
H  H54  1  0.98290000  0.90710000  0.86540000  1.0 0.1215079353
H  H55  1  0.59600000  0.54560000  0.82870000  1.0 0.1394532631
H  H56  1  0.54560000  0.82870000  0.59600000  1.0 0.1394532631
H  H57  1  0.82870000  0.59600000  0.54560000  1.0 0.1394532631
H  H58  1  0.47410000  0.46070000  0.83480000  1.0 0.1097371401
H  H59  1  0.46070000  0.83480000  0.47410000  1.0 0.1097371401
H  H60  1  0.83480000  0.47410000  0.46070000  1.0 0.1097371401
H  H61  1  0.42330000  0.48770000  0.79320000  1.0 0.1215079353
H  H62  1  0.48770000  0.79320000  0.42330000  1.0 0.1215079353
H  H63  1  0.79320000  0.42330000  0.48770000  1.0 0.1215079353
H  H64  1  0.62200000  0.60940000  0.78630000  1.0 0.1394532631
H  H65  1  0.60940000  0.78630000  0.62200000  1.0 0.1309442037
H  H66  1  0.78630000  0.62200000  0.60940000  1.0 0.1309442037
H  H67  1  0.46710000  0.61680000  0.71450000  1.0 0.1309442037
H  H68  1  0.61680000  0.71450000  0.46710000  1.0 0.1309442037
H  H69  1  0.71450000  0.46710000  0.61680000  1.0 0.1309442037
H  H70  1  0.54100000  0.67080000  0.71710000  1.0 0.1309442037
H  H71  1  0.67080000  0.71710000  0.54100000  1.0 0.1309442037
H  H72  1  0.71710000  0.54100000  0.67080000  1.0 0.1309442037
H  H73  1  0.65500000  0.25240000  0.62970000  1.0 0.2900309916
H  H74  1  0.25240000  0.62970000  0.65500000  1.0 0.2900309916
H  H75  1  0.62970000  0.65500000  0.25240000  1.0 0.2900309916
H  H76  1  0.29810000  0.13240000  0.80450000  1.0 0.2900309916
H  H77  1  0.13240000  0.80450000  0.29810000  1.0 0.2900309916
H  H78  1  0.80450000  0.29810000  0.13240000  1.0 0.2900309916
H  H79  1  0.91070000  0.82800000  0.12620000  1.0 0.3102774202
H  H80  1  0.82800000  0.12620000  0.91070000  1.0 0.3102774202
H  H81  1  0.12620000  0.91070000  0.82800000  1.0 0.3102774202
H  H82  1  0.43630000  0.56290000  0.74730000  1.0 0.2900309916
H  H83  1  0.56290000  0.74730000  0.43630000  1.0 0.2900309916
H  H84  1  0.74730000  0.43630000  0.56290000  1.0 0.2900309916
H  H85  1  0.31000000  0.59560000  0.22010000  1.0 0.1097371401
H  H86  1  0.59560000  0.22010000  0.31000000  1.0 0.1097371401
H  H87  1  0.22010000  0.31000000  0.59560000  1.0 0.1097371401
H  H88  1  0.30900000  0.63960000  0.29560000  1.0 0.1309442037
H  H89  1  0.63960000  0.29560000  0.30900000  1.0 0.1394532631
H  H90  1  0.29560000  0.30900000  0.63960000  1.0 0.1394532631
H  H91  1  0.39420000  0.72760000  0.23010000  1.0 0.1394532631
H  H92  1  0.72760000  0.23010000  0.39420000  1.0 0.1394532631
H  H93  1  0.23010000  0.39420000  0.72760000  1.0 0.1394532631
H  H94  1  0.39350000  0.85870000  0.42850000  1.0 0.1309442037
H  H95  1  0.85870000  0.42850000  0.39350000  1.0 0.1309442037
H  H96  1  0.42850000  0.39350000  0.85870000  1.0 0.1309442037
H  H97  1  0.44560000  0.93560000  0.43180000  1.0 0.1215079353
H  H98  1  0.93560000  0.43180000  0.44560000  1.0 0.1215079353
H  H99  1  0.43180000  0.44560000  0.93560000  1.0 0.1215079353
H  H100  1  0.44170000  0.84300000  0.30090000  1.0 0.1394532631
H  H101  1  0.84300000  0.30090000  0.44170000  1.0 0.1394532631
H  H102  1  0.30090000  0.44170000  0.84300000  1.0 0.1394532631
H  H103  1  0.57090000  0.68050000  0.10680000  1.0 0.1215079353
H  H104  1  0.68050000  0.10680000  0.57090000  1.0 0.1215079353
H  H105  1  0.10680000  0.57090000  0.68050000  1.0 0.1215079353
H  H106  1  0.52380000  0.77470000  0.17580000  1.0 0.1394532631
H  H107  1  0.77470000  0.17580000  0.52380000  1.0 0.1394532631
H  H108  1  0.17580000  0.52380000  0.77470000  1.0 0.1394532631
H  H109  1  0.65530000  0.75670000  0.14780000  1.0 0.1309442037
H  H110  1  0.75670000  0.14780000  0.65530000  1.0 0.1309442037
H  H111  1  0.14780000  0.65530000  0.75670000  1.0 0.1309442037
H  H112  1  0.57150000  0.88730000  0.24650000  1.0 0.1309442037
H  H113  1  0.88730000  0.24650000  0.57150000  1.0 0.1309442037
H  H114  1  0.24650000  0.57150000  0.88730000  1.0 0.1309442037
H  H115  1  0.74390000  0.97260000  0.27680000  1.0 0.1309442037
H  H116  1  0.97260000  0.27680000  0.74390000  1.0 0.1309442037
H  H117  1  0.27680000  0.74390000  0.97260000  1.0 0.1309442037
H  H118  1  0.71540000  0.02320000  0.32010000  1.0 0.1215079353
H  H119  1  0.02320000  0.32010000  0.71540000  1.0 0.1215079353
H  H120  1  0.32010000  0.71540000  0.02320000  1.0 0.1215079353
H  H121  1  0.19130000  0.35200000  0.90620000  1.0 0.1309442037
H  H122  1  0.35200000  0.90620000  0.19130000  1.0 0.1309442037
H  H123  1  0.90620000  0.19130000  0.35200000  1.0 0.1309442037
H  H124  1  0.21630000  0.36740000  0.04790000  1.0 0.1309442037
H  H125  1  0.36740000  0.04790000  0.21630000  1.0 0.1309442037
H  H126  1  0.04790000  0.21630000  0.36740000  1.0 0.1309442037
H  H127  1  0.12670000  0.26050000  0.86070000  1.0 0.1309442037
H  H128  1  0.26050000  0.86070000  0.12670000  1.0 0.1309442037
H  H129  1  0.86070000  0.12670000  0.26050000  1.0 0.1309442037
H  H130  1  0.18800000  0.29450000  0.08340000  1.0 0.1309442037
H  H131  1  0.29450000  0.08340000  0.18800000  1.0 0.1309442037
H  H132  1  0.08340000  0.18800000  0.29450000  1.0 0.1309442037
H  H133  1  0.06160000  0.12110000  0.93140000  1.0 0.1215079353
H  H134  1  0.12110000  0.93140000  0.06160000  1.0 0.1215079353
H  H135  1  0.93140000  0.06160000  0.12110000  1.0 0.1215079353
H  H136  1  0.09290000  0.13460000  0.01710000  1.0 0.1215079353
H  H137  1  0.13460000  0.01710000  0.09290000  1.0 0.1215079353
H  H138  1  0.01710000  0.09290000  0.13460000  1.0 0.1215079353
H  H139  1  0.40400000  0.45440000  0.17130000  1.0 0.1394532631
H  H140  1  0.45440000  0.17130000  0.40400000  1.0 0.1394532631
H  H141  1  0.17130000  0.40400000  0.45440000  1.0 0.1394532631
H  H142  1  0.52590000  0.53930000  0.16520000  1.0 0.1097371401
H  H143  1  0.53930000  0.16520000  0.52590000  1.0 0.1097371401
H  H144  1  0.16520000  0.52590000  0.53930000  1.0 0.1097371401
H  H145  1  0.57670000  0.51230000  0.20680000  1.0 0.1215079353
H  H146  1  0.51230000  0.20680000  0.57670000  1.0 0.1215079353
H  H147  1  0.20680000  0.57670000  0.51230000  1.0 0.1215079353
H  H148  1  0.37800000  0.39060000  0.21370000  1.0 0.1394532631
H  H149  1  0.39060000  0.21370000  0.37800000  1.0 0.1394532631
H  H150  1  0.21370000  0.37800000  0.39060000  1.0 0.1394532631
H  H151  1  0.53290000  0.38320000  0.28550000  1.0 0.1309442037
H  H152  1  0.38320000  0.28550000  0.53290000  1.0 0.1309442037
H  H153  1  0.28550000  0.53290000  0.38320000  1.0 0.1309442037
H  H154  1  0.45900000  0.32920000  0.28290000  1.0 0.1309442037
H  H155  1  0.32920000  0.28290000  0.45900000  1.0 0.1309442037
H  H156  1  0.28290000  0.45900000  0.32920000  1.0 0.1309442037
H  H157  1  0.34500000  0.74760000  0.37030000  1.0 0.2900309916
H  H158  1  0.74760000  0.37030000  0.34500000  1.0 0.2900309916
H  H159  1  0.37030000  0.34500000  0.74760000  1.0 0.2900309916
H  H160  1  0.70190000  0.86760000  0.19550000  1.0 0.2965737164
H  H161  1  0.86760000  0.19550000  0.70190000  1.0 0.2900309916
H  H162  1  0.19550000  0.70190000  0.86760000  1.0 0.2900309916
H  H163  1  0.08930000  0.17200000  0.87380000  1.0 0.3102774202
H  H164  1  0.17200000  0.87380000  0.08930000  1.0 0.3102774202
H  H165  1  0.87380000  0.08930000  0.17200000  1.0 0.3102774202
H  H166  1  0.56370000  0.43710000  0.25270000  1.0 0.2900309916
H  H167  1  0.43710000  0.25270000  0.56370000  1.0 0.2900309916
H  H168  1  0.25270000  0.56370000  0.43710000  1.0 0.2900309916
C  C1  1  0.64520000  0.37100000  0.83680000  1.0 0.5361429512
C  C2  1  0.37100000  0.83680000  0.64520000  1.0 0.5361429512
C  C3  1  0.83680000  0.64520000  0.37100000  1.0 0.5361429512
C  C4  1  0.67190000  0.36690000  0.76320000  1.0 -0.1008226749
C  C5  1  0.36690000  0.76320000  0.67190000  1.0 -0.1008226749
C  C6  1  0.76320000  0.67190000  0.36690000  1.0 -0.1008226749
C  C7  1  0.67530000  0.34130000  0.71760000  1.0 -0.2344446749
C  C8  1  0.34130000  0.71760000  0.67530000  1.0 -0.2344446749
C  C9  1  0.71760000  0.67530000  0.34130000  1.0 -0.2353796035
C  C10  1  0.65350000  0.28520000  0.69380000  1.0 0.1977446953
C  C11  1  0.28520000  0.69380000  0.65350000  1.0 0.1977446953
C  C12  1  0.69380000  0.65350000  0.28520000  1.0 0.1977446953
C  C13  1  0.62250000  0.25630000  0.71200000  1.0 -0.0316382009
C  C14  1  0.25630000  0.71200000  0.62250000  1.0 -0.0214048353
C  C15  1  0.71200000  0.62250000  0.25630000  1.0 -0.0316382009
C  C16  1  0.62380000  0.29140000  0.75810000  1.0 -0.1731757452
C  C17  1  0.29140000  0.75810000  0.62380000  1.0 -0.1826670409
C  C18  1  0.75810000  0.62380000  0.29140000  1.0 -0.1731757452
C  C19  1  0.64630000  0.34750000  0.78930000  1.0 -0.0583830598
C  C20  1  0.34750000  0.78930000  0.64630000  1.0 -0.0583830598
C  C21  1  0.78930000  0.64630000  0.34750000  1.0 -0.0583830598
C  C22  1  0.59920000  0.19990000  0.67560000  1.0 -0.0316382009
C  C23  1  0.19990000  0.67560000  0.59920000  1.0 -0.0316382009
C  C24  1  0.67560000  0.59920000  0.19990000  1.0 -0.0385597116
C  C25  1  0.61360000  0.19530000  0.63730000  1.0 0.159266224
C  C26  1  0.19530000  0.63730000  0.61360000  1.0 0.159266224
C  C27  1  0.63730000  0.61360000  0.19530000  1.0 0.159266224
C  C28  1  0.59690000  0.14450000  0.59710000  1.0 -0.2208928362
C  C29  1  0.14450000  0.59710000  0.59690000  1.0 -0.2208928362
C  C30  1  0.59710000  0.59690000  0.14450000  1.0 -0.2208928362
C  C31  1  0.56550000  0.09840000  0.59510000  1.0 -0.078979282
C  C32  1  0.09840000  0.59510000  0.56550000  1.0 -0.078979282
C  C33  1  0.59510000  0.56550000  0.09840000  1.0 -0.078979282
C  C34  1  0.55120000  0.10300000  0.63330000  1.0 -0.0214048353
C  C35  1  0.10300000  0.63330000  0.55120000  1.0 -0.0214048353
C  C36  1  0.63330000  0.55120000  0.10300000  1.0 -0.0214048353
C  C37  1  0.56790000  0.15380000  0.67350000  1.0 -0.1215494302
C  C38  1  0.15380000  0.67350000  0.56790000  1.0 -0.1215494302
C  C39  1  0.67350000  0.56790000  0.15380000  1.0 -0.1215494302
C  C40  1  0.51460000  0.05130000  0.63010000  1.0 0.5798739721
C  C41  1  0.05130000  0.63010000  0.51460000  1.0 0.5798739721
C  C42  1  0.63010000  0.51460000  0.05130000  1.0 0.5798739721
C  C43  1  0.51070000  0.33190000  0.88710000  1.0 0.5798739721
C  C44  1  0.33190000  0.88710000  0.51070000  1.0 0.5798739721
C  C45  1  0.88710000  0.51070000  0.33190000  1.0 0.5798739721
C  C46  1  0.42170000  0.28540000  0.87110000  1.0 -0.1008226749
C  C47  1  0.28540000  0.87110000  0.42170000  1.0 -0.1008226749
C  C48  1  0.87110000  0.42170000  0.28540000  1.0 -0.1008226749
C  C49  1  0.46110000  0.27990000  0.86270000  1.0 -0.067115497
C  C50  1  0.27990000  0.86270000  0.46110000  1.0 -0.067115497
C  C51  1  0.86270000  0.46110000  0.27990000  1.0 -0.067115497
C  C52  1  0.44990000  0.22890000  0.82980000  1.0 -0.1215494302
C  C53  1  0.22890000  0.82980000  0.44990000  1.0 -0.1215494302
C  C54  1  0.82980000  0.44990000  0.22890000  1.0 -0.1215494302
C  C55  1  0.39930000  0.18320000  0.80520000  1.0 -0.0385597116
C  C56  1  0.18320000  0.80520000  0.39930000  1.0 -0.0385597116
C  C57  1  0.80520000  0.39930000  0.18320000  1.0 -0.0385597116
C  C58  1  0.36000000  0.18860000  0.81360000  1.0 0.1394532631
C  C59  1  0.18860000  0.81360000  0.36000000  1.0 0.1394532631
C  C60  1  0.81360000  0.36000000  0.18860000  1.0 0.1394532631
C  C61  1  0.37110000  0.23970000  0.84650000  1.0 -0.2109689534
C  C62  1  0.23970000  0.84650000  0.37110000  1.0 -0.2109689534
C  C63  1  0.84650000  0.37110000  0.23970000  1.0 -0.2109689534
C  C64  1  0.39390000  0.09550000  0.74740000  1.0 -0.1291498841
C  C65  1  0.09550000  0.74740000  0.39390000  1.0 -0.1291498841
C  C66  1  0.74740000  0.39390000  0.09550000  1.0 -0.1291498841
C  C67  1  0.37700000  0.12580000  0.77330000  1.0 -0.0385597116
C  C68  1  0.12580000  0.77330000  0.37700000  1.0 -0.0385597116
C  C69  1  0.77330000  0.37700000  0.12580000  1.0 -0.0385597116
C  C70  1  0.32540000  0.10030000  0.76430000  1.0 0.1394532631
C  C71  1  0.10030000  0.76430000  0.32540000  1.0 0.1472146987
C  C72  1  0.76430000  0.32540000  0.10030000  1.0 0.1394532631
C  C73  1  0.29070000  0.04440000  0.72920000  1.0 -0.1964385505
C  C74  1  0.04440000  0.72920000  0.29070000  1.0 -0.1964385505
C  C75  1  0.72920000  0.29070000  0.04440000  1.0 -0.1964385505
C  C76  1  0.30770000  0.01420000  0.70340000  1.0 -0.1091218519
C  C77  1  0.01420000  0.70340000  0.30770000  1.0 -0.1091218519
C  C78  1  0.70340000  0.30770000  0.01420000  1.0 -0.1091218519
C  C79  1  0.35930000  0.03970000  0.71240000  1.0 -0.0316382009
C  C80  1  0.03970000  0.71240000  0.35930000  1.0 -0.0316382009
C  C81  1  0.71240000  0.35930000  0.03970000  1.0 -0.0316382009
C  C82  1  0.36840000  0.99890000  0.68170000  1.0 0.5486909826
C  C83  1  0.99890000  0.68170000  0.36840000  1.0 0.5486909826
C  C84  1  0.68170000  0.36840000  0.99890000  1.0 0.5486909826
C  C85  1  0.75020000  0.57400000  0.99650000  1.0 0.5798739721
C  C86  1  0.57400000  0.99650000  0.75020000  1.0 0.5798739721
C  C87  1  0.99650000  0.75020000  0.57400000  1.0 0.5798739721
C  C88  1  0.81690000  0.66340000  0.07470000  1.0 -0.1008226749
C  C89  1  0.66340000  0.07470000  0.81690000  1.0 -0.1008226749
C  C90  1  0.07470000  0.81690000  0.66340000  1.0 -0.1008226749
C  C91  1  0.79030000  0.63170000  0.01900000  1.0 -0.0385597116
C  C92  1  0.63170000  0.01900000  0.79030000  1.0 -0.0316382009
C  C93  1  0.01900000  0.79030000  0.63170000  1.0 -0.0385597116
C  C94  1  0.80120000  0.65360000  0.98920000  1.0 -0.1584310726
C  C95  1  0.65360000  0.98920000  0.80120000  1.0 -0.1584310726
C  C96  1  0.98920000  0.80120000  0.65360000  1.0 -0.1584310726
C  C97  1  0.84070000  0.70910000  0.01720000  1.0 -0.0042253818
C  C98  1  0.70910000  0.01720000  0.84070000  1.0 -0.0042253818
C  C99  1  0.01720000  0.84070000  0.70910000  1.0 -0.006741275
C  C100  1  0.86720000  0.74080000  0.07300000  1.0 0.1472146987
C  C101  1  0.74080000  0.07300000  0.86720000  1.0 0.1472146987
C  C102  1  0.07300000  0.86720000  0.74080000  1.0 0.1472146987
C  C103  1  0.85500000  0.71800000  0.10200000  1.0 -0.1892117062
C  C104  1  0.71800000  0.10200000  0.85500000  1.0 -0.1892117062
C  C105  1  0.10200000  0.85500000  0.71800000  1.0 -0.1892117062
C  C106  1  0.83740000  0.74020000  0.94710000  1.0 -0.1291498841
C  C107  1  0.74020000  0.94710000  0.83740000  1.0 -0.1291498841
C  C108  1  0.94710000  0.83740000  0.74020000  1.0 -0.1291498841
C  C109  1  0.85610000  0.74840000  0.99850000  1.0 -0.006741275
C  C110  1  0.74840000  0.99850000  0.85610000  1.0 -0.006741275
C  C111  1  0.99850000  0.85610000  0.74840000  1.0 -0.006741275
C  C112  1  0.89390000  0.80020000  0.04390000  1.0 0.1394532631
C  C113  1  0.80020000  0.04390000  0.89390000  1.0 0.1394532631
C  C114  1  0.04390000  0.89390000  0.80020000  1.0 0.1472146987
C  C115  1  0.91310000  0.84410000  0.03810000  1.0 -0.1892117062
C  C116  1  0.84410000  0.03810000  0.91310000  1.0 -0.1826670409
C  C117  1  0.03810000  0.91310000  0.84410000  1.0 -0.1892117062
C  C118  1  0.89430000  0.83600000  0.98670000  1.0 -0.1008226749
C  C119  1  0.83600000  0.98670000  0.89430000  1.0 -0.1008226749
C  C120  1  0.98670000  0.89430000  0.83600000  1.0 -0.1008226749
C  C121  1  0.85650000  0.78420000  0.94130000  1.0 -0.078979282
C  C122  1  0.78420000  0.94130000  0.85650000  1.0 -0.078979282
C  C123  1  0.94130000  0.85650000  0.78420000  1.0 -0.078979282
C  C124  1  0.84090000  0.78500000  0.89310000  1.0 0.5361429512
C  C125  1  0.78500000  0.89310000  0.84090000  1.0 0.5361429512
C  C126  1  0.89310000  0.84090000  0.78500000  1.0 0.5361429512
C  C127  1  0.56690000  0.48380000  0.87070000  1.0 0.5798739721
C  C128  1  0.48380000  0.87070000  0.56690000  1.0 0.5798739721
C  C129  1  0.87070000  0.56690000  0.48380000  1.0 0.5798739721
C  C130  1  0.56080000  0.53490000  0.82030000  1.0 -0.1731757452
C  C131  1  0.53490000  0.82030000  0.56080000  1.0 -0.1731757452
C  C132  1  0.82030000  0.56080000  0.53490000  1.0 -0.1731757452
C  C133  1  0.53990000  0.50010000  0.83580000  1.0 -0.0464961915
C  C134  1  0.50010000  0.83580000  0.53990000  1.0 -0.0464961915
C  C135  1  0.83580000  0.53990000  0.50010000  1.0 -0.0464961915
C  C136  1  0.48880000  0.48420000  0.82480000  1.0 -0.1008226749
C  C137  1  0.48420000  0.82480000  0.48880000  1.0 -0.1008226749
C  C138  1  0.82480000  0.48880000  0.48420000  1.0 -0.1008226749
C  C139  1  0.45900000  0.50000000  0.80100000  1.0 -0.1964385505
C  C140  1  0.50000000  0.80100000  0.45900000  1.0 -0.1964385505
C  C141  1  0.80100000  0.45900000  0.50000000  1.0 -0.1964385505
C  C142  1  0.48600000  0.53900000  0.78600000  1.0 0.1309442037
C  C143  1  0.53900000  0.78600000  0.48600000  1.0 0.1309442037
C  C144  1  0.78600000  0.48600000  0.53900000  1.0 0.1309442037
C  C145  1  0.53800000  0.55610000  0.79460000  1.0 -0.0316382009
C  C146  1  0.55610000  0.79460000  0.53800000  1.0 -0.0316382009
C  C147  1  0.79460000  0.53800000  0.55610000  1.0 -0.0316382009
C  C148  1  0.59760000  0.64800000  0.75740000  1.0 -0.067115497
C  C149  1  0.64800000  0.75740000  0.59760000  1.0 -0.067115497
C  C150  1  0.75740000  0.59760000  0.64800000  1.0 -0.0583830598
C  C151  1  0.59420000  0.61580000  0.77530000  1.0 -0.1008226749
C  C152  1  0.61580000  0.77530000  0.59420000  1.0 -0.1091218519
C  C153  1  0.77530000  0.59420000  0.61580000  1.0 -0.1008226749
C  C154  1  0.55300000  0.59300000  0.77900000  1.0 -0.0583830598
C  C155  1  0.59300000  0.77900000  0.55300000  1.0 -0.0464961915
C  C156  1  0.77900000  0.55300000  0.59300000  1.0 -0.0583830598
C  C157  1  0.50900000  0.59500000  0.75800000  1.0 0.1097371401
C  C158  1  0.59500000  0.75800000  0.50900000  1.0 0.1097371401
C  C159  1  0.75800000  0.50900000  0.59500000  1.0 0.1097371401
C  C160  1  0.50000000  0.61900000  0.73100000  1.0 -0.1892117062
C  C161  1  0.61900000  0.73100000  0.50000000  1.0 -0.1892117062
C  C162  1  0.73100000  0.50000000  0.61900000  1.0 -0.1892117062
C  C163  1  0.54200000  0.64900000  0.73100000  1.0 -0.1008226749
C  C164  1  0.64900000  0.73100000  0.54200000  1.0 -0.1008226749
C  C165  1  0.73100000  0.54200000  0.64900000  1.0 -0.1008226749
C  C166  1  0.64400000  0.68000000  0.75400000  1.0 0.600802201
C  C167  1  0.68000000  0.75400000  0.64400000  1.0 0.600802201
C  C168  1  0.75400000  0.64400000  0.68000000  1.0 0.600802201
C  C169  1  0.35480000  0.62900000  0.16320000  1.0 0.5361429512
C  C170  1  0.62900000  0.16320000  0.35480000  1.0 0.5361429512
C  C171  1  0.16320000  0.35480000  0.62900000  1.0 0.5361429512
C  C172  1  0.32810000  0.63310000  0.23680000  1.0 -0.1008226749
C  C173  1  0.63310000  0.23680000  0.32810000  1.0 -0.1008226749
C  C174  1  0.23680000  0.32810000  0.63310000  1.0 -0.1008226749
C  C175  1  0.32470000  0.65870000  0.28240000  1.0 -0.2353796035
C  C176  1  0.65870000  0.28240000  0.32470000  1.0 -0.2344446749
C  C177  1  0.28240000  0.32470000  0.65870000  1.0 -0.2344446749
C  C178  1  0.34650000  0.71480000  0.30620000  1.0 0.1977446953
C  C179  1  0.71480000  0.30620000  0.34650000  1.0 0.1977446953
C  C180  1  0.30620000  0.34650000  0.71480000  1.0 0.1977446953
C  C181  1  0.37750000  0.74370000  0.28800000  1.0 -0.0316382009
C  C182  1  0.74370000  0.28800000  0.37750000  1.0 -0.0316382009
C  C183  1  0.28800000  0.37750000  0.74370000  1.0 -0.0316382009
C  C184  1  0.37620000  0.70860000  0.24190000  1.0 -0.1731757452
C  C185  1  0.70860000  0.24190000  0.37620000  1.0 -0.1731757452
C  C186  1  0.24190000  0.37620000  0.70860000  1.0 -0.1731757452
C  C187  1  0.35370000  0.65250000  0.21070000  1.0 -0.0583830598
C  C188  1  0.65250000  0.21070000  0.35370000  1.0 -0.0583830598
C  C189  1  0.21070000  0.35370000  0.65250000  1.0 -0.0583830598
C  C190  1  0.40080000  0.80010000  0.32440000  1.0 -0.0316382009
C  C191  1  0.80010000  0.32440000  0.40080000  1.0 -0.0316382009
C  C192  1  0.32440000  0.40080000  0.80010000  1.0 -0.0316382009
C  C193  1  0.38640000  0.80470000  0.36270000  1.0 0.159266224
C  C194  1  0.80470000  0.36270000  0.38640000  1.0 0.159266224
C  C195  1  0.36270000  0.38640000  0.80470000  1.0 0.159266224
C  C196  1  0.40310000  0.85550000  0.40290000  1.0 -0.2208928362
C  C197  1  0.85550000  0.40290000  0.40310000  1.0 -0.2208928362
C  C198  1  0.40290000  0.40310000  0.85550000  1.0 -0.2208928362
C  C199  1  0.43450000  0.90160000  0.40490000  1.0 -0.078979282
C  C200  1  0.90160000  0.40490000  0.43450000  1.0 -0.078979282
C  C201  1  0.40490000  0.43450000  0.90160000  1.0 -0.078979282
C  C202  1  0.44880000  0.89700000  0.36670000  1.0 -0.0214048353
C  C203  1  0.89700000  0.36670000  0.44880000  1.0 -0.0214048353
C  C204  1  0.36670000  0.44880000  0.89700000  1.0 -0.0214048353
C  C205  1  0.43210000  0.84620000  0.32650000  1.0 -0.1215494302
C  C206  1  0.84620000  0.32650000  0.43210000  1.0 -0.1215494302
C  C207  1  0.32650000  0.43210000  0.84620000  1.0 -0.1215494302
C  C208  1  0.48540000  0.94870000  0.36990000  1.0 0.5798739721
C  C209  1  0.94870000  0.36990000  0.48540000  1.0 0.5798739721
C  C210  1  0.36990000  0.48540000  0.94870000  1.0 0.5798739721
C  C211  1  0.48930000  0.66810000  0.11290000  1.0 0.5798739721
C  C212  1  0.66810000  0.11290000  0.48930000  1.0 0.5798739721
C  C213  1  0.11290000  0.48930000  0.66810000  1.0 0.5798739721
C  C214  1  0.57830000  0.71460000  0.12890000  1.0 -0.1008226749
C  C215  1  0.71460000  0.12890000  0.57830000  1.0 -0.1008226749
C  C216  1  0.12890000  0.57830000  0.71460000  1.0 -0.1008226749
C  C217  1  0.53890000  0.72010000  0.13730000  1.0 -0.067115497
C  C218  1  0.72010000  0.13730000  0.53890000  1.0 -0.067115497
C  C219  1  0.13730000  0.53890000  0.72010000  1.0 -0.067115497
C  C220  1  0.55010000  0.77110000  0.17020000  1.0 -0.1215494302
C  C221  1  0.77110000  0.17020000  0.55010000  1.0 -0.1215494302
C  C222  1  0.17020000  0.55010000  0.77110000  1.0 -0.1215494302
C  C223  1  0.60070000  0.81680000  0.19480000  1.0 -0.0385597116
C  C224  1  0.81680000  0.19480000  0.60070000  1.0 -0.0385597116
C  C225  1  0.19480000  0.60070000  0.81680000  1.0 -0.0385597116
C  C226  1  0.64000000  0.81140000  0.18640000  1.0 0.1394532631
C  C227  1  0.81140000  0.18640000  0.64000000  1.0 0.1394532631
C  C228  1  0.18640000  0.64000000  0.81140000  1.0 0.1394532631
C  C229  1  0.62890000  0.76030000  0.15350000  1.0 -0.2109689534
C  C230  1  0.76030000  0.15350000  0.62890000  1.0 -0.2109689534
C  C231  1  0.15350000  0.62890000  0.76030000  1.0 -0.2109689534
C  C232  1  0.60610000  0.90450000  0.25260000  1.0 -0.1291498841
C  C233  1  0.90450000  0.25260000  0.60610000  1.0 -0.1291498841
C  C234  1  0.25260000  0.60610000  0.90450000  1.0 -0.1291498841
C  C235  1  0.62300000  0.87420000  0.22670000  1.0 -0.0385597116
C  C236  1  0.87420000  0.22670000  0.62300000  1.0 -0.0385597116
C  C237  1  0.22670000  0.62300000  0.87420000  1.0 -0.0385597116
C  C238  1  0.67460000  0.89970000  0.23570000  1.0 0.1394532631
C  C239  1  0.89970000  0.23570000  0.67460000  1.0 0.1394532631
C  C240  1  0.23570000  0.67460000  0.89970000  1.0 0.1394532631
C  C241  1  0.70930000  0.95560000  0.27080000  1.0 -0.1964385505
C  C242  1  0.95560000  0.27080000  0.70930000  1.0 -0.1964385505
C  C243  1  0.27080000  0.70930000  0.95560000  1.0 -0.1964385505
C  C244  1  0.69230000  0.98580000  0.29660000  1.0 -0.1091218519
C  C245  1  0.98580000  0.29660000  0.69230000  1.0 -0.1091218519
C  C246  1  0.29660000  0.69230000  0.98580000  1.0 -0.1091218519
C  C247  1  0.64070000  0.96030000  0.28760000  1.0 -0.0316382009
C  C248  1  0.96030000  0.28760000  0.64070000  1.0 -0.0316382009
C  C249  1  0.28760000  0.64070000  0.96030000  1.0 -0.0316382009
C  C250  1  0.63160000  0.00110000  0.31830000  1.0 0.5486909826
C  C251  1  0.00110000  0.31830000  0.63160000  1.0 0.5486909826
C  C252  1  0.31830000  0.63160000  0.00110000  1.0 0.5486909826
C  C253  1  0.24980000  0.42600000  0.00350000  1.0 0.5798739721
C  C254  1  0.42600000  0.00350000  0.24980000  1.0 0.5798739721
C  C255  1  0.00350000  0.24980000  0.42600000  1.0 0.5798739721
C  C256  1  0.18310000  0.33660000  0.92530000  1.0 -0.1008226749
C  C257  1  0.33660000  0.92530000  0.18310000  1.0 -0.1008226749
C  C258  1  0.92530000  0.18310000  0.33660000  1.0 -0.1008226749
C  C259  1  0.20970000  0.36830000  0.98100000  1.0 -0.0385597116
C  C260  1  0.36830000  0.98100000  0.20970000  1.0 -0.0385597116
C  C261  1  0.98100000  0.20970000  0.36830000  1.0 -0.0385597116
C  C262  1  0.19880000  0.34640000  0.01080000  1.0 -0.1584310726
C  C263  1  0.34640000  0.01080000  0.19880000  1.0 -0.1584310726
C  C264  1  0.01080000  0.19880000  0.34640000  1.0 -0.1584310726
C  C265  1  0.15930000  0.29090000  0.98280000  1.0 -0.006741275
C  C266  1  0.29090000  0.98280000  0.15930000  1.0 -0.0042253818
C  C267  1  0.98280000  0.15930000  0.29090000  1.0 -0.0042253818
C  C268  1  0.13280000  0.25920000  0.92700000  1.0 0.1472146987
C  C269  1  0.25920000  0.92700000  0.13280000  1.0 0.1472146987
C  C270  1  0.92700000  0.13280000  0.25920000  1.0 0.1472146987
C  C271  1  0.14500000  0.28200000  0.89800000  1.0 -0.1892117062
C  C272  1  0.28200000  0.89800000  0.14500000  1.0 -0.1892117062
C  C273  1  0.89800000  0.14500000  0.28200000  1.0 -0.1892117062
C  C274  1  0.16260000  0.25980000  0.05290000  1.0 -0.1291498841
C  C275  1  0.25980000  0.05290000  0.16260000  1.0 -0.1291498841
C  C276  1  0.05290000  0.16260000  0.25980000  1.0 -0.1291498841
C  C277  1  0.14390000  0.25160000  0.00150000  1.0 -0.006741275
C  C278  1  0.25160000  0.00150000  0.14390000  1.0 -0.006741275
C  C279  1  0.00150000  0.14390000  0.25160000  1.0 -0.006741275
C  C280  1  0.10610000  0.19980000  0.95610000  1.0 0.1394532631
C  C281  1  0.19980000  0.95610000  0.10610000  1.0 0.1472146987
C  C282  1  0.95610000  0.10610000  0.19980000  1.0 0.1472146987
C  C283  1  0.08690000  0.15590000  0.96190000  1.0 -0.1826670409
C  C284  1  0.15590000  0.96190000  0.08690000  1.0 -0.1826670409
C  C285  1  0.96190000  0.08690000  0.15590000  1.0 -0.1826670409
C  C286  1  0.10570000  0.16400000  0.01330000  1.0 -0.1008226749
C  C287  1  0.16400000  0.01330000  0.10570000  1.0 -0.1008226749
C  C288  1  0.01330000  0.10570000  0.16400000  1.0 -0.1008226749
C  C289  1  0.14350000  0.21580000  0.05870000  1.0 -0.067115497
C  C290  1  0.21580000  0.05870000  0.14350000  1.0 -0.078979282
C  C291  1  0.05870000  0.14350000  0.21580000  1.0 -0.078979282
C  C292  1  0.15910000  0.21500000  0.10690000  1.0 0.5361429512
C  C293  1  0.21500000  0.10690000  0.15910000  1.0 0.5337748706
C  C294  1  0.10690000  0.15910000  0.21500000  1.0 0.5337748706
C  C295  1  0.43310000  0.51620000  0.12930000  1.0 0.5798739721
C  C296  1  0.51620000  0.12930000  0.43310000  1.0 0.5798739721
C  C297  1  0.12930000  0.43310000  0.51620000  1.0 0.5798739721
C  C298  1  0.43920000  0.46510000  0.17970000  1.0 -0.1731757452
C  C299  1  0.46510000  0.17970000  0.43920000  1.0 -0.1731757452
C  C300  1  0.17970000  0.43920000  0.46510000  1.0 -0.1731757452
C  C301  1  0.46010000  0.49990000  0.16420000  1.0 -0.0464961915
C  C302  1  0.49990000  0.16420000  0.46010000  1.0 -0.0464961915
C  C303  1  0.16420000  0.46010000  0.49990000  1.0 -0.0464961915
C  C304  1  0.51120000  0.51580000  0.17520000  1.0 -0.1008226749
C  C305  1  0.51580000  0.17520000  0.51120000  1.0 -0.1008226749
C  C306  1  0.17520000  0.51120000  0.51580000  1.0 -0.1008226749
C  C307  1  0.54100000  0.50000000  0.19900000  1.0 -0.1964385505
C  C308  1  0.50000000  0.19900000  0.54100000  1.0 -0.1964385505
C  C309  1  0.19900000  0.54100000  0.50000000  1.0 -0.1964385505
C  C310  1  0.51400000  0.46100000  0.21400000  1.0 0.1309442037
C  C311  1  0.46100000  0.21400000  0.51400000  1.0 0.1309442037
C  C312  1  0.21400000  0.51400000  0.46100000  1.0 0.1309442037
C  C313  1  0.46200000  0.44390000  0.20540000  1.0 -0.0316382009
C  C314  1  0.44390000  0.20540000  0.46200000  1.0 -0.0316382009
C  C315  1  0.20540000  0.46200000  0.44390000  1.0 -0.0316382009
C  C316  1  0.40240000  0.35200000  0.24260000  1.0 -0.067115497
C  C317  1  0.35200000  0.24260000  0.40240000  1.0 -0.067115497
C  C318  1  0.24260000  0.40240000  0.35200000  1.0 -0.067115497
C  C319  1  0.40580000  0.38420000  0.22470000  1.0 -0.1008226749
C  C320  1  0.38420000  0.22470000  0.40580000  1.0 -0.1008226749
C  C321  1  0.22470000  0.40580000  0.38420000  1.0 -0.1008226749
C  C322  1  0.44700000  0.40700000  0.22100000  1.0 -0.0583830598
C  C323  1  0.40700000  0.22100000  0.44700000  1.0 -0.0583830598
C  C324  1  0.22100000  0.44700000  0.40700000  1.0 -0.0583830598
C  C325  1  0.49100000  0.40500000  0.24200000  1.0 0.1097371401
C  C326  1  0.40500000  0.24200000  0.49100000  1.0 0.1097371401
C  C327  1  0.24200000  0.49100000  0.40500000  1.0 0.1097371401
C  C328  1  0.50000000  0.38100000  0.26900000  1.0 -0.1892117062
C  C329  1  0.38100000  0.26900000  0.50000000  1.0 -0.1892117062
C  C330  1  0.26900000  0.50000000  0.38100000  1.0 -0.1892117062
C  C331  1  0.45800000  0.35100000  0.26900000  1.0 -0.1008226749
C  C332  1  0.35100000  0.26900000  0.45800000  1.0 -0.1008226749
C  C333  1  0.26900000  0.45800000  0.35100000  1.0 -0.1008226749
C  C334  1  0.35600000  0.32000000  0.24600000  1.0 0.600802201
C  C335  1  0.32000000  0.24600000  0.35600000  1.0 0.600802201
C  C336  1  0.24600000  0.35600000  0.32000000  1.0 0.600802201
N  N1  1  0.64340000  0.24600000  0.64950000  1.0 -0.2652647317
N  N2  1  0.24600000  0.64950000  0.64340000  1.0 -0.2647467375
N  N3  1  0.64950000  0.64340000  0.24600000  1.0 -0.2652647317
N  N4  1  0.32180000  0.13850000  0.79570000  1.0 -0.288079537
N  N5  1  0.13850000  0.79570000  0.32180000  1.0 -0.288079537
N  N6  1  0.79570000  0.32180000  0.13850000  1.0 -0.288079537
N  N7  1  0.89600000  0.80100000  0.09500000  1.0 -0.3662796557
N  N8  1  0.80100000  0.09500000  0.89600000  1.0 -0.3662796557
N  N9  1  0.09500000  0.89600000  0.80100000  1.0 -0.3662796557
N  N10  1  0.46720000  0.56570000  0.75920000  1.0 -0.3113205304
N  N11  1  0.56570000  0.75920000  0.46720000  1.0 -0.3113205304
N  N12  1  0.75920000  0.46720000  0.56570000  1.0 -0.3113205304
N  N13  1  0.35660000  0.75400000  0.35050000  1.0 -0.2652647317
N  N14  1  0.75400000  0.35050000  0.35660000  1.0 -0.2647467375
N  N15  1  0.35050000  0.35660000  0.75400000  1.0 -0.2647467375
N  N16  1  0.67820000  0.86150000  0.20430000  1.0 -0.288079537
N  N17  1  0.86150000  0.20430000  0.67820000  1.0 -0.288079537
N  N18  1  0.20430000  0.67820000  0.86150000  1.0 -0.288079537
N  N19  1  0.10400000  0.19900000  0.90500000  1.0 -0.3662796557
N  N20  1  0.19900000  0.90500000  0.10400000  1.0 -0.3644605101
N  N21  1  0.90500000  0.10400000  0.19900000  1.0 -0.3662796557
N  N22  1  0.53280000  0.43430000  0.24080000  1.0 -0.3113205304
N  N23  1  0.43430000  0.24080000  0.53280000  1.0 -0.3113205304
N  N24  1  0.24080000  0.53280000  0.43430000  1.0 -0.3113205304
O  O1  1  0.64200000  0.44470000  0.94360000  1.0 -1.0191262186
O  O2  1  0.44470000  0.94360000  0.64200000  1.0 -1.0191262186
O  O3  1  0.94360000  0.64200000  0.44470000  1.0 -1.0191262186
O  O4  1  0.66240000  0.41850000  0.84470000  1.0 -0.4798887889
O  O5  1  0.41850000  0.84470000  0.66240000  1.0 -0.4798887889
O  O6  1  0.84470000  0.66240000  0.41850000  1.0 -0.4798887889
O  O7  1  0.62860000  0.34700000  0.85040000  1.0 -0.4231478155
O  O8  1  0.34700000  0.85040000  0.62860000  1.0 -0.4231478155
O  O9  1  0.85040000  0.62860000  0.34700000  1.0 -0.4231478155
O  O10  1  0.54750000  0.32520000  0.88340000  1.0 -0.5294958423
O  O11  1  0.32520000  0.88340000  0.54750000  1.0 -0.5294958423
O  O12  1  0.88340000  0.54750000  0.32520000  1.0 -0.5294958423
O  O13  1  0.51940000  0.37620000  0.91420000  1.0 -0.4912363311
O  O14  1  0.37620000  0.91420000  0.51940000  1.0 -0.4912363311
O  O15  1  0.91420000  0.51940000  0.37620000  1.0 -0.4912363311
O  O16  1  0.51620000  0.06190000  0.67160000  1.0 -0.4798887889
O  O17  1  0.06190000  0.67160000  0.51620000  1.0 -0.4798887889
O  O18  1  0.67160000  0.51620000  0.06190000  1.0 -0.4798887889
O  O19  1  0.49480000  0.00680000  0.58880000  1.0 -0.5440708221
O  O20  1  0.00680000  0.58880000  0.49480000  1.0 -0.5440708221
O  O21  1  0.58880000  0.49480000  0.00680000  1.0 -0.5440708221
O  O22  1  0.54790000  0.46290000  0.88930000  1.0 -0.4533882261
O  O23  1  0.46290000  0.88930000  0.54790000  1.0 -0.4533882261
O  O24  1  0.88930000  0.54790000  0.46290000  1.0 -0.4585737748
O  O25  1  0.60810000  0.48890000  0.86730000  1.0 -0.5244336347
O  O26  1  0.48890000  0.86730000  0.60810000  1.0 -0.5244336347
O  O27  1  0.86730000  0.60810000  0.48890000  1.0 -0.5244336347
O  O28  1  0.73850000  0.56180000  0.02580000  1.0 -0.5294958423
O  O29  1  0.56180000  0.02580000  0.73850000  1.0 -0.5294958423
O  O30  1  0.02580000  0.73850000  0.56180000  1.0 -0.5294958423
O  O31  1  0.72740000  0.54290000  0.94450000  1.0 -0.5613142372
O  O32  1  0.54290000  0.94450000  0.72740000  1.0 -0.5613142372
O  O33  1  0.94450000  0.72740000  0.54290000  1.0 -0.5613142372
O  O34  1  0.41960000  0.03070000  0.69050000  1.0 -0.6497422577
O  O35  1  0.03070000  0.69050000  0.41960000  1.0 -0.6497422577
O  O36  1  0.69050000  0.41960000  0.03070000  1.0 -0.6497422577
O  O37  1  0.34900000  0.95010000  0.65660000  1.0 -0.4123126537
O  O38  1  0.95010000  0.65660000  0.34900000  1.0 -0.4123126537
O  O39  1  0.65660000  0.34900000  0.95010000  1.0 -0.4123126537
O  O40  1  0.76567000  0.76567000  0.76567000  1.0 -1.0271389902
O  O41  1  0.85380000  0.82170000  0.89150000  1.0 -0.400560992
O  O42  1  0.82170000  0.89150000  0.85380000  1.0 -0.400560992
O  O43  1  0.89150000  0.85380000  0.82170000  1.0 -0.400560992
O  O44  1  0.79840000  0.73030000  0.84960000  1.0 -0.6414842725
O  O45  1  0.73030000  0.84960000  0.79840000  1.0 -0.6414842725
O  O46  1  0.84960000  0.79840000  0.73030000  1.0 -0.6414842725
O  O47  1  0.64790000  0.72250000  0.74960000  1.0 -0.5936474026
O  O48  1  0.72250000  0.74960000  0.64790000  1.0 -0.5936474026
O  O49  1  0.74960000  0.64790000  0.72250000  1.0 -0.5936474026
O  O50  1  0.68050000  0.67410000  0.77110000  1.0 -0.4585737748
O  O51  1  0.67410000  0.77110000  0.68050000  1.0 -0.4585737748
O  O52  1  0.77110000  0.68050000  0.67410000  1.0 -0.4585737748
O  O53  1  0.35800000  0.55530000  0.05640000  1.0 -1.0191262186
O  O54  1  0.55530000  0.05640000  0.35800000  1.0 -1.0191262186
O  O55  1  0.05640000  0.35800000  0.55530000  1.0 -1.0191262186
O  O56  1  0.33760000  0.58150000  0.15530000  1.0 -0.4798887889
O  O57  1  0.58150000  0.15530000  0.33760000  1.0 -0.4798887889
O  O58  1  0.15530000  0.33760000  0.58150000  1.0 -0.4798887889
O  O59  1  0.37140000  0.65300000  0.14960000  1.0 -0.4255091668
O  O60  1  0.65300000  0.14960000  0.37140000  1.0 -0.4231478155
O  O61  1  0.14960000  0.37140000  0.65300000  1.0 -0.4231478155
O  O62  1  0.45250000  0.67480000  0.11660000  1.0 -0.5294958423
O  O63  1  0.67480000  0.11660000  0.45250000  1.0 -0.5294958423
O  O64  1  0.11660000  0.45250000  0.67480000  1.0 -0.5294958423
O  O65  1  0.48060000  0.62380000  0.08580000  1.0 -0.4912363311
O  O66  1  0.62380000  0.08580000  0.48060000  1.0 -0.4912363311
O  O67  1  0.08580000  0.48060000  0.62380000  1.0 -0.4912363311
O  O68  1  0.48380000  0.93810000  0.32840000  1.0 -0.4798887889
O  O69  1  0.93810000  0.32840000  0.48380000  1.0 -0.4798887889
O  O70  1  0.32840000  0.48380000  0.93810000  1.0 -0.4798887889
O  O71  1  0.50520000  0.99320000  0.41120000  1.0 -0.5440708221
O  O72  1  0.99320000  0.41120000  0.50520000  1.0 -0.5440708221
O  O73  1  0.41120000  0.50520000  0.99320000  1.0 -0.5440708221
O  O74  1  0.45210000  0.53710000  0.11070000  1.0 -0.4533882261
O  O75  1  0.53710000  0.11070000  0.45210000  1.0 -0.4533882261
O  O76  1  0.11070000  0.45210000  0.53710000  1.0 -0.4533882261
O  O77  1  0.39190000  0.51110000  0.13270000  1.0 -0.5244336347
O  O78  1  0.51110000  0.13270000  0.39190000  1.0 -0.5244336347
O  O79  1  0.13270000  0.39190000  0.51110000  1.0 -0.5244336347
O  O80  1  0.26150000  0.43820000  0.97420000  1.0 -0.5294958423
O  O81  1  0.43820000  0.97420000  0.26150000  1.0 -0.5294958423
O  O82  1  0.97420000  0.26150000  0.43820000  1.0 -0.5294958423
O  O83  1  0.27260000  0.45710000  0.05550000  1.0 -0.5613142372
O  O84  1  0.45710000  0.05550000  0.27260000  1.0 -0.5613142372
O  O85  1  0.05550000  0.27260000  0.45710000  1.0 -0.5613142372
O  O86  1  0.58040000  0.96930000  0.30950000  1.0 -0.6497422577
O  O87  1  0.96930000  0.30950000  0.58040000  1.0 -0.6497422577
O  O88  1  0.30950000  0.58040000  0.96930000  1.0 -0.6497422577
O  O89  1  0.65100000  0.04990000  0.34340000  1.0 -0.4123126537
O  O90  1  0.04990000  0.34340000  0.65100000  1.0 -0.4123126537
O  O91  1  0.34340000  0.65100000  0.04990000  1.0 -0.4123126537
O  O92  1  0.23433000  0.23433000  0.23433000  1.0 -1.0271389902
O  O93  1  0.14620000  0.17830000  0.10850000  1.0 -0.400560992
O  O94  1  0.17830000  0.10850000  0.14620000  1.0 -0.400560992
O  O95  1  0.10850000  0.14620000  0.17830000  1.0 -0.400560992
O  O96  1  0.20160000  0.26970000  0.15040000  1.0 -0.6414842725
O  O97  1  0.26970000  0.15040000  0.20160000  1.0 -0.6414842725
O  O98  1  0.15040000  0.20160000  0.26970000  1.0 -0.6414842725
O  O99  1  0.35210000  0.27750000  0.25040000  1.0 -0.5936474026
O  O100  1  0.27750000  0.25040000  0.35210000  1.0 -0.5936474026
O  O101  1  0.25040000  0.35210000  0.27750000  1.0 -0.5936474026
O  O102  1  0.31950000  0.32590000  0.22890000  1.0 -0.4585737748
O  O103  1  0.32590000  0.22890000  0.31950000  1.0 -0.4585737748
O  O104  1  0.22890000  0.31950000  0.32590000  1.0 -0.4585737748
