# DDEC6 charges by PACMAN v1.1 (https://github.com/mtap-research/PACMAN-charge/)
data_GUGXIS_ASR_pacman
_symmetry_space_group_name_H-M   'P 1'
_cell_length_a   44.46070000
_cell_length_b   41.85160000
_cell_length_c   18.16940000
_cell_angle_alpha   86.04370000
_cell_angle_beta   69.89660000
_cell_angle_gamma   24.05980000
_symmetry_Int_Tables_number   1
_chemical_formula_structural   Zn3H56C88(N2O3)10
_chemical_formula_sum   'Zn12 H224 C352 N80 O120'
_cell_volume   9950.30823449
_cell_formula_units_Z   4
loop_
 _symmetry_equiv_pos_site_id
 _symmetry_equiv_pos_as_xyz
  1  'x, y, z'
loop_
 _atom_site_type_symbol
 _atom_site_label
 _atom_site_symmetry_multiplicity
 _atom_site_fract_x
 _atom_site_fract_y
 _atom_site_fract_z
 _atom_site_occupancy
 _atom_site_charge
Zn  Zn1  1  0.81540000  0.46400000  0.50868000  1.0 0.6783913039
Zn  Zn2  1  0.46400000  0.81540000  0.21192000  1.0 0.6783913039
Zn  Zn3  1  0.50868000  0.21192000  0.81540000  1.0 0.6749558908
Zn  Zn4  1  0.21192000  0.50868000  0.46400000  1.0 0.6749558908
Zn  Zn5  1  0.43460000  0.78600000  0.74132000  1.0 0.6783913039
Zn  Zn6  1  0.78600000  0.43460000  0.03808000  1.0 0.6749558908
Zn  Zn7  1  0.74132000  0.03808000  0.43460000  1.0 0.6783913039
Zn  Zn8  1  0.03808000  0.74132000  0.78600000  1.0 0.6783913039
Zn  Zn9  1  0.79140000  0.79140000  0.20860000  1.0 0.6783913039
Zn  Zn10  1  0.20860000  0.20860000  0.79140000  1.0 0.6783913039
Zn  Zn11  1  0.45860000  0.45860000  0.04140000  1.0 0.6783913039
Zn  Zn12  1  0.04140000  0.04140000  0.45860000  1.0 0.6783913039
H  H1  1  0.21100000  0.43050000  0.63246000  1.0 0.2387777929
H  H2  1  0.81123000  0.85873000  0.06031000  1.0 0.1948667181
H  H3  1  0.06145000  0.54935000  0.86589000  1.0 0.0997353712
H  H4  1  0.95892000  0.74150000  0.80688000  1.0 0.1106601612
H  H5  1  0.14877000  0.10647000  0.28035000  1.0 0.3406405909
H  H6  1  0.29473000  0.95145000  0.03651000  1.0 0.1377604626
H  H7  1  0.85520000  0.50458000  0.46774000  1.0 0.0814653598
H  H8  1  0.99747000  0.30345000  0.49311000  1.0 0.1317422593
H  H9  1  0.07576000  0.33186000  0.47588000  1.0 0.1317422593
H  H10  1  0.20497000  0.21851000  0.47033000  1.0 0.1218233517
H  H11  1  0.28019000  0.05333000  0.43039000  1.0 0.1317422593
H  H12  1  0.14938000  0.16782000  0.43816000  1.0 0.1218233517
H  H13  1  0.67564000  0.89988000  0.12982000  1.0 0.0997353712
H  H14  1  0.65192000  0.86084000  0.31756000  1.0 0.1106601612
H  H15  1  0.49127000  0.98941000  0.22055000  1.0 0.1377604626
H  H16  1  0.38935000  0.04027000  0.29393000  1.0 0.1317422593
H  H17  1  0.41647000  0.00465000  0.49769000  1.0 0.1317422593
H  H18  1  0.51940000  0.95268000  0.42342000  1.0 0.1218233517
H  H19  1  0.59718000  0.64806000  0.50076000  1.0 0.1106601612
H  H20  1  0.33577000  0.93909000  0.70857000  1.0 0.1106601612
H  H21  1  0.27087000  0.03775000  0.66553000  1.0 0.1106601612
H  H22  1  0.22491000  0.12679000  0.62281000  1.0 0.0997353712
H  H23  1  0.51083000  0.86091000  0.34387000  1.0 0.0997353712
H  H24  1  0.55721000  0.77233000  0.38903000  1.0 0.1106601612
H  H25  1  0.18782000  0.47094000  0.63034000  1.0 0.1974456422
H  H26  1  0.75852000  0.89862000  0.04960000  1.0 0.2058129398
H  H27  1  0.05587000  0.56593000  0.87175000  1.0 0.1218233517
H  H28  1  0.91744000  0.78676000  0.84550000  1.0 0.089366536
H  H29  1  0.43050000  0.21100000  0.72604000  1.0 0.2387777929
H  H30  1  0.85873000  0.81123000  0.26973000  1.0 0.1948667181
H  H31  1  0.54935000  0.06145000  0.52331000  1.0 0.0997353712
H  H32  1  0.74150000  0.95892000  0.49270000  1.0 0.1106601612
H  H33  1  0.10647000  0.14877000  0.46441000  1.0 0.3406405909
H  H34  1  0.95145000  0.29473000  0.71731000  1.0 0.1377604626
H  H35  1  0.50458000  0.85520000  0.17248000  1.0 0.0814653598
H  H36  1  0.30345000  0.99747000  0.20597000  1.0 0.1317422593
H  H37  1  0.33186000  0.07576000  0.11650000  1.0 0.1317422593
H  H38  1  0.21851000  0.20497000  0.10619000  1.0 0.1218233517
H  H39  1  0.05333000  0.28019000  0.23609000  1.0 0.1317422593
H  H40  1  0.16782000  0.14938000  0.24464000  1.0 0.1218233517
H  H41  1  0.89988000  0.67564000  0.29466000  1.0 0.0997353712
H  H42  1  0.86084000  0.65192000  0.16968000  1.0 0.1106601612
H  H43  1  0.98941000  0.49127000  0.29877000  1.0 0.1377604626
H  H44  1  0.04027000  0.38935000  0.27645000  1.0 0.1317422593
H  H45  1  0.00465000  0.41647000  0.08119000  1.0 0.1317422593
H  H46  1  0.95268000  0.51940000  0.10450000  1.0 0.1218233517
H  H47  1  0.64806000  0.59718000  0.25400000  1.0 0.1106601612
H  H48  1  0.93909000  0.33577000  0.01657000  1.0 0.1106601612
H  H49  1  0.03775000  0.27087000  0.02585000  1.0 0.1106601612
H  H50  1  0.12679000  0.22491000  0.02549000  1.0 0.0997353712
H  H51  1  0.86091000  0.51083000  0.28439000  1.0 0.0997353712
H  H52  1  0.77233000  0.55721000  0.28143000  1.0 0.1106601612
H  H53  1  0.47094000  0.18782000  0.71090000  1.0 0.1974456422
H  H54  1  0.89862000  0.75852000  0.29326000  1.0 0.2058129398
H  H55  1  0.56593000  0.05587000  0.50645000  1.0 0.1218233517
H  H56  1  0.78676000  0.91744000  0.45030000  1.0 0.089366536
H  H57  1  0.63246000  0.72604000  0.21100000  1.0 0.2387777929
H  H58  1  0.06031000  0.26973000  0.81123000  1.0 0.1948667181
H  H59  1  0.86589000  0.52331000  0.06145000  1.0 0.0997353712
H  H60  1  0.80688000  0.49270000  0.95892000  1.0 0.1106601612
H  H61  1  0.28035000  0.46441000  0.14877000  1.0 0.3406405909
H  H62  1  0.03651000  0.71731000  0.29473000  1.0 0.1377604626
H  H63  1  0.46774000  0.17248000  0.85520000  1.0 0.0814653598
H  H64  1  0.49311000  0.20597000  0.99747000  1.0 0.1317422593
H  H65  1  0.47588000  0.11650000  0.07576000  1.0 0.1317422593
H  H66  1  0.47033000  0.10619000  0.20497000  1.0 0.1218233517
H  H67  1  0.43039000  0.23609000  0.28019000  1.0 0.1317422593
H  H68  1  0.43816000  0.24464000  0.14938000  1.0 0.1218233517
H  H69  1  0.12982000  0.29466000  0.67564000  1.0 0.0997353712
H  H70  1  0.31756000  0.16968000  0.65192000  1.0 0.1106601612
H  H71  1  0.22055000  0.29877000  0.49127000  1.0 0.1377604626
H  H72  1  0.29393000  0.27645000  0.38935000  1.0 0.1317422593
H  H73  1  0.49769000  0.08119000  0.41647000  1.0 0.1317422593
H  H74  1  0.42342000  0.10450000  0.51940000  1.0 0.1218233517
H  H75  1  0.50076000  0.25400000  0.59718000  1.0 0.1106601612
H  H76  1  0.70857000  0.01657000  0.33577000  1.0 0.1106601612
H  H77  1  0.66553000  0.02585000  0.27087000  1.0 0.1106601612
H  H78  1  0.62281000  0.02549000  0.22491000  1.0 0.0997353712
H  H79  1  0.34387000  0.28439000  0.51083000  1.0 0.0997353712
H  H80  1  0.38903000  0.28143000  0.55721000  1.0 0.1106601612
H  H81  1  0.63034000  0.71090000  0.18782000  1.0 0.1974456422
H  H82  1  0.04960000  0.29326000  0.75852000  1.0 0.2058129398
H  H83  1  0.87175000  0.50645000  0.05587000  1.0 0.1218233517
H  H84  1  0.84550000  0.45030000  0.91744000  1.0 0.089366536
H  H85  1  0.72604000  0.63246000  0.43050000  1.0 0.2387777929
H  H86  1  0.26973000  0.06031000  0.85873000  1.0 0.1974456422
H  H87  1  0.52331000  0.86589000  0.54935000  1.0 0.0997353712
H  H88  1  0.49270000  0.80688000  0.74150000  1.0 0.1106601612
H  H89  1  0.46441000  0.28035000  0.10647000  1.0 0.3406405909
H  H90  1  0.71731000  0.03651000  0.95145000  1.0 0.1377604626
H  H91  1  0.17248000  0.46774000  0.50458000  1.0 0.0814653598
H  H92  1  0.20597000  0.49311000  0.30345000  1.0 0.1317422593
H  H93  1  0.11650000  0.47588000  0.33186000  1.0 0.1317422593
H  H94  1  0.10619000  0.47033000  0.21851000  1.0 0.1218233517
H  H95  1  0.23609000  0.43039000  0.05333000  1.0 0.1317422593
H  H96  1  0.24464000  0.43816000  0.16782000  1.0 0.1218233517
H  H97  1  0.29466000  0.12982000  0.89988000  1.0 0.0997353712
H  H98  1  0.16968000  0.31756000  0.86084000  1.0 0.1106601612
H  H99  1  0.29877000  0.22055000  0.98941000  1.0 0.1377604626
H  H100  1  0.27645000  0.29393000  0.04027000  1.0 0.1317422593
H  H101  1  0.08119000  0.49769000  0.00465000  1.0 0.1317422593
H  H102  1  0.10450000  0.42342000  0.95268000  1.0 0.1218233517
H  H103  1  0.25400000  0.50076000  0.64806000  1.0 0.1106601612
H  H104  1  0.01657000  0.70857000  0.93909000  1.0 0.1106601612
H  H105  1  0.02585000  0.66553000  0.03775000  1.0 0.1106601612
H  H106  1  0.02549000  0.62281000  0.12679000  1.0 0.0997353712
H  H107  1  0.28439000  0.34387000  0.86091000  1.0 0.0997353712
H  H108  1  0.28143000  0.38903000  0.77233000  1.0 0.1106601612
H  H109  1  0.71090000  0.63034000  0.47094000  1.0 0.1974456422
H  H110  1  0.29326000  0.04960000  0.89862000  1.0 0.2058129398
H  H111  1  0.50645000  0.87175000  0.56593000  1.0 0.1218233517
H  H112  1  0.45030000  0.84550000  0.78676000  1.0 0.089366536
H  H113  1  0.03900000  0.81950000  0.61754000  1.0 0.2387777929
H  H114  1  0.43877000  0.39127000  0.18969000  1.0 0.1948667181
H  H115  1  0.18855000  0.70065000  0.38411000  1.0 0.0997353712
H  H116  1  0.29108000  0.50850000  0.44312000  1.0 0.1106601612
H  H117  1  0.10123000  0.14353000  0.96965000  1.0 0.3406405909
H  H118  1  0.95527000  0.29855000  0.21349000  1.0 0.1377604626
H  H119  1  0.39480000  0.74542000  0.78226000  1.0 0.0814653598
H  H120  1  0.25253000  0.94655000  0.75689000  1.0 0.1317422593
H  H121  1  0.17424000  0.91814000  0.77412000  1.0 0.1317422593
H  H122  1  0.04503000  0.03149000  0.77967000  1.0 0.1218233517
H  H123  1  0.96981000  0.19667000  0.81961000  1.0 0.1317422593
H  H124  1  0.10062000  0.08218000  0.81184000  1.0 0.1218233517
H  H125  1  0.57436000  0.35012000  0.12018000  1.0 0.0997353712
H  H126  1  0.59808000  0.38916000  0.93244000  1.0 0.1106601612
H  H127  1  0.75873000  0.26059000  0.02945000  1.0 0.1377604626
H  H128  1  0.86065000  0.20973000  0.95607000  1.0 0.1317422593
H  H129  1  0.83353000  0.24535000  0.75231000  1.0 0.1317422593
H  H130  1  0.73060000  0.29732000  0.82658000  1.0 0.1218233517
H  H131  1  0.65282000  0.60194000  0.74924000  1.0 0.1106601612
H  H132  1  0.91423000  0.31091000  0.54143000  1.0 0.1106601612
H  H133  1  0.97913000  0.21225000  0.58447000  1.0 0.1106601612
H  H134  1  0.02509000  0.12321000  0.62719000  1.0 0.0997353712
H  H135  1  0.73917000  0.38909000  0.90613000  1.0 0.0997353712
H  H136  1  0.69279000  0.47767000  0.86097000  1.0 0.1106601612
H  H137  1  0.06218000  0.77906000  0.61966000  1.0 0.1974456422
H  H138  1  0.49148000  0.35138000  0.20040000  1.0 0.2058129398
H  H139  1  0.19413000  0.68407000  0.37825000  1.0 0.1218233517
H  H140  1  0.33256000  0.46324000  0.40450000  1.0 0.089366536
H  H141  1  0.81950000  0.03900000  0.52396000  1.0 0.2387777929
H  H142  1  0.39127000  0.43877000  0.98027000  1.0 0.1948667181
H  H143  1  0.70065000  0.18855000  0.72669000  1.0 0.0997353712
H  H144  1  0.50850000  0.29108000  0.75730000  1.0 0.1106601612
H  H145  1  0.14353000  0.10123000  0.78559000  1.0 0.3406405909
H  H146  1  0.29855000  0.95527000  0.53269000  1.0 0.1377604626
H  H147  1  0.74542000  0.39480000  0.07752000  1.0 0.0814653598
H  H148  1  0.94655000  0.25253000  0.04403000  1.0 0.1317422593
H  H149  1  0.91814000  0.17424000  0.13350000  1.0 0.1317422593
H  H150  1  0.03149000  0.04503000  0.14381000  1.0 0.1218233517
H  H151  1  0.19667000  0.96981000  0.01391000  1.0 0.1317422593
H  H152  1  0.08218000  0.10062000  0.00536000  1.0 0.1218233517
H  H153  1  0.35012000  0.57436000  0.95534000  1.0 0.0997353712
H  H154  1  0.38916000  0.59808000  0.08032000  1.0 0.1106601612
H  H155  1  0.26059000  0.75873000  0.95123000  1.0 0.1377604626
H  H156  1  0.20973000  0.86065000  0.97355000  1.0 0.1317422593
H  H157  1  0.24535000  0.83353000  0.16881000  1.0 0.1317422593
H  H158  1  0.29732000  0.73060000  0.14550000  1.0 0.1218233517
H  H159  1  0.60194000  0.65282000  0.99600000  1.0 0.1106601612
H  H160  1  0.31091000  0.91423000  0.23343000  1.0 0.1106601612
H  H161  1  0.21225000  0.97913000  0.22415000  1.0 0.1106601612
H  H162  1  0.12321000  0.02509000  0.22451000  1.0 0.0997353712
H  H163  1  0.38909000  0.73917000  0.96561000  1.0 0.0997353712
H  H164  1  0.47767000  0.69279000  0.96857000  1.0 0.1106601612
H  H165  1  0.77906000  0.06218000  0.53910000  1.0 0.1974456422
H  H166  1  0.35138000  0.49148000  0.95674000  1.0 0.2058129398
H  H167  1  0.68407000  0.19413000  0.74355000  1.0 0.1218233517
H  H168  1  0.46324000  0.33256000  0.79970000  1.0 0.089366536
H  H169  1  0.61754000  0.52396000  0.03900000  1.0 0.2387777929
H  H170  1  0.18969000  0.98027000  0.43877000  1.0 0.1948667181
H  H171  1  0.38411000  0.72669000  0.18855000  1.0 0.0997353712
H  H172  1  0.44312000  0.75730000  0.29108000  1.0 0.1106601612
H  H173  1  0.96965000  0.78559000  0.10123000  1.0 0.3406405909
H  H174  1  0.21349000  0.53269000  0.95527000  1.0 0.1377604626
H  H175  1  0.78226000  0.07752000  0.39480000  1.0 0.0814653598
H  H176  1  0.75689000  0.04403000  0.25253000  1.0 0.1317422593
H  H177  1  0.77412000  0.13350000  0.17424000  1.0 0.1317422593
H  H178  1  0.77967000  0.14381000  0.04503000  1.0 0.1218233517
H  H179  1  0.81961000  0.01391000  0.96981000  1.0 0.1317422593
H  H180  1  0.81184000  0.00536000  0.10062000  1.0 0.1218233517
H  H181  1  0.12018000  0.95534000  0.57436000  1.0 0.0997353712
H  H182  1  0.93244000  0.08032000  0.59808000  1.0 0.1106601612
H  H183  1  0.02945000  0.95123000  0.75873000  1.0 0.1377604626
H  H184  1  0.95607000  0.97355000  0.86065000  1.0 0.1317422593
H  H185  1  0.75231000  0.16881000  0.83353000  1.0 0.1317422593
H  H186  1  0.82658000  0.14550000  0.73060000  1.0 0.1218233517
H  H187  1  0.74924000  0.99600000  0.65282000  1.0 0.1106601612
H  H188  1  0.54143000  0.23343000  0.91423000  1.0 0.1106601612
H  H189  1  0.58447000  0.22415000  0.97913000  1.0 0.1106601612
H  H190  1  0.62719000  0.22451000  0.02509000  1.0 0.0997353712
H  H191  1  0.90613000  0.96561000  0.73917000  1.0 0.0997353712
H  H192  1  0.86097000  0.96857000  0.69279000  1.0 0.1106601612
H  H193  1  0.61966000  0.53910000  0.06218000  1.0 0.1974456422
H  H194  1  0.20040000  0.95674000  0.49148000  1.0 0.2058129398
H  H195  1  0.37825000  0.74355000  0.19413000  1.0 0.1218233517
H  H196  1  0.40450000  0.79970000  0.33256000  1.0 0.089366536
H  H197  1  0.52396000  0.61754000  0.81950000  1.0 0.2387777929
H  H198  1  0.98027000  0.18969000  0.39127000  1.0 0.1948667181
H  H199  1  0.72669000  0.38411000  0.70065000  1.0 0.0997353712
H  H200  1  0.75730000  0.44312000  0.50850000  1.0 0.1106601612
H  H201  1  0.78559000  0.96965000  0.14353000  1.0 0.3406405909
H  H202  1  0.53269000  0.21349000  0.29855000  1.0 0.1377604626
H  H203  1  0.07752000  0.78226000  0.74542000  1.0 0.0814653598
H  H204  1  0.04403000  0.75689000  0.94655000  1.0 0.1317422593
H  H205  1  0.13350000  0.77412000  0.91814000  1.0 0.1317422593
H  H206  1  0.14381000  0.77967000  0.03149000  1.0 0.1218233517
H  H207  1  0.01391000  0.81961000  0.19667000  1.0 0.1317422593
H  H208  1  0.00536000  0.81184000  0.08218000  1.0 0.1218233517
H  H209  1  0.95534000  0.12018000  0.35012000  1.0 0.0997353712
H  H210  1  0.08032000  0.93244000  0.38916000  1.0 0.1106601612
H  H211  1  0.95123000  0.02945000  0.26059000  1.0 0.1377604626
H  H212  1  0.97355000  0.95607000  0.20973000  1.0 0.1317422593
H  H213  1  0.16881000  0.75231000  0.24535000  1.0 0.1317422593
H  H214  1  0.14550000  0.82658000  0.29732000  1.0 0.1218233517
H  H215  1  0.99600000  0.74924000  0.60194000  1.0 0.1106601612
H  H216  1  0.23343000  0.54143000  0.31091000  1.0 0.1106601612
H  H217  1  0.22415000  0.58447000  0.21225000  1.0 0.1106601612
H  H218  1  0.22451000  0.62719000  0.12321000  1.0 0.0997353712
H  H219  1  0.96561000  0.90613000  0.38909000  1.0 0.0997353712
H  H220  1  0.96857000  0.86097000  0.47767000  1.0 0.1106601612
H  H221  1  0.53910000  0.61966000  0.77906000  1.0 0.1974456422
H  H222  1  0.95674000  0.20040000  0.35138000  1.0 0.2058129398
H  H223  1  0.74355000  0.37825000  0.68407000  1.0 0.1218233517
H  H224  1  0.79970000  0.40450000  0.46324000  1.0 0.089366536
C  C1  1  0.94910000  0.68930000  0.93970000  1.0 -0.0892294744
C  C2  1  0.04063000  0.58903000  0.85677000  1.0 -0.1163929753
C  C3  1  0.10116000  0.54636000  0.76224000  1.0 0.0814653598
C  C4  1  0.07034000  0.60254000  0.74206000  1.0 -0.0193947335
C  C5  1  0.98130000  0.70170000  0.81970000  1.0 -0.0553036483
C  C6  1  0.91980000  0.74620000  0.92480000  1.0 0.0511725125
C  C7  1  0.88520000  0.73480000  0.04320000  1.0 0.4444239748
C  C8  1  0.14031000  0.54871000  0.63129000  1.0 0.2331585035
C  C9  1  0.05802000  0.19664000  0.22672000  1.0 -0.1460480491
C  C10  1  0.15986000  0.09242000  0.17338000  1.0 0.2387777929
C  C11  1  0.22568000  0.02202000  0.07258000  1.0 -0.2201649543
C  C12  1  0.98584000  0.27424000  0.33576000  1.0 0.5443552149
C  C13  1  0.90173000  0.45031000  0.46989000  1.0 0.1106601612
C  C14  1  0.97671000  0.34313000  0.48427000  1.0 0.1106601612
C  C15  1  0.10077000  0.26013000  0.45827000  1.0 0.1218233517
C  C16  1  0.11695000  0.27557000  0.46723000  1.0 -0.1581318825
C  C17  1  0.19388000  0.20794000  0.46346000  1.0 -0.1895999672
C  C18  1  0.25528000  0.12494000  0.44986000  1.0 0.1786208575
C  C19  1  0.23834000  0.11022000  0.44018000  1.0 -0.1691763154
C  C20  1  0.16103000  0.17785000  0.44455000  1.0 -0.1691763154
C  C21  1  0.65425000  0.90231000  0.17589000  1.0 0.1218233517
C  C22  1  0.64310000  0.88012000  0.27648000  1.0 0.0814653598
C  C23  1  0.51479000  0.96563000  0.31477000  1.0 0.1218233517
C  C24  1  0.47633000  0.99209000  0.27651000  1.0 -0.1581318825
C  C25  1  0.41541000  0.02285000  0.32055000  1.0 -0.1830165159
C  C26  1  0.39214000  0.02846000  0.40334000  1.0 0.1786208575
C  C27  1  0.43164000  0.00158000  0.44142000  1.0 -0.1691763154
C  C28  1  0.49287000  0.97043000  0.39737000  1.0 -0.1830165159
C  C29  1  0.54163000  0.71527000  0.53233000  1.0 0.0511725125
C  C30  1  0.40036000  0.87186000  0.64554000  1.0 0.0102887993
C  C31  1  0.41751000  0.89771000  0.53009000  1.0 0.0997353712
C  C32  1  0.31959000  0.00193000  0.59987000  1.0 -0.2201649543
C  C33  1  0.29213000  0.05465000  0.57415000  1.0 -0.2368713362
C  C34  1  0.36245000  0.00241000  0.47759000  1.0 0.1612831292
C  C35  1  0.46148000  0.89728000  0.40932000  1.0 -0.2336707549
C  C36  1  0.48907000  0.84471000  0.43589000  1.0 -0.2107201834
C  C37  1  0.92960000  0.71440000  0.94420000  1.0 -0.0805173988
C  C38  1  0.02620000  0.61160000  0.86360000  1.0 -0.0892294744
C  C39  1  0.07888000  0.57808000  0.76632000  1.0 0.0511725125
C  C40  1  0.03586000  0.64446000  0.76254000  1.0 -0.0540647595
C  C41  1  0.94290000  0.74290000  0.85010000  1.0 -0.1320600087
C  C42  1  0.88950000  0.77930000  0.93470000  1.0 0.1106601612
C  C43  1  0.86810000  0.75430000  0.04370000  1.0 0.418619146
C  C44  1  0.08609000  0.61429000  0.66651000  1.0 0.2387777929
C  C45  1  0.68930000  0.94910000  0.42190000  1.0 -0.0892294744
C  C46  1  0.58903000  0.04063000  0.51357000  1.0 -0.1163929753
C  C47  1  0.54636000  0.10116000  0.59024000  1.0 0.0814653598
C  C48  1  0.60254000  0.07034000  0.58506000  1.0 -0.0193947335
C  C49  1  0.70170000  0.98130000  0.49730000  1.0 -0.0540647595
C  C50  1  0.74620000  0.91980000  0.40920000  1.0 0.0511725125
C  C51  1  0.73480000  0.88520000  0.33680000  1.0 0.4444239748
C  C52  1  0.54871000  0.14031000  0.67969000  1.0 0.2331585035
C  C53  1  0.19664000  0.05802000  0.51862000  1.0 -0.1460480491
C  C54  1  0.09242000  0.15986000  0.57434000  1.0 0.2387777929
C  C55  1  0.02202000  0.22568000  0.67972000  1.0 -0.2201649543
C  C56  1  0.27424000  0.98584000  0.40416000  1.0 0.5443552149
C  C57  1  0.45031000  0.90173000  0.17807000  1.0 0.1106601612
C  C58  1  0.34313000  0.97671000  0.19589000  1.0 0.1106601612
C  C59  1  0.26013000  0.10077000  0.18083000  1.0 0.1218233517
C  C60  1  0.27557000  0.11695000  0.14025000  1.0 -0.1581318825
C  C61  1  0.20794000  0.19388000  0.13472000  1.0 -0.1895999672
C  C62  1  0.12494000  0.25528000  0.16992000  1.0 0.1786208575
C  C63  1  0.11022000  0.23834000  0.21126000  1.0 -0.1691763154
C  C64  1  0.17785000  0.16103000  0.21657000  1.0 -0.1691763154
C  C65  1  0.90231000  0.65425000  0.26755000  1.0 0.1218233517
C  C66  1  0.88012000  0.64310000  0.20030000  1.0 0.0814653598
C  C67  1  0.96563000  0.51479000  0.20481000  1.0 0.1218233517
C  C68  1  0.99209000  0.47633000  0.25507000  1.0 -0.1581318825
C  C69  1  0.02285000  0.41541000  0.24119000  1.0 -0.1830165159
C  C70  1  0.02846000  0.39214000  0.17606000  1.0 0.1786208575
C  C71  1  0.00158000  0.43164000  0.12536000  1.0 -0.1691763154
C  C72  1  0.97043000  0.49287000  0.13933000  1.0 -0.1830165159
C  C73  1  0.71527000  0.54163000  0.21077000  1.0 0.0511725125
C  C74  1  0.87186000  0.40036000  0.08224000  1.0 0.0102887993
C  C75  1  0.89771000  0.41751000  0.15469000  1.0 0.0997353712
C  C76  1  0.00193000  0.31959000  0.07861000  1.0 -0.2201649543
C  C77  1  0.05465000  0.29213000  0.07907000  1.0 -0.2368713362
C  C78  1  0.00241000  0.36245000  0.15755000  1.0 0.1612831292
C  C79  1  0.89728000  0.46148000  0.23192000  1.0 -0.2336707549
C  C80  1  0.84471000  0.48907000  0.23033000  1.0 -0.2107201834
C  C81  1  0.71440000  0.92960000  0.41180000  1.0 -0.0805173988
C  C82  1  0.61160000  0.02620000  0.49860000  1.0 -0.0892294744
C  C83  1  0.57808000  0.07888000  0.57672000  1.0 0.0511725125
C  C84  1  0.64446000  0.03586000  0.55714000  1.0 -0.0540647595
C  C85  1  0.74290000  0.94290000  0.46410000  1.0 -0.1320600087
C  C86  1  0.77930000  0.88950000  0.39650000  1.0 0.1106601612
C  C87  1  0.75430000  0.86810000  0.33390000  1.0 0.418619146
C  C88  1  0.61429000  0.08609000  0.63311000  1.0 0.2387777929
C  C89  1  0.93970000  0.42190000  0.94910000  1.0 -0.0892294744
C  C90  1  0.85677000  0.51357000  0.04063000  1.0 -0.1163929753
C  C91  1  0.76224000  0.59024000  0.10116000  1.0 0.0814653598
C  C92  1  0.74206000  0.58506000  0.07034000  1.0 -0.0193947335
C  C93  1  0.81970000  0.49730000  0.98130000  1.0 -0.0553036483
C  C94  1  0.92480000  0.40920000  0.91980000  1.0 0.0511725125
C  C95  1  0.04320000  0.33680000  0.88520000  1.0 0.4444239748
C  C96  1  0.63129000  0.67969000  0.14031000  1.0 0.2331585035
C  C97  1  0.22672000  0.51862000  0.05802000  1.0 -0.1460480491
C  C98  1  0.17338000  0.57434000  0.15986000  1.0 0.2387777929
C  C99  1  0.07258000  0.67972000  0.22568000  1.0 -0.2201649543
C  C100  1  0.33576000  0.40416000  0.98584000  1.0 0.5443552149
C  C101  1  0.46989000  0.17807000  0.90173000  1.0 0.1106601612
C  C102  1  0.48427000  0.19589000  0.97671000  1.0 0.1106601612
C  C103  1  0.45827000  0.18083000  0.10077000  1.0 0.1218233517
C  C104  1  0.46723000  0.14025000  0.11695000  1.0 -0.1581318825
C  C105  1  0.46346000  0.13472000  0.19388000  1.0 -0.1895999672
C  C106  1  0.44986000  0.16992000  0.25528000  1.0 0.1786208575
C  C107  1  0.44018000  0.21126000  0.23834000  1.0 -0.1691763154
C  C108  1  0.44455000  0.21657000  0.16103000  1.0 -0.1691763154
C  C109  1  0.17589000  0.26755000  0.65425000  1.0 0.1218233517
C  C110  1  0.27648000  0.20030000  0.64310000  1.0 0.0814653598
C  C111  1  0.31477000  0.20481000  0.51479000  1.0 0.1218233517
C  C112  1  0.27651000  0.25507000  0.47633000  1.0 -0.1581318825
C  C113  1  0.32055000  0.24119000  0.41541000  1.0 -0.1830165159
C  C114  1  0.40334000  0.17606000  0.39214000  1.0 0.1786208575
C  C115  1  0.44142000  0.12536000  0.43164000  1.0 -0.1691763154
C  C116  1  0.39737000  0.13933000  0.49287000  1.0 -0.1830165159
C  C117  1  0.53233000  0.21077000  0.54163000  1.0 0.0511725125
C  C118  1  0.64554000  0.08224000  0.40036000  1.0 0.0102887993
C  C119  1  0.53009000  0.15469000  0.41751000  1.0 0.0997353712
C  C120  1  0.59987000  0.07861000  0.31959000  1.0 -0.2201649543
C  C121  1  0.57415000  0.07907000  0.29213000  1.0 -0.2368713362
C  C122  1  0.47759000  0.15755000  0.36245000  1.0 0.1612831292
C  C123  1  0.40932000  0.23192000  0.46148000  1.0 -0.2336707549
C  C124  1  0.43589000  0.23033000  0.48907000  1.0 -0.2107201834
C  C125  1  0.94420000  0.41180000  0.92960000  1.0 -0.0805173988
C  C126  1  0.86360000  0.49860000  0.02620000  1.0 -0.0892294744
C  C127  1  0.76632000  0.57672000  0.07888000  1.0 0.0511725125
C  C128  1  0.76254000  0.55714000  0.03586000  1.0 -0.0540647595
C  C129  1  0.85010000  0.46410000  0.94290000  1.0 -0.1320600087
C  C130  1  0.93470000  0.39650000  0.88950000  1.0 0.1106601612
C  C131  1  0.04370000  0.33390000  0.86810000  1.0 0.418619146
C  C132  1  0.66651000  0.63311000  0.08609000  1.0 0.2331585035
C  C133  1  0.42190000  0.93970000  0.68930000  1.0 -0.0892294744
C  C134  1  0.51357000  0.85677000  0.58903000  1.0 -0.1163929753
C  C135  1  0.59024000  0.76224000  0.54636000  1.0 0.0814653598
C  C136  1  0.58506000  0.74206000  0.60254000  1.0 -0.0193947335
C  C137  1  0.49730000  0.81970000  0.70170000  1.0 -0.0553036483
C  C138  1  0.40920000  0.92480000  0.74620000  1.0 0.0511725125
C  C139  1  0.33680000  0.04320000  0.73480000  1.0 0.4444239748
C  C140  1  0.67969000  0.63129000  0.54871000  1.0 0.2331585035
C  C141  1  0.51862000  0.22672000  0.19664000  1.0 -0.1460480491
C  C142  1  0.57434000  0.17338000  0.09242000  1.0 0.2387777929
C  C143  1  0.67972000  0.07258000  0.02202000  1.0 -0.2201649543
C  C144  1  0.40416000  0.33576000  0.27424000  1.0 0.5443552149
C  C145  1  0.17807000  0.46989000  0.45031000  1.0 0.1106601612
C  C146  1  0.19589000  0.48427000  0.34313000  1.0 0.1106601612
C  C147  1  0.18083000  0.45827000  0.26013000  1.0 0.1218233517
C  C148  1  0.14025000  0.46723000  0.27557000  1.0 -0.1581318825
C  C149  1  0.13472000  0.46346000  0.20794000  1.0 -0.1895999672
C  C150  1  0.16992000  0.44986000  0.12494000  1.0 0.1786208575
C  C151  1  0.21126000  0.44018000  0.11022000  1.0 -0.1691763154
C  C152  1  0.21657000  0.44455000  0.17785000  1.0 -0.1691763154
C  C153  1  0.26755000  0.17589000  0.90231000  1.0 0.1218233517
C  C154  1  0.20030000  0.27648000  0.88012000  1.0 0.0814653598
C  C155  1  0.20481000  0.31477000  0.96563000  1.0 0.1218233517
C  C156  1  0.25507000  0.27651000  0.99209000  1.0 -0.1581318825
C  C157  1  0.24119000  0.32055000  0.02285000  1.0 -0.1830165159
C  C158  1  0.17606000  0.40334000  0.02846000  1.0 0.1786208575
C  C159  1  0.12536000  0.44142000  0.00158000  1.0 -0.1691763154
C  C160  1  0.13933000  0.39737000  0.97043000  1.0 -0.1830165159
C  C161  1  0.21077000  0.53233000  0.71527000  1.0 0.0511725125
C  C162  1  0.08224000  0.64554000  0.87186000  1.0 0.0102887993
C  C163  1  0.15469000  0.53009000  0.89771000  1.0 0.0997353712
C  C164  1  0.07861000  0.59987000  0.00193000  1.0 -0.2201649543
C  C165  1  0.07907000  0.57415000  0.05465000  1.0 -0.2368713362
C  C166  1  0.15755000  0.47759000  0.00241000  1.0 0.1612831292
C  C167  1  0.23192000  0.40932000  0.89728000  1.0 -0.2336707549
C  C168  1  0.23033000  0.43589000  0.84471000  1.0 -0.2107201834
C  C169  1  0.41180000  0.94420000  0.71440000  1.0 -0.0805173988
C  C170  1  0.49860000  0.86360000  0.61160000  1.0 -0.0892294744
C  C171  1  0.57672000  0.76632000  0.57808000  1.0 0.0511725125
C  C172  1  0.55714000  0.76254000  0.64446000  1.0 -0.0540647595
C  C173  1  0.46410000  0.85010000  0.74290000  1.0 -0.1320600087
C  C174  1  0.39650000  0.93470000  0.77930000  1.0 0.1106601612
C  C175  1  0.33390000  0.04370000  0.75430000  1.0 0.418619146
C  C176  1  0.63311000  0.66651000  0.61429000  1.0 0.2387777929
C  C177  1  0.30090000  0.56070000  0.31030000  1.0 -0.0892294744
C  C178  1  0.20937000  0.66097000  0.39323000  1.0 -0.1163929753
C  C179  1  0.14884000  0.70364000  0.48776000  1.0 0.0814653598
C  C180  1  0.17966000  0.64746000  0.50794000  1.0 -0.0193947335
C  C181  1  0.26870000  0.54830000  0.43030000  1.0 -0.0553036483
C  C182  1  0.33020000  0.50380000  0.32520000  1.0 0.0511725125
C  C183  1  0.36480000  0.51520000  0.20680000  1.0 0.4444239748
C  C184  1  0.10969000  0.70129000  0.61871000  1.0 0.2331585035
C  C185  1  0.19198000  0.05336000  0.02328000  1.0 -0.1460480491
C  C186  1  0.09014000  0.15758000  0.07662000  1.0 0.2387777929
C  C187  1  0.02432000  0.22798000  0.17742000  1.0 -0.2201649543
C  C188  1  0.26416000  0.97576000  0.91424000  1.0 0.5443552149
C  C189  1  0.34827000  0.79969000  0.78011000  1.0 0.1106601612
C  C190  1  0.27329000  0.90687000  0.76573000  1.0 0.1106601612
C  C191  1  0.14923000  0.98987000  0.79173000  1.0 0.1218233517
C  C192  1  0.13305000  0.97443000  0.78277000  1.0 -0.1581318825
C  C193  1  0.05612000  0.04206000  0.78654000  1.0 -0.1895999672
C  C194  1  0.99472000  0.12506000  0.80014000  1.0 0.1786208575
C  C195  1  0.01166000  0.13978000  0.80982000  1.0 -0.1691763154
C  C196  1  0.08897000  0.07215000  0.80545000  1.0 -0.1691763154
C  C197  1  0.59575000  0.34769000  0.07411000  1.0 0.1218233517
C  C198  1  0.60690000  0.36988000  0.97352000  1.0 0.0814653598
C  C199  1  0.73521000  0.28437000  0.93523000  1.0 0.1218233517
C  C200  1  0.77367000  0.25791000  0.97349000  1.0 -0.1581318825
C  C201  1  0.83459000  0.22715000  0.92945000  1.0 -0.1830165159
C  C202  1  0.85786000  0.22154000  0.84666000  1.0 0.1786208575
C  C203  1  0.81836000  0.24842000  0.80858000  1.0 -0.1691763154
C  C204  1  0.75713000  0.27957000  0.85263000  1.0 -0.1830165159
C  C205  1  0.70837000  0.53473000  0.71767000  1.0 0.0511725125
C  C206  1  0.84964000  0.37814000  0.60446000  1.0 0.0102887993
C  C207  1  0.83249000  0.35229000  0.71991000  1.0 0.0997353712
C  C208  1  0.93041000  0.24807000  0.65013000  1.0 -0.2201649543
C  C209  1  0.95787000  0.19535000  0.67585000  1.0 -0.2368713362
C  C210  1  0.88755000  0.24759000  0.77241000  1.0 0.1612831292
C  C211  1  0.78852000  0.35272000  0.84068000  1.0 -0.2336707549
C  C212  1  0.76093000  0.40529000  0.81411000  1.0 -0.2107201834
C  C213  1  0.32040000  0.53560000  0.30580000  1.0 -0.0805173988
C  C214  1  0.22380000  0.63840000  0.38640000  1.0 -0.0892294744
C  C215  1  0.17112000  0.67192000  0.48368000  1.0 0.0511725125
C  C216  1  0.21414000  0.60554000  0.48746000  1.0 -0.0553036483
C  C217  1  0.30710000  0.50710000  0.39990000  1.0 -0.1320600087
C  C218  1  0.36050000  0.47070000  0.31530000  1.0 0.1106601612
C  C219  1  0.38190000  0.49570000  0.20630000  1.0 0.418619146
C  C220  1  0.16391000  0.63571000  0.58349000  1.0 0.2387777929
C  C221  1  0.56070000  0.30090000  0.82810000  1.0 -0.0892294744
C  C222  1  0.66097000  0.20937000  0.73643000  1.0 -0.1163929753
C  C223  1  0.70364000  0.14884000  0.65976000  1.0 0.0814653598
C  C224  1  0.64746000  0.17966000  0.66494000  1.0 -0.0193947335
C  C225  1  0.54830000  0.26870000  0.75270000  1.0 -0.0553036483
C  C226  1  0.50380000  0.33020000  0.84080000  1.0 0.0511725125
C  C227  1  0.51520000  0.36480000  0.91320000  1.0 0.4444239748
C  C228  1  0.70129000  0.10969000  0.57031000  1.0 0.2331585035
C  C229  1  0.05336000  0.19198000  0.73138000  1.0 -0.1460480491
C  C230  1  0.15758000  0.09014000  0.67566000  1.0 0.2387777929
C  C231  1  0.22798000  0.02432000  0.57028000  1.0 -0.2201649543
C  C232  1  0.97576000  0.26416000  0.84584000  1.0 0.5443552149
C  C233  1  0.79969000  0.34827000  0.07193000  1.0 0.1106601612
C  C234  1  0.90687000  0.27329000  0.05411000  1.0 0.1106601612
C  C235  1  0.98987000  0.14923000  0.06917000  1.0 0.1218233517
C  C236  1  0.97443000  0.13305000  0.10975000  1.0 -0.1581318825
C  C237  1  0.04206000  0.05612000  0.11528000  1.0 -0.1895999672
C  C238  1  0.12506000  0.99472000  0.08008000  1.0 0.1786208575
C  C239  1  0.13978000  0.01166000  0.03874000  1.0 -0.1691763154
C  C240  1  0.07215000  0.08897000  0.03343000  1.0 -0.1691763154
C  C241  1  0.34769000  0.59575000  0.98245000  1.0 0.1218233517
C  C242  1  0.36988000  0.60690000  0.04970000  1.0 0.0814653598
C  C243  1  0.28437000  0.73521000  0.04519000  1.0 0.1218233517
C  C244  1  0.25791000  0.77367000  0.99493000  1.0 -0.1581318825
C  C245  1  0.22715000  0.83459000  0.00881000  1.0 -0.1830165159
C  C246  1  0.22154000  0.85786000  0.07394000  1.0 0.1786208575
C  C247  1  0.24842000  0.81836000  0.12464000  1.0 -0.1691763154
C  C248  1  0.27957000  0.75713000  0.11067000  1.0 -0.1830165159
C  C249  1  0.53473000  0.70837000  0.03923000  1.0 0.0511725125
C  C250  1  0.37814000  0.84964000  0.16776000  1.0 0.0102887993
C  C251  1  0.35229000  0.83249000  0.09531000  1.0 0.0997353712
C  C252  1  0.24807000  0.93041000  0.17139000  1.0 -0.2201649543
C  C253  1  0.19535000  0.95787000  0.17093000  1.0 -0.2368713362
C  C254  1  0.24759000  0.88755000  0.09245000  1.0 0.1612831292
C  C255  1  0.35272000  0.78852000  0.01808000  1.0 -0.2336707549
C  C256  1  0.40529000  0.76093000  0.01967000  1.0 -0.2107201834
C  C257  1  0.53560000  0.32040000  0.83820000  1.0 -0.0805173988
C  C258  1  0.63840000  0.22380000  0.75140000  1.0 -0.0892294744
C  C259  1  0.67192000  0.17112000  0.67328000  1.0 0.0511725125
C  C260  1  0.60554000  0.21414000  0.69286000  1.0 -0.0540647595
C  C261  1  0.50710000  0.30710000  0.78590000  1.0 -0.1320600087
C  C262  1  0.47070000  0.36050000  0.85350000  1.0 0.1106601612
C  C263  1  0.49570000  0.38190000  0.91610000  1.0 0.418619146
C  C264  1  0.63571000  0.16391000  0.61689000  1.0 0.2387777929
C  C265  1  0.31030000  0.82810000  0.30090000  1.0 -0.0892294744
C  C266  1  0.39323000  0.73643000  0.20937000  1.0 -0.1163929753
C  C267  1  0.48776000  0.65976000  0.14884000  1.0 0.0814653598
C  C268  1  0.50794000  0.66494000  0.17966000  1.0 -0.0193947335
C  C269  1  0.43030000  0.75270000  0.26870000  1.0 -0.0553036483
C  C270  1  0.32520000  0.84080000  0.33020000  1.0 0.0511725125
C  C271  1  0.20680000  0.91320000  0.36480000  1.0 0.4444239748
C  C272  1  0.61871000  0.57031000  0.10969000  1.0 0.2331585035
C  C273  1  0.02328000  0.73138000  0.19198000  1.0 -0.1460480491
C  C274  1  0.07662000  0.67566000  0.09014000  1.0 0.2387777929
C  C275  1  0.17742000  0.57028000  0.02432000  1.0 -0.2201649543
C  C276  1  0.91424000  0.84584000  0.26416000  1.0 0.5443552149
C  C277  1  0.78011000  0.07193000  0.34827000  1.0 0.1106601612
C  C278  1  0.76573000  0.05411000  0.27329000  1.0 0.1106601612
C  C279  1  0.79173000  0.06917000  0.14923000  1.0 0.1218233517
C  C280  1  0.78277000  0.10975000  0.13305000  1.0 -0.1581318825
C  C281  1  0.78654000  0.11528000  0.05612000  1.0 -0.1895999672
C  C282  1  0.80014000  0.08008000  0.99472000  1.0 0.1786208575
C  C283  1  0.80982000  0.03874000  0.01166000  1.0 -0.1691763154
C  C284  1  0.80545000  0.03343000  0.08897000  1.0 -0.1691763154
C  C285  1  0.07411000  0.98245000  0.59575000  1.0 0.1218233517
C  C286  1  0.97352000  0.04970000  0.60690000  1.0 0.0814653598
C  C287  1  0.93523000  0.04519000  0.73521000  1.0 0.1218233517
C  C288  1  0.97349000  0.99493000  0.77367000  1.0 -0.1581318825
C  C289  1  0.92945000  0.00881000  0.83459000  1.0 -0.1830165159
C  C290  1  0.84666000  0.07394000  0.85786000  1.0 0.1786208575
C  C291  1  0.80858000  0.12464000  0.81836000  1.0 -0.1691763154
C  C292  1  0.85263000  0.11067000  0.75713000  1.0 -0.1830165159
C  C293  1  0.71767000  0.03923000  0.70837000  1.0 0.0511725125
C  C294  1  0.60446000  0.16776000  0.84964000  1.0 0.0102887993
C  C295  1  0.71991000  0.09531000  0.83249000  1.0 0.0997353712
C  C296  1  0.65013000  0.17139000  0.93041000  1.0 -0.2201649543
C  C297  1  0.67585000  0.17093000  0.95787000  1.0 -0.2368713362
C  C298  1  0.77241000  0.09245000  0.88755000  1.0 0.1612831292
C  C299  1  0.84068000  0.01808000  0.78852000  1.0 -0.2336707549
C  C300  1  0.81411000  0.01967000  0.76093000  1.0 -0.2107201834
C  C301  1  0.30580000  0.83820000  0.32040000  1.0 -0.0805173988
C  C302  1  0.38640000  0.75140000  0.22380000  1.0 -0.0892294744
C  C303  1  0.48368000  0.67328000  0.17112000  1.0 0.0511725125
C  C304  1  0.48746000  0.69286000  0.21414000  1.0 -0.0540647595
C  C305  1  0.39990000  0.78590000  0.30710000  1.0 -0.1320600087
C  C306  1  0.31530000  0.85350000  0.36050000  1.0 0.1106601612
C  C307  1  0.20630000  0.91610000  0.38190000  1.0 0.418619146
C  C308  1  0.58349000  0.61689000  0.16391000  1.0 0.2387777929
C  C309  1  0.82810000  0.31030000  0.56070000  1.0 -0.0892294744
C  C310  1  0.73643000  0.39323000  0.66097000  1.0 -0.1163929753
C  C311  1  0.65976000  0.48776000  0.70364000  1.0 0.0814653598
C  C312  1  0.66494000  0.50794000  0.64746000  1.0 -0.0193947335
C  C313  1  0.75270000  0.43030000  0.54830000  1.0 -0.0553036483
C  C314  1  0.84080000  0.32520000  0.50380000  1.0 0.0511725125
C  C315  1  0.91320000  0.20680000  0.51520000  1.0 0.4444239748
C  C316  1  0.57031000  0.61871000  0.70129000  1.0 0.2331585035
C  C317  1  0.73138000  0.02328000  0.05336000  1.0 -0.1460480491
C  C318  1  0.67566000  0.07662000  0.15758000  1.0 0.2387777929
C  C319  1  0.57028000  0.17742000  0.22798000  1.0 -0.2201649543
C  C320  1  0.84584000  0.91424000  0.97576000  1.0 0.5443552149
C  C321  1  0.07193000  0.78011000  0.79969000  1.0 0.1106601612
C  C322  1  0.05411000  0.76573000  0.90687000  1.0 0.1106601612
C  C323  1  0.06917000  0.79173000  0.98987000  1.0 0.1218233517
C  C324  1  0.10975000  0.78277000  0.97443000  1.0 -0.1581318825
C  C325  1  0.11528000  0.78654000  0.04206000  1.0 -0.1895999672
C  C326  1  0.08008000  0.80014000  0.12506000  1.0 0.1786208575
C  C327  1  0.03874000  0.80982000  0.13978000  1.0 -0.1691763154
C  C328  1  0.03343000  0.80545000  0.07215000  1.0 -0.1691763154
C  C329  1  0.98245000  0.07411000  0.34769000  1.0 0.1218233517
C  C330  1  0.04970000  0.97352000  0.36988000  1.0 0.0814653598
C  C331  1  0.04519000  0.93523000  0.28437000  1.0 0.1218233517
C  C332  1  0.99493000  0.97349000  0.25791000  1.0 -0.1581318825
C  C333  1  0.00881000  0.92945000  0.22715000  1.0 -0.1830165159
C  C334  1  0.07394000  0.84666000  0.22154000  1.0 0.1786208575
C  C335  1  0.12464000  0.80858000  0.24842000  1.0 -0.1691763154
C  C336  1  0.11067000  0.85263000  0.27957000  1.0 -0.1830165159
C  C337  1  0.03923000  0.71767000  0.53473000  1.0 0.0511725125
C  C338  1  0.16776000  0.60446000  0.37814000  1.0 0.0102887993
C  C339  1  0.09531000  0.71991000  0.35229000  1.0 0.0997353712
C  C340  1  0.17139000  0.65013000  0.24807000  1.0 -0.2201649543
C  C341  1  0.17093000  0.67585000  0.19535000  1.0 -0.2368713362
C  C342  1  0.09245000  0.77241000  0.24759000  1.0 0.1612831292
C  C343  1  0.01808000  0.84068000  0.35272000  1.0 -0.2336707549
C  C344  1  0.01967000  0.81411000  0.40529000  1.0 -0.2107201834
C  C345  1  0.83820000  0.30580000  0.53560000  1.0 -0.0805173988
C  C346  1  0.75140000  0.38640000  0.63840000  1.0 -0.0892294744
C  C347  1  0.67328000  0.48368000  0.67192000  1.0 0.0511725125
C  C348  1  0.69286000  0.48746000  0.60554000  1.0 -0.0540647595
C  C349  1  0.78590000  0.39990000  0.50710000  1.0 -0.1320600087
C  C350  1  0.85350000  0.31530000  0.47070000  1.0 0.1106601612
C  C351  1  0.91610000  0.20630000  0.49570000  1.0 0.418619146
C  C352  1  0.61689000  0.58349000  0.63571000  1.0 0.2387777929
N  N1  1  0.69124000  0.86096000  0.21944000  1.0 -0.3869886237
N  N2  1  0.58630000  0.94606000  0.20274000  1.0 -0.2689147262
N  N3  1  0.58091000  0.93021000  0.26759000  1.0 0.1218233517
N  N4  1  0.90180000  0.41834000  0.48722000  1.0 -0.3718688773
N  N5  1  0.97123000  0.40023000  0.45637000  1.0 -0.2689147262
N  N6  1  0.01805000  0.33205000  0.46715000  1.0 0.1218233517
N  N7  1  0.45716000  0.79390000  0.63430000  1.0 -0.4381555455
N  N8  1  0.53956000  0.74032000  0.48188000  1.0 -0.306734209
N  N9  1  0.44716000  0.84202000  0.55570000  1.0 -0.0009248697
N  N10  1  0.33242000  0.05708000  0.44852000  1.0 -0.2107201834
N  N11  1  0.86096000  0.69124000  0.22836000  1.0 -0.3869886237
N  N12  1  0.94606000  0.58630000  0.26490000  1.0 -0.2689147262
N  N13  1  0.93021000  0.58091000  0.22129000  1.0 0.1218233517
N  N14  1  0.41834000  0.90180000  0.19264000  1.0 -0.3718688773
N  N15  1  0.40023000  0.97123000  0.17217000  1.0 -0.2689147262
N  N16  1  0.33205000  0.01805000  0.18275000  1.0 0.1218233517
N  N17  1  0.79390000  0.45716000  0.11464000  1.0 -0.4381555455
N  N18  1  0.74032000  0.53956000  0.23824000  1.0 -0.306734209
N  N19  1  0.84202000  0.44716000  0.15512000  1.0 -0.0009248697
N  N20  1  0.05708000  0.33242000  0.16198000  1.0 -0.2107201834
N  N21  1  0.21944000  0.22836000  0.69124000  1.0 -0.3869886237
N  N22  1  0.20274000  0.26490000  0.58630000  1.0 -0.2689147262
N  N23  1  0.26759000  0.22129000  0.58091000  1.0 0.1218233517
N  N24  1  0.48722000  0.19264000  0.90180000  1.0 -0.3718688773
N  N25  1  0.45637000  0.17217000  0.97123000  1.0 -0.2689147262
N  N26  1  0.46715000  0.18275000  0.01805000  1.0 0.1218233517
N  N27  1  0.63430000  0.11464000  0.45716000  1.0 -0.4381555455
N  N28  1  0.48188000  0.23824000  0.53956000  1.0 -0.306734209
N  N29  1  0.55570000  0.15512000  0.44716000  1.0 -0.0009248697
N  N30  1  0.44852000  0.16198000  0.33242000  1.0 -0.2107201834
N  N31  1  0.22836000  0.21944000  0.86096000  1.0 -0.3869886237
N  N32  1  0.26490000  0.20274000  0.94606000  1.0 -0.2689147262
N  N33  1  0.22129000  0.26759000  0.93021000  1.0 0.1218233517
N  N34  1  0.19264000  0.48722000  0.41834000  1.0 -0.3718688773
N  N35  1  0.17217000  0.45637000  0.40023000  1.0 -0.2689147262
N  N36  1  0.18275000  0.46715000  0.33205000  1.0 0.1218233517
N  N37  1  0.11464000  0.63430000  0.79390000  1.0 -0.4381555455
N  N38  1  0.23824000  0.48188000  0.74032000  1.0 -0.306734209
N  N39  1  0.15512000  0.55570000  0.84202000  1.0 -0.0009248697
N  N40  1  0.16198000  0.44852000  0.05708000  1.0 -0.2107201834
N  N41  1  0.55876000  0.38904000  0.03056000  1.0 -0.3869886237
N  N42  1  0.66370000  0.30394000  0.04726000  1.0 -0.2689147262
N  N43  1  0.66909000  0.31979000  0.98241000  1.0 0.1218233517
N  N44  1  0.34820000  0.83166000  0.76278000  1.0 -0.3718688773
N  N45  1  0.27877000  0.84977000  0.79363000  1.0 -0.2689147262
N  N46  1  0.23195000  0.91795000  0.78285000  1.0 0.1218233517
N  N47  1  0.79284000  0.45610000  0.61570000  1.0 -0.4381555455
N  N48  1  0.71044000  0.50968000  0.76812000  1.0 -0.306734209
N  N49  1  0.80284000  0.40798000  0.69430000  1.0 -0.0009248697
N  N50  1  0.91758000  0.19292000  0.80148000  1.0 -0.2107201834
N  N51  1  0.38904000  0.55876000  0.02164000  1.0 -0.3869886237
N  N52  1  0.30394000  0.66370000  0.98510000  1.0 -0.2689147262
N  N53  1  0.31979000  0.66909000  0.02871000  1.0 0.1218233517
N  N54  1  0.83166000  0.34820000  0.05736000  1.0 -0.3718688773
N  N55  1  0.84977000  0.27877000  0.07783000  1.0 -0.2689147262
N  N56  1  0.91795000  0.23195000  0.06725000  1.0 0.1218233517
N  N57  1  0.45610000  0.79284000  0.13536000  1.0 -0.4381555455
N  N58  1  0.50968000  0.71044000  0.01176000  1.0 -0.306734209
N  N59  1  0.40798000  0.80284000  0.09488000  1.0 -0.0009248697
N  N60  1  0.19292000  0.91758000  0.08802000  1.0 -0.2107201834
N  N61  1  0.03056000  0.02164000  0.55876000  1.0 -0.3869886237
N  N62  1  0.04726000  0.98510000  0.66370000  1.0 -0.2689147262
N  N63  1  0.98241000  0.02871000  0.66909000  1.0 0.1218233517
N  N64  1  0.76278000  0.05736000  0.34820000  1.0 -0.3718688773
N  N65  1  0.79363000  0.07783000  0.27877000  1.0 -0.2689147262
N  N66  1  0.78285000  0.06725000  0.23195000  1.0 0.1218233517
N  N67  1  0.61570000  0.13536000  0.79284000  1.0 -0.4381555455
N  N68  1  0.76812000  0.01176000  0.71044000  1.0 -0.306734209
N  N69  1  0.69430000  0.09488000  0.80284000  1.0 -0.0009248697
N  N70  1  0.80148000  0.08802000  0.91758000  1.0 -0.2107201834
N  N71  1  0.02164000  0.03056000  0.38904000  1.0 -0.3869886237
N  N72  1  0.98510000  0.04726000  0.30394000  1.0 -0.2689147262
N  N73  1  0.02871000  0.98241000  0.31979000  1.0 0.1218233517
N  N74  1  0.05736000  0.76278000  0.83166000  1.0 -0.3718688773
N  N75  1  0.07783000  0.79363000  0.84977000  1.0 -0.2689147262
N  N76  1  0.06725000  0.78285000  0.91795000  1.0 0.1218233517
N  N77  1  0.13536000  0.61570000  0.45610000  1.0 -0.4381555455
N  N78  1  0.01176000  0.76812000  0.50968000  1.0 -0.306734209
N  N79  1  0.09488000  0.69430000  0.40798000  1.0 -0.0009248697
N  N80  1  0.08802000  0.80148000  0.19292000  1.0 -0.2107201834
O  O1  1  0.91690000  0.68010000  0.05590000  1.0 -0.4342387852
O  O2  1  0.79950000  0.82890000  0.11970000  1.0 -0.1320600087
O  O3  1  0.22055000  0.45987000  0.56433000  1.0 -0.1581318825
O  O4  1  0.11617000  0.59517000  0.61143000  1.0 0.0381662369
O  O5  1  0.19316000  0.44456000  0.68904000  1.0 -0.1691763154
O  O6  1  0.83270000  0.84570000  0.00430000  1.0 -0.0540647595
O  O7  1  0.89661000  0.36741000  0.37801000  1.0 -0.5598934578
O  O8  1  0.01811000  0.24299000  0.37883000  1.0 -0.5832263964
O  O9  1  0.19685000  0.05755000  0.21809000  1.0 -0.4623505125
O  O10  1  0.90180000  0.69860000  0.05540000  1.0 -0.306734209
O  O11  1  0.77580000  0.84940000  0.11460000  1.0 -0.2107201834
O  O12  1  0.17586000  0.52306000  0.58614000  1.0 0.0381662369
O  O13  1  0.04353000  0.66513000  0.64447000  1.0 -0.1691763154
O  O14  1  0.17321000  0.47801000  0.68379000  1.0 -0.0553036483
O  O15  1  0.79640000  0.87820000  0.00960000  1.0 -0.0998681557
O  O16  1  0.68010000  0.91690000  0.34710000  1.0 -0.4381555455
O  O17  1  0.82890000  0.79950000  0.25190000  1.0 -0.1320600087
O  O18  1  0.45987000  0.22055000  0.75525000  1.0 -0.1581318825
O  O19  1  0.59517000  0.11617000  0.67723000  1.0 0.0381662369
O  O20  1  0.44456000  0.19316000  0.67324000  1.0 -0.1691763154
O  O21  1  0.84570000  0.83270000  0.31730000  1.0 -0.0540647595
O  O22  1  0.36741000  0.89661000  0.35797000  1.0 -0.5598934578
O  O23  1  0.24299000  0.01811000  0.36007000  1.0 -0.5832263964
O  O24  1  0.05755000  0.19685000  0.52751000  1.0 -0.4623505125
O  O25  1  0.69860000  0.90180000  0.34420000  1.0 -0.306734209
O  O26  1  0.84940000  0.77580000  0.26020000  1.0 -0.2107201834
O  O27  1  0.52306000  0.17586000  0.71494000  1.0 0.0381662369
O  O28  1  0.66513000  0.04353000  0.64687000  1.0 -0.1691763154
O  O29  1  0.47801000  0.17321000  0.66499000  1.0 -0.0553036483
O  O30  1  0.87820000  0.79640000  0.31580000  1.0 -0.0998681557
O  O31  1  0.05590000  0.34710000  0.91690000  1.0 -0.4342387852
O  O32  1  0.11970000  0.25190000  0.79950000  1.0 -0.1320600087
O  O33  1  0.56433000  0.75525000  0.22055000  1.0 -0.1581318825
O  O34  1  0.61143000  0.67723000  0.11617000  1.0 0.0381662369
O  O35  1  0.68904000  0.67324000  0.19316000  1.0 -0.1691763154
O  O36  1  0.00430000  0.31730000  0.83270000  1.0 -0.0540647595
O  O37  1  0.37801000  0.35797000  0.89661000  1.0 -0.5598934578
O  O38  1  0.37883000  0.36007000  0.01811000  1.0 -0.5832263964
O  O39  1  0.21809000  0.52751000  0.19685000  1.0 -0.4623505125
O  O40  1  0.05540000  0.34420000  0.90180000  1.0 -0.3037389355
O  O41  1  0.11460000  0.26020000  0.77580000  1.0 -0.2107201834
O  O42  1  0.58614000  0.71494000  0.17586000  1.0 0.0381662369
O  O43  1  0.64447000  0.64687000  0.04353000  1.0 -0.1691763154
O  O44  1  0.68379000  0.66499000  0.17321000  1.0 -0.0540647595
O  O45  1  0.00960000  0.31580000  0.79640000  1.0 -0.0998681557
O  O46  1  0.34710000  0.05590000  0.68010000  1.0 -0.4342387852
O  O47  1  0.25190000  0.11970000  0.82890000  1.0 -0.1320600087
O  O48  1  0.75525000  0.56433000  0.45987000  1.0 -0.1581318825
O  O49  1  0.67723000  0.61143000  0.59517000  1.0 0.0381662369
O  O50  1  0.67324000  0.68904000  0.44456000  1.0 -0.1691763154
O  O51  1  0.31730000  0.00430000  0.84570000  1.0 -0.0540647595
O  O52  1  0.35797000  0.37801000  0.36741000  1.0 -0.5598934578
O  O53  1  0.36007000  0.37883000  0.24299000  1.0 -0.5832263964
O  O54  1  0.52751000  0.21809000  0.05755000  1.0 -0.4623505125
O  O55  1  0.34420000  0.05540000  0.69860000  1.0 -0.3037389355
O  O56  1  0.26020000  0.11460000  0.84940000  1.0 -0.2107201834
O  O57  1  0.71494000  0.58614000  0.52306000  1.0 0.0381662369
O  O58  1  0.64687000  0.64447000  0.66513000  1.0 -0.1691763154
O  O59  1  0.66499000  0.68379000  0.47801000  1.0 -0.0553036483
O  O60  1  0.31580000  0.00960000  0.87820000  1.0 -0.0998681557
O  O61  1  0.33310000  0.56990000  0.19410000  1.0 -0.4342387852
O  O62  1  0.45050000  0.42110000  0.13030000  1.0 -0.1320600087
O  O63  1  0.02945000  0.79013000  0.68567000  1.0 -0.1581318825
O  O64  1  0.13383000  0.65483000  0.63857000  1.0 0.0381662369
O  O65  1  0.05684000  0.80544000  0.56096000  1.0 -0.1691763154
O  O66  1  0.41730000  0.40430000  0.24570000  1.0 -0.0540647595
O  O67  1  0.35339000  0.88259000  0.87199000  1.0 -0.5598934578
O  O68  1  0.23189000  0.00701000  0.87117000  1.0 -0.5832263964
O  O69  1  0.05315000  0.19245000  0.03191000  1.0 -0.4623505125
O  O70  1  0.34820000  0.55140000  0.19460000  1.0 -0.3037389355
O  O71  1  0.47420000  0.40060000  0.13540000  1.0 -0.2107201834
O  O72  1  0.07414000  0.72694000  0.66386000  1.0 0.0381662369
O  O73  1  0.20647000  0.58487000  0.60553000  1.0 -0.1691763154
O  O74  1  0.07679000  0.77199000  0.56621000  1.0 -0.0553036483
O  O75  1  0.45360000  0.37180000  0.24040000  1.0 -0.0998681557
O  O76  1  0.56990000  0.33310000  0.90290000  1.0 -0.4381555455
O  O77  1  0.42110000  0.45050000  0.99810000  1.0 -0.1320600087
O  O78  1  0.79013000  0.02945000  0.49475000  1.0 -0.1581318825
O  O79  1  0.65483000  0.13383000  0.57277000  1.0 0.0381662369
O  O80  1  0.80544000  0.05684000  0.57676000  1.0 -0.1691763154
O  O81  1  0.40430000  0.41730000  0.93270000  1.0 -0.0540647595
O  O82  1  0.88259000  0.35339000  0.89203000  1.0 -0.5598934578
O  O83  1  0.00701000  0.23189000  0.88993000  1.0 -0.5832263964
O  O84  1  0.19245000  0.05315000  0.72249000  1.0 -0.4623505125
O  O85  1  0.55140000  0.34820000  0.90580000  1.0 -0.3037389355
O  O86  1  0.40060000  0.47420000  0.98980000  1.0 -0.2047923642
O  O87  1  0.72694000  0.07414000  0.53506000  1.0 0.0381662369
O  O88  1  0.58487000  0.20647000  0.60313000  1.0 -0.1691763154
O  O89  1  0.77199000  0.07679000  0.58501000  1.0 -0.0553036483
O  O90  1  0.37180000  0.45360000  0.93420000  1.0 -0.0998681557
O  O91  1  0.19410000  0.90290000  0.33310000  1.0 -0.4342387852
O  O92  1  0.13030000  0.99810000  0.45050000  1.0 -0.1320600087
O  O93  1  0.68567000  0.49475000  0.02945000  1.0 -0.1581318825
O  O94  1  0.63857000  0.57277000  0.13383000  1.0 0.0381662369
O  O95  1  0.56096000  0.57676000  0.05684000  1.0 -0.1691763154
O  O96  1  0.24570000  0.93270000  0.41730000  1.0 -0.0540647595
O  O97  1  0.87199000  0.89203000  0.35339000  1.0 -0.5598934578
O  O98  1  0.87117000  0.88993000  0.23189000  1.0 -0.5832263964
O  O99  1  0.03191000  0.72249000  0.05315000  1.0 -0.4623505125
O  O100  1  0.19460000  0.90580000  0.34820000  1.0 -0.3037389355
O  O101  1  0.13540000  0.98980000  0.47420000  1.0 -0.2107201834
O  O102  1  0.66386000  0.53506000  0.07414000  1.0 0.0381662369
O  O103  1  0.60553000  0.60313000  0.20647000  1.0 -0.1691763154
O  O104  1  0.56621000  0.58501000  0.07679000  1.0 -0.0553036483
O  O105  1  0.24040000  0.93420000  0.45360000  1.0 -0.0998681557
O  O106  1  0.90290000  0.19410000  0.56990000  1.0 -0.4342387852
O  O107  1  0.99810000  0.13030000  0.42110000  1.0 -0.1320600087
O  O108  1  0.49475000  0.68567000  0.79013000  1.0 -0.1581318825
O  O109  1  0.57277000  0.63857000  0.65483000  1.0 0.0381662369
O  O110  1  0.57676000  0.56096000  0.80544000  1.0 -0.1691763154
O  O111  1  0.93270000  0.24570000  0.40430000  1.0 -0.0540647595
O  O112  1  0.89203000  0.87199000  0.88259000  1.0 -0.5598934578
O  O113  1  0.88993000  0.87117000  0.00701000  1.0 -0.5832263964
O  O114  1  0.72249000  0.03191000  0.19245000  1.0 -0.4623505125
O  O115  1  0.90580000  0.19460000  0.55140000  1.0 -0.3037389355
O  O116  1  0.98980000  0.13540000  0.40060000  1.0 -0.2107201834
O  O117  1  0.53506000  0.66386000  0.72694000  1.0 0.0381662369
O  O118  1  0.60313000  0.60553000  0.58487000  1.0 -0.1691763154
O  O119  1  0.58501000  0.56621000  0.77199000  1.0 -0.0553036483
O  O120  1  0.93420000  0.24040000  0.37180000  1.0 -0.0998681557
