# DDEC6 charges by PACMAN v1.1 (https://github.com/mtap-research/PACMAN-charge/)
data_GUKBUL_ion_pacman
_symmetry_space_group_name_H-M   'P 1'
_cell_length_a   23.92320000
_cell_length_b   23.92320000
_cell_length_c   31.04000000
_cell_angle_alpha   50.24380000
_cell_angle_beta   129.75600000
_cell_angle_gamma   149.99900000
_symmetry_Int_Tables_number   1
_chemical_formula_structural   Cd3H42C46(N7O8)2
_chemical_formula_sum   'Cd12 H168 C184 N56 O64'
_cell_volume   6656.94767579
_cell_formula_units_Z   4
loop_
 _symmetry_equiv_pos_site_id
 _symmetry_equiv_pos_as_xyz
  1  'x, y, z'
loop_
 _atom_site_type_symbol
 _atom_site_label
 _atom_site_symmetry_multiplicity
 _atom_site_fract_x
 _atom_site_fract_y
 _atom_site_fract_z
 _atom_site_occupancy
 _atom_site_charge
Cd  Cd1  1  0.99640000  0.75150000  0.60427000  1.0 0.9401929468
Cd  Cd2  1  0.75150000  0.99640000  0.89573000  1.0 0.9401929468
Cd  Cd3  1  0.00360000  0.24850000  0.39573000  1.0 0.9401929468
Cd  Cd4  1  0.24850000  0.00360000  0.10427000  1.0 0.9401929468
Cd  Cd5  1  0.44456000  0.61850000  0.92952000  1.0 0.8440498302
Cd  Cd6  1  0.61850000  0.44456000  0.57048000  1.0 0.8440498302
Cd  Cd7  1  0.55544000  0.38150000  0.07048000  1.0 0.8455213099
Cd  Cd8  1  0.38150000  0.55544000  0.42952000  1.0 0.8440498302
Cd  Cd9  1  0.05577000  0.33463000  0.87940000  1.0 0.862520957
Cd  Cd10  1  0.33463000  0.05577000  0.62060000  1.0 0.862520957
Cd  Cd11  1  0.94423000  0.66537000  0.12060000  1.0 0.862520957
Cd  Cd12  1  0.66537000  0.94423000  0.37940000  1.0 0.862520957
H  H1  1  0.49640000  0.56940000  0.06370000  1.0 0.1111954624
H  H2  1  0.56940000  0.49640000  0.43630000  1.0 0.1111954624
H  H3  1  0.50360000  0.43060000  0.93630000  1.0 0.1111954624
H  H4  1  0.43060000  0.50360000  0.56370000  1.0 0.1111954624
H  H5  1  0.42380000  0.71960000  0.79050000  1.0 0.1190321891
H  H6  1  0.71960000  0.42380000  0.70950000  1.0 0.1190321891
H  H7  1  0.57620000  0.28040000  0.20950000  1.0 0.1190321891
H  H8  1  0.28040000  0.57620000  0.29050000  1.0 0.1190321891
H  H9  1  0.98030000  0.63710000  0.73190000  1.0 0.1190321891
H  H10  1  0.63710000  0.98030000  0.76810000  1.0 0.1190321891
H  H11  1  0.01970000  0.36290000  0.26810000  1.0 0.1190321891
H  H12  1  0.36290000  0.01970000  0.23190000  1.0 0.1190321891
H  H13  1  0.52130000  0.59270000  0.13790000  1.0 0.1393554501
H  H14  1  0.59270000  0.52130000  0.36210000  1.0 0.1393554501
H  H15  1  0.47870000  0.40730000  0.86210000  1.0 0.1393554501
H  H16  1  0.40730000  0.47870000  0.63790000  1.0 0.1393554501
H  H17  1  0.46480000  0.76600000  0.71550000  1.0 0.1303370442
H  H18  1  0.76600000  0.46480000  0.78450000  1.0 0.1303370442
H  H19  1  0.53520000  0.23400000  0.28450000  1.0 0.1303370442
H  H20  1  0.23400000  0.53520000  0.21550000  1.0 0.1303370442
H  H21  1  0.01640000  0.65280000  0.81340000  1.0 0.1467299886
H  H22  1  0.65280000  0.01640000  0.68660000  1.0 0.1467299886
H  H23  1  0.98360000  0.34720000  0.18660000  1.0 0.1467299886
H  H24  1  0.34720000  0.98360000  0.31340000  1.0 0.1467299886
H  H25  1  0.15400000  0.56680000  0.78900000  1.0 0.1393554501
H  H26  1  0.56680000  0.15400000  0.71100000  1.0 0.1393554501
H  H27  1  0.84600000  0.43320000  0.21100000  1.0 0.1393554501
H  H28  1  0.43320000  0.84600000  0.28900000  1.0 0.1393554501
H  H29  1  0.17790000  0.60070000  0.83280000  1.0 0.1393554501
H  H30  1  0.60070000  0.17790000  0.66720000  1.0 0.1393554501
H  H31  1  0.82210000  0.39930000  0.16720000  1.0 0.1393554501
H  H32  1  0.39930000  0.82210000  0.33280000  1.0 0.1393554501
H  H33  1  0.03130000  0.00830000  0.45800000  1.0 0.1393554501
H  H34  1  0.00830000  0.03130000  0.04200000  1.0 0.1393554501
H  H35  1  0.96870000  0.99170000  0.54200000  1.0 0.1393554501
H  H36  1  0.99170000  0.96870000  0.95800000  1.0 0.1393554501
H  H37  1  0.11830000  0.05570000  0.44090000  1.0 0.1303370442
H  H38  1  0.05570000  0.11830000  0.05910000  1.0 0.1303370442
H  H39  1  0.88170000  0.94430000  0.55910000  1.0 0.1303370442
H  H40  1  0.94430000  0.88170000  0.94090000  1.0 0.1303370442
H  H41  1  0.31890000  0.76470000  0.75430000  1.0 0.1111954624
H  H42  1  0.76470000  0.31890000  0.74570000  1.0 0.1111954624
H  H43  1  0.68110000  0.23530000  0.24570000  1.0 0.1111954624
H  H44  1  0.23530000  0.68110000  0.25430000  1.0 0.1111954624
H  H45  1  0.33590000  0.79610000  0.79620000  1.0 0.0993808135
H  H46  1  0.79610000  0.33590000  0.70380000  1.0 0.0993808135
H  H47  1  0.66410000  0.20390000  0.20380000  1.0 0.0993808135
H  H48  1  0.20390000  0.66410000  0.29620000  1.0 0.0993808135
H  H49  1  0.14560000  0.19820000  0.40350000  1.0 0.0908909429
H  H50  1  0.19820000  0.14560000  0.09650000  1.0 0.0908909429
H  H51  1  0.85440000  0.80180000  0.59650000  1.0 0.0908909429
H  H52  1  0.80180000  0.85440000  0.90350000  1.0 0.0908909429
H  H53  1  0.25660000  0.24020000  0.44910000  1.0 0.0993808135
H  H54  1  0.24020000  0.25660000  0.05090000  1.0 0.0993808135
H  H55  1  0.74340000  0.75980000  0.55090000  1.0 0.0993808135
H  H56  1  0.75980000  0.74340000  0.94910000  1.0 0.0993808135
H  H57  1  0.46530000  0.76390000  0.01990000  1.0 0.1393554501
H  H58  1  0.76390000  0.46530000  0.48010000  1.0 0.1393554501
H  H59  1  0.53470000  0.23610000  0.98010000  1.0 0.1393554501
H  H60  1  0.23610000  0.53470000  0.51990000  1.0 0.1393554501
H  H61  1  0.49160000  0.56860000  0.81730000  1.0 0.1303370442
H  H62  1  0.56860000  0.49160000  0.68270000  1.0 0.1303370442
H  H63  1  0.50840000  0.43140000  0.18270000  1.0 0.1303370442
H  H64  1  0.43140000  0.50840000  0.31730000  1.0 0.1303370442
H  H65  1  0.11630000  0.94030000  0.72180000  1.0 0.1393554501
H  H66  1  0.94030000  0.11630000  0.77820000  1.0 0.1393554501
H  H67  1  0.88370000  0.05970000  0.27820000  1.0 0.1393554501
H  H68  1  0.05970000  0.88370000  0.22180000  1.0 0.1393554501
H  H69  1  0.16120000  0.72100000  0.74870000  1.0 0.1190321891
H  H70  1  0.72100000  0.16120000  0.75130000  1.0 0.1190321891
H  H71  1  0.83880000  0.27900000  0.25130000  1.0 0.1190321891
H  H72  1  0.27900000  0.83880000  0.24870000  1.0 0.1190321891
H  H73  1  0.13840000  0.68200000  0.70850000  1.0 0.1393554501
H  H74  1  0.68200000  0.13840000  0.79150000  1.0 0.1393554501
H  H75  1  0.86160000  0.31800000  0.29150000  1.0 0.1393554501
H  H76  1  0.31800000  0.86160000  0.20850000  1.0 0.1393554501
H  H77  1  0.19210000  0.18350000  0.51780000  1.0 0.1393554501
H  H78  1  0.18350000  0.19210000  0.98220000  1.0 0.1393554501
H  H79  1  0.80790000  0.81650000  0.48220000  1.0 0.1393554501
H  H80  1  0.81650000  0.80790000  0.01780000  1.0 0.1393554501
H  H81  1  0.08740000  0.15140000  0.46970000  1.0 0.1190321891
H  H82  1  0.15140000  0.08740000  0.03030000  1.0 0.1190321891
H  H83  1  0.91260000  0.84860000  0.53030000  1.0 0.1190321891
H  H84  1  0.84860000  0.91260000  0.96970000  1.0 0.1190321891
H  H85  1  0.43310000  0.72450000  0.95110000  1.0 0.1111954624
H  H86  1  0.72450000  0.43310000  0.54890000  1.0 0.1111954624
H  H87  1  0.56690000  0.27550000  0.04890000  1.0 0.1111954624
H  H88  1  0.27550000  0.56690000  0.45110000  1.0 0.1111954624
H  H89  1  0.45630000  0.53410000  0.88930000  1.0 0.1111954624
H  H90  1  0.53410000  0.45630000  0.61070000  1.0 0.1111954624
H  H91  1  0.54370000  0.46590000  0.11070000  1.0 0.1111954624
H  H92  1  0.46590000  0.54370000  0.38930000  1.0 0.1111954624
H  H93  1  0.07750000  0.91470000  0.64370000  1.0 0.1190321891
H  H94  1  0.91470000  0.07750000  0.85630000  1.0 0.1190321891
H  H95  1  0.92250000  0.08530000  0.35630000  1.0 0.1190321891
H  H96  1  0.08530000  0.92250000  0.14370000  1.0 0.1190321891
H  H97  1  0.54410000  0.68210000  0.17230000  1.0 0.1111954624
H  H98  1  0.68210000  0.54410000  0.32770000  1.0 0.1111954624
H  H99  1  0.45590000  0.31790000  0.82770000  1.0 0.1111954624
H  H100  1  0.31790000  0.45590000  0.67230000  1.0 0.1111954624
H  H101  1  0.50300000  0.65020000  0.71510000  1.0 0.0993808135
H  H102  1  0.65020000  0.50300000  0.78490000  1.0 0.0993808135
H  H103  1  0.49700000  0.34980000  0.28490000  1.0 0.0993808135
H  H104  1  0.34980000  0.49700000  0.21510000  1.0 0.0993808135
H  H105  1  0.09010000  0.76250000  0.86540000  1.0 0.1111954624
H  H106  1  0.76250000  0.09010000  0.63460000  1.0 0.1111954624
H  H107  1  0.90990000  0.23750000  0.13460000  1.0 0.1111954624
H  H108  1  0.23750000  0.90990000  0.36540000  1.0 0.1111954624
H  H109  1  0.54200000  0.87720000  0.12880000  1.0 0.1190321891
H  H110  1  0.87720000  0.54200000  0.37120000  1.0 0.1190321891
H  H111  1  0.45800000  0.12280000  0.87120000  1.0 0.1190321891
H  H112  1  0.12280000  0.45800000  0.62880000  1.0 0.1190321891
H  H113  1  0.57800000  0.90580000  0.58140000  1.0 0.1190321891
H  H114  1  0.90580000  0.57800000  0.91860000  1.0 0.1190321891
H  H115  1  0.42200000  0.09420000  0.41860000  1.0 0.1190321891
H  H116  1  0.09420000  0.42200000  0.08140000  1.0 0.1190321891
H  H117  1  0.19020000  0.02300000  0.84280000  1.0 0.1111954624
H  H118  1  0.02300000  0.19020000  0.65720000  1.0 0.1190321891
H  H119  1  0.80980000  0.97700000  0.15720000  1.0 0.1190321891
H  H120  1  0.97700000  0.80980000  0.34280000  1.0 0.1111954624
H  H121  1  0.61250000  0.00490000  0.24000000  1.0 0.1190321891
H  H122  1  0.00490000  0.61250000  0.26000000  1.0 0.1190321891
H  H123  1  0.38750000  0.99510000  0.76000000  1.0 0.1190321891
H  H124  1  0.99510000  0.38750000  0.74000000  1.0 0.1190321891
H  H125  1  0.61940000  0.80400000  0.50240000  1.0 0.1111954624
H  H126  1  0.80400000  0.61940000  0.99760000  1.0 0.1111954624
H  H127  1  0.38060000  0.19600000  0.49760000  1.0 0.1111954624
H  H128  1  0.19600000  0.38060000  0.00240000  1.0 0.1111954624
H  H129  1  0.22580000  0.10100000  0.96730000  1.0 0.1111954624
H  H130  1  0.10100000  0.22580000  0.53270000  1.0 0.1111954624
H  H131  1  0.77420000  0.89900000  0.03270000  1.0 0.1111954624
H  H132  1  0.89900000  0.77420000  0.46730000  1.0 0.1111954624
H  H133  1  0.55160000  0.95100000  0.16580000  1.0 0.1467299886
H  H134  1  0.95100000  0.55160000  0.33420000  1.0 0.1467299886
H  H135  1  0.44840000  0.04900000  0.83420000  1.0 0.1467299886
H  H136  1  0.04900000  0.44840000  0.66580000  1.0 0.1467299886
H  H137  1  0.57140000  0.75660000  0.57490000  1.0 0.1303370442
H  H138  1  0.75660000  0.57140000  0.92510000  1.0 0.1303370442
H  H139  1  0.42860000  0.24340000  0.42510000  1.0 0.1303370442
H  H140  1  0.24340000  0.42860000  0.07490000  1.0 0.1303370442
H  H141  1  0.19850000  0.08790000  0.88710000  1.0 0.1303370442
H  H142  1  0.08790000  0.19850000  0.61290000  1.0 0.1303370442
H  H143  1  0.80150000  0.91210000  0.11290000  1.0 0.1303370442
H  H144  1  0.91210000  0.80150000  0.38710000  1.0 0.1303370442
H  H145  1  0.61140000  0.78400000  0.27960000  1.0 0.1190321891
H  H146  1  0.78400000  0.61140000  0.22040000  1.0 0.1190321891
H  H147  1  0.38860000  0.21600000  0.72040000  1.0 0.1190321891
H  H148  1  0.21600000  0.38860000  0.77960000  1.0 0.1190321891
H  H149  1  0.62820000  0.01640000  0.48490000  1.0 0.1393554501
H  H150  1  0.01640000  0.62820000  0.01510000  1.0 0.1393554501
H  H151  1  0.37180000  0.98360000  0.51510000  1.0 0.1393554501
H  H152  1  0.98360000  0.37180000  0.98490000  1.0 0.1393554501
H  H153  1  0.23180000  0.89760000  0.98990000  1.0 0.1393554501
H  H154  1  0.89760000  0.23180000  0.51010000  1.0 0.1393554501
H  H155  1  0.76820000  0.10240000  0.01010000  1.0 0.1393554501
H  H156  1  0.10240000  0.76820000  0.48990000  1.0 0.1393554501
H  H157  1  0.65520000  0.82660000  0.35180000  1.0 0.1111954624
H  H158  1  0.82660000  0.65520000  0.14820000  1.0 0.1111954624
H  H159  1  0.34480000  0.17340000  0.64820000  1.0 0.1111954624
H  H160  1  0.17340000  0.34480000  0.85180000  1.0 0.1111954624
H  H161  1  0.67210000  0.05130000  0.41650000  1.0 0.1190321891
H  H162  1  0.05130000  0.67210000  0.08350000  1.0 0.1190321891
H  H163  1  0.32790000  0.94870000  0.58350000  1.0 0.1190321891
H  H164  1  0.94870000  0.32790000  0.91650000  1.0 0.1190321891
H  H165  1  0.26810000  0.92410000  0.06880000  1.0 0.1111954624
H  H166  1  0.92410000  0.26810000  0.43120000  1.0 0.1111954624
H  H167  1  0.73190000  0.07590000  0.93120000  1.0 0.1111954624
H  H168  1  0.07590000  0.73190000  0.56880000  1.0 0.1111954624
C  C1  1  0.49120000  0.61000000  0.05510000  1.0 0.0595521478
C  C2  1  0.61000000  0.49120000  0.44490000  1.0 0.0595521478
C  C3  1  0.50880000  0.39000000  0.94490000  1.0 0.0595521478
C  C4  1  0.39000000  0.50880000  0.55510000  1.0 0.0595521478
C  C5  1  0.44110000  0.69210000  0.79640000  1.0 0.0409602537
C  C6  1  0.69210000  0.44110000  0.70360000  1.0 0.0409602537
C  C7  1  0.55890000  0.30790000  0.20360000  1.0 0.0409602537
C  C8  1  0.30790000  0.55890000  0.29640000  1.0 0.0409602537
C  C9  1  0.00420000  0.69660000  0.72960000  1.0 0.0993808135
C  C10  1  0.69660000  0.00420000  0.77040000  1.0 0.0993808135
C  C11  1  0.99580000  0.30340000  0.27040000  1.0 0.0993808135
C  C12  1  0.30340000  0.99580000  0.22960000  1.0 0.0993808135
C  C13  1  0.28910000  0.61330000  0.85580000  1.0 0.6041751593
C  C14  1  0.61330000  0.28910000  0.64420000  1.0 0.6041751593
C  C15  1  0.71090000  0.38670000  0.14420000  1.0 0.6041751593
C  C16  1  0.38670000  0.71090000  0.35580000  1.0 0.6041751593
C  C17  1  0.15770000  0.03470000  0.52850000  1.0 0.6279700711
C  C18  1  0.03470000  0.15770000  0.97150000  1.0 0.6279700711
C  C19  1  0.84230000  0.96530000  0.47150000  1.0 0.6279700711
C  C20  1  0.96530000  0.84230000  0.02850000  1.0 0.6279700711
C  C21  1  0.50670000  0.62390000  0.10000000  1.0 -0.2009456193
C  C22  1  0.62390000  0.50670000  0.40000000  1.0 -0.2009456193
C  C23  1  0.49330000  0.37610000  0.90000000  1.0 -0.2009456193
C  C24  1  0.37610000  0.49330000  0.60000000  1.0 -0.2009456193
C  C25  1  0.46240000  0.71820000  0.75030000  1.0 -0.1507922235
C  C26  1  0.71820000  0.46240000  0.74970000  1.0 -0.1507922235
C  C27  1  0.53760000  0.28180000  0.24970000  1.0 -0.1507922235
C  C28  1  0.28180000  0.53760000  0.25030000  1.0 -0.1507922235
C  C29  1  0.02890000  0.70690000  0.77940000  1.0 -0.2009456193
C  C30  1  0.70690000  0.02890000  0.72060000  1.0 -0.2009456193
C  C31  1  0.97110000  0.29310000  0.22060000  1.0 -0.2009456193
C  C32  1  0.29310000  0.97110000  0.27940000  1.0 -0.2009456193
C  C33  1  0.21420000  0.62160000  0.81260000  1.0 -0.3408192307
C  C34  1  0.62160000  0.21420000  0.68740000  1.0 -0.3408192307
C  C35  1  0.78580000  0.37840000  0.18740000  1.0 -0.3408192307
C  C36  1  0.37840000  0.78580000  0.31260000  1.0 -0.3408192307
C  C37  1  0.11190000  0.06350000  0.46410000  1.0 -0.3260267884
C  C38  1  0.06350000  0.11190000  0.03590000  1.0 -0.3260267884
C  C39  1  0.88810000  0.93650000  0.53590000  1.0 -0.3260267884
C  C40  1  0.93650000  0.88810000  0.96410000  1.0 -0.3247305662
C  C41  1  0.50010000  0.68530000  0.08750000  1.0 0.1111954624
C  C42  1  0.68530000  0.50010000  0.41250000  1.0 0.1111954624
C  C43  1  0.49990000  0.31470000  0.91250000  1.0 0.1111954624
C  C44  1  0.31470000  0.49990000  0.58750000  1.0 0.1111954624
C  C45  1  0.47990000  0.66890000  0.75870000  1.0 0.1111954624
C  C46  1  0.66890000  0.47990000  0.74130000  1.0 0.1111954624
C  C47  1  0.52010000  0.33110000  0.24130000  1.0 0.1111954624
C  C48  1  0.33110000  0.52010000  0.25870000  1.0 0.1111954624
C  C49  1  0.07370000  0.80090000  0.77810000  1.0 0.1303370442
C  C50  1  0.80090000  0.07370000  0.72190000  1.0 0.1303370442
C  C51  1  0.92630000  0.19910000  0.22190000  1.0 0.1303370442
C  C52  1  0.19910000  0.92630000  0.27810000  1.0 0.1303370442
C  C53  1  0.27910000  0.74130000  0.77330000  1.0 -0.0918550999
C  C54  1  0.74130000  0.27910000  0.72670000  1.0 -0.0918550999
C  C55  1  0.72090000  0.25870000  0.22670000  1.0 -0.0918550999
C  C56  1  0.25870000  0.72090000  0.27330000  1.0 -0.0918550999
C  C57  1  0.17630000  0.18470000  0.44410000  1.0 -0.0968906362
C  C58  1  0.18470000  0.17630000  0.05590000  1.0 -0.0968906362
C  C59  1  0.82370000  0.81530000  0.55590000  1.0 -0.0968906362
C  C60  1  0.81530000  0.82370000  0.94410000  1.0 -0.0968906362
C  C61  1  0.47250000  0.72390000  0.03060000  1.0 -0.1799907268
C  C62  1  0.72390000  0.47250000  0.46940000  1.0 -0.1799907268
C  C63  1  0.52750000  0.27610000  0.96940000  1.0 -0.1799907268
C  C64  1  0.27610000  0.52750000  0.53060000  1.0 -0.1799907268
C  C65  1  0.47920000  0.60120000  0.81110000  1.0 -0.2009456193
C  C66  1  0.60120000  0.47920000  0.68890000  1.0 -0.2009456193
C  C67  1  0.52080000  0.39880000  0.18890000  1.0 -0.2009456193
C  C68  1  0.39880000  0.52080000  0.31110000  1.0 -0.2009456193
C  C69  1  0.08840000  0.87780000  0.72490000  1.0 -0.1507922235
C  C70  1  0.87780000  0.08840000  0.77510000  1.0 -0.1507922235
C  C71  1  0.91160000  0.12220000  0.27510000  1.0 -0.1507922235
C  C72  1  0.12220000  0.91160000  0.22490000  1.0 -0.1507922235
C  C73  1  0.19780000  0.74120000  0.72910000  1.0 -0.3408192307
C  C74  1  0.74120000  0.19780000  0.77090000  1.0 -0.3408192307
C  C75  1  0.80220000  0.25880000  0.27090000  1.0 -0.3408192307
C  C76  1  0.25880000  0.80220000  0.22910000  1.0 -0.3408192307
C  C77  1  0.16730000  0.20330000  0.47700000  1.0 -0.3494332046
C  C78  1  0.20330000  0.16730000  0.02300000  1.0 -0.3494332046
C  C79  1  0.83270000  0.79670000  0.52300000  1.0 -0.3494332046
C  C80  1  0.79670000  0.83270000  0.97700000  1.0 -0.3494332046
C  C81  1  0.45590000  0.70170000  0.98950000  1.0 0.0993808135
C  C82  1  0.70170000  0.45590000  0.51050000  1.0 0.0993808135
C  C83  1  0.54410000  0.29830000  0.01050000  1.0 0.0993808135
C  C84  1  0.29830000  0.54410000  0.48950000  1.0 0.0993808135
C  C85  1  0.45920000  0.58260000  0.85470000  1.0 0.1111954624
C  C86  1  0.58260000  0.45920000  0.64530000  1.0 0.1111954624
C  C87  1  0.54080000  0.41740000  0.14530000  1.0 0.1111954624
C  C88  1  0.41740000  0.54080000  0.35470000  1.0 0.1111954624
C  C89  1  0.06160000  0.86000000  0.67800000  1.0 0.0409602537
C  C90  1  0.86000000  0.06160000  0.82200000  1.0 0.0409602537
C  C91  1  0.93840000  0.14000000  0.32200000  1.0 0.0409602537
C  C92  1  0.14000000  0.93840000  0.17800000  1.0 0.0409602537
C  C93  1  0.25150000  0.85250000  0.68620000  1.0 0.6279700711
C  C94  1  0.85250000  0.25150000  0.81380000  1.0 0.6279700711
C  C95  1  0.74850000  0.14750000  0.31380000  1.0 0.6279700711
C  C96  1  0.14750000  0.74850000  0.18620000  1.0 0.6279700711
C  C97  1  0.23640000  0.32360000  0.46200000  1.0 0.6182062417
C  C98  1  0.32360000  0.23640000  0.03800000  1.0 0.6182062417
C  C99  1  0.76360000  0.67640000  0.53800000  1.0 0.6182062417
C  C100  1  0.67640000  0.76360000  0.96200000  1.0 0.6182062417
C  C101  1  0.52530000  0.70950000  0.13440000  1.0 0.0409602537
C  C102  1  0.70950000  0.52530000  0.36560000  1.0 0.0409602537
C  C103  1  0.47470000  0.29050000  0.86560000  1.0 0.0409602537
C  C104  1  0.29050000  0.47470000  0.63440000  1.0 0.0409602537
C  C105  1  0.50440000  0.69280000  0.71190000  1.0 0.0595521478
C  C106  1  0.69280000  0.50440000  0.78810000  1.0 0.0595521478
C  C107  1  0.49560000  0.30720000  0.28810000  1.0 0.0595521478
C  C108  1  0.30720000  0.49560000  0.21190000  1.0 0.0595521478
C  C109  1  0.10130000  0.81530000  0.83090000  1.0 0.0506497948
C  C110  1  0.81530000  0.10130000  0.66910000  1.0 0.0506497948
C  C111  1  0.89870000  0.18470000  0.16910000  1.0 0.0506497948
C  C112  1  0.18470000  0.89870000  0.33090000  1.0 0.0506497948
C  C113  1  0.55480000  0.84400000  0.16640000  1.0 0.0715219418
C  C114  1  0.84400000  0.55480000  0.33360000  1.0 0.0715219418
C  C115  1  0.44520000  0.15600000  0.83360000  1.0 0.0715219418
C  C116  1  0.15600000  0.44520000  0.66640000  1.0 0.0715219418
C  C117  1  0.57270000  0.85990000  0.58460000  1.0 0.0506497948
C  C118  1  0.85990000  0.57270000  0.91540000  1.0 0.0506497948
C  C119  1  0.42730000  0.14010000  0.41540000  1.0 0.0506497948
C  C120  1  0.14010000  0.42730000  0.08460000  1.0 0.0506497948
C  C121  1  0.18570000  0.97490000  0.87840000  1.0 0.0595521478
C  C122  1  0.97490000  0.18570000  0.62160000  1.0 0.0595521478
C  C123  1  0.81430000  0.02510000  0.12160000  1.0 0.0595521478
C  C124  1  0.02510000  0.81430000  0.37840000  1.0 0.0595521478
C  C125  1  0.61250000  0.96010000  0.24840000  1.0 0.0908909429
C  C126  1  0.96010000  0.61250000  0.25160000  1.0 0.0908909429
C  C127  1  0.38750000  0.03990000  0.75160000  1.0 0.0908909429
C  C128  1  0.03990000  0.38750000  0.74840000  1.0 0.0908909429
C  C129  1  0.61680000  0.84360000  0.49840000  1.0 0.1111954624
C  C130  1  0.84360000  0.61680000  0.00160000  1.0 0.1111954624
C  C131  1  0.38320000  0.15640000  0.50160000  1.0 0.1111954624
C  C132  1  0.15640000  0.38320000  0.99840000  1.0 0.1111954624
C  C133  1  0.22590000  0.05850000  0.97210000  1.0 0.1111954624
C  C134  1  0.05850000  0.22590000  0.52790000  1.0 0.1111954624
C  C135  1  0.77410000  0.94150000  0.02790000  1.0 0.1111954624
C  C136  1  0.94150000  0.77410000  0.47210000  1.0 0.1111954624
C  C137  1  0.57740000  0.92940000  0.20320000  1.0 -0.169331646
C  C138  1  0.92940000  0.57740000  0.29680000  1.0 -0.169331646
C  C139  1  0.42260000  0.07060000  0.79680000  1.0 -0.169331646
C  C140  1  0.07060000  0.42260000  0.70320000  1.0 -0.169331646
C  C141  1  0.59140000  0.81680000  0.54330000  1.0 -0.1874438584
C  C142  1  0.81680000  0.59140000  0.95670000  1.0 -0.1874438584
C  C143  1  0.40860000  0.18320000  0.45670000  1.0 -0.1874438584
C  C144  1  0.18320000  0.40860000  0.04330000  1.0 -0.1874438584
C  C145  1  0.20920000  0.05100000  0.92350000  1.0 -0.1874438584
C  C146  1  0.05100000  0.20920000  0.57650000  1.0 -0.1874438584
C  C147  1  0.79080000  0.94900000  0.07650000  1.0 -0.1874438584
C  C148  1  0.94900000  0.79080000  0.42350000  1.0 -0.1874438584
C  C149  1  0.58130000  0.86830000  0.21400000  1.0 0.1190321891
C  C150  1  0.86830000  0.58130000  0.28600000  1.0 0.1190321891
C  C151  1  0.41870000  0.13170000  0.78600000  1.0 0.1111954624
C  C152  1  0.13170000  0.41870000  0.71400000  1.0 0.1111954624
C  C153  1  0.59740000  0.88360000  0.53850000  1.0 0.1190321891
C  C154  1  0.88360000  0.59740000  0.96150000  1.0 0.1190321891
C  C155  1  0.40260000  0.11640000  0.46150000  1.0 0.1190321891
C  C156  1  0.11640000  0.40260000  0.03850000  1.0 0.1190321891
C  C157  1  0.20830000  0.98890000  0.92970000  1.0 0.1111954624
C  C158  1  0.98890000  0.20830000  0.57030000  1.0 0.1111954624
C  C159  1  0.79170000  0.01110000  0.07030000  1.0 0.1111954624
C  C160  1  0.01110000  0.79170000  0.42970000  1.0 0.1111954624
C  C161  1  0.61100000  0.82880000  0.27090000  1.0 -0.169331646
C  C162  1  0.82880000  0.61100000  0.22910000  1.0 -0.169331646
C  C163  1  0.38900000  0.17120000  0.72910000  1.0 -0.169331646
C  C164  1  0.17120000  0.38900000  0.77090000  1.0 -0.169331646
C  C165  1  0.62510000  0.97150000  0.48950000  1.0 -0.1799907268
C  C166  1  0.97150000  0.62510000  0.01050000  1.0 -0.1799907268
C  C167  1  0.37490000  0.02850000  0.51050000  1.0 -0.1799907268
C  C168  1  0.02850000  0.37490000  0.98950000  1.0 -0.1799907268
C  C169  1  0.23020000  0.93900000  0.98460000  1.0 -0.1507922235
C  C170  1  0.93900000  0.23020000  0.51540000  1.0 -0.1507922235
C  C171  1  0.76980000  0.06100000  0.01540000  1.0 -0.1507922235
C  C172  1  0.06100000  0.76980000  0.48460000  1.0 -0.1507922235
C  C173  1  0.63960000  0.85700000  0.31390000  1.0 0.0715219418
C  C174  1  0.85700000  0.63960000  0.18610000  1.0 0.0715219418
C  C175  1  0.36040000  0.14300000  0.68610000  1.0 0.0715219418
C  C176  1  0.14300000  0.36040000  0.81390000  1.0 0.0715219418
C  C177  1  0.64810000  0.98970000  0.44800000  1.0 0.0908909429
C  C178  1  0.98970000  0.64810000  0.05200000  1.0 0.0908909429
C  C179  1  0.35190000  0.01030000  0.55200000  1.0 0.0908909429
C  C180  1  0.01030000  0.35190000  0.94800000  1.0 0.0908909429
C  C181  1  0.24960000  0.95340000  0.03170000  1.0 0.0715219418
C  C182  1  0.95340000  0.24960000  0.46830000  1.0 0.0715219418
C  C183  1  0.75040000  0.04660000  0.96830000  1.0 0.0715219418
C  C184  1  0.04660000  0.75040000  0.53170000  1.0 0.0715219418
N  N1  1  0.46940000  0.65200000  0.00020000  1.0 -0.240582651
N  N2  1  0.65200000  0.46940000  0.49980000  1.0 -0.240582651
N  N3  1  0.53060000  0.34800000  0.99980000  1.0 -0.240582651
N  N4  1  0.34800000  0.53060000  0.50020000  1.0 -0.240582651
N  N5  1  0.44410000  0.62610000  0.85210000  1.0 -0.2517310888
N  N6  1  0.62610000  0.44410000  0.64790000  1.0 -0.2517310888
N  N7  1  0.55590000  0.37390000  0.14790000  1.0 -0.2517310888
N  N8  1  0.37390000  0.55590000  0.35210000  1.0 -0.2517310888
N  N9  1  0.01145000  0.76335000  0.67880000  1.0 -0.240582651
N  N10  1  0.76335000  0.01145000  0.82120000  1.0 -0.240582651
N  N11  1  0.98855000  0.23665000  0.32120000  1.0 -0.240582651
N  N12  1  0.23665000  0.98855000  0.17880000  1.0 -0.240582651
N  N13  1  0.52170000  0.76710000  0.12360000  1.0 -0.169331646
N  N14  1  0.76710000  0.52170000  0.37640000  1.0 -0.169331646
N  N15  1  0.47830000  0.23290000  0.87640000  1.0 -0.169331646
N  N16  1  0.23290000  0.47830000  0.62360000  1.0 -0.169331646
N  N17  1  0.52760000  0.77300000  0.66710000  1.0 -0.169331646
N  N18  1  0.77300000  0.52760000  0.83290000  1.0 -0.169331646
N  N19  1  0.47240000  0.22700000  0.33290000  1.0 -0.169331646
N  N20  1  0.22700000  0.47240000  0.16710000  1.0 -0.169331646
N  N21  1  0.13950000  0.89830000  0.82940000  1.0 -0.169331646
N  N22  1  0.89830000  0.13950000  0.67060000  1.0 -0.169331646
N  N23  1  0.86050000  0.10170000  0.17060000  1.0 -0.169331646
N  N24  1  0.10170000  0.86050000  0.32940000  1.0 -0.169331646
N  N25  1  0.54870000  0.77930000  0.17500000  1.0 -0.1799907268
N  N26  1  0.77930000  0.54870000  0.32500000  1.0 -0.1799907268
N  N27  1  0.45130000  0.22070000  0.82500000  1.0 -0.1799907268
N  N28  1  0.22070000  0.45130000  0.67500000  1.0 -0.1799907268
N  N29  1  0.54470000  0.77970000  0.62770000  1.0 -0.1799907268
N  N30  1  0.77970000  0.54470000  0.87230000  1.0 -0.1799907268
N  N31  1  0.45530000  0.22030000  0.37230000  1.0 -0.1799907268
N  N32  1  0.22030000  0.45530000  0.12770000  1.0 -0.1799907268
N  N33  1  0.16050000  0.89930000  0.88230000  1.0 -0.1799907268
N  N34  1  0.89930000  0.16050000  0.61770000  1.0 -0.1799907268
N  N35  1  0.83950000  0.10070000  0.11770000  1.0 -0.1799907268
N  N36  1  0.10070000  0.83950000  0.38230000  1.0 -0.1799907268
N  N37  1  0.64653000  0.92687000  0.30400000  1.0 -0.255077085
N  N38  1  0.92687000  0.64653000  0.19600000  1.0 -0.255077085
N  N39  1  0.35347000  0.07313000  0.69600000  1.0 -0.255077085
N  N40  1  0.07313000  0.35347000  0.80400000  1.0 -0.255077085
N  N41  1  0.63660000  0.92060000  0.45210000  1.0 -0.2276686434
N  N42  1  0.92060000  0.63660000  0.04790000  1.0 -0.2276686434
N  N43  1  0.36340000  0.07940000  0.54790000  1.0 -0.2276686434
N  N44  1  0.07940000  0.36340000  0.95210000  1.0 -0.2276686434
N  N45  1  0.24200000  0.00960000  0.02420000  1.0 -0.240582651
N  N46  1  0.00960000  0.24200000  0.47580000  1.0 -0.240582651
N  N47  1  0.75800000  0.99040000  0.97580000  1.0 -0.240582651
N  N48  1  0.99040000  0.75800000  0.52420000  1.0 -0.240582651
N  N49  1  0.74860000  0.26160000  0.38310000  1.0 0.6863717824
N  N50  1  0.26160000  0.74860000  0.11690000  1.0 0.6863717824
N  N51  1  0.25140000  0.73840000  0.61690000  1.0 0.6863717824
N  N52  1  0.73840000  0.25140000  0.88310000  1.0 0.6863717824
N  N53  1  0.80980000  0.77620000  0.13490000  1.0 0.6437649219
N  N54  1  0.77620000  0.80980000  0.36510000  1.0 0.6437649219
N  N55  1  0.19020000  0.22380000  0.86510000  1.0 0.6437649219
N  N56  1  0.22380000  0.19020000  0.63490000  1.0 0.6437649219
O  O1  1  0.24506000  0.51734000  0.88430000  1.0 -0.5719893784
O  O2  1  0.51734000  0.24506000  0.61570000  1.0 -0.5719893784
O  O3  1  0.75494000  0.48266000  0.11570000  1.0 -0.5719893784
O  O4  1  0.48266000  0.75494000  0.38430000  1.0 -0.5719893784
O  O5  1  0.09210000  0.93530000  0.55660000  1.0 -0.5898845852
O  O6  1  0.93530000  0.09210000  0.94340000  1.0 -0.5898845852
O  O7  1  0.90790000  0.06470000  0.44340000  1.0 -0.5898845852
O  O8  1  0.06470000  0.90790000  0.05660000  1.0 -0.5898845852
O  O9  1  0.93206000  0.58454000  0.65380000  1.0 -0.3865860984
O  O10  1  0.58454000  0.93206000  0.84620000  1.0 -0.3865860984
O  O11  1  0.06794000  0.41546000  0.34620000  1.0 -0.3865860984
O  O12  1  0.41546000  0.06794000  0.15380000  1.0 -0.3865860984
O  O13  1  0.39690000  0.70430000  0.86400000  1.0 -0.4914145157
O  O14  1  0.70430000  0.39690000  0.63600000  1.0 -0.4914145157
O  O15  1  0.60310000  0.29570000  0.13600000  1.0 -0.4914145157
O  O16  1  0.29570000  0.60310000  0.36400000  1.0 -0.4914145157
O  O17  1  0.26524000  0.11636000  0.54980000  1.0 -0.5022966027
O  O18  1  0.11636000  0.26524000  0.95020000  1.0 -0.5022966027
O  O19  1  0.73476000  0.88364000  0.45020000  1.0 -0.5022966027
O  O20  1  0.88364000  0.73476000  0.04980000  1.0 -0.5022966027
O  O21  1  0.34430000  0.43650000  0.97160000  1.0 -0.2276686434
O  O22  1  0.43650000  0.34430000  0.52840000  1.0 -0.2276686434
O  O23  1  0.65570000  0.56350000  0.02840000  1.0 -0.2276686434
O  O24  1  0.56350000  0.65570000  0.47160000  1.0 -0.2276686434
O  O25  1  0.18410000  0.85590000  0.64340000  1.0 -0.6157321468
O  O26  1  0.85590000  0.18410000  0.85660000  1.0 -0.6157321468
O  O27  1  0.81590000  0.14410000  0.35660000  1.0 -0.6157321468
O  O28  1  0.14410000  0.81590000  0.14340000  1.0 -0.6157321468
O  O29  1  0.18750000  0.34810000  0.43310000  1.0 -0.6157321468
O  O30  1  0.34810000  0.18750000  0.06690000  1.0 -0.6157321468
O  O31  1  0.81250000  0.65190000  0.56690000  1.0 -0.6157321468
O  O32  1  0.65190000  0.81250000  0.93310000  1.0 -0.6157321468
O  O33  1  0.35765000  0.94295000  0.69150000  1.0 -0.5389712662
O  O34  1  0.94295000  0.35765000  0.80850000  1.0 -0.5389712662
O  O35  1  0.64235000  0.05705000  0.30850000  1.0 -0.5389712662
O  O36  1  0.05705000  0.64235000  0.19150000  1.0 -0.5389712662
O  O37  1  0.34380000  0.40300000  0.47420000  1.0 -0.4560574502
O  O38  1  0.40300000  0.34380000  0.02580000  1.0 -0.4560574502
O  O39  1  0.65620000  0.59700000  0.52580000  1.0 -0.4560574502
O  O40  1  0.59700000  0.65620000  0.97420000  1.0 -0.4560574502
O  O41  1  0.76980000  0.25900000  0.35720000  1.0 -0.4238852099
O  O42  1  0.82750000  0.33750000  0.41060000  1.0 -0.4463005647
O  O43  1  0.64360000  0.18300000  0.38150000  1.0 -0.4717538491
O  O44  1  0.25900000  0.76980000  0.14280000  1.0 -0.4238852099
O  O45  1  0.33750000  0.82750000  0.08940000  1.0 -0.4463005647
O  O46  1  0.18300000  0.64360000  0.11850000  1.0 -0.4717538491
O  O47  1  0.23020000  0.74100000  0.64280000  1.0 -0.4238852099
O  O48  1  0.17250000  0.66250000  0.58940000  1.0 -0.4463005647
O  O49  1  0.35640000  0.81700000  0.61850000  1.0 -0.4717538491
O  O50  1  0.74100000  0.23020000  0.85720000  1.0 -0.4238852099
O  O51  1  0.66250000  0.17250000  0.91060000  1.0 -0.4463005647
O  O52  1  0.81700000  0.35640000  0.88150000  1.0 -0.4717538491
O  O53  1  0.71900000  0.69140000  0.11370000  1.0 -0.3724936307
O  O54  1  0.89670000  0.84890000  0.11990000  1.0 -0.3773949653
O  O55  1  0.80980000  0.77820000  0.17230000  1.0 -0.3636961714
O  O56  1  0.69140000  0.71900000  0.38630000  1.0 -0.3724936307
O  O57  1  0.84890000  0.89670000  0.38010000  1.0 -0.3773949653
O  O58  1  0.77820000  0.80980000  0.32770000  1.0 -0.3636961714
O  O59  1  0.28100000  0.30860000  0.88630000  1.0 -0.3724936307
O  O60  1  0.10330000  0.15110000  0.88010000  1.0 -0.3773949653
O  O61  1  0.19020000  0.22180000  0.82770000  1.0 -0.3636961714
O  O62  1  0.30860000  0.28100000  0.61370000  1.0 -0.3724936307
O  O63  1  0.15110000  0.10330000  0.61990000  1.0 -0.3773949653
O  O64  1  0.22180000  0.19020000  0.67230000  1.0 -0.3636961714
