# DDEC6 charges by PACMAN v1.1 (https://github.com/mtap-research/PACMAN-charge/)
data_GUKCIA_ASR_pacman
_symmetry_space_group_name_H-M   'P 1'
_cell_length_a   18.88910000
_cell_length_b   18.88910000
_cell_length_c   18.88910000
_cell_angle_alpha   58.58270000
_cell_angle_beta   58.58270000
_cell_angle_gamma   58.58270000
_symmetry_Int_Tables_number   1
_chemical_formula_structural   Cu2H22C39O8
_chemical_formula_sum   'Cu6 H66 C117 O24'
_cell_volume   4611.17474024
_cell_formula_units_Z   3
loop_
 _symmetry_equiv_pos_site_id
 _symmetry_equiv_pos_as_xyz
  1  'x, y, z'
loop_
 _atom_site_type_symbol
 _atom_site_label
 _atom_site_symmetry_multiplicity
 _atom_site_fract_x
 _atom_site_fract_y
 _atom_site_fract_z
 _atom_site_occupancy
 _atom_site_charge
Cu  Cu1  1  0.99884000  0.57158000  0.99884000  1.0 0.8719644779
Cu  Cu2  1  0.57158000  0.99884000  0.99884000  1.0 0.8719644779
Cu  Cu3  1  0.99884000  0.99884000  0.57158000  1.0 0.8719644779
Cu  Cu4  1  0.00116000  0.00116000  0.42842000  1.0 0.8719644779
Cu  Cu5  1  0.00116000  0.42842000  0.00116000  1.0 0.8719644779
Cu  Cu6  1  0.42842000  0.00116000  0.00116000  1.0 0.8719644779
H  H1  1  0.96490000  0.27380000  0.27380000  1.0 0.1280212933
H  H2  1  0.27380000  0.27380000  0.96490000  1.0 0.1280212933
H  H3  1  0.27380000  0.96490000  0.27380000  1.0 0.1280212933
H  H4  1  0.03510000  0.72620000  0.72620000  1.0 0.1280212933
H  H5  1  0.72620000  0.72620000  0.03510000  1.0 0.1280212933
H  H6  1  0.72620000  0.03510000  0.72620000  1.0 0.1280212933
H  H7  1  0.97230000  0.26740000  0.48490000  1.0 0.1163935434
H  H8  1  0.26740000  0.48490000  0.97230000  1.0 0.1163935434
H  H9  1  0.48490000  0.97230000  0.26740000  1.0 0.1163935434
H  H10  1  0.02770000  0.51510000  0.73260000  1.0 0.1163935434
H  H11  1  0.51510000  0.73260000  0.02770000  1.0 0.1163935434
H  H12  1  0.73260000  0.02770000  0.51510000  1.0 0.1163935434
H  H13  1  0.02770000  0.73260000  0.51510000  1.0 0.1163935434
H  H14  1  0.73260000  0.51510000  0.02770000  1.0 0.1163935434
H  H15  1  0.51510000  0.02770000  0.73260000  1.0 0.1163935434
H  H16  1  0.97230000  0.48490000  0.26740000  1.0 0.1163935434
H  H17  1  0.48490000  0.26740000  0.97230000  1.0 0.1163935434
H  H18  1  0.26740000  0.97230000  0.48490000  1.0 0.1163935434
H  H19  1  0.92270000  0.43340000  0.61480000  1.0 0.0967351438
H  H20  1  0.43340000  0.61480000  0.92270000  1.0 0.0967351438
H  H21  1  0.61480000  0.92270000  0.43340000  1.0 0.0967351438
H  H22  1  0.07730000  0.38520000  0.56660000  1.0 0.0967351438
H  H23  1  0.38520000  0.56660000  0.07730000  1.0 0.0967351438
H  H24  1  0.56660000  0.07730000  0.38520000  1.0 0.0967351438
H  H25  1  0.07730000  0.56660000  0.38520000  1.0 0.0967351438
H  H26  1  0.56660000  0.38520000  0.07730000  1.0 0.0967351438
H  H27  1  0.38520000  0.07730000  0.56660000  1.0 0.0967351438
H  H28  1  0.92270000  0.61480000  0.43340000  1.0 0.0967351438
H  H29  1  0.61480000  0.43340000  0.92270000  1.0 0.0967351438
H  H30  1  0.43340000  0.92270000  0.61480000  1.0 0.0967351438
H  H31  1  0.90600000  0.37040000  0.54570000  1.0 0.0967351438
H  H32  1  0.37040000  0.54570000  0.90600000  1.0 0.0967351438
H  H33  1  0.54570000  0.90600000  0.37040000  1.0 0.0967351438
H  H34  1  0.09400000  0.45430000  0.62960000  1.0 0.0967351438
H  H35  1  0.45430000  0.62960000  0.09400000  1.0 0.0967351438
H  H36  1  0.62960000  0.09400000  0.45430000  1.0 0.0967351438
H  H37  1  0.09400000  0.62960000  0.45430000  1.0 0.0967351438
H  H38  1  0.62960000  0.45430000  0.09400000  1.0 0.0967351438
H  H39  1  0.45430000  0.09400000  0.62960000  1.0 0.0967351438
H  H40  1  0.90600000  0.54570000  0.37040000  1.0 0.0967351438
H  H41  1  0.54570000  0.37040000  0.90600000  1.0 0.0967351438
H  H42  1  0.37040000  0.90600000  0.54570000  1.0 0.0967351438
H  H43  1  0.06600000  0.56520000  0.37390000  1.0 0.0967351438
H  H44  1  0.56520000  0.37390000  0.06600000  1.0 0.0967351438
H  H45  1  0.37390000  0.06600000  0.56520000  1.0 0.0967351438
H  H46  1  0.93400000  0.62610000  0.43480000  1.0 0.0967351438
H  H47  1  0.62610000  0.43480000  0.93400000  1.0 0.0967351438
H  H48  1  0.43480000  0.93400000  0.62610000  1.0 0.0967351438
H  H49  1  0.93400000  0.43480000  0.62610000  1.0 0.0967351438
H  H50  1  0.43480000  0.62610000  0.93400000  1.0 0.0967351438
H  H51  1  0.62610000  0.93400000  0.43480000  1.0 0.0967351438
H  H52  1  0.06600000  0.37390000  0.56520000  1.0 0.0967351438
H  H53  1  0.37390000  0.56520000  0.06600000  1.0 0.0967351438
H  H54  1  0.56520000  0.06600000  0.37390000  1.0 0.0967351438
H  H55  1  0.05990000  0.49030000  0.30940000  1.0 0.0889028998
H  H56  1  0.49030000  0.30940000  0.05990000  1.0 0.0889028998
H  H57  1  0.30940000  0.05990000  0.49030000  1.0 0.0889028998
H  H58  1  0.94010000  0.69060000  0.50970000  1.0 0.0889028998
H  H59  1  0.69060000  0.50970000  0.94010000  1.0 0.0889028998
H  H60  1  0.50970000  0.94010000  0.69060000  1.0 0.0889028998
H  H61  1  0.94010000  0.50970000  0.69060000  1.0 0.0889028998
H  H62  1  0.50970000  0.69060000  0.94010000  1.0 0.0889028998
H  H63  1  0.69060000  0.94010000  0.50970000  1.0 0.0889028998
H  H64  1  0.05990000  0.30940000  0.49030000  1.0 0.0889028998
H  H65  1  0.30940000  0.49030000  0.05990000  1.0 0.0889028998
H  H66  1  0.49030000  0.05990000  0.30940000  1.0 0.0889028998
C  C1  1  0.97571000  0.16341000  0.43071000  1.0 0.5721221352
C  C2  1  0.16341000  0.43071000  0.97571000  1.0 0.5721221352
C  C3  1  0.43071000  0.97571000  0.16341000  1.0 0.5721221352
C  C4  1  0.02429000  0.56929000  0.83659000  1.0 0.5721221352
C  C5  1  0.56929000  0.83659000  0.02429000  1.0 0.5721221352
C  C6  1  0.83659000  0.02429000  0.56929000  1.0 0.5721221352
C  C7  1  0.02429000  0.83659000  0.56929000  1.0 0.5721221352
C  C8  1  0.83659000  0.56929000  0.02429000  1.0 0.5721221352
C  C9  1  0.56929000  0.02429000  0.83659000  1.0 0.5721221352
C  C10  1  0.97571000  0.43071000  0.16341000  1.0 0.5721221352
C  C11  1  0.43071000  0.16341000  0.97571000  1.0 0.5721221352
C  C12  1  0.16341000  0.97571000  0.43071000  1.0 0.5721221352
C  C13  1  0.96931000  0.25541000  0.38651000  1.0 -0.0478742387
C  C14  1  0.25541000  0.38651000  0.96931000  1.0 -0.0478742387
C  C15  1  0.38651000  0.96931000  0.25541000  1.0 -0.0478742387
C  C16  1  0.03069000  0.61349000  0.74459000  1.0 -0.0478742387
C  C17  1  0.61349000  0.74459000  0.03069000  1.0 -0.0478742387
C  C18  1  0.74459000  0.03069000  0.61349000  1.0 -0.0478742387
C  C19  1  0.03069000  0.74459000  0.61349000  1.0 -0.0478742387
C  C20  1  0.74459000  0.61349000  0.03069000  1.0 -0.0478742387
C  C21  1  0.61349000  0.03069000  0.74459000  1.0 -0.0478742387
C  C22  1  0.96931000  0.38651000  0.25541000  1.0 -0.0478742387
C  C23  1  0.38651000  0.25541000  0.96931000  1.0 -0.0478742387
C  C24  1  0.25541000  0.96931000  0.38651000  1.0 -0.0478742387
C  C25  1  0.96736000  0.30116000  0.30116000  1.0 -0.0903623149
C  C26  1  0.30116000  0.30116000  0.96736000  1.0 -0.0903623149
C  C27  1  0.30116000  0.96736000  0.30116000  1.0 -0.0903623149
C  C28  1  0.03264000  0.69884000  0.69884000  1.0 -0.0903623149
C  C29  1  0.69884000  0.69884000  0.03264000  1.0 -0.0903623149
C  C30  1  0.69884000  0.03264000  0.69884000  1.0 -0.0903623149
C  C31  1  0.97126000  0.29736000  0.42766000  1.0 -0.1513274204
C  C32  1  0.29736000  0.42766000  0.97126000  1.0 -0.1513274204
C  C33  1  0.42766000  0.97126000  0.29736000  1.0 -0.1513274204
C  C34  1  0.02874000  0.57234000  0.70264000  1.0 -0.1513274204
C  C35  1  0.57234000  0.70264000  0.02874000  1.0 -0.1513274204
C  C36  1  0.70264000  0.02874000  0.57234000  1.0 -0.1513274204
C  C37  1  0.02874000  0.70264000  0.57234000  1.0 -0.1513274204
C  C38  1  0.70264000  0.57234000  0.02874000  1.0 -0.1513274204
C  C39  1  0.57234000  0.02874000  0.70264000  1.0 -0.1513274204
C  C40  1  0.97126000  0.42766000  0.29736000  1.0 -0.1513274204
C  C41  1  0.42766000  0.29736000  0.97126000  1.0 -0.1513274204
C  C42  1  0.29736000  0.97126000  0.42766000  1.0 -0.1513274204
C  C43  1  0.97200000  0.38380000  0.38380000  1.0 0.0889028998
C  C44  1  0.38380000  0.38380000  0.97200000  1.0 0.0889028998
C  C45  1  0.38380000  0.97200000  0.38380000  1.0 0.0889028998
C  C46  1  0.02800000  0.61620000  0.61620000  1.0 0.0889028998
C  C47  1  0.61620000  0.61620000  0.02800000  1.0 0.0889028998
C  C48  1  0.61620000  0.02800000  0.61620000  1.0 0.0889028998
C  C49  1  0.00000000  0.50000000  0.50000000  1.0 0.0967351438
C  C50  1  0.50000000  0.50000000  0.00000000  1.0 0.110782798
C  C51  1  0.50000000  0.00000000  0.50000000  1.0 0.0967351438
C  C52  1  0.94930000  0.44580000  0.55210000  1.0 -0.0903623149
C  C53  1  0.44580000  0.55210000  0.94930000  1.0 -0.0903623149
C  C54  1  0.55210000  0.94930000  0.44580000  1.0 -0.0903623149
C  C55  1  0.05070000  0.44790000  0.55420000  1.0 -0.0903623149
C  C56  1  0.44790000  0.55420000  0.05070000  1.0 -0.0903623149
C  C57  1  0.55420000  0.05070000  0.44790000  1.0 -0.0903623149
C  C58  1  0.05070000  0.55420000  0.44790000  1.0 -0.0903623149
C  C59  1  0.55420000  0.44790000  0.05070000  1.0 -0.0903623149
C  C60  1  0.44790000  0.05070000  0.55420000  1.0 -0.0903623149
C  C61  1  0.94930000  0.55210000  0.44580000  1.0 -0.0903623149
C  C62  1  0.55210000  0.44580000  0.94930000  1.0 -0.0903623149
C  C63  1  0.44580000  0.94930000  0.55210000  1.0 -0.0903623149
C  C64  1  0.94090000  0.40790000  0.51140000  1.0 -0.0792844905
C  C65  1  0.40790000  0.51140000  0.94090000  1.0 -0.0792844905
C  C66  1  0.51140000  0.94090000  0.40790000  1.0 -0.0792844905
C  C67  1  0.05910000  0.48860000  0.59210000  1.0 -0.0792844905
C  C68  1  0.48860000  0.59210000  0.05910000  1.0 -0.0792844905
C  C69  1  0.59210000  0.05910000  0.48860000  1.0 -0.0792844905
C  C70  1  0.05910000  0.59210000  0.48860000  1.0 -0.0792844905
C  C71  1  0.59210000  0.48860000  0.05910000  1.0 -0.0792844905
C  C72  1  0.48860000  0.05910000  0.59210000  1.0 -0.0792844905
C  C73  1  0.94090000  0.51140000  0.40790000  1.0 -0.0792844905
C  C74  1  0.51140000  0.40790000  0.94090000  1.0 -0.0792844905
C  C75  1  0.40790000  0.94090000  0.51140000  1.0 -0.0792844905
C  C76  1  0.98530000  0.42290000  0.42290000  1.0 -0.0384978313
C  C77  1  0.42290000  0.42290000  0.98530000  1.0 -0.0384978313
C  C78  1  0.42290000  0.98530000  0.42290000  1.0 -0.0384978313
C  C79  1  0.01470000  0.57710000  0.57710000  1.0 -0.0384978313
C  C80  1  0.57710000  0.57710000  0.01470000  1.0 -0.0384978313
C  C81  1  0.57710000  0.01470000  0.57710000  1.0 -0.0384978313
C  C82  1  0.03650000  0.52260000  0.40970000  1.0 -0.0792844905
C  C83  1  0.52260000  0.40970000  0.03650000  1.0 -0.0792844905
C  C84  1  0.40970000  0.03650000  0.52260000  1.0 -0.0792844905
C  C85  1  0.96350000  0.59030000  0.47740000  1.0 -0.0792844905
C  C86  1  0.59030000  0.47740000  0.96350000  1.0 -0.0792844905
C  C87  1  0.47740000  0.96350000  0.59030000  1.0 -0.0792844905
C  C88  1  0.96350000  0.47740000  0.59030000  1.0 -0.0792844905
C  C89  1  0.47740000  0.59030000  0.96350000  1.0 -0.0792844905
C  C90  1  0.59030000  0.96350000  0.47740000  1.0 -0.0792844905
C  C91  1  0.03650000  0.40970000  0.52260000  1.0 -0.0792844905
C  C92  1  0.40970000  0.52260000  0.03650000  1.0 -0.0792844905
C  C93  1  0.52260000  0.03650000  0.40970000  1.0 -0.0792844905
C  C94  1  0.02690000  0.57340000  0.57340000  1.0 -0.0384978313
C  C95  1  0.57340000  0.57340000  0.02690000  1.0 -0.0384978313
C  C96  1  0.57340000  0.02690000  0.57340000  1.0 -0.0384978313
C  C97  1  0.97310000  0.42660000  0.42660000  1.0 -0.0384978313
C  C98  1  0.42660000  0.42660000  0.97310000  1.0 -0.0384978313
C  C99  1  0.42660000  0.97310000  0.42660000  1.0 -0.0384978313
C  C100  1  0.03320000  0.47810000  0.37200000  1.0 -0.0695536979
C  C101  1  0.47810000  0.37200000  0.03320000  1.0 -0.0695536979
C  C102  1  0.37200000  0.03320000  0.47810000  1.0 -0.0695536979
C  C103  1  0.96680000  0.62800000  0.52190000  1.0 -0.0695536979
C  C104  1  0.62800000  0.52190000  0.96680000  1.0 -0.0695536979
C  C105  1  0.52190000  0.96680000  0.62800000  1.0 -0.0695536979
C  C106  1  0.96680000  0.52190000  0.62800000  1.0 -0.0695536979
C  C107  1  0.52190000  0.62800000  0.96680000  1.0 -0.0695536979
C  C108  1  0.62800000  0.96680000  0.52190000  1.0 -0.0695536979
C  C109  1  0.03320000  0.37200000  0.47810000  1.0 -0.0695536979
C  C110  1  0.37200000  0.47810000  0.03320000  1.0 -0.0695536979
C  C111  1  0.47810000  0.03320000  0.37200000  1.0 -0.0695536979
C  C112  1  0.01590000  0.54200000  0.54200000  1.0 0.0339564677
C  C113  1  0.54200000  0.54200000  0.01590000  1.0 0.0381141128
C  C114  1  0.54200000  0.01590000  0.54200000  1.0 0.0339564677
C  C115  1  0.98410000  0.45800000  0.45800000  1.0 0.0381141128
C  C116  1  0.45800000  0.45800000  0.98410000  1.0 0.0339564677
C  C117  1  0.45800000  0.98410000  0.45800000  1.0 0.0381141128
O  O1  1  0.97894000  0.12734000  0.38744000  1.0 -0.5368150787
O  O2  1  0.12734000  0.38744000  0.97894000  1.0 -0.5368150787
O  O3  1  0.38744000  0.97894000  0.12734000  1.0 -0.5368150787
O  O4  1  0.02106000  0.61256000  0.87266000  1.0 -0.5368150787
O  O5  1  0.61256000  0.87266000  0.02106000  1.0 -0.5368150787
O  O6  1  0.87266000  0.02106000  0.61256000  1.0 -0.5368150787
O  O7  1  0.02106000  0.87266000  0.61256000  1.0 -0.5368150787
O  O8  1  0.87266000  0.61256000  0.02106000  1.0 -0.5368150787
O  O9  1  0.61256000  0.02106000  0.87266000  1.0 -0.5368150787
O  O10  1  0.97894000  0.38744000  0.12734000  1.0 -0.5368150787
O  O11  1  0.38744000  0.12734000  0.97894000  1.0 -0.5368150787
O  O12  1  0.12734000  0.97894000  0.38744000  1.0 -0.5368150787
O  O13  1  0.97777000  0.12457000  0.50757000  1.0 -0.5172596938
O  O14  1  0.12457000  0.50757000  0.97777000  1.0 -0.5172596938
O  O15  1  0.50757000  0.97777000  0.12457000  1.0 -0.5172596938
O  O16  1  0.02223000  0.49243000  0.87543000  1.0 -0.5172596938
O  O17  1  0.49243000  0.87543000  0.02223000  1.0 -0.5172596938
O  O18  1  0.87543000  0.02223000  0.49243000  1.0 -0.5172596938
O  O19  1  0.02223000  0.87543000  0.49243000  1.0 -0.5172596938
O  O20  1  0.87543000  0.49243000  0.02223000  1.0 -0.5172596938
O  O21  1  0.49243000  0.02223000  0.87543000  1.0 -0.5172596938
O  O22  1  0.97777000  0.50757000  0.12457000  1.0 -0.5172596938
O  O23  1  0.50757000  0.12457000  0.97777000  1.0 -0.5172596938
O  O24  1  0.12457000  0.97777000  0.50757000  1.0 -0.5172596938
