# DDEC6 charges by PACMAN v1.1 (https://github.com/mtap-research/PACMAN-charge/)
data_GUKQUZ_FSR_pacman
_symmetry_space_group_name_H-M   'P 1'
_cell_length_a   30.84540000
_cell_length_b   30.84540000
_cell_length_c   30.84540000
_cell_angle_alpha   60.00000000
_cell_angle_beta   60.00000000
_cell_angle_gamma   60.00000000
_symmetry_Int_Tables_number   1
_chemical_formula_structural   Zn7H48C72O41
_chemical_formula_sum   'Zn28 H192 C288 O164'
_cell_volume   20751.82143177
_cell_formula_units_Z   4
loop_
 _symmetry_equiv_pos_site_id
 _symmetry_equiv_pos_as_xyz
  1  'x, y, z'
loop_
 _atom_site_type_symbol
 _atom_site_label
 _atom_site_symmetry_multiplicity
 _atom_site_fract_x
 _atom_site_fract_y
 _atom_site_fract_z
 _atom_site_occupancy
 _atom_site_charge
Zn  Zn1  1  0.23128000  0.76872000  0.76872000  1.0 0.9782957811
Zn  Zn2  1  0.76872000  0.23128000  0.76872000  1.0 0.9782957811
Zn  Zn3  1  0.76872000  0.23128000  0.23128000  1.0 0.9782957811
Zn  Zn4  1  0.23128000  0.76872000  0.23128000  1.0 0.9782957811
Zn  Zn5  1  0.23128000  0.23128000  0.76872000  1.0 0.9782957811
Zn  Zn6  1  0.76872000  0.76872000  0.23128000  1.0 0.9782957811
Zn  Zn7  1  0.29941000  0.70059000  0.70059000  1.0 1.0549722095
Zn  Zn8  1  0.70059000  0.29941000  0.70059000  1.0 1.0555439372
Zn  Zn9  1  0.70059000  0.29941000  0.29941000  1.0 1.0549722095
Zn  Zn10  1  0.29941000  0.70059000  0.29941000  1.0 1.0555439372
Zn  Zn11  1  0.29941000  0.29941000  0.70059000  1.0 1.0555439372
Zn  Zn12  1  0.70059000  0.70059000  0.29941000  1.0 1.0549722095
Zn  Zn13  1  0.33990000  0.98030000  0.33990000  1.0 1.2899710614
Zn  Zn14  1  0.66010000  0.66010000  0.66010000  1.0 1.2899710614
Zn  Zn15  1  0.98030000  0.33990000  0.33990000  1.0 1.2899710614
Zn  Zn16  1  0.66010000  0.66010000  0.01970000  1.0 1.2899710614
Zn  Zn17  1  0.01970000  0.66010000  0.66010000  1.0 1.2899710614
Zn  Zn18  1  0.33990000  0.33990000  0.98030000  1.0 1.2899710614
Zn  Zn19  1  0.33990000  0.33990000  0.33990000  1.0 1.2899710614
Zn  Zn20  1  0.66010000  0.01970000  0.66010000  1.0 1.2899710614
Zn  Zn21  1  0.38664000  0.84008000  0.38664000  1.0 1.0219510276
Zn  Zn22  1  0.61336000  0.61336000  0.61336000  1.0 1.0219510276
Zn  Zn23  1  0.84008000  0.38664000  0.38664000  1.0 1.0219510276
Zn  Zn24  1  0.61336000  0.61336000  0.15992000  1.0 1.0219510276
Zn  Zn25  1  0.15992000  0.61336000  0.61336000  1.0 1.0219510276
Zn  Zn26  1  0.38664000  0.38664000  0.84008000  1.0 1.0219510276
Zn  Zn27  1  0.38664000  0.38664000  0.38664000  1.0 1.0219510276
Zn  Zn28  1  0.61336000  0.15992000  0.61336000  1.0 1.0219510276
H  H1  1  0.31120000  0.82780000  0.54980000  1.0 0.1577634946
H  H2  1  0.68880000  0.45020000  0.68880000  1.0 0.1577634946
H  H3  1  0.82780000  0.31120000  0.31120000  1.0 0.1577634946
H  H4  1  0.45020000  0.68880000  0.17220000  1.0 0.1577634946
H  H5  1  0.17220000  0.68880000  0.68880000  1.0 0.1577634946
H  H6  1  0.31120000  0.54980000  0.82780000  1.0 0.1577634946
H  H7  1  0.45020000  0.68880000  0.68880000  1.0 0.1577634946
H  H8  1  0.17220000  0.45020000  0.68880000  1.0 0.1577634946
H  H9  1  0.54980000  0.31120000  0.31120000  1.0 0.1577634946
H  H10  1  0.68880000  0.68880000  0.17220000  1.0 0.1577634946
H  H11  1  0.54980000  0.31120000  0.82780000  1.0 0.1577634946
H  H12  1  0.82780000  0.54980000  0.31120000  1.0 0.1577634946
H  H13  1  0.54980000  0.82780000  0.31120000  1.0 0.1577634946
H  H14  1  0.31120000  0.82780000  0.31120000  1.0 0.1577634946
H  H15  1  0.31120000  0.31120000  0.82780000  1.0 0.1577634946
H  H16  1  0.31120000  0.54980000  0.31120000  1.0 0.1577634946
H  H17  1  0.82780000  0.31120000  0.54980000  1.0 0.1577634946
H  H18  1  0.31120000  0.31120000  0.54980000  1.0 0.1577634946
H  H19  1  0.68880000  0.17220000  0.68880000  1.0 0.1577634946
H  H20  1  0.17220000  0.68880000  0.45020000  1.0 0.1577634946
H  H21  1  0.68880000  0.17220000  0.45020000  1.0 0.1577634946
H  H22  1  0.68880000  0.45020000  0.17220000  1.0 0.1577634946
H  H23  1  0.68880000  0.68880000  0.45020000  1.0 0.1577634946
H  H24  1  0.45020000  0.17220000  0.68880000  1.0 0.1577634946
H  H25  1  0.26150000  0.98990000  0.48710000  1.0 0.1577634946
H  H26  1  0.73850000  0.51290000  0.73850000  1.0 0.1577634946
H  H27  1  0.98990000  0.26150000  0.26150000  1.0 0.1577634946
H  H28  1  0.51290000  0.73850000  0.01010000  1.0 0.1577634946
H  H29  1  0.01010000  0.73850000  0.73850000  1.0 0.1577634946
H  H30  1  0.26150000  0.48710000  0.98990000  1.0 0.1577634946
H  H31  1  0.51290000  0.73850000  0.73850000  1.0 0.1577634946
H  H32  1  0.01010000  0.51290000  0.73850000  1.0 0.1577634946
H  H33  1  0.48710000  0.26150000  0.26150000  1.0 0.1577634946
H  H34  1  0.73850000  0.73850000  0.01010000  1.0 0.1577634946
H  H35  1  0.48710000  0.26150000  0.98990000  1.0 0.1577634946
H  H36  1  0.98990000  0.48710000  0.26150000  1.0 0.1577634946
H  H37  1  0.48710000  0.98990000  0.26150000  1.0 0.1577634946
H  H38  1  0.26150000  0.98990000  0.26150000  1.0 0.1577634946
H  H39  1  0.26150000  0.26150000  0.98990000  1.0 0.1577634946
H  H40  1  0.26150000  0.48710000  0.26150000  1.0 0.1577634946
H  H41  1  0.98990000  0.26150000  0.48710000  1.0 0.1577634946
H  H42  1  0.26150000  0.26150000  0.48710000  1.0 0.1577634946
H  H43  1  0.73850000  0.01010000  0.73850000  1.0 0.1577634946
H  H44  1  0.01010000  0.73850000  0.51290000  1.0 0.1577634946
H  H45  1  0.73850000  0.01010000  0.51290000  1.0 0.1577634946
H  H46  1  0.73850000  0.51290000  0.01010000  1.0 0.1577634946
H  H47  1  0.73850000  0.73850000  0.51290000  1.0 0.1577634946
H  H48  1  0.51290000  0.01010000  0.73850000  1.0 0.1577634946
H  H49  1  0.21830000  0.91830000  0.64510000  1.0 0.1423225854
H  H50  1  0.78170000  0.35490000  0.78170000  1.0 0.1423225854
H  H51  1  0.91830000  0.21830000  0.21830000  1.0 0.1423225854
H  H52  1  0.35490000  0.78170000  0.08170000  1.0 0.1423225854
H  H53  1  0.08170000  0.78170000  0.78170000  1.0 0.1423225854
H  H54  1  0.21830000  0.64510000  0.91830000  1.0 0.1423225854
H  H55  1  0.35490000  0.78170000  0.78170000  1.0 0.1423225854
H  H56  1  0.08170000  0.35490000  0.78170000  1.0 0.1423225854
H  H57  1  0.64510000  0.21830000  0.21830000  1.0 0.1423225854
H  H58  1  0.78170000  0.78170000  0.08170000  1.0 0.1423225854
H  H59  1  0.64510000  0.21830000  0.91830000  1.0 0.1423225854
H  H60  1  0.91830000  0.64510000  0.21830000  1.0 0.1423225854
H  H61  1  0.64510000  0.91830000  0.21830000  1.0 0.1423225854
H  H62  1  0.21830000  0.91830000  0.21830000  1.0 0.1423225854
H  H63  1  0.21830000  0.21830000  0.91830000  1.0 0.1423225854
H  H64  1  0.21830000  0.64510000  0.21830000  1.0 0.1423225854
H  H65  1  0.91830000  0.21830000  0.64510000  1.0 0.1423225854
H  H66  1  0.21830000  0.21830000  0.64510000  1.0 0.1423225854
H  H67  1  0.78170000  0.08170000  0.78170000  1.0 0.1423225854
H  H68  1  0.08170000  0.78170000  0.35490000  1.0 0.1423225854
H  H69  1  0.78170000  0.08170000  0.35490000  1.0 0.1423225854
H  H70  1  0.78170000  0.35490000  0.08170000  1.0 0.1423225854
H  H71  1  0.78170000  0.78170000  0.35490000  1.0 0.1423225854
H  H72  1  0.35490000  0.08170000  0.78170000  1.0 0.1423225854
H  H73  1  0.09220000  0.04000000  0.61980000  1.0 0.1290890886
H  H74  1  0.75200000  0.38020000  0.90780000  1.0 0.1290890886
H  H75  1  0.04000000  0.09220000  0.24800000  1.0 0.1290890886
H  H76  1  0.38020000  0.75200000  0.96000000  1.0 0.1290890886
H  H77  1  0.96000000  0.75200000  0.90780000  1.0 0.1290890886
H  H78  1  0.24800000  0.61980000  0.04000000  1.0 0.1290890886
H  H79  1  0.38020000  0.90780000  0.75200000  1.0 0.1290890886
H  H80  1  0.96000000  0.38020000  0.75200000  1.0 0.1290890886
H  H81  1  0.61980000  0.24800000  0.09220000  1.0 0.1290890886
H  H82  1  0.75200000  0.90780000  0.96000000  1.0 0.1290890886
H  H83  1  0.61980000  0.09220000  0.04000000  1.0 0.1290890886
H  H84  1  0.04000000  0.61980000  0.09220000  1.0 0.1290890886
H  H85  1  0.61980000  0.04000000  0.24800000  1.0 0.1290890886
H  H86  1  0.24800000  0.04000000  0.09220000  1.0 0.1290890886
H  H87  1  0.09220000  0.24800000  0.04000000  1.0 0.1290890886
H  H88  1  0.09220000  0.61980000  0.24800000  1.0 0.1290890886
H  H89  1  0.04000000  0.24800000  0.61980000  1.0 0.1290890886
H  H90  1  0.24800000  0.09220000  0.61980000  1.0 0.1290890886
H  H91  1  0.90780000  0.96000000  0.75200000  1.0 0.1290890886
H  H92  1  0.96000000  0.90780000  0.38020000  1.0 0.1290890886
H  H93  1  0.75200000  0.96000000  0.38020000  1.0 0.1290890886
H  H94  1  0.90780000  0.38020000  0.96000000  1.0 0.1290890886
H  H95  1  0.90780000  0.75200000  0.38020000  1.0 0.1290890886
H  H96  1  0.38020000  0.96000000  0.90780000  1.0 0.1290890886
H  H97  1  0.90780000  0.96000000  0.38020000  1.0 0.1290890886
H  H98  1  0.24800000  0.61980000  0.09220000  1.0 0.1290890886
H  H99  1  0.96000000  0.90780000  0.75200000  1.0 0.1290890886
H  H100  1  0.61980000  0.24800000  0.04000000  1.0 0.1290890886
H  H101  1  0.04000000  0.24800000  0.09220000  1.0 0.1290890886
H  H102  1  0.75200000  0.38020000  0.96000000  1.0 0.1290890886
H  H103  1  0.61980000  0.09220000  0.24800000  1.0 0.1290890886
H  H104  1  0.04000000  0.61980000  0.24800000  1.0 0.1290890886
H  H105  1  0.38020000  0.75200000  0.90780000  1.0 0.1290890886
H  H106  1  0.24800000  0.09220000  0.04000000  1.0 0.1290890886
H  H107  1  0.38020000  0.90780000  0.96000000  1.0 0.1290890886
H  H108  1  0.96000000  0.38020000  0.90780000  1.0 0.1290890886
H  H109  1  0.38020000  0.96000000  0.75200000  1.0 0.1290890886
H  H110  1  0.75200000  0.96000000  0.90780000  1.0 0.1290890886
H  H111  1  0.90780000  0.75200000  0.96000000  1.0 0.1290890886
H  H112  1  0.90780000  0.38020000  0.75200000  1.0 0.1290890886
H  H113  1  0.96000000  0.75200000  0.38020000  1.0 0.1290890886
H  H114  1  0.75200000  0.90780000  0.38020000  1.0 0.1290890886
H  H115  1  0.09220000  0.04000000  0.24800000  1.0 0.1290890886
H  H116  1  0.04000000  0.09220000  0.61980000  1.0 0.1290890886
H  H117  1  0.24800000  0.04000000  0.61980000  1.0 0.1290890886
H  H118  1  0.09220000  0.61980000  0.04000000  1.0 0.1290890886
H  H119  1  0.09220000  0.24800000  0.61980000  1.0 0.1290890886
H  H120  1  0.61980000  0.04000000  0.09220000  1.0 0.1290890886
H  H121  1  0.08240000  0.08300000  0.56520000  1.0 0.1577634946
H  H122  1  0.73060000  0.43480000  0.91760000  1.0 0.1577634946
H  H123  1  0.08300000  0.08240000  0.26940000  1.0 0.1577634946
H  H124  1  0.43480000  0.73060000  0.91700000  1.0 0.1577634946
H  H125  1  0.91700000  0.73060000  0.91760000  1.0 0.1577634946
H  H126  1  0.26940000  0.56520000  0.08300000  1.0 0.1577634946
H  H127  1  0.43480000  0.91760000  0.73060000  1.0 0.1577634946
H  H128  1  0.91700000  0.43480000  0.73060000  1.0 0.1577634946
H  H129  1  0.56520000  0.26940000  0.08240000  1.0 0.1577634946
H  H130  1  0.73060000  0.91760000  0.91700000  1.0 0.1577634946
H  H131  1  0.56520000  0.08240000  0.08300000  1.0 0.1577634946
H  H132  1  0.08300000  0.56520000  0.08240000  1.0 0.1577634946
H  H133  1  0.56520000  0.08300000  0.26940000  1.0 0.1577634946
H  H134  1  0.26940000  0.08300000  0.08240000  1.0 0.1577634946
H  H135  1  0.08240000  0.26940000  0.08300000  1.0 0.1577634946
H  H136  1  0.08240000  0.56520000  0.26940000  1.0 0.1577634946
H  H137  1  0.08300000  0.26940000  0.56520000  1.0 0.1577634946
H  H138  1  0.26940000  0.08240000  0.56520000  1.0 0.1577634946
H  H139  1  0.91760000  0.91700000  0.73060000  1.0 0.1577634946
H  H140  1  0.91700000  0.91760000  0.43480000  1.0 0.1577634946
H  H141  1  0.73060000  0.91700000  0.43480000  1.0 0.1577634946
H  H142  1  0.91760000  0.43480000  0.91700000  1.0 0.1577634946
H  H143  1  0.91760000  0.73060000  0.43480000  1.0 0.1577634946
H  H144  1  0.43480000  0.91700000  0.91760000  1.0 0.1577634946
H  H145  1  0.20840000  0.00120000  0.63440000  1.0 0.1110867912
H  H146  1  0.84400000  0.36560000  0.79160000  1.0 0.1110867912
H  H147  1  0.00120000  0.20840000  0.15600000  1.0 0.1110867912
H  H148  1  0.36560000  0.84400000  0.99880000  1.0 0.1110867912
H  H149  1  0.99880000  0.84400000  0.79160000  1.0 0.1110867912
H  H150  1  0.15600000  0.63440000  0.00120000  1.0 0.1110867912
H  H151  1  0.36560000  0.79160000  0.84400000  1.0 0.1110867912
H  H152  1  0.99880000  0.36560000  0.84400000  1.0 0.1110867912
H  H153  1  0.63440000  0.15600000  0.20840000  1.0 0.1110867912
H  H154  1  0.84400000  0.79160000  0.99880000  1.0 0.1110867912
H  H155  1  0.63440000  0.20840000  0.00120000  1.0 0.1110867912
H  H156  1  0.00120000  0.63440000  0.20840000  1.0 0.1110867912
H  H157  1  0.63440000  0.00120000  0.15600000  1.0 0.1110867912
H  H158  1  0.15600000  0.00120000  0.20840000  1.0 0.1110867912
H  H159  1  0.20840000  0.15600000  0.00120000  1.0 0.1110867912
H  H160  1  0.20840000  0.63440000  0.15600000  1.0 0.1110867912
H  H161  1  0.00120000  0.15600000  0.63440000  1.0 0.1110867912
H  H162  1  0.15600000  0.20840000  0.63440000  1.0 0.1110867912
H  H163  1  0.79160000  0.99880000  0.84400000  1.0 0.1110867912
H  H164  1  0.99880000  0.79160000  0.36560000  1.0 0.1110867912
H  H165  1  0.84400000  0.99880000  0.36560000  1.0 0.1110867912
H  H166  1  0.79160000  0.36560000  0.99880000  1.0 0.1110867912
H  H167  1  0.79160000  0.84400000  0.36560000  1.0 0.1110867912
H  H168  1  0.36560000  0.99880000  0.79160000  1.0 0.1110867912
H  H169  1  0.79160000  0.99880000  0.36560000  1.0 0.1110867912
H  H170  1  0.15600000  0.63440000  0.20840000  1.0 0.1110867912
H  H171  1  0.99880000  0.79160000  0.84400000  1.0 0.1110867912
H  H172  1  0.63440000  0.15600000  0.00120000  1.0 0.1110867912
H  H173  1  0.00120000  0.15600000  0.20840000  1.0 0.1110867912
H  H174  1  0.84400000  0.36560000  0.99880000  1.0 0.1110867912
H  H175  1  0.63440000  0.20840000  0.15600000  1.0 0.1110867912
H  H176  1  0.00120000  0.63440000  0.15600000  1.0 0.1110867912
H  H177  1  0.36560000  0.84400000  0.79160000  1.0 0.1110867912
H  H178  1  0.15600000  0.20840000  0.00120000  1.0 0.1110867912
H  H179  1  0.36560000  0.79160000  0.99880000  1.0 0.1110867912
H  H180  1  0.99880000  0.36560000  0.79160000  1.0 0.1110867912
H  H181  1  0.36560000  0.99880000  0.84400000  1.0 0.1110867912
H  H182  1  0.84400000  0.99880000  0.79160000  1.0 0.1110867912
H  H183  1  0.79160000  0.84400000  0.99880000  1.0 0.1110867912
H  H184  1  0.79160000  0.36560000  0.84400000  1.0 0.1110867912
H  H185  1  0.99880000  0.84400000  0.36560000  1.0 0.1110867912
H  H186  1  0.84400000  0.79160000  0.36560000  1.0 0.1110867912
H  H187  1  0.20840000  0.00120000  0.15600000  1.0 0.1110867912
H  H188  1  0.00120000  0.20840000  0.63440000  1.0 0.1110867912
H  H189  1  0.15600000  0.00120000  0.63440000  1.0 0.1110867912
H  H190  1  0.20840000  0.63440000  0.00120000  1.0 0.1110867912
H  H191  1  0.20840000  0.15600000  0.63440000  1.0 0.1110867912
H  H192  1  0.63440000  0.00120000  0.20840000  1.0 0.1110867912
C  C1  1  0.32180000  0.90340000  0.45300000  1.0 0.5391879409
C  C2  1  0.67820000  0.54700000  0.67820000  1.0 0.5391879409
C  C3  1  0.90340000  0.32180000  0.32180000  1.0 0.5391879409
C  C4  1  0.54700000  0.67820000  0.09660000  1.0 0.5391879409
C  C5  1  0.09660000  0.67820000  0.67820000  1.0 0.5391879409
C  C6  1  0.32180000  0.45300000  0.90340000  1.0 0.5391879409
C  C7  1  0.54700000  0.67820000  0.67820000  1.0 0.5391879409
C  C8  1  0.09660000  0.54700000  0.67820000  1.0 0.5391879409
C  C9  1  0.45300000  0.32180000  0.32180000  1.0 0.5391879409
C  C10  1  0.67820000  0.67820000  0.09660000  1.0 0.5391879409
C  C11  1  0.45300000  0.32180000  0.90340000  1.0 0.5391879409
C  C12  1  0.90340000  0.45300000  0.32180000  1.0 0.5391879409
C  C13  1  0.45300000  0.90340000  0.32180000  1.0 0.5391879409
C  C14  1  0.32180000  0.90340000  0.32180000  1.0 0.5391879409
C  C15  1  0.32180000  0.32180000  0.90340000  1.0 0.5391879409
C  C16  1  0.32180000  0.45300000  0.32180000  1.0 0.5391879409
C  C17  1  0.90340000  0.32180000  0.45300000  1.0 0.5391879409
C  C18  1  0.32180000  0.32180000  0.45300000  1.0 0.5391879409
C  C19  1  0.67820000  0.09660000  0.67820000  1.0 0.5391879409
C  C20  1  0.09660000  0.67820000  0.54700000  1.0 0.5391879409
C  C21  1  0.67820000  0.09660000  0.54700000  1.0 0.5391879409
C  C22  1  0.67820000  0.54700000  0.09660000  1.0 0.5391879409
C  C23  1  0.67820000  0.67820000  0.54700000  1.0 0.5391879409
C  C24  1  0.54700000  0.09660000  0.67820000  1.0 0.5391879409
C  C25  1  0.26490000  0.86684000  0.60336000  1.0 -0.017889169
C  C26  1  0.73510000  0.39664000  0.73510000  1.0 -0.017889169
C  C27  1  0.86684000  0.26490000  0.26490000  1.0 -0.017889169
C  C28  1  0.39664000  0.73510000  0.13316000  1.0 -0.017889169
C  C29  1  0.13316000  0.73510000  0.73510000  1.0 -0.017889169
C  C30  1  0.26490000  0.60336000  0.86684000  1.0 -0.017889169
C  C31  1  0.39664000  0.73510000  0.73510000  1.0 -0.017889169
C  C32  1  0.13316000  0.39664000  0.73510000  1.0 -0.017889169
C  C33  1  0.60336000  0.26490000  0.26490000  1.0 -0.017889169
C  C34  1  0.73510000  0.73510000  0.13316000  1.0 -0.017889169
C  C35  1  0.60336000  0.26490000  0.86684000  1.0 -0.017889169
C  C36  1  0.86684000  0.60336000  0.26490000  1.0 -0.017889169
C  C37  1  0.60336000  0.86684000  0.26490000  1.0 -0.017889169
C  C38  1  0.26490000  0.86684000  0.26490000  1.0 -0.017889169
C  C39  1  0.26490000  0.26490000  0.86684000  1.0 -0.017889169
C  C40  1  0.26490000  0.60336000  0.26490000  1.0 -0.017889169
C  C41  1  0.86684000  0.26490000  0.60336000  1.0 -0.017889169
C  C42  1  0.26490000  0.26490000  0.60336000  1.0 -0.017889169
C  C43  1  0.73510000  0.13316000  0.73510000  1.0 -0.017889169
C  C44  1  0.13316000  0.73510000  0.39664000  1.0 -0.017889169
C  C45  1  0.73510000  0.13316000  0.39664000  1.0 -0.017889169
C  C46  1  0.73510000  0.39664000  0.13316000  1.0 -0.017889169
C  C47  1  0.73510000  0.73510000  0.39664000  1.0 -0.017889169
C  C48  1  0.39664000  0.13316000  0.73510000  1.0 -0.017889169
C  C49  1  0.29240000  0.90760000  0.50760000  1.0 -0.0017168624
C  C50  1  0.70760000  0.49240000  0.70760000  1.0 -0.0017168624
C  C51  1  0.90760000  0.29240000  0.29240000  1.0 -0.0017168624
C  C52  1  0.49240000  0.70760000  0.09240000  1.0 -0.0017168624
C  C53  1  0.09240000  0.70760000  0.70760000  1.0 -0.0017168624
C  C54  1  0.29240000  0.50760000  0.90760000  1.0 -0.0017168624
C  C55  1  0.49240000  0.70760000  0.70760000  1.0 -0.0017168624
C  C56  1  0.09240000  0.49240000  0.70760000  1.0 -0.0017168624
C  C57  1  0.50760000  0.29240000  0.29240000  1.0 -0.0017168624
C  C58  1  0.70760000  0.70760000  0.09240000  1.0 -0.0017168624
C  C59  1  0.50760000  0.29240000  0.90760000  1.0 -0.0017168624
C  C60  1  0.90760000  0.50760000  0.29240000  1.0 -0.0017168624
C  C61  1  0.50760000  0.90760000  0.29240000  1.0 -0.0017168624
C  C62  1  0.29240000  0.90760000  0.29240000  1.0 -0.0017168624
C  C63  1  0.29240000  0.29240000  0.90760000  1.0 -0.0017168624
C  C64  1  0.29240000  0.50760000  0.29240000  1.0 -0.0017168624
C  C65  1  0.90760000  0.29240000  0.50760000  1.0 -0.0017168624
C  C66  1  0.29240000  0.29240000  0.50760000  1.0 -0.0017168624
C  C67  1  0.70760000  0.09240000  0.70760000  1.0 -0.0017168624
C  C68  1  0.09240000  0.70760000  0.49240000  1.0 -0.0017168624
C  C69  1  0.70760000  0.09240000  0.49240000  1.0 -0.0017168624
C  C70  1  0.70760000  0.49240000  0.09240000  1.0 -0.0017168624
C  C71  1  0.70760000  0.70760000  0.49240000  1.0 -0.0017168624
C  C72  1  0.49240000  0.09240000  0.70760000  1.0 -0.0017168624
C  C73  1  0.29230000  0.86210000  0.55330000  1.0 -0.0879993519
C  C74  1  0.70770000  0.44670000  0.70770000  1.0 -0.0879993519
C  C75  1  0.86210000  0.29230000  0.29230000  1.0 -0.0879993519
C  C76  1  0.44670000  0.70770000  0.13790000  1.0 -0.0879993519
C  C77  1  0.13790000  0.70770000  0.70770000  1.0 -0.0879993519
C  C78  1  0.29230000  0.55330000  0.86210000  1.0 -0.0879993519
C  C79  1  0.44670000  0.70770000  0.70770000  1.0 -0.0879993519
C  C80  1  0.13790000  0.44670000  0.70770000  1.0 -0.0879993519
C  C81  1  0.55330000  0.29230000  0.29230000  1.0 -0.0879993519
C  C82  1  0.70770000  0.70770000  0.13790000  1.0 -0.0879993519
C  C83  1  0.55330000  0.29230000  0.86210000  1.0 -0.0879993519
C  C84  1  0.86210000  0.55330000  0.29230000  1.0 -0.0879993519
C  C85  1  0.55330000  0.86210000  0.29230000  1.0 -0.0879993519
C  C86  1  0.29230000  0.86210000  0.29230000  1.0 -0.0879993519
C  C87  1  0.29230000  0.29230000  0.86210000  1.0 -0.0879993519
C  C88  1  0.29230000  0.55330000  0.29230000  1.0 -0.0879993519
C  C89  1  0.86210000  0.29230000  0.55330000  1.0 -0.0879993519
C  C90  1  0.29230000  0.29230000  0.55330000  1.0 -0.0879993519
C  C91  1  0.70770000  0.13790000  0.70770000  1.0 -0.0879993519
C  C92  1  0.13790000  0.70770000  0.44670000  1.0 -0.0879993519
C  C93  1  0.70770000  0.13790000  0.44670000  1.0 -0.0879993519
C  C94  1  0.70770000  0.44670000  0.13790000  1.0 -0.0879993519
C  C95  1  0.70770000  0.70770000  0.44670000  1.0 -0.0879993519
C  C96  1  0.44670000  0.13790000  0.70770000  1.0 -0.0879993519
C  C97  1  0.26270000  0.95790000  0.51670000  1.0 -0.1764781868
C  C98  1  0.73730000  0.48330000  0.73730000  1.0 -0.1764781868
C  C99  1  0.95790000  0.26270000  0.26270000  1.0 -0.1764781868
C  C100  1  0.48330000  0.73730000  0.04210000  1.0 -0.1764781868
C  C101  1  0.04210000  0.73730000  0.73730000  1.0 -0.1764781868
C  C102  1  0.26270000  0.51670000  0.95790000  1.0 -0.1764781868
C  C103  1  0.48330000  0.73730000  0.73730000  1.0 -0.1764781868
C  C104  1  0.04210000  0.48330000  0.73730000  1.0 -0.1764781868
C  C105  1  0.51670000  0.26270000  0.26270000  1.0 -0.1764781868
C  C106  1  0.73730000  0.73730000  0.04210000  1.0 -0.1764781868
C  C107  1  0.51670000  0.26270000  0.95790000  1.0 -0.1764781868
C  C108  1  0.95790000  0.51670000  0.26270000  1.0 -0.1764781868
C  C109  1  0.51670000  0.95790000  0.26270000  1.0 -0.1764781868
C  C110  1  0.26270000  0.95790000  0.26270000  1.0 -0.1764781868
C  C111  1  0.26270000  0.26270000  0.95790000  1.0 -0.1764781868
C  C112  1  0.26270000  0.51670000  0.26270000  1.0 -0.1764781868
C  C113  1  0.95790000  0.26270000  0.51670000  1.0 -0.1764781868
C  C114  1  0.26270000  0.26270000  0.51670000  1.0 -0.1764781868
C  C115  1  0.73730000  0.04210000  0.73730000  1.0 -0.1764781868
C  C116  1  0.04210000  0.73730000  0.48330000  1.0 -0.1764781868
C  C117  1  0.73730000  0.04210000  0.48330000  1.0 -0.1764781868
C  C118  1  0.73730000  0.48330000  0.04210000  1.0 -0.1764781868
C  C119  1  0.73730000  0.73730000  0.48330000  1.0 -0.1764781868
C  C120  1  0.48330000  0.04210000  0.73730000  1.0 -0.1764781868
C  C121  1  0.23690000  0.91570000  0.61050000  1.0 -0.1907451546
C  C122  1  0.76310000  0.38950000  0.76310000  1.0 -0.1907451546
C  C123  1  0.91570000  0.23690000  0.23690000  1.0 -0.1907451546
C  C124  1  0.38950000  0.76310000  0.08430000  1.0 -0.1907451546
C  C125  1  0.08430000  0.76310000  0.76310000  1.0 -0.1907451546
C  C126  1  0.23690000  0.61050000  0.91570000  1.0 -0.1907451546
C  C127  1  0.38950000  0.76310000  0.76310000  1.0 -0.1907451546
C  C128  1  0.08430000  0.38950000  0.76310000  1.0 -0.1907451546
C  C129  1  0.61050000  0.23690000  0.23690000  1.0 -0.1907451546
C  C130  1  0.76310000  0.76310000  0.08430000  1.0 -0.1907451546
C  C131  1  0.61050000  0.23690000  0.91570000  1.0 -0.1907451546
C  C132  1  0.91570000  0.61050000  0.23690000  1.0 -0.1907451546
C  C133  1  0.61050000  0.91570000  0.23690000  1.0 -0.1907451546
C  C134  1  0.23690000  0.91570000  0.23690000  1.0 -0.1907451546
C  C135  1  0.23690000  0.23690000  0.91570000  1.0 -0.1907451546
C  C136  1  0.23690000  0.61050000  0.23690000  1.0 -0.1907451546
C  C137  1  0.91570000  0.23690000  0.61050000  1.0 -0.1907451546
C  C138  1  0.23690000  0.23690000  0.61050000  1.0 -0.1907451546
C  C139  1  0.76310000  0.08430000  0.76310000  1.0 -0.1907451546
C  C140  1  0.08430000  0.76310000  0.38950000  1.0 -0.1907451546
C  C141  1  0.76310000  0.08430000  0.38950000  1.0 -0.1907451546
C  C142  1  0.76310000  0.38950000  0.08430000  1.0 -0.1907451546
C  C143  1  0.76310000  0.76310000  0.38950000  1.0 -0.1907451546
C  C144  1  0.38950000  0.08430000  0.76310000  1.0 -0.1907451546
C  C145  1  0.23640000  0.96000000  0.56720000  1.0 0.2091543306
C  C146  1  0.76360000  0.43280000  0.76360000  1.0 0.2091543306
C  C147  1  0.96000000  0.23640000  0.23640000  1.0 0.2091543306
C  C148  1  0.43280000  0.76360000  0.04000000  1.0 0.2091543306
C  C149  1  0.04000000  0.76360000  0.76360000  1.0 0.2091543306
C  C150  1  0.23640000  0.56720000  0.96000000  1.0 0.2091543306
C  C151  1  0.43280000  0.76360000  0.76360000  1.0 0.2091543306
C  C152  1  0.04000000  0.43280000  0.76360000  1.0 0.2091543306
C  C153  1  0.56720000  0.23640000  0.23640000  1.0 0.2091543306
C  C154  1  0.76360000  0.76360000  0.04000000  1.0 0.2091543306
C  C155  1  0.56720000  0.23640000  0.96000000  1.0 0.2091543306
C  C156  1  0.96000000  0.56720000  0.23640000  1.0 0.2091543306
C  C157  1  0.56720000  0.96000000  0.23640000  1.0 0.2091543306
C  C158  1  0.23640000  0.96000000  0.23640000  1.0 0.2091543306
C  C159  1  0.23640000  0.23640000  0.96000000  1.0 0.2091543306
C  C160  1  0.23640000  0.56720000  0.23640000  1.0 0.2091543306
C  C161  1  0.96000000  0.23640000  0.56720000  1.0 0.2091543306
C  C162  1  0.23640000  0.23640000  0.56720000  1.0 0.2091543306
C  C163  1  0.76360000  0.04000000  0.76360000  1.0 0.2091543306
C  C164  1  0.04000000  0.76360000  0.43280000  1.0 0.2091543306
C  C165  1  0.76360000  0.04000000  0.43280000  1.0 0.2091543306
C  C166  1  0.76360000  0.43280000  0.04000000  1.0 0.2091543306
C  C167  1  0.76360000  0.76360000  0.43280000  1.0 0.2091543306
C  C168  1  0.43280000  0.04000000  0.76360000  1.0 0.2091543306
C  C169  1  0.26440000  0.82000000  0.65120000  1.0 0.5938122997
C  C170  1  0.73560000  0.34880000  0.73560000  1.0 0.5938122997
C  C171  1  0.82000000  0.26440000  0.26440000  1.0 0.5938122997
C  C172  1  0.34880000  0.73560000  0.18000000  1.0 0.5938122997
C  C173  1  0.18000000  0.73560000  0.73560000  1.0 0.5938122997
C  C174  1  0.26440000  0.65120000  0.82000000  1.0 0.5938122997
C  C175  1  0.34880000  0.73560000  0.73560000  1.0 0.5938122997
C  C176  1  0.18000000  0.34880000  0.73560000  1.0 0.5938122997
C  C177  1  0.65120000  0.26440000  0.26440000  1.0 0.5938122997
C  C178  1  0.73560000  0.73560000  0.18000000  1.0 0.5938122997
C  C179  1  0.65120000  0.26440000  0.82000000  1.0 0.5938122997
C  C180  1  0.82000000  0.65120000  0.26440000  1.0 0.5938122997
C  C181  1  0.65120000  0.82000000  0.26440000  1.0 0.5938122997
C  C182  1  0.26440000  0.82000000  0.26440000  1.0 0.5938122997
C  C183  1  0.26440000  0.26440000  0.82000000  1.0 0.5938122997
C  C184  1  0.26440000  0.65120000  0.26440000  1.0 0.5938122997
C  C185  1  0.82000000  0.26440000  0.65120000  1.0 0.5938122997
C  C186  1  0.26440000  0.26440000  0.65120000  1.0 0.5938122997
C  C187  1  0.73560000  0.18000000  0.73560000  1.0 0.5938122997
C  C188  1  0.18000000  0.73560000  0.34880000  1.0 0.5938122997
C  C189  1  0.73560000  0.18000000  0.34880000  1.0 0.5938122997
C  C190  1  0.73560000  0.34880000  0.18000000  1.0 0.5938122997
C  C191  1  0.73560000  0.73560000  0.34880000  1.0 0.5938122997
C  C192  1  0.34880000  0.18000000  0.73560000  1.0 0.5938122997
C  C193  1  0.16020000  0.08240000  0.59720000  1.0 -0.0996580281
C  C194  1  0.83980000  0.40280000  0.83980000  1.0 -0.0996580281
C  C195  1  0.08240000  0.16020000  0.16020000  1.0 -0.0996580281
C  C196  1  0.40280000  0.83980000  0.91760000  1.0 -0.0996580281
C  C197  1  0.91760000  0.83980000  0.83980000  1.0 -0.0996580281
C  C198  1  0.16020000  0.59720000  0.08240000  1.0 -0.0996580281
C  C199  1  0.40280000  0.83980000  0.83980000  1.0 -0.0996580281
C  C200  1  0.91760000  0.40280000  0.83980000  1.0 -0.0996580281
C  C201  1  0.59720000  0.16020000  0.16020000  1.0 -0.0996580281
C  C202  1  0.83980000  0.83980000  0.91760000  1.0 -0.0996580281
C  C203  1  0.59720000  0.16020000  0.08240000  1.0 -0.0996580281
C  C204  1  0.08240000  0.59720000  0.16020000  1.0 -0.0996580281
C  C205  1  0.59720000  0.08240000  0.16020000  1.0 -0.0996580281
C  C206  1  0.16020000  0.08240000  0.16020000  1.0 -0.0996580281
C  C207  1  0.16020000  0.16020000  0.08240000  1.0 -0.0996580281
C  C208  1  0.16020000  0.59720000  0.16020000  1.0 -0.0996580281
C  C209  1  0.08240000  0.16020000  0.59720000  1.0 -0.0996580281
C  C210  1  0.16020000  0.16020000  0.59720000  1.0 -0.0996580281
C  C211  1  0.83980000  0.91760000  0.83980000  1.0 -0.0996580281
C  C212  1  0.91760000  0.83980000  0.40280000  1.0 -0.0996580281
C  C213  1  0.83980000  0.91760000  0.40280000  1.0 -0.0996580281
C  C214  1  0.83980000  0.40280000  0.91760000  1.0 -0.0996580281
C  C215  1  0.83980000  0.83980000  0.40280000  1.0 -0.0996580281
C  C216  1  0.40280000  0.91760000  0.83980000  1.0 -0.0996580281
C  C217  1  0.10820000  0.10820000  0.59720000  1.0 0.1192856715
C  C218  1  0.81360000  0.40280000  0.89180000  1.0 0.1192856715
C  C219  1  0.10820000  0.10820000  0.18640000  1.0 0.1192856715
C  C220  1  0.40280000  0.81360000  0.89180000  1.0 0.1192856715
C  C221  1  0.89180000  0.81360000  0.89180000  1.0 0.1192856715
C  C222  1  0.18640000  0.59720000  0.10820000  1.0 0.1192856715
C  C223  1  0.40280000  0.89180000  0.81360000  1.0 0.1192856715
C  C224  1  0.89180000  0.40280000  0.81360000  1.0 0.1192856715
C  C225  1  0.59720000  0.18640000  0.10820000  1.0 0.1192856715
C  C226  1  0.81360000  0.89180000  0.89180000  1.0 0.1192856715
C  C227  1  0.59720000  0.10820000  0.10820000  1.0 0.1192856715
C  C228  1  0.10820000  0.59720000  0.10820000  1.0 0.1192856715
C  C229  1  0.59720000  0.10820000  0.18640000  1.0 0.1192856715
C  C230  1  0.18640000  0.10820000  0.10820000  1.0 0.1192856715
C  C231  1  0.10820000  0.18640000  0.10820000  1.0 0.1192856715
C  C232  1  0.10820000  0.59720000  0.18640000  1.0 0.1192856715
C  C233  1  0.10820000  0.18640000  0.59720000  1.0 0.1192856715
C  C234  1  0.18640000  0.10820000  0.59720000  1.0 0.1192856715
C  C235  1  0.89180000  0.89180000  0.81360000  1.0 0.1192856715
C  C236  1  0.89180000  0.89180000  0.40280000  1.0 0.1192856715
C  C237  1  0.81360000  0.89180000  0.40280000  1.0 0.1192856715
C  C238  1  0.89180000  0.40280000  0.89180000  1.0 0.1192856715
C  C239  1  0.89180000  0.81360000  0.40280000  1.0 0.1192856715
C  C240  1  0.40280000  0.89180000  0.89180000  1.0 0.1192856715
C  C241  1  0.07790000  0.07790000  0.60110000  1.0 -0.4251815896
C  C242  1  0.75690000  0.39890000  0.92210000  1.0 -0.4251815896
C  C243  1  0.07790000  0.07790000  0.24310000  1.0 -0.4251815896
C  C244  1  0.39890000  0.75690000  0.92210000  1.0 -0.4251815896
C  C245  1  0.92210000  0.75690000  0.92210000  1.0 -0.4251815896
C  C246  1  0.24310000  0.60110000  0.07790000  1.0 -0.4251815896
C  C247  1  0.39890000  0.92210000  0.75690000  1.0 -0.4251815896
C  C248  1  0.92210000  0.39890000  0.75690000  1.0 -0.4251815896
C  C249  1  0.60110000  0.24310000  0.07790000  1.0 -0.4244312565
C  C250  1  0.75690000  0.92210000  0.92210000  1.0 -0.4251815896
C  C251  1  0.60110000  0.07790000  0.07790000  1.0 -0.4244312565
C  C252  1  0.07790000  0.60110000  0.07790000  1.0 -0.4251815896
C  C253  1  0.60110000  0.07790000  0.24310000  1.0 -0.4244312565
C  C254  1  0.24310000  0.07790000  0.07790000  1.0 -0.4244312565
C  C255  1  0.07790000  0.24310000  0.07790000  1.0 -0.4244312565
C  C256  1  0.07790000  0.60110000  0.24310000  1.0 -0.4244312565
C  C257  1  0.07790000  0.24310000  0.60110000  1.0 -0.4251815896
C  C258  1  0.24310000  0.07790000  0.60110000  1.0 -0.4244312565
C  C259  1  0.92210000  0.92210000  0.75690000  1.0 -0.4251815896
C  C260  1  0.92210000  0.92210000  0.39890000  1.0 -0.4244312565
C  C261  1  0.75690000  0.92210000  0.39890000  1.0 -0.4244312565
C  C262  1  0.92210000  0.39890000  0.92210000  1.0 -0.4251815896
C  C263  1  0.92210000  0.75690000  0.39890000  1.0 -0.4251815896
C  C264  1  0.39890000  0.92210000  0.92210000  1.0 -0.4251815896
C  C265  1  0.18450000  0.01710000  0.61390000  1.0 0.0408251618
C  C266  1  0.81550000  0.38610000  0.81550000  1.0 0.0408251618
C  C267  1  0.01710000  0.18450000  0.18450000  1.0 0.0408251618
C  C268  1  0.38610000  0.81550000  0.98290000  1.0 0.0408251618
C  C269  1  0.98290000  0.81550000  0.81550000  1.0 0.0408251618
C  C270  1  0.18450000  0.61390000  0.01710000  1.0 0.0408251618
C  C271  1  0.38610000  0.81550000  0.81550000  1.0 0.0408251618
C  C272  1  0.98290000  0.38610000  0.81550000  1.0 0.0408251618
C  C273  1  0.61390000  0.18450000  0.18450000  1.0 0.0408251618
C  C274  1  0.81550000  0.81550000  0.98290000  1.0 0.0408251618
C  C275  1  0.61390000  0.18450000  0.01710000  1.0 0.0408251618
C  C276  1  0.01710000  0.61390000  0.18450000  1.0 0.0408251618
C  C277  1  0.61390000  0.01710000  0.18450000  1.0 0.0408251618
C  C278  1  0.18450000  0.01710000  0.18450000  1.0 0.0408251618
C  C279  1  0.18450000  0.18450000  0.01710000  1.0 0.0408251618
C  C280  1  0.18450000  0.61390000  0.18450000  1.0 0.0408251618
C  C281  1  0.01710000  0.18450000  0.61390000  1.0 0.0408251618
C  C282  1  0.18450000  0.18450000  0.61390000  1.0 0.0408251618
C  C283  1  0.81550000  0.98290000  0.81550000  1.0 0.0408251618
C  C284  1  0.98290000  0.81550000  0.38610000  1.0 0.0408251618
C  C285  1  0.81550000  0.98290000  0.38610000  1.0 0.0408251618
C  C286  1  0.81550000  0.38610000  0.98290000  1.0 0.0408251618
C  C287  1  0.81550000  0.81550000  0.38610000  1.0 0.0408251618
C  C288  1  0.38610000  0.98290000  0.81550000  1.0 0.0408251618
O  O1  1  0.18560000  0.81440000  0.81440000  1.0 -0.5069371116
O  O2  1  0.81440000  0.18560000  0.81440000  1.0 -0.5069371116
O  O3  1  0.81440000  0.18560000  0.18560000  1.0 -0.5069371116
O  O4  1  0.18560000  0.81440000  0.18560000  1.0 -0.5240733843
O  O5  1  0.18560000  0.18560000  0.81440000  1.0 -0.5069371116
O  O6  1  0.81440000  0.81440000  0.18560000  1.0 -0.5069371116
O  O7  1  0.20970000  0.01270000  0.56790000  1.0 -0.1194041156
O  O8  1  0.79030000  0.43210000  0.79030000  1.0 -0.1194041156
O  O9  1  0.01270000  0.20970000  0.20970000  1.0 -0.1194041156
O  O10  1  0.43210000  0.79030000  0.98730000  1.0 -0.1194041156
O  O11  1  0.98730000  0.79030000  0.79030000  1.0 -0.1194041156
O  O12  1  0.20970000  0.56790000  0.01270000  1.0 -0.1194041156
O  O13  1  0.43210000  0.79030000  0.79030000  1.0 -0.1194041156
O  O14  1  0.98730000  0.43210000  0.79030000  1.0 -0.1194041156
O  O15  1  0.56790000  0.20970000  0.20970000  1.0 -0.1194041156
O  O16  1  0.79030000  0.79030000  0.98730000  1.0 -0.1194041156
O  O17  1  0.56790000  0.20970000  0.01270000  1.0 -0.1194041156
O  O18  1  0.01270000  0.56790000  0.20970000  1.0 -0.1194041156
O  O19  1  0.56790000  0.01270000  0.20970000  1.0 -0.1194041156
O  O20  1  0.20970000  0.01270000  0.20970000  1.0 -0.1194041156
O  O21  1  0.20970000  0.20970000  0.01270000  1.0 -0.1194041156
O  O22  1  0.20970000  0.56790000  0.20970000  1.0 -0.1194041156
O  O23  1  0.01270000  0.20970000  0.56790000  1.0 -0.1194041156
O  O24  1  0.20970000  0.20970000  0.56790000  1.0 -0.1194041156
O  O25  1  0.79030000  0.98730000  0.79030000  1.0 -0.1194041156
O  O26  1  0.98730000  0.79030000  0.43210000  1.0 -0.1194041156
O  O27  1  0.79030000  0.98730000  0.43210000  1.0 -0.1194041156
O  O28  1  0.79030000  0.43210000  0.98730000  1.0 -0.1194041156
O  O29  1  0.79030000  0.79030000  0.43210000  1.0 -0.1194041156
O  O30  1  0.43210000  0.98730000  0.79030000  1.0 -0.1194041156
O  O31  1  0.24030000  0.82460000  0.69480000  1.0 -0.4770364371
O  O32  1  0.75970000  0.30520000  0.75970000  1.0 -0.4770364371
O  O33  1  0.82460000  0.24030000  0.24030000  1.0 -0.4770364371
O  O34  1  0.30520000  0.75970000  0.17540000  1.0 -0.4746840816
O  O35  1  0.17540000  0.75970000  0.75970000  1.0 -0.4770364371
O  O36  1  0.24030000  0.69480000  0.82460000  1.0 -0.4770364371
O  O37  1  0.30520000  0.75970000  0.75970000  1.0 -0.4770364371
O  O38  1  0.17540000  0.30520000  0.75970000  1.0 -0.4770364371
O  O39  1  0.69480000  0.24030000  0.24030000  1.0 -0.4770364371
O  O40  1  0.75970000  0.75970000  0.17540000  1.0 -0.4770364371
O  O41  1  0.69480000  0.24030000  0.82460000  1.0 -0.4770364371
O  O42  1  0.82460000  0.69480000  0.24030000  1.0 -0.4770364371
O  O43  1  0.69480000  0.82460000  0.24030000  1.0 -0.4770364371
O  O44  1  0.24030000  0.82460000  0.24030000  1.0 -0.4770364371
O  O45  1  0.24030000  0.24030000  0.82460000  1.0 -0.4770364371
O  O46  1  0.24030000  0.69480000  0.24030000  1.0 -0.4770364371
O  O47  1  0.82460000  0.24030000  0.69480000  1.0 -0.4770364371
O  O48  1  0.24030000  0.24030000  0.69480000  1.0 -0.4770364371
O  O49  1  0.75970000  0.17540000  0.75970000  1.0 -0.4770364371
O  O50  1  0.17540000  0.75970000  0.30520000  1.0 -0.4770364371
O  O51  1  0.75970000  0.17540000  0.30520000  1.0 -0.4770364371
O  O52  1  0.75970000  0.30520000  0.17540000  1.0 -0.4770364371
O  O53  1  0.75970000  0.75970000  0.30520000  1.0 -0.4770364371
O  O54  1  0.30520000  0.17540000  0.75970000  1.0 -0.4770364371
O  O55  1  0.29090000  0.77442000  0.64378000  1.0 -0.5038986306
O  O56  1  0.70910000  0.35622000  0.70910000  1.0 -0.5069371116
O  O57  1  0.77442000  0.29090000  0.29090000  1.0 -0.5069371116
O  O58  1  0.35622000  0.70910000  0.22558000  1.0 -0.5038986306
O  O59  1  0.22558000  0.70910000  0.70910000  1.0 -0.5038986306
O  O60  1  0.29090000  0.64378000  0.77442000  1.0 -0.5038986306
O  O61  1  0.35622000  0.70910000  0.70910000  1.0 -0.5038986306
O  O62  1  0.22558000  0.35622000  0.70910000  1.0 -0.5069371116
O  O63  1  0.64378000  0.29090000  0.29090000  1.0 -0.5069371116
O  O64  1  0.70910000  0.70910000  0.22558000  1.0 -0.5038986306
O  O65  1  0.64378000  0.29090000  0.77442000  1.0 -0.5038986306
O  O66  1  0.77442000  0.64378000  0.29090000  1.0 -0.5069371116
O  O67  1  0.64378000  0.77442000  0.29090000  1.0 -0.5069371116
O  O68  1  0.29090000  0.77442000  0.29090000  1.0 -0.5038986306
O  O69  1  0.29090000  0.29090000  0.77442000  1.0 -0.5069371116
O  O70  1  0.29090000  0.64378000  0.29090000  1.0 -0.5069371116
O  O71  1  0.77442000  0.29090000  0.64378000  1.0 -0.5069371116
O  O72  1  0.29090000  0.29090000  0.64378000  1.0 -0.5069371116
O  O73  1  0.70910000  0.22558000  0.70910000  1.0 -0.5069371116
O  O74  1  0.22558000  0.70910000  0.35622000  1.0 -0.5038986306
O  O75  1  0.70910000  0.22558000  0.35622000  1.0 -0.5069371116
O  O76  1  0.70910000  0.35622000  0.22558000  1.0 -0.5069371116
O  O77  1  0.70910000  0.70910000  0.35622000  1.0 -0.5038986306
O  O78  1  0.35622000  0.22558000  0.70910000  1.0 -0.5069371116
O  O79  1  0.34420000  0.86226000  0.44934000  1.0 -0.4503812463
O  O80  1  0.65580000  0.55066000  0.65580000  1.0 -0.4503812463
O  O81  1  0.86226000  0.34420000  0.34420000  1.0 -0.4503812463
O  O82  1  0.55066000  0.65580000  0.13774000  1.0 -0.4503812463
O  O83  1  0.13774000  0.65580000  0.65580000  1.0 -0.4503812463
O  O84  1  0.34420000  0.44934000  0.86226000  1.0 -0.4503812463
O  O85  1  0.55066000  0.65580000  0.65580000  1.0 -0.4503812463
O  O86  1  0.13774000  0.55066000  0.65580000  1.0 -0.4503812463
O  O87  1  0.44934000  0.34420000  0.34420000  1.0 -0.4503812463
O  O88  1  0.65580000  0.65580000  0.13774000  1.0 -0.4503812463
O  O89  1  0.44934000  0.34420000  0.86226000  1.0 -0.4503812463
O  O90  1  0.86226000  0.44934000  0.34420000  1.0 -0.4503812463
O  O91  1  0.44934000  0.86226000  0.34420000  1.0 -0.4503812463
O  O92  1  0.34420000  0.86226000  0.34420000  1.0 -0.4503812463
O  O93  1  0.34420000  0.34420000  0.86226000  1.0 -0.4503812463
O  O94  1  0.34420000  0.44934000  0.34420000  1.0 -0.4503812463
O  O95  1  0.86226000  0.34420000  0.44934000  1.0 -0.4503812463
O  O96  1  0.34420000  0.34420000  0.44934000  1.0 -0.4503812463
O  O97  1  0.65580000  0.13774000  0.65580000  1.0 -0.4503812463
O  O98  1  0.13774000  0.65580000  0.55066000  1.0 -0.4503812463
O  O99  1  0.65580000  0.13774000  0.55066000  1.0 -0.4503812463
O  O100  1  0.65580000  0.55066000  0.13774000  1.0 -0.4503812463
O  O101  1  0.65580000  0.65580000  0.55066000  1.0 -0.4503812463
O  O102  1  0.55066000  0.13774000  0.65580000  1.0 -0.4503812463
O  O103  1  0.34430000  0.65570000  0.65570000  1.0 -0.4100178998
O  O104  1  0.65570000  0.34430000  0.65570000  1.0 -0.3917646508
O  O105  1  0.65570000  0.34430000  0.34430000  1.0 -0.3917646508
O  O106  1  0.34430000  0.65570000  0.34430000  1.0 -0.3917646508
O  O107  1  0.34430000  0.34430000  0.65570000  1.0 -0.3917646508
O  O108  1  0.65570000  0.65570000  0.34430000  1.0 -0.3917646508
O  O109  1  0.31730000  0.94770000  0.41770000  1.0 -0.5322782517
O  O110  1  0.68270000  0.58230000  0.68270000  1.0 -0.5322782517
O  O111  1  0.94770000  0.31730000  0.31730000  1.0 -0.5322782517
O  O112  1  0.58230000  0.68270000  0.05230000  1.0 -0.5322782517
O  O113  1  0.05230000  0.68270000  0.68270000  1.0 -0.5322782517
O  O114  1  0.31730000  0.41770000  0.94770000  1.0 -0.5322782517
O  O115  1  0.58230000  0.68270000  0.68270000  1.0 -0.5322782517
O  O116  1  0.05230000  0.58230000  0.68270000  1.0 -0.5322782517
O  O117  1  0.41770000  0.31730000  0.31730000  1.0 -0.5322782517
O  O118  1  0.68270000  0.68270000  0.05230000  1.0 -0.5322782517
O  O119  1  0.41770000  0.31730000  0.94770000  1.0 -0.5322782517
O  O120  1  0.94770000  0.41770000  0.31730000  1.0 -0.5322782517
O  O121  1  0.41770000  0.94770000  0.31730000  1.0 -0.5322782517
O  O122  1  0.31730000  0.94770000  0.31730000  1.0 -0.5322782517
O  O123  1  0.31730000  0.31730000  0.94770000  1.0 -0.5322782517
O  O124  1  0.31730000  0.41770000  0.31730000  1.0 -0.5322782517
O  O125  1  0.94770000  0.31730000  0.41770000  1.0 -0.5322782517
O  O126  1  0.31730000  0.31730000  0.41770000  1.0 -0.5322782517
O  O127  1  0.68270000  0.05230000  0.68270000  1.0 -0.5322782517
O  O128  1  0.05230000  0.68270000  0.58230000  1.0 -0.5322782517
O  O129  1  0.68270000  0.05230000  0.58230000  1.0 -0.5322782517
O  O130  1  0.68270000  0.58230000  0.05230000  1.0 -0.5322782517
O  O131  1  0.68270000  0.68270000  0.58230000  1.0 -0.5322782517
O  O132  1  0.58230000  0.05230000  0.68270000  1.0 -0.5322782517
O  O133  1  0.41260000  0.76220000  0.41260000  1.0 -0.6878373246
O  O134  1  0.58740000  0.58740000  0.58740000  1.0 -0.6878373246
O  O135  1  0.76220000  0.41260000  0.41260000  1.0 -0.6878373246
O  O136  1  0.58740000  0.58740000  0.23780000  1.0 -0.6878373246
O  O137  1  0.23780000  0.58740000  0.58740000  1.0 -0.6878373246
O  O138  1  0.41260000  0.41260000  0.76220000  1.0 -0.7072925787
O  O139  1  0.41260000  0.41260000  0.41260000  1.0 -0.6878373246
O  O140  1  0.58740000  0.23780000  0.58740000  1.0 -0.6849959116
O  O141  1  0.26320000  0.03720000  0.34980000  1.0 -0.3361412506
O  O142  1  0.65020000  0.65020000  0.73680000  1.0 -0.3141910057
O  O143  1  0.03720000  0.26320000  0.34980000  1.0 -0.3293864053
O  O144  1  0.65020000  0.65020000  0.96280000  1.0 -0.3361412506
O  O145  1  0.96280000  0.65020000  0.73680000  1.0 -0.3293864053
O  O146  1  0.34980000  0.34980000  0.03720000  1.0 -0.3361412506
O  O147  1  0.65020000  0.73680000  0.65020000  1.0 -0.350899316
O  O148  1  0.96280000  0.65020000  0.65020000  1.0 -0.3293864053
O  O149  1  0.34980000  0.34980000  0.26320000  1.0 -0.3293864053
O  O150  1  0.65020000  0.73680000  0.96280000  1.0 -0.3361412506
O  O151  1  0.34980000  0.26320000  0.03720000  1.0 -0.3361412506
O  O152  1  0.03720000  0.34980000  0.26320000  1.0 -0.3596042912
O  O153  1  0.34980000  0.03720000  0.34980000  1.0 -0.3361412506
O  O154  1  0.34980000  0.03720000  0.26320000  1.0 -0.3361412506
O  O155  1  0.26320000  0.34980000  0.03720000  1.0 -0.3361412506
O  O156  1  0.26320000  0.34980000  0.34980000  1.0 -0.3293864053
O  O157  1  0.03720000  0.34980000  0.34980000  1.0 -0.3237155895
O  O158  1  0.34980000  0.26320000  0.34980000  1.0 -0.3361412506
O  O159  1  0.73680000  0.96280000  0.65020000  1.0 -0.350899316
O  O160  1  0.96280000  0.73680000  0.65020000  1.0 -0.3662272613
O  O161  1  0.65020000  0.96280000  0.65020000  1.0 -0.350899316
O  O162  1  0.73680000  0.65020000  0.96280000  1.0 -0.3361412506
O  O163  1  0.73680000  0.65020000  0.65020000  1.0 -0.350899316
O  O164  1  0.65020000  0.96280000  0.73680000  1.0 -0.3141910057
