# DDEC6 charges by PACMAN v1.1 (https://github.com/mtap-research/PACMAN-charge/)
data_GUKXIW_ASR_pacman
_symmetry_space_group_name_H-M   'P 1'
_cell_length_a   28.46180000
_cell_length_b   28.46180000
_cell_length_c   28.46180000
_cell_angle_alpha   60.00000000
_cell_angle_beta   60.00000000
_cell_angle_gamma   60.00000000
_symmetry_Int_Tables_number   1
_chemical_formula_structural   Fe6H300C228N5O84
_chemical_formula_sum   'Fe24 H1200 C912 N20 O336'
_cell_volume   16303.17122726
_cell_formula_units_Z   4
loop_
 _symmetry_equiv_pos_site_id
 _symmetry_equiv_pos_as_xyz
  1  'x, y, z'
loop_
 _atom_site_type_symbol
 _atom_site_label
 _atom_site_symmetry_multiplicity
 _atom_site_fract_x
 _atom_site_fract_y
 _atom_site_fract_z
 _atom_site_occupancy
 _atom_site_charge
Fe  Fe1  1  0.77880000  0.50000000  0.22120000  1.0 0.7242932766
Fe  Fe2  1  0.88260000  0.50000000  0.11740000  1.0 0.6936885068
Fe  Fe3  1  0.50000000  0.77880000  0.50000000  1.0 0.7242932766
Fe  Fe4  1  0.50000000  0.88260000  0.50000000  1.0 0.6936885068
Fe  Fe5  1  0.22120000  0.50000000  0.77880000  1.0 0.7242932766
Fe  Fe6  1  0.11740000  0.50000000  0.88260000  1.0 0.6936885068
Fe  Fe7  1  0.50000000  0.22120000  0.50000000  1.0 0.7242932766
Fe  Fe8  1  0.50000000  0.11740000  0.50000000  1.0 0.6936885068
Fe  Fe9  1  0.22120000  0.77880000  0.50000000  1.0 0.7242932766
Fe  Fe10  1  0.11740000  0.88260000  0.50000000  1.0 0.6936885068
Fe  Fe11  1  0.50000000  0.50000000  0.77880000  1.0 0.7242932766
Fe  Fe12  1  0.50000000  0.50000000  0.88260000  1.0 0.6936885068
Fe  Fe13  1  0.77880000  0.22120000  0.50000000  1.0 0.7242932766
Fe  Fe14  1  0.88260000  0.11740000  0.50000000  1.0 0.6936885068
Fe  Fe15  1  0.50000000  0.50000000  0.22120000  1.0 0.7242932766
Fe  Fe16  1  0.50000000  0.50000000  0.11740000  1.0 0.6936885068
Fe  Fe17  1  0.50000000  0.22120000  0.77880000  1.0 0.7242932766
Fe  Fe18  1  0.50000000  0.11740000  0.88260000  1.0 0.6936885068
Fe  Fe19  1  0.77880000  0.50000000  0.50000000  1.0 0.7242932766
Fe  Fe20  1  0.88260000  0.50000000  0.50000000  1.0 0.6936885068
Fe  Fe21  1  0.50000000  0.77880000  0.22120000  1.0 0.7242932766
Fe  Fe22  1  0.50000000  0.88260000  0.11740000  1.0 0.6936885068
Fe  Fe23  1  0.22120000  0.50000000  0.50000000  1.0 0.7242932766
Fe  Fe24  1  0.11740000  0.50000000  0.50000000  1.0 0.6936885068
H  H1  1  0.83510000  0.46430000  0.02050000  1.0 0.1077032508
H  H2  1  0.43320000  0.63660000  0.58640000  1.0 0.0827574854
H  H3  1  0.30190000  0.69070000  0.73170000  1.0 0.0043450012
H  H4  1  0.25930000  0.73750000  0.58490000  1.0 0.1296100642
H  H5  1  0.22980000  0.74000000  0.68220000  1.0 0.0599384644
H  H6  1  0.61450000  0.64630000  0.50850000  1.0 0.0878778897
H  H7  1  0.62760000  0.58500000  0.49560000  1.0 0.0980148923
H  H8  1  0.66500000  0.57900000  0.53460000  1.0 0.0878778897
H  H9  1  0.62670000  0.51070000  0.62830000  1.0 0.0980148923
H  H10  1  0.60250000  0.49910000  0.58910000  1.0 0.1077032508
H  H11  1  0.55320000  0.51760000  0.65240000  1.0 0.1296100642
H  H12  1  0.49560000  0.60780000  0.62880000  1.0 0.0878778897
H  H13  1  0.30310000  0.72230000  0.71830000  1.0 0.0163355538
H  H14  1  0.37720000  0.69020000  0.68400000  1.0 0.0878778897
H  H15  1  0.35310000  0.75550000  0.69570000  1.0 0.0599384644
H  H16  1  0.34920000  0.63880000  0.79020000  1.0 0.0878778897
H  H17  1  0.32520000  0.70400000  0.80200000  1.0 0.0725611004
H  H18  1  0.39930000  0.67190000  0.76750000  1.0 0.1077032508
H  H19  1  0.99580000  0.40940000  0.06900000  1.0 0.0599384644
H  H20  1  0.95570000  0.43130000  0.03350000  1.0 0.0725611004
H  H21  1  0.98410000  0.54990000  0.05370000  1.0 0.0599384644
H  H22  1  0.01350000  0.48270000  0.08170000  1.0 0.0725611004
H  H23  1  0.90780000  0.54100000  0.98800000  1.0 0.0599384644
H  H24  1  0.91860000  0.58600000  0.99580000  1.0 0.0725611004
H  H25  1  0.46430000  0.83510000  0.68010000  1.0 0.1077032508
H  H26  1  0.63660000  0.43320000  0.34380000  1.0 0.0827574854
H  H27  1  0.69070000  0.30190000  0.27570000  1.0 0.0043450012
H  H28  1  0.73750000  0.25930000  0.41830000  1.0 0.1296100642
H  H29  1  0.74000000  0.22980000  0.34800000  1.0 0.0599384644
H  H30  1  0.64630000  0.61450000  0.23070000  1.0 0.0878778897
H  H31  1  0.58500000  0.62760000  0.29180000  1.0 0.0980148923
H  H32  1  0.57900000  0.66500000  0.22140000  1.0 0.0878778897
H  H33  1  0.51070000  0.62670000  0.23430000  1.0 0.0980148923
H  H34  1  0.49910000  0.60250000  0.30930000  1.0 0.1077032508
H  H35  1  0.51760000  0.55320000  0.27680000  1.0 0.1296100642
H  H36  1  0.60780000  0.49560000  0.26780000  1.0 0.0878778897
H  H37  1  0.72230000  0.30310000  0.25630000  1.0 0.0163355538
H  H38  1  0.69020000  0.37720000  0.24860000  1.0 0.0878778897
H  H39  1  0.75550000  0.35310000  0.19570000  1.0 0.0599384644
H  H40  1  0.63880000  0.34920000  0.22180000  1.0 0.0878778897
H  H41  1  0.70400000  0.32520000  0.16880000  1.0 0.0725611004
H  H42  1  0.67190000  0.39930000  0.16130000  1.0 0.1077032508
H  H43  1  0.40940000  0.99580000  0.52580000  1.0 0.0599384644
H  H44  1  0.43130000  0.95570000  0.57950000  1.0 0.0725611004
H  H45  1  0.54990000  0.98410000  0.41230000  1.0 0.0599384644
H  H46  1  0.48270000  0.01350000  0.42210000  1.0 0.0725611004
H  H47  1  0.54100000  0.90780000  0.56320000  1.0 0.0599384644
H  H48  1  0.58600000  0.91860000  0.49960000  1.0 0.0725611004
H  H49  1  0.02050000  0.68010000  0.83510000  1.0 0.1077032508
H  H50  1  0.58640000  0.34380000  0.43320000  1.0 0.0827574854
H  H51  1  0.73170000  0.27570000  0.30190000  1.0 0.0043450012
H  H52  1  0.58490000  0.41830000  0.25930000  1.0 0.1296100642
H  H53  1  0.68220000  0.34800000  0.22980000  1.0 0.0599384644
H  H54  1  0.50850000  0.23070000  0.61450000  1.0 0.0878778897
H  H55  1  0.49560000  0.29180000  0.62760000  1.0 0.0980148923
H  H56  1  0.53460000  0.22140000  0.66500000  1.0 0.0878778897
H  H57  1  0.62830000  0.23430000  0.62670000  1.0 0.0980148923
H  H58  1  0.58910000  0.30930000  0.60250000  1.0 0.1077032508
H  H59  1  0.65240000  0.27680000  0.55320000  1.0 0.1296100642
H  H60  1  0.62880000  0.26780000  0.49560000  1.0 0.0878778897
H  H61  1  0.71830000  0.25630000  0.30310000  1.0 0.0163355538
H  H62  1  0.68400000  0.24860000  0.37720000  1.0 0.0878778897
H  H63  1  0.69570000  0.19570000  0.35310000  1.0 0.0599384644
H  H64  1  0.79020000  0.22180000  0.34920000  1.0 0.0878778897
H  H65  1  0.80200000  0.16880000  0.32520000  1.0 0.0725611004
H  H66  1  0.76750000  0.16130000  0.39930000  1.0 0.1077032508
H  H67  1  0.06900000  0.52580000  0.99580000  1.0 0.0599384644
H  H68  1  0.03350000  0.57950000  0.95570000  1.0 0.0725611004
H  H69  1  0.05370000  0.41230000  0.98410000  1.0 0.0599384644
H  H70  1  0.08170000  0.42210000  0.01350000  1.0 0.0725611004
H  H71  1  0.98800000  0.56320000  0.90780000  1.0 0.0599384644
H  H72  1  0.99580000  0.49960000  0.91860000  1.0 0.0725611004
H  H73  1  0.68010000  0.02050000  0.46430000  1.0 0.1077032508
H  H74  1  0.34380000  0.58640000  0.63660000  1.0 0.0827574854
H  H75  1  0.27570000  0.73170000  0.69070000  1.0 0.0043450012
H  H76  1  0.41830000  0.58490000  0.73750000  1.0 0.1296100642
H  H77  1  0.34800000  0.68220000  0.74000000  1.0 0.0599384644
H  H78  1  0.23070000  0.50850000  0.64630000  1.0 0.0878778897
H  H79  1  0.29180000  0.49560000  0.58500000  1.0 0.0980148923
H  H80  1  0.22140000  0.53460000  0.57900000  1.0 0.0878778897
H  H81  1  0.23430000  0.62830000  0.51070000  1.0 0.0980148923
H  H82  1  0.30930000  0.58910000  0.49910000  1.0 0.1077032508
H  H83  1  0.27680000  0.65240000  0.51760000  1.0 0.1296100642
H  H84  1  0.26780000  0.62880000  0.60780000  1.0 0.0878778897
H  H85  1  0.25630000  0.71830000  0.72230000  1.0 0.0163355538
H  H86  1  0.24860000  0.68400000  0.69020000  1.0 0.0878778897
H  H87  1  0.19570000  0.69570000  0.75550000  1.0 0.0599384644
H  H88  1  0.22180000  0.79020000  0.63880000  1.0 0.0878778897
H  H89  1  0.16880000  0.80200000  0.70400000  1.0 0.0725611004
H  H90  1  0.16130000  0.76750000  0.67190000  1.0 0.1077032508
H  H91  1  0.52580000  0.06900000  0.40940000  1.0 0.0599384644
H  H92  1  0.57950000  0.03350000  0.43130000  1.0 0.0725611004
H  H93  1  0.41230000  0.05370000  0.54990000  1.0 0.0599384644
H  H94  1  0.42210000  0.08170000  0.48270000  1.0 0.0725611004
H  H95  1  0.56320000  0.98800000  0.54100000  1.0 0.0599384644
H  H96  1  0.49960000  0.99580000  0.58600000  1.0 0.0725611004
H  H97  1  0.02050000  0.83510000  0.46430000  1.0 0.1077032508
H  H98  1  0.58640000  0.43320000  0.63660000  1.0 0.0827574854
H  H99  1  0.73170000  0.30190000  0.69070000  1.0 0.0043450012
H  H100  1  0.58490000  0.25930000  0.73750000  1.0 0.1296100642
H  H101  1  0.68220000  0.22980000  0.74000000  1.0 0.0599384644
H  H102  1  0.50850000  0.61450000  0.64630000  1.0 0.0878778897
H  H103  1  0.49560000  0.62760000  0.58500000  1.0 0.0980148923
H  H104  1  0.53460000  0.66500000  0.57900000  1.0 0.0878778897
H  H105  1  0.62830000  0.62670000  0.51070000  1.0 0.0980148923
H  H106  1  0.58910000  0.60250000  0.49910000  1.0 0.1077032508
H  H107  1  0.65240000  0.55320000  0.51760000  1.0 0.1296100642
H  H108  1  0.62880000  0.49560000  0.60780000  1.0 0.0878778897
H  H109  1  0.71830000  0.30310000  0.72230000  1.0 0.0163355538
H  H110  1  0.68400000  0.37720000  0.69020000  1.0 0.0878778897
H  H111  1  0.69570000  0.35310000  0.75550000  1.0 0.0599384644
H  H112  1  0.79020000  0.34920000  0.63880000  1.0 0.0878778897
H  H113  1  0.80200000  0.32520000  0.70400000  1.0 0.0725611004
H  H114  1  0.76750000  0.39930000  0.67190000  1.0 0.1077032508
H  H115  1  0.06900000  0.99580000  0.40940000  1.0 0.0599384644
H  H116  1  0.03350000  0.95570000  0.43130000  1.0 0.0725611004
H  H117  1  0.05370000  0.98410000  0.54990000  1.0 0.0599384644
H  H118  1  0.08170000  0.01350000  0.48270000  1.0 0.0725611004
H  H119  1  0.98800000  0.90780000  0.54100000  1.0 0.0599384644
H  H120  1  0.99580000  0.91860000  0.58600000  1.0 0.0725611004
H  H121  1  0.68010000  0.46430000  0.83510000  1.0 0.1077032508
H  H122  1  0.34380000  0.63660000  0.43320000  1.0 0.0827574854
H  H123  1  0.27570000  0.69070000  0.30190000  1.0 0.0043450012
H  H124  1  0.41830000  0.73750000  0.25930000  1.0 0.1296100642
H  H125  1  0.34800000  0.74000000  0.22980000  1.0 0.0599384644
H  H126  1  0.23070000  0.64630000  0.61450000  1.0 0.0878778897
H  H127  1  0.29180000  0.58500000  0.62760000  1.0 0.0980148923
H  H128  1  0.22140000  0.57900000  0.66500000  1.0 0.0878778897
H  H129  1  0.23430000  0.51070000  0.62670000  1.0 0.0980148923
H  H130  1  0.30930000  0.49910000  0.60250000  1.0 0.1077032508
H  H131  1  0.27680000  0.51760000  0.55320000  1.0 0.1296100642
H  H132  1  0.26780000  0.60780000  0.49560000  1.0 0.0878778897
H  H133  1  0.25630000  0.72230000  0.30310000  1.0 0.0163355538
H  H134  1  0.24860000  0.69020000  0.37720000  1.0 0.0878778897
H  H135  1  0.19570000  0.75550000  0.35310000  1.0 0.0599384644
H  H136  1  0.22180000  0.63880000  0.34920000  1.0 0.0878778897
H  H137  1  0.16880000  0.70400000  0.32520000  1.0 0.0725611004
H  H138  1  0.16130000  0.67190000  0.39930000  1.0 0.1077032508
H  H139  1  0.52580000  0.40940000  0.99580000  1.0 0.0599384644
H  H140  1  0.57950000  0.43130000  0.95570000  1.0 0.0725611004
H  H141  1  0.41230000  0.54990000  0.98410000  1.0 0.0599384644
H  H142  1  0.42210000  0.48270000  0.01350000  1.0 0.0725611004
H  H143  1  0.56320000  0.54100000  0.90780000  1.0 0.0599384644
H  H144  1  0.49960000  0.58600000  0.91860000  1.0 0.0725611004
H  H145  1  0.83510000  0.02050000  0.68010000  1.0 0.1077032508
H  H146  1  0.43320000  0.58640000  0.34380000  1.0 0.0827574854
H  H147  1  0.30190000  0.73170000  0.27570000  1.0 0.0043450012
H  H148  1  0.25930000  0.58490000  0.41830000  1.0 0.1296100642
H  H149  1  0.22980000  0.68220000  0.34800000  1.0 0.0599384644
H  H150  1  0.61450000  0.50850000  0.23070000  1.0 0.0878778897
H  H151  1  0.62760000  0.49560000  0.29180000  1.0 0.0980148923
H  H152  1  0.66500000  0.53460000  0.22140000  1.0 0.0878778897
H  H153  1  0.62670000  0.62830000  0.23430000  1.0 0.0980148923
H  H154  1  0.60250000  0.58910000  0.30930000  1.0 0.1077032508
H  H155  1  0.55320000  0.65240000  0.27680000  1.0 0.1296100642
H  H156  1  0.49560000  0.62880000  0.26780000  1.0 0.0878778897
H  H157  1  0.30310000  0.71830000  0.25630000  1.0 0.0163355538
H  H158  1  0.37720000  0.68400000  0.24860000  1.0 0.0878778897
H  H159  1  0.35310000  0.69570000  0.19570000  1.0 0.0599384644
H  H160  1  0.34920000  0.79020000  0.22180000  1.0 0.0878778897
H  H161  1  0.32520000  0.80200000  0.16880000  1.0 0.0725611004
H  H162  1  0.39930000  0.76750000  0.16130000  1.0 0.1077032508
H  H163  1  0.99580000  0.06900000  0.52580000  1.0 0.0599384644
H  H164  1  0.95570000  0.03350000  0.57950000  1.0 0.0725611004
H  H165  1  0.98410000  0.05370000  0.41230000  1.0 0.0599384644
H  H166  1  0.01350000  0.08170000  0.42210000  1.0 0.0725611004
H  H167  1  0.90780000  0.98800000  0.56320000  1.0 0.0599384644
H  H168  1  0.91860000  0.99580000  0.49960000  1.0 0.0725611004
H  H169  1  0.46430000  0.68010000  0.02050000  1.0 0.1077032508
H  H170  1  0.63660000  0.34380000  0.58640000  1.0 0.0827574854
H  H171  1  0.69070000  0.27570000  0.73170000  1.0 0.0043450012
H  H172  1  0.73750000  0.41830000  0.58490000  1.0 0.1296100642
H  H173  1  0.74000000  0.34800000  0.68220000  1.0 0.0599384644
H  H174  1  0.64630000  0.23070000  0.50850000  1.0 0.0878778897
H  H175  1  0.58500000  0.29180000  0.49560000  1.0 0.0980148923
H  H176  1  0.57900000  0.22140000  0.53460000  1.0 0.0878778897
H  H177  1  0.51070000  0.23430000  0.62830000  1.0 0.0980148923
H  H178  1  0.49910000  0.30930000  0.58910000  1.0 0.1077032508
H  H179  1  0.51760000  0.27680000  0.65240000  1.0 0.1296100642
H  H180  1  0.60780000  0.26780000  0.62880000  1.0 0.0878778897
H  H181  1  0.72230000  0.25630000  0.71830000  1.0 0.0163355538
H  H182  1  0.69020000  0.24860000  0.68400000  1.0 0.0878778897
H  H183  1  0.75550000  0.19570000  0.69570000  1.0 0.0599384644
H  H184  1  0.63880000  0.22180000  0.79020000  1.0 0.0878778897
H  H185  1  0.70400000  0.16880000  0.80200000  1.0 0.0725611004
H  H186  1  0.67190000  0.16130000  0.76750000  1.0 0.1077032508
H  H187  1  0.40940000  0.52580000  0.06900000  1.0 0.0599384644
H  H188  1  0.43130000  0.57950000  0.03350000  1.0 0.0725611004
H  H189  1  0.54990000  0.41230000  0.05370000  1.0 0.0599384644
H  H190  1  0.48270000  0.42210000  0.08170000  1.0 0.0725611004
H  H191  1  0.54100000  0.56320000  0.98800000  1.0 0.0599384644
H  H192  1  0.58600000  0.49960000  0.99580000  1.0 0.0725611004
H  H193  1  0.46430000  0.02050000  0.83510000  1.0 0.1077032508
H  H194  1  0.63660000  0.58640000  0.43320000  1.0 0.0827574854
H  H195  1  0.69070000  0.73170000  0.30190000  1.0 0.0043450012
H  H196  1  0.73750000  0.58490000  0.25930000  1.0 0.1296100642
H  H197  1  0.74000000  0.68220000  0.22980000  1.0 0.0599384644
H  H198  1  0.64630000  0.50850000  0.61450000  1.0 0.0878778897
H  H199  1  0.58500000  0.49560000  0.62760000  1.0 0.0980148923
H  H200  1  0.57900000  0.53460000  0.66500000  1.0 0.0878778897
H  H201  1  0.51070000  0.62830000  0.62670000  1.0 0.0980148923
H  H202  1  0.49910000  0.58910000  0.60250000  1.0 0.1077032508
H  H203  1  0.51760000  0.65240000  0.55320000  1.0 0.1296100642
H  H204  1  0.60780000  0.62880000  0.49560000  1.0 0.0878778897
H  H205  1  0.72230000  0.71830000  0.30310000  1.0 0.0163355538
H  H206  1  0.69020000  0.68400000  0.37720000  1.0 0.0878778897
H  H207  1  0.75550000  0.69570000  0.35310000  1.0 0.0599384644
H  H208  1  0.63880000  0.79020000  0.34920000  1.0 0.0878778897
H  H209  1  0.70400000  0.80200000  0.32520000  1.0 0.0725611004
H  H210  1  0.67190000  0.76750000  0.39930000  1.0 0.1077032508
H  H211  1  0.40940000  0.06900000  0.99580000  1.0 0.0599384644
H  H212  1  0.43130000  0.03350000  0.95570000  1.0 0.0725611004
H  H213  1  0.54990000  0.05370000  0.98410000  1.0 0.0599384644
H  H214  1  0.48270000  0.08170000  0.01350000  1.0 0.0725611004
H  H215  1  0.54100000  0.98800000  0.90780000  1.0 0.0599384644
H  H216  1  0.58600000  0.99580000  0.91860000  1.0 0.0725611004
H  H217  1  0.83510000  0.68010000  0.46430000  1.0 0.1077032508
H  H218  1  0.43320000  0.34380000  0.63660000  1.0 0.0827574854
H  H219  1  0.30190000  0.27570000  0.69070000  1.0 0.0043450012
H  H220  1  0.25930000  0.41830000  0.73750000  1.0 0.1296100642
H  H221  1  0.22980000  0.34800000  0.74000000  1.0 0.0599384644
H  H222  1  0.61450000  0.23070000  0.64630000  1.0 0.0878778897
H  H223  1  0.62760000  0.29180000  0.58500000  1.0 0.0980148923
H  H224  1  0.66500000  0.22140000  0.57900000  1.0 0.0878778897
H  H225  1  0.62670000  0.23430000  0.51070000  1.0 0.0980148923
H  H226  1  0.60250000  0.30930000  0.49910000  1.0 0.1077032508
H  H227  1  0.55320000  0.27680000  0.51760000  1.0 0.1296100642
H  H228  1  0.49560000  0.26780000  0.60780000  1.0 0.0878778897
H  H229  1  0.30310000  0.25630000  0.72230000  1.0 0.0163355538
H  H230  1  0.37720000  0.24860000  0.69020000  1.0 0.0878778897
H  H231  1  0.35310000  0.19570000  0.75550000  1.0 0.0599384644
H  H232  1  0.34920000  0.22180000  0.63880000  1.0 0.0878778897
H  H233  1  0.32520000  0.16880000  0.70400000  1.0 0.0725611004
H  H234  1  0.39930000  0.16130000  0.67190000  1.0 0.1077032508
H  H235  1  0.99580000  0.52580000  0.40940000  1.0 0.0599384644
H  H236  1  0.95570000  0.57950000  0.43130000  1.0 0.0725611004
H  H237  1  0.98410000  0.41230000  0.54990000  1.0 0.0599384644
H  H238  1  0.01350000  0.42210000  0.48270000  1.0 0.0725611004
H  H239  1  0.90780000  0.56320000  0.54100000  1.0 0.0599384644
H  H240  1  0.91860000  0.49960000  0.58600000  1.0 0.0725611004
H  H241  1  0.68010000  0.83510000  0.02050000  1.0 0.1077032508
H  H242  1  0.34380000  0.43320000  0.58640000  1.0 0.0827574854
H  H243  1  0.27570000  0.30190000  0.73170000  1.0 0.0043450012
H  H244  1  0.41830000  0.25930000  0.58490000  1.0 0.1296100642
H  H245  1  0.34800000  0.22980000  0.68220000  1.0 0.0599384644
H  H246  1  0.23070000  0.61450000  0.50850000  1.0 0.0878778897
H  H247  1  0.29180000  0.62760000  0.49560000  1.0 0.0980148923
H  H248  1  0.22140000  0.66500000  0.53460000  1.0 0.0878778897
H  H249  1  0.23430000  0.62670000  0.62830000  1.0 0.0980148923
H  H250  1  0.30930000  0.60250000  0.58910000  1.0 0.1077032508
H  H251  1  0.27680000  0.55320000  0.65240000  1.0 0.1296100642
H  H252  1  0.26780000  0.49560000  0.62880000  1.0 0.0878778897
H  H253  1  0.25630000  0.30310000  0.71830000  1.0 0.0163355538
H  H254  1  0.24860000  0.37720000  0.68400000  1.0 0.0878778897
H  H255  1  0.19570000  0.35310000  0.69570000  1.0 0.0599384644
H  H256  1  0.22180000  0.34920000  0.79020000  1.0 0.0878778897
H  H257  1  0.16880000  0.32520000  0.80200000  1.0 0.0725611004
H  H258  1  0.16130000  0.39930000  0.76750000  1.0 0.1077032508
H  H259  1  0.52580000  0.99580000  0.06900000  1.0 0.0599384644
H  H260  1  0.57950000  0.95570000  0.03350000  1.0 0.0725611004
H  H261  1  0.41230000  0.98410000  0.05370000  1.0 0.0599384644
H  H262  1  0.42210000  0.01350000  0.08170000  1.0 0.0725611004
H  H263  1  0.56320000  0.90780000  0.98800000  1.0 0.0599384644
H  H264  1  0.49960000  0.91860000  0.99580000  1.0 0.0725611004
H  H265  1  0.02050000  0.46430000  0.68010000  1.0 0.1077032508
H  H266  1  0.58640000  0.63660000  0.34380000  1.0 0.0827574854
H  H267  1  0.73170000  0.69070000  0.27570000  1.0 0.0043450012
H  H268  1  0.58490000  0.73750000  0.41830000  1.0 0.1296100642
H  H269  1  0.68220000  0.74000000  0.34800000  1.0 0.0599384644
H  H270  1  0.50850000  0.64630000  0.23070000  1.0 0.0878778897
H  H271  1  0.49560000  0.58500000  0.29180000  1.0 0.0980148923
H  H272  1  0.53460000  0.57900000  0.22140000  1.0 0.0878778897
H  H273  1  0.62830000  0.51070000  0.23430000  1.0 0.0980148923
H  H274  1  0.58910000  0.49910000  0.30930000  1.0 0.1077032508
H  H275  1  0.65240000  0.51760000  0.27680000  1.0 0.1296100642
H  H276  1  0.62880000  0.60780000  0.26780000  1.0 0.0878778897
H  H277  1  0.71830000  0.72230000  0.25630000  1.0 0.0163355538
H  H278  1  0.68400000  0.69020000  0.24860000  1.0 0.0878778897
H  H279  1  0.69570000  0.75550000  0.19570000  1.0 0.0599384644
H  H280  1  0.79020000  0.63880000  0.22180000  1.0 0.0878778897
H  H281  1  0.80200000  0.70400000  0.16880000  1.0 0.0725611004
H  H282  1  0.76750000  0.67190000  0.16130000  1.0 0.1077032508
H  H283  1  0.06900000  0.40940000  0.52580000  1.0 0.0599384644
H  H284  1  0.03350000  0.43130000  0.57950000  1.0 0.0725611004
H  H285  1  0.05370000  0.54990000  0.41230000  1.0 0.0599384644
H  H286  1  0.08170000  0.48270000  0.42210000  1.0 0.0725611004
H  H287  1  0.98800000  0.54100000  0.56320000  1.0 0.0599384644
H  H288  1  0.99580000  0.58600000  0.49960000  1.0 0.0725611004
H  H289  1  0.16490000  0.53570000  0.31990000  1.0 0.1077032508
H  H290  1  0.56680000  0.36340000  0.65620000  1.0 0.0827574854
H  H291  1  0.69810000  0.30930000  0.72430000  1.0 0.0043450012
H  H292  1  0.74070000  0.26250000  0.58170000  1.0 0.1296100642
H  H293  1  0.77020000  0.26000000  0.65200000  1.0 0.0599384644
H  H294  1  0.38550000  0.35370000  0.76930000  1.0 0.0878778897
H  H295  1  0.37240000  0.41500000  0.70820000  1.0 0.0980148923
H  H296  1  0.33500000  0.42100000  0.77860000  1.0 0.0878778897
H  H297  1  0.37330000  0.48930000  0.76570000  1.0 0.0980148923
H  H298  1  0.39750000  0.50090000  0.69070000  1.0 0.1077032508
H  H299  1  0.44680000  0.48240000  0.72320000  1.0 0.1296100642
H  H300  1  0.50440000  0.39220000  0.73220000  1.0 0.0878778897
H  H301  1  0.69690000  0.27770000  0.74370000  1.0 0.0163355538
H  H302  1  0.62280000  0.30980000  0.75140000  1.0 0.0878778897
H  H303  1  0.64690000  0.24450000  0.80430000  1.0 0.0599384644
H  H304  1  0.65080000  0.36120000  0.77820000  1.0 0.0878778897
H  H305  1  0.67480000  0.29600000  0.83120000  1.0 0.0725611004
H  H306  1  0.60070000  0.32810000  0.83870000  1.0 0.1077032508
H  H307  1  0.00420000  0.59060000  0.47420000  1.0 0.0599384644
H  H308  1  0.04430000  0.56870000  0.42050000  1.0 0.0725611004
H  H309  1  0.01590000  0.45010000  0.58770000  1.0 0.0599384644
H  H310  1  0.98650000  0.51730000  0.57790000  1.0 0.0725611004
H  H311  1  0.09220000  0.45900000  0.43680000  1.0 0.0599384644
H  H312  1  0.08140000  0.41400000  0.50040000  1.0 0.0725611004
H  H313  1  0.53570000  0.16490000  0.97950000  1.0 0.1077032508
H  H314  1  0.36340000  0.56680000  0.41360000  1.0 0.0827574854
H  H315  1  0.30930000  0.69810000  0.26830000  1.0 0.0043450012
H  H316  1  0.26250000  0.74070000  0.41510000  1.0 0.1296100642
H  H317  1  0.26000000  0.77020000  0.31780000  1.0 0.0599384644
H  H318  1  0.35370000  0.38550000  0.49150000  1.0 0.0878778897
H  H319  1  0.41500000  0.37240000  0.50440000  1.0 0.0980148923
H  H320  1  0.42100000  0.33500000  0.46540000  1.0 0.0878778897
H  H321  1  0.48930000  0.37330000  0.37170000  1.0 0.0980148923
H  H322  1  0.50090000  0.39750000  0.41090000  1.0 0.1077032508
H  H323  1  0.48240000  0.44680000  0.34760000  1.0 0.1296100642
H  H324  1  0.39220000  0.50440000  0.37120000  1.0 0.0878778897
H  H325  1  0.27770000  0.69690000  0.28170000  1.0 0.0163355538
H  H326  1  0.30980000  0.62280000  0.31600000  1.0 0.0878778897
H  H327  1  0.24450000  0.64690000  0.30430000  1.0 0.0599384644
H  H328  1  0.36120000  0.65080000  0.20980000  1.0 0.0878778897
H  H329  1  0.29600000  0.67480000  0.19800000  1.0 0.0725611004
H  H330  1  0.32810000  0.60070000  0.23250000  1.0 0.1077032508
H  H331  1  0.59060000  0.00420000  0.93100000  1.0 0.0599384644
H  H332  1  0.56870000  0.04430000  0.96650000  1.0 0.0725611004
H  H333  1  0.45010000  0.01590000  0.94630000  1.0 0.0599384644
H  H334  1  0.51730000  0.98650000  0.91830000  1.0 0.0725611004
H  H335  1  0.45900000  0.09220000  0.01200000  1.0 0.0599384644
H  H336  1  0.41400000  0.08140000  0.00420000  1.0 0.0725611004
H  H337  1  0.97950000  0.31990000  0.53570000  1.0 0.1077032508
H  H338  1  0.41360000  0.65620000  0.36340000  1.0 0.0827574854
H  H339  1  0.26830000  0.72430000  0.30930000  1.0 0.0043450012
H  H340  1  0.41510000  0.58170000  0.26250000  1.0 0.1296100642
H  H341  1  0.31780000  0.65200000  0.26000000  1.0 0.0599384644
H  H342  1  0.49150000  0.76930000  0.35370000  1.0 0.0878778897
H  H343  1  0.50440000  0.70820000  0.41500000  1.0 0.0980148923
H  H344  1  0.46540000  0.77860000  0.42100000  1.0 0.0878778897
H  H345  1  0.37170000  0.76570000  0.48930000  1.0 0.0980148923
H  H346  1  0.41090000  0.69070000  0.50090000  1.0 0.1077032508
H  H347  1  0.34760000  0.72320000  0.48240000  1.0 0.1296100642
H  H348  1  0.37120000  0.73220000  0.39220000  1.0 0.0878778897
H  H349  1  0.28170000  0.74370000  0.27770000  1.0 0.0163355538
H  H350  1  0.31600000  0.75140000  0.30980000  1.0 0.0878778897
H  H351  1  0.30430000  0.80430000  0.24450000  1.0 0.0599384644
H  H352  1  0.20980000  0.77820000  0.36120000  1.0 0.0878778897
H  H353  1  0.19800000  0.83120000  0.29600000  1.0 0.0725611004
H  H354  1  0.23250000  0.83870000  0.32810000  1.0 0.1077032508
H  H355  1  0.93100000  0.47420000  0.59060000  1.0 0.0599384644
H  H356  1  0.96650000  0.42050000  0.56870000  1.0 0.0725611004
H  H357  1  0.94630000  0.58770000  0.45010000  1.0 0.0599384644
H  H358  1  0.91830000  0.57790000  0.51730000  1.0 0.0725611004
H  H359  1  0.01200000  0.43680000  0.45900000  1.0 0.0599384644
H  H360  1  0.00420000  0.50040000  0.41400000  1.0 0.0725611004
H  H361  1  0.31990000  0.97950000  0.16490000  1.0 0.1077032508
H  H362  1  0.65620000  0.41360000  0.56680000  1.0 0.0827574854
H  H363  1  0.72430000  0.26830000  0.69810000  1.0 0.0043450012
H  H364  1  0.58170000  0.41510000  0.74070000  1.0 0.1296100642
H  H365  1  0.65200000  0.31780000  0.77020000  1.0 0.0599384644
H  H366  1  0.76930000  0.49150000  0.38550000  1.0 0.0878778897
H  H367  1  0.70820000  0.50440000  0.37240000  1.0 0.0980148923
H  H368  1  0.77860000  0.46540000  0.33500000  1.0 0.0878778897
H  H369  1  0.76570000  0.37170000  0.37330000  1.0 0.0980148923
H  H370  1  0.69070000  0.41090000  0.39750000  1.0 0.1077032508
H  H371  1  0.72320000  0.34760000  0.44680000  1.0 0.1296100642
H  H372  1  0.73220000  0.37120000  0.50440000  1.0 0.0878778897
H  H373  1  0.74370000  0.28170000  0.69690000  1.0 0.0163355538
H  H374  1  0.75140000  0.31600000  0.62280000  1.0 0.0878778897
H  H375  1  0.80430000  0.30430000  0.64690000  1.0 0.0599384644
H  H376  1  0.77820000  0.20980000  0.65080000  1.0 0.0878778897
H  H377  1  0.83120000  0.19800000  0.67480000  1.0 0.0725611004
H  H378  1  0.83870000  0.23250000  0.60070000  1.0 0.1077032508
H  H379  1  0.47420000  0.93100000  0.00420000  1.0 0.0599384644
H  H380  1  0.42050000  0.96650000  0.04430000  1.0 0.0725611004
H  H381  1  0.58770000  0.94630000  0.01590000  1.0 0.0599384644
H  H382  1  0.57790000  0.91830000  0.98650000  1.0 0.0725611004
H  H383  1  0.43680000  0.01200000  0.09220000  1.0 0.0599384644
H  H384  1  0.50040000  0.00420000  0.08140000  1.0 0.0725611004
H  H385  1  0.97950000  0.16490000  0.31990000  1.0 0.1077032508
H  H386  1  0.41360000  0.56680000  0.65620000  1.0 0.0827574854
H  H387  1  0.26830000  0.69810000  0.72430000  1.0 0.0043450012
H  H388  1  0.41510000  0.74070000  0.58170000  1.0 0.1296100642
H  H389  1  0.31780000  0.77020000  0.65200000  1.0 0.0599384644
H  H390  1  0.49150000  0.38550000  0.76930000  1.0 0.0878778897
H  H391  1  0.50440000  0.37240000  0.70820000  1.0 0.0980148923
H  H392  1  0.46540000  0.33500000  0.77860000  1.0 0.0878778897
H  H393  1  0.37170000  0.37330000  0.76570000  1.0 0.0980148923
H  H394  1  0.41090000  0.39750000  0.69070000  1.0 0.1077032508
H  H395  1  0.34760000  0.44680000  0.72320000  1.0 0.1296100642
H  H396  1  0.37120000  0.50440000  0.73220000  1.0 0.0878778897
H  H397  1  0.28170000  0.69690000  0.74370000  1.0 0.0163355538
H  H398  1  0.31600000  0.62280000  0.75140000  1.0 0.0878778897
H  H399  1  0.30430000  0.64690000  0.80430000  1.0 0.0599384644
H  H400  1  0.20980000  0.65080000  0.77820000  1.0 0.0878778897
H  H401  1  0.19800000  0.67480000  0.83120000  1.0 0.0725611004
H  H402  1  0.23250000  0.60070000  0.83870000  1.0 0.1077032508
H  H403  1  0.93100000  0.00420000  0.47420000  1.0 0.0599384644
H  H404  1  0.96650000  0.04430000  0.42050000  1.0 0.0725611004
H  H405  1  0.94630000  0.01590000  0.58770000  1.0 0.0599384644
H  H406  1  0.91830000  0.98650000  0.57790000  1.0 0.0725611004
H  H407  1  0.01200000  0.09220000  0.43680000  1.0 0.0599384644
H  H408  1  0.00420000  0.08140000  0.50040000  1.0 0.0725611004
H  H409  1  0.31990000  0.53570000  0.97950000  1.0 0.1077032508
H  H410  1  0.65620000  0.36340000  0.41360000  1.0 0.0827574854
H  H411  1  0.72430000  0.30930000  0.26830000  1.0 0.0043450012
H  H412  1  0.58170000  0.26250000  0.41510000  1.0 0.1296100642
H  H413  1  0.65200000  0.26000000  0.31780000  1.0 0.0599384644
H  H414  1  0.76930000  0.35370000  0.49150000  1.0 0.0878778897
H  H415  1  0.70820000  0.41500000  0.50440000  1.0 0.0980148923
H  H416  1  0.77860000  0.42100000  0.46540000  1.0 0.0878778897
H  H417  1  0.76570000  0.48930000  0.37170000  1.0 0.0980148923
H  H418  1  0.69070000  0.50090000  0.41090000  1.0 0.1077032508
H  H419  1  0.72320000  0.48240000  0.34760000  1.0 0.1296100642
H  H420  1  0.73220000  0.39220000  0.37120000  1.0 0.0878778897
H  H421  1  0.74370000  0.27770000  0.28170000  1.0 0.0163355538
H  H422  1  0.75140000  0.30980000  0.31600000  1.0 0.0878778897
H  H423  1  0.80430000  0.24450000  0.30430000  1.0 0.0599384644
H  H424  1  0.77820000  0.36120000  0.20980000  1.0 0.0878778897
H  H425  1  0.83120000  0.29600000  0.19800000  1.0 0.0725611004
H  H426  1  0.83870000  0.32810000  0.23250000  1.0 0.1077032508
H  H427  1  0.47420000  0.59060000  0.93100000  1.0 0.0599384644
H  H428  1  0.42050000  0.56870000  0.96650000  1.0 0.0725611004
H  H429  1  0.58770000  0.45010000  0.94630000  1.0 0.0599384644
H  H430  1  0.57790000  0.51730000  0.91830000  1.0 0.0725611004
H  H431  1  0.43680000  0.45900000  0.01200000  1.0 0.0599384644
H  H432  1  0.50040000  0.41400000  0.00420000  1.0 0.0725611004
H  H433  1  0.16490000  0.97950000  0.53570000  1.0 0.1077032508
H  H434  1  0.56680000  0.41360000  0.36340000  1.0 0.0827574854
H  H435  1  0.69810000  0.26830000  0.30930000  1.0 0.0043450012
H  H436  1  0.74070000  0.41510000  0.26250000  1.0 0.1296100642
H  H437  1  0.77020000  0.31780000  0.26000000  1.0 0.0599384644
H  H438  1  0.38550000  0.49150000  0.35370000  1.0 0.0878778897
H  H439  1  0.37240000  0.50440000  0.41500000  1.0 0.0980148923
H  H440  1  0.33500000  0.46540000  0.42100000  1.0 0.0878778897
H  H441  1  0.37330000  0.37170000  0.48930000  1.0 0.0980148923
H  H442  1  0.39750000  0.41090000  0.50090000  1.0 0.1077032508
H  H443  1  0.44680000  0.34760000  0.48240000  1.0 0.1296100642
H  H444  1  0.50440000  0.37120000  0.39220000  1.0 0.0878778897
H  H445  1  0.69690000  0.28170000  0.27770000  1.0 0.0163355538
H  H446  1  0.62280000  0.31600000  0.30980000  1.0 0.0878778897
H  H447  1  0.64690000  0.30430000  0.24450000  1.0 0.0599384644
H  H448  1  0.65080000  0.20980000  0.36120000  1.0 0.0878778897
H  H449  1  0.67480000  0.19800000  0.29600000  1.0 0.0725611004
H  H450  1  0.60070000  0.23250000  0.32810000  1.0 0.1077032508
H  H451  1  0.00420000  0.93100000  0.59060000  1.0 0.0599384644
H  H452  1  0.04430000  0.96650000  0.56870000  1.0 0.0725611004
H  H453  1  0.01590000  0.94630000  0.45010000  1.0 0.0599384644
H  H454  1  0.98650000  0.91830000  0.51730000  1.0 0.0725611004
H  H455  1  0.09220000  0.01200000  0.45900000  1.0 0.0599384644
H  H456  1  0.08140000  0.00420000  0.41400000  1.0 0.0725611004
H  H457  1  0.53570000  0.31990000  0.16490000  1.0 0.1077032508
H  H458  1  0.36340000  0.65620000  0.56680000  1.0 0.0827574854
H  H459  1  0.30930000  0.72430000  0.69810000  1.0 0.0043450012
H  H460  1  0.26250000  0.58170000  0.74070000  1.0 0.1296100642
H  H461  1  0.26000000  0.65200000  0.77020000  1.0 0.0599384644
H  H462  1  0.35370000  0.76930000  0.38550000  1.0 0.0878778897
H  H463  1  0.41500000  0.70820000  0.37240000  1.0 0.0980148923
H  H464  1  0.42100000  0.77860000  0.33500000  1.0 0.0878778897
H  H465  1  0.48930000  0.76570000  0.37330000  1.0 0.0980148923
H  H466  1  0.50090000  0.69070000  0.39750000  1.0 0.1077032508
H  H467  1  0.48240000  0.72320000  0.44680000  1.0 0.1296100642
H  H468  1  0.39220000  0.73220000  0.50440000  1.0 0.0878778897
H  H469  1  0.27770000  0.74370000  0.69690000  1.0 0.0163355538
H  H470  1  0.30980000  0.75140000  0.62280000  1.0 0.0878778897
H  H471  1  0.24450000  0.80430000  0.64690000  1.0 0.0599384644
H  H472  1  0.36120000  0.77820000  0.65080000  1.0 0.0878778897
H  H473  1  0.29600000  0.83120000  0.67480000  1.0 0.0725611004
H  H474  1  0.32810000  0.83870000  0.60070000  1.0 0.1077032508
H  H475  1  0.59060000  0.47420000  0.00420000  1.0 0.0599384644
H  H476  1  0.56870000  0.42050000  0.04430000  1.0 0.0725611004
H  H477  1  0.45010000  0.58770000  0.01590000  1.0 0.0599384644
H  H478  1  0.51730000  0.57790000  0.98650000  1.0 0.0725611004
H  H479  1  0.45900000  0.43680000  0.09220000  1.0 0.0599384644
H  H480  1  0.41400000  0.50040000  0.08140000  1.0 0.0725611004
H  H481  1  0.53570000  0.97950000  0.31990000  1.0 0.1077032508
H  H482  1  0.36340000  0.41360000  0.65620000  1.0 0.0827574854
H  H483  1  0.30930000  0.26830000  0.72430000  1.0 0.0043450012
H  H484  1  0.26250000  0.41510000  0.58170000  1.0 0.1296100642
H  H485  1  0.26000000  0.31780000  0.65200000  1.0 0.0599384644
H  H486  1  0.35370000  0.49150000  0.76930000  1.0 0.0878778897
H  H487  1  0.41500000  0.50440000  0.70820000  1.0 0.0980148923
H  H488  1  0.42100000  0.46540000  0.77860000  1.0 0.0878778897
H  H489  1  0.48930000  0.37170000  0.76570000  1.0 0.0980148923
H  H490  1  0.50090000  0.41090000  0.69070000  1.0 0.1077032508
H  H491  1  0.48240000  0.34760000  0.72320000  1.0 0.1296100642
H  H492  1  0.39220000  0.37120000  0.73220000  1.0 0.0878778897
H  H493  1  0.27770000  0.28170000  0.74370000  1.0 0.0163355538
H  H494  1  0.30980000  0.31600000  0.75140000  1.0 0.0878778897
H  H495  1  0.24450000  0.30430000  0.80430000  1.0 0.0599384644
H  H496  1  0.36120000  0.20980000  0.77820000  1.0 0.0878778897
H  H497  1  0.29600000  0.19800000  0.83120000  1.0 0.0725611004
H  H498  1  0.32810000  0.23250000  0.83870000  1.0 0.1077032508
H  H499  1  0.59060000  0.93100000  0.47420000  1.0 0.0599384644
H  H500  1  0.56870000  0.96650000  0.42050000  1.0 0.0725611004
H  H501  1  0.45010000  0.94630000  0.58770000  1.0 0.0599384644
H  H502  1  0.51730000  0.91830000  0.57790000  1.0 0.0725611004
H  H503  1  0.45900000  0.01200000  0.43680000  1.0 0.0599384644
H  H504  1  0.41400000  0.00420000  0.50040000  1.0 0.0725611004
H  H505  1  0.16490000  0.31990000  0.97950000  1.0 0.1077032508
H  H506  1  0.56680000  0.65620000  0.41360000  1.0 0.0827574854
H  H507  1  0.69810000  0.72430000  0.26830000  1.0 0.0043450012
H  H508  1  0.74070000  0.58170000  0.41510000  1.0 0.1296100642
H  H509  1  0.77020000  0.65200000  0.31780000  1.0 0.0599384644
H  H510  1  0.38550000  0.76930000  0.49150000  1.0 0.0878778897
H  H511  1  0.37240000  0.70820000  0.50440000  1.0 0.0980148923
H  H512  1  0.33500000  0.77860000  0.46540000  1.0 0.0878778897
H  H513  1  0.37330000  0.76570000  0.37170000  1.0 0.0980148923
H  H514  1  0.39750000  0.69070000  0.41090000  1.0 0.1077032508
H  H515  1  0.44680000  0.72320000  0.34760000  1.0 0.1296100642
H  H516  1  0.50440000  0.73220000  0.37120000  1.0 0.0878778897
H  H517  1  0.69690000  0.74370000  0.28170000  1.0 0.0163355538
H  H518  1  0.62280000  0.75140000  0.31600000  1.0 0.0878778897
H  H519  1  0.64690000  0.80430000  0.30430000  1.0 0.0599384644
H  H520  1  0.65080000  0.77820000  0.20980000  1.0 0.0878778897
H  H521  1  0.67480000  0.83120000  0.19800000  1.0 0.0725611004
H  H522  1  0.60070000  0.83870000  0.23250000  1.0 0.1077032508
H  H523  1  0.00420000  0.47420000  0.93100000  1.0 0.0599384644
H  H524  1  0.04430000  0.42050000  0.96650000  1.0 0.0725611004
H  H525  1  0.01590000  0.58770000  0.94630000  1.0 0.0599384644
H  H526  1  0.98650000  0.57790000  0.91830000  1.0 0.0725611004
H  H527  1  0.09220000  0.43680000  0.01200000  1.0 0.0599384644
H  H528  1  0.08140000  0.50040000  0.00420000  1.0 0.0725611004
H  H529  1  0.31990000  0.16490000  0.53570000  1.0 0.1077032508
H  H530  1  0.65620000  0.56680000  0.36340000  1.0 0.0827574854
H  H531  1  0.72430000  0.69810000  0.30930000  1.0 0.0043450012
H  H532  1  0.58170000  0.74070000  0.26250000  1.0 0.1296100642
H  H533  1  0.65200000  0.77020000  0.26000000  1.0 0.0599384644
H  H534  1  0.76930000  0.38550000  0.35370000  1.0 0.0878778897
H  H535  1  0.70820000  0.37240000  0.41500000  1.0 0.0980148923
H  H536  1  0.77860000  0.33500000  0.42100000  1.0 0.0878778897
H  H537  1  0.76570000  0.37330000  0.48930000  1.0 0.0980148923
H  H538  1  0.69070000  0.39750000  0.50090000  1.0 0.1077032508
H  H539  1  0.72320000  0.44680000  0.48240000  1.0 0.1296100642
H  H540  1  0.73220000  0.50440000  0.39220000  1.0 0.0878778897
H  H541  1  0.74370000  0.69690000  0.27770000  1.0 0.0163355538
H  H542  1  0.75140000  0.62280000  0.30980000  1.0 0.0878778897
H  H543  1  0.80430000  0.64690000  0.24450000  1.0 0.0599384644
H  H544  1  0.77820000  0.65080000  0.36120000  1.0 0.0878778897
H  H545  1  0.83120000  0.67480000  0.29600000  1.0 0.0725611004
H  H546  1  0.83870000  0.60070000  0.32810000  1.0 0.1077032508
H  H547  1  0.47420000  0.00420000  0.59060000  1.0 0.0599384644
H  H548  1  0.42050000  0.04430000  0.56870000  1.0 0.0725611004
H  H549  1  0.58770000  0.01590000  0.45010000  1.0 0.0599384644
H  H550  1  0.57790000  0.98650000  0.51730000  1.0 0.0725611004
H  H551  1  0.43680000  0.09220000  0.45900000  1.0 0.0599384644
H  H552  1  0.50040000  0.08140000  0.41400000  1.0 0.0725611004
H  H553  1  0.97950000  0.53570000  0.16490000  1.0 0.1077032508
H  H554  1  0.41360000  0.36340000  0.56680000  1.0 0.0827574854
H  H555  1  0.26830000  0.30930000  0.69810000  1.0 0.0043450012
H  H556  1  0.41510000  0.26250000  0.74070000  1.0 0.1296100642
H  H557  1  0.31780000  0.26000000  0.77020000  1.0 0.0599384644
H  H558  1  0.49150000  0.35370000  0.38550000  1.0 0.0878778897
H  H559  1  0.50440000  0.41500000  0.37240000  1.0 0.0980148923
H  H560  1  0.46540000  0.42100000  0.33500000  1.0 0.0878778897
H  H561  1  0.37170000  0.48930000  0.37330000  1.0 0.0980148923
H  H562  1  0.41090000  0.50090000  0.39750000  1.0 0.1077032508
H  H563  1  0.34760000  0.48240000  0.44680000  1.0 0.1296100642
H  H564  1  0.37120000  0.39220000  0.50440000  1.0 0.0878778897
H  H565  1  0.28170000  0.27770000  0.69690000  1.0 0.0163355538
H  H566  1  0.31600000  0.30980000  0.62280000  1.0 0.0878778897
H  H567  1  0.30430000  0.24450000  0.64690000  1.0 0.0599384644
H  H568  1  0.20980000  0.36120000  0.65080000  1.0 0.0878778897
H  H569  1  0.19800000  0.29600000  0.67480000  1.0 0.0725611004
H  H570  1  0.23250000  0.32810000  0.60070000  1.0 0.1077032508
H  H571  1  0.93100000  0.59060000  0.00420000  1.0 0.0599384644
H  H572  1  0.96650000  0.56870000  0.04430000  1.0 0.0725611004
H  H573  1  0.94630000  0.45010000  0.01590000  1.0 0.0599384644
H  H574  1  0.91830000  0.51730000  0.98650000  1.0 0.0725611004
H  H575  1  0.01200000  0.45900000  0.09220000  1.0 0.0599384644
H  H576  1  0.00420000  0.41400000  0.08140000  1.0 0.0725611004
H  H577  1  0.16490000  0.53570000  0.97950000  1.0 0.1077032508
H  H578  1  0.56680000  0.36340000  0.41360000  1.0 0.0827574854
H  H579  1  0.69810000  0.30930000  0.26830000  1.0 0.0043450012
H  H580  1  0.74070000  0.26250000  0.41510000  1.0 0.1296100642
H  H581  1  0.77020000  0.26000000  0.31780000  1.0 0.0599384644
H  H582  1  0.38550000  0.35370000  0.49150000  1.0 0.0878778897
H  H583  1  0.37240000  0.41500000  0.50440000  1.0 0.0980148923
H  H584  1  0.33500000  0.42100000  0.46540000  1.0 0.0878778897
H  H585  1  0.37330000  0.48930000  0.37170000  1.0 0.0980148923
H  H586  1  0.39750000  0.50090000  0.41090000  1.0 0.1077032508
H  H587  1  0.44680000  0.48240000  0.34760000  1.0 0.1296100642
H  H588  1  0.50440000  0.39220000  0.37120000  1.0 0.0878778897
H  H589  1  0.69690000  0.27770000  0.28170000  1.0 0.0163355538
H  H590  1  0.62280000  0.30980000  0.31600000  1.0 0.0878778897
H  H591  1  0.64690000  0.24450000  0.30430000  1.0 0.0599384644
H  H592  1  0.65080000  0.36120000  0.20980000  1.0 0.0878778897
H  H593  1  0.67480000  0.29600000  0.19800000  1.0 0.0725611004
H  H594  1  0.60070000  0.32810000  0.23250000  1.0 0.1077032508
H  H595  1  0.00420000  0.59060000  0.93100000  1.0 0.0599384644
H  H596  1  0.04430000  0.56870000  0.96650000  1.0 0.0725611004
H  H597  1  0.01590000  0.45010000  0.94630000  1.0 0.0599384644
H  H598  1  0.98650000  0.51730000  0.91830000  1.0 0.0725611004
H  H599  1  0.09220000  0.45900000  0.01200000  1.0 0.0599384644
H  H600  1  0.08140000  0.41400000  0.00420000  1.0 0.0725611004
H  H601  1  0.53570000  0.16490000  0.31990000  1.0 0.1077032508
H  H602  1  0.36340000  0.56680000  0.65620000  1.0 0.0827574854
H  H603  1  0.30930000  0.69810000  0.72430000  1.0 0.0043450012
H  H604  1  0.26250000  0.74070000  0.58170000  1.0 0.1296100642
H  H605  1  0.26000000  0.77020000  0.65200000  1.0 0.0599384644
H  H606  1  0.35370000  0.38550000  0.76930000  1.0 0.0878778897
H  H607  1  0.41500000  0.37240000  0.70820000  1.0 0.0980148923
H  H608  1  0.42100000  0.33500000  0.77860000  1.0 0.0878778897
H  H609  1  0.48930000  0.37330000  0.76570000  1.0 0.0980148923
H  H610  1  0.50090000  0.39750000  0.69070000  1.0 0.1077032508
H  H611  1  0.48240000  0.44680000  0.72320000  1.0 0.1296100642
H  H612  1  0.39220000  0.50440000  0.73220000  1.0 0.0878778897
H  H613  1  0.27770000  0.69690000  0.74370000  1.0 0.0163355538
H  H614  1  0.30980000  0.62280000  0.75140000  1.0 0.0878778897
H  H615  1  0.24450000  0.64690000  0.80430000  1.0 0.0599384644
H  H616  1  0.36120000  0.65080000  0.77820000  1.0 0.0878778897
H  H617  1  0.29600000  0.67480000  0.83120000  1.0 0.0725611004
H  H618  1  0.32810000  0.60070000  0.83870000  1.0 0.1077032508
H  H619  1  0.59060000  0.00420000  0.47420000  1.0 0.0599384644
H  H620  1  0.56870000  0.04430000  0.42050000  1.0 0.0725611004
H  H621  1  0.45010000  0.01590000  0.58770000  1.0 0.0599384644
H  H622  1  0.51730000  0.98650000  0.57790000  1.0 0.0725611004
H  H623  1  0.45900000  0.09220000  0.43680000  1.0 0.0599384644
H  H624  1  0.41400000  0.08140000  0.50040000  1.0 0.0725611004
H  H625  1  0.97950000  0.31990000  0.16490000  1.0 0.1077032508
H  H626  1  0.41360000  0.65620000  0.56680000  1.0 0.0827574854
H  H627  1  0.26830000  0.72430000  0.69810000  1.0 0.0043450012
H  H628  1  0.41510000  0.58170000  0.74070000  1.0 0.1296100642
H  H629  1  0.31780000  0.65200000  0.77020000  1.0 0.0599384644
H  H630  1  0.49150000  0.76930000  0.38550000  1.0 0.0878778897
H  H631  1  0.50440000  0.70820000  0.37240000  1.0 0.0980148923
H  H632  1  0.46540000  0.77860000  0.33500000  1.0 0.0878778897
H  H633  1  0.37170000  0.76570000  0.37330000  1.0 0.0980148923
H  H634  1  0.41090000  0.69070000  0.39750000  1.0 0.1077032508
H  H635  1  0.34760000  0.72320000  0.44680000  1.0 0.1296100642
H  H636  1  0.37120000  0.73220000  0.50440000  1.0 0.0878778897
H  H637  1  0.28170000  0.74370000  0.69690000  1.0 0.0163355538
H  H638  1  0.31600000  0.75140000  0.62280000  1.0 0.0878778897
H  H639  1  0.30430000  0.80430000  0.64690000  1.0 0.0599384644
H  H640  1  0.20980000  0.77820000  0.65080000  1.0 0.0878778897
H  H641  1  0.19800000  0.83120000  0.67480000  1.0 0.0725611004
H  H642  1  0.23250000  0.83870000  0.60070000  1.0 0.1077032508
H  H643  1  0.93100000  0.47420000  0.00420000  1.0 0.0599384644
H  H644  1  0.96650000  0.42050000  0.04430000  1.0 0.0725611004
H  H645  1  0.94630000  0.58770000  0.01590000  1.0 0.0599384644
H  H646  1  0.91830000  0.57790000  0.98650000  1.0 0.0725611004
H  H647  1  0.01200000  0.43680000  0.09220000  1.0 0.0599384644
H  H648  1  0.00420000  0.50040000  0.08140000  1.0 0.0725611004
H  H649  1  0.31990000  0.97950000  0.53570000  1.0 0.1077032508
H  H650  1  0.65620000  0.41360000  0.36340000  1.0 0.0827574854
H  H651  1  0.72430000  0.26830000  0.30930000  1.0 0.0043450012
H  H652  1  0.58170000  0.41510000  0.26250000  1.0 0.1296100642
H  H653  1  0.65200000  0.31780000  0.26000000  1.0 0.0599384644
H  H654  1  0.76930000  0.49150000  0.35370000  1.0 0.0878778897
H  H655  1  0.70820000  0.50440000  0.41500000  1.0 0.0980148923
H  H656  1  0.77860000  0.46540000  0.42100000  1.0 0.0878778897
H  H657  1  0.76570000  0.37170000  0.48930000  1.0 0.0980148923
H  H658  1  0.69070000  0.41090000  0.50090000  1.0 0.1077032508
H  H659  1  0.72320000  0.34760000  0.48240000  1.0 0.1296100642
H  H660  1  0.73220000  0.37120000  0.39220000  1.0 0.0878778897
H  H661  1  0.74370000  0.28170000  0.27770000  1.0 0.0163355538
H  H662  1  0.75140000  0.31600000  0.30980000  1.0 0.0878778897
H  H663  1  0.80430000  0.30430000  0.24450000  1.0 0.0599384644
H  H664  1  0.77820000  0.20980000  0.36120000  1.0 0.0878778897
H  H665  1  0.83120000  0.19800000  0.29600000  1.0 0.0725611004
H  H666  1  0.83870000  0.23250000  0.32810000  1.0 0.1077032508
H  H667  1  0.47420000  0.93100000  0.59060000  1.0 0.0599384644
H  H668  1  0.42050000  0.96650000  0.56870000  1.0 0.0725611004
H  H669  1  0.58770000  0.94630000  0.45010000  1.0 0.0599384644
H  H670  1  0.57790000  0.91830000  0.51730000  1.0 0.0725611004
H  H671  1  0.43680000  0.01200000  0.45900000  1.0 0.0599384644
H  H672  1  0.50040000  0.00420000  0.41400000  1.0 0.0725611004
H  H673  1  0.97950000  0.16490000  0.53570000  1.0 0.1077032508
H  H674  1  0.41360000  0.56680000  0.36340000  1.0 0.0827574854
H  H675  1  0.26830000  0.69810000  0.30930000  1.0 0.0043450012
H  H676  1  0.41510000  0.74070000  0.26250000  1.0 0.1296100642
H  H677  1  0.31780000  0.77020000  0.26000000  1.0 0.0599384644
H  H678  1  0.49150000  0.38550000  0.35370000  1.0 0.0878778897
H  H679  1  0.50440000  0.37240000  0.41500000  1.0 0.0980148923
H  H680  1  0.46540000  0.33500000  0.42100000  1.0 0.0878778897
H  H681  1  0.37170000  0.37330000  0.48930000  1.0 0.0980148923
H  H682  1  0.41090000  0.39750000  0.50090000  1.0 0.1077032508
H  H683  1  0.34760000  0.44680000  0.48240000  1.0 0.1296100642
H  H684  1  0.37120000  0.50440000  0.39220000  1.0 0.0878778897
H  H685  1  0.28170000  0.69690000  0.27770000  1.0 0.0163355538
H  H686  1  0.31600000  0.62280000  0.30980000  1.0 0.0878778897
H  H687  1  0.30430000  0.64690000  0.24450000  1.0 0.0599384644
H  H688  1  0.20980000  0.65080000  0.36120000  1.0 0.0878778897
H  H689  1  0.19800000  0.67480000  0.29600000  1.0 0.0725611004
H  H690  1  0.23250000  0.60070000  0.32810000  1.0 0.1077032508
H  H691  1  0.93100000  0.00420000  0.59060000  1.0 0.0599384644
H  H692  1  0.96650000  0.04430000  0.56870000  1.0 0.0725611004
H  H693  1  0.94630000  0.01590000  0.45010000  1.0 0.0599384644
H  H694  1  0.91830000  0.98650000  0.51730000  1.0 0.0725611004
H  H695  1  0.01200000  0.09220000  0.45900000  1.0 0.0599384644
H  H696  1  0.00420000  0.08140000  0.41400000  1.0 0.0725611004
H  H697  1  0.31990000  0.53570000  0.16490000  1.0 0.1077032508
H  H698  1  0.65620000  0.36340000  0.56680000  1.0 0.0827574854
H  H699  1  0.72430000  0.30930000  0.69810000  1.0 0.0043450012
H  H700  1  0.58170000  0.26250000  0.74070000  1.0 0.1296100642
H  H701  1  0.65200000  0.26000000  0.77020000  1.0 0.0599384644
H  H702  1  0.76930000  0.35370000  0.38550000  1.0 0.0878778897
H  H703  1  0.70820000  0.41500000  0.37240000  1.0 0.0980148923
H  H704  1  0.77860000  0.42100000  0.33500000  1.0 0.0878778897
H  H705  1  0.76570000  0.48930000  0.37330000  1.0 0.0980148923
H  H706  1  0.69070000  0.50090000  0.39750000  1.0 0.1077032508
H  H707  1  0.72320000  0.48240000  0.44680000  1.0 0.1296100642
H  H708  1  0.73220000  0.39220000  0.50440000  1.0 0.0878778897
H  H709  1  0.74370000  0.27770000  0.69690000  1.0 0.0163355538
H  H710  1  0.75140000  0.30980000  0.62280000  1.0 0.0878778897
H  H711  1  0.80430000  0.24450000  0.64690000  1.0 0.0599384644
H  H712  1  0.77820000  0.36120000  0.65080000  1.0 0.0878778897
H  H713  1  0.83120000  0.29600000  0.67480000  1.0 0.0725611004
H  H714  1  0.83870000  0.32810000  0.60070000  1.0 0.1077032508
H  H715  1  0.47420000  0.59060000  0.00420000  1.0 0.0599384644
H  H716  1  0.42050000  0.56870000  0.04430000  1.0 0.0725611004
H  H717  1  0.58770000  0.45010000  0.01590000  1.0 0.0599384644
H  H718  1  0.57790000  0.51730000  0.98650000  1.0 0.0725611004
H  H719  1  0.43680000  0.45900000  0.09220000  1.0 0.0599384644
H  H720  1  0.50040000  0.41400000  0.08140000  1.0 0.0725611004
H  H721  1  0.16490000  0.97950000  0.31990000  1.0 0.1077032508
H  H722  1  0.56680000  0.41360000  0.65620000  1.0 0.0827574854
H  H723  1  0.69810000  0.26830000  0.72430000  1.0 0.0043450012
H  H724  1  0.74070000  0.41510000  0.58170000  1.0 0.1296100642
H  H725  1  0.77020000  0.31780000  0.65200000  1.0 0.0599384644
H  H726  1  0.38550000  0.49150000  0.76930000  1.0 0.0878778897
H  H727  1  0.37240000  0.50440000  0.70820000  1.0 0.0980148923
H  H728  1  0.33500000  0.46540000  0.77860000  1.0 0.0878778897
H  H729  1  0.37330000  0.37170000  0.76570000  1.0 0.0980148923
H  H730  1  0.39750000  0.41090000  0.69070000  1.0 0.1077032508
H  H731  1  0.44680000  0.34760000  0.72320000  1.0 0.1296100642
H  H732  1  0.50440000  0.37120000  0.73220000  1.0 0.0878778897
H  H733  1  0.69690000  0.28170000  0.74370000  1.0 0.0163355538
H  H734  1  0.62280000  0.31600000  0.75140000  1.0 0.0878778897
H  H735  1  0.64690000  0.30430000  0.80430000  1.0 0.0599384644
H  H736  1  0.65080000  0.20980000  0.77820000  1.0 0.0878778897
H  H737  1  0.67480000  0.19800000  0.83120000  1.0 0.0725611004
H  H738  1  0.60070000  0.23250000  0.83870000  1.0 0.1077032508
H  H739  1  0.00420000  0.93100000  0.47420000  1.0 0.0599384644
H  H740  1  0.04430000  0.96650000  0.42050000  1.0 0.0725611004
H  H741  1  0.01590000  0.94630000  0.58770000  1.0 0.0599384644
H  H742  1  0.98650000  0.91830000  0.57790000  1.0 0.0725611004
H  H743  1  0.09220000  0.01200000  0.43680000  1.0 0.0599384644
H  H744  1  0.08140000  0.00420000  0.50040000  1.0 0.0725611004
H  H745  1  0.53570000  0.31990000  0.97950000  1.0 0.1077032508
H  H746  1  0.36340000  0.65620000  0.41360000  1.0 0.0827574854
H  H747  1  0.30930000  0.72430000  0.26830000  1.0 0.0043450012
H  H748  1  0.26250000  0.58170000  0.41510000  1.0 0.1296100642
H  H749  1  0.26000000  0.65200000  0.31780000  1.0 0.0599384644
H  H750  1  0.35370000  0.76930000  0.49150000  1.0 0.0878778897
H  H751  1  0.41500000  0.70820000  0.50440000  1.0 0.0980148923
H  H752  1  0.42100000  0.77860000  0.46540000  1.0 0.0878778897
H  H753  1  0.48930000  0.76570000  0.37170000  1.0 0.0980148923
H  H754  1  0.50090000  0.69070000  0.41090000  1.0 0.1077032508
H  H755  1  0.48240000  0.72320000  0.34760000  1.0 0.1296100642
H  H756  1  0.39220000  0.73220000  0.37120000  1.0 0.0878778897
H  H757  1  0.27770000  0.74370000  0.28170000  1.0 0.0163355538
H  H758  1  0.30980000  0.75140000  0.31600000  1.0 0.0878778897
H  H759  1  0.24450000  0.80430000  0.30430000  1.0 0.0599384644
H  H760  1  0.36120000  0.77820000  0.20980000  1.0 0.0878778897
H  H761  1  0.29600000  0.83120000  0.19800000  1.0 0.0725611004
H  H762  1  0.32810000  0.83870000  0.23250000  1.0 0.1077032508
H  H763  1  0.59060000  0.47420000  0.93100000  1.0 0.0599384644
H  H764  1  0.56870000  0.42050000  0.96650000  1.0 0.0725611004
H  H765  1  0.45010000  0.58770000  0.94630000  1.0 0.0599384644
H  H766  1  0.51730000  0.57790000  0.91830000  1.0 0.0725611004
H  H767  1  0.45900000  0.43680000  0.01200000  1.0 0.0599384644
H  H768  1  0.41400000  0.50040000  0.00420000  1.0 0.0725611004
H  H769  1  0.53570000  0.97950000  0.16490000  1.0 0.1077032508
H  H770  1  0.36340000  0.41360000  0.56680000  1.0 0.0827574854
H  H771  1  0.30930000  0.26830000  0.69810000  1.0 0.0043450012
H  H772  1  0.26250000  0.41510000  0.74070000  1.0 0.1296100642
H  H773  1  0.26000000  0.31780000  0.77020000  1.0 0.0599384644
H  H774  1  0.35370000  0.49150000  0.38550000  1.0 0.0878778897
H  H775  1  0.41500000  0.50440000  0.37240000  1.0 0.0980148923
H  H776  1  0.42100000  0.46540000  0.33500000  1.0 0.0878778897
H  H777  1  0.48930000  0.37170000  0.37330000  1.0 0.0980148923
H  H778  1  0.50090000  0.41090000  0.39750000  1.0 0.1077032508
H  H779  1  0.48240000  0.34760000  0.44680000  1.0 0.1296100642
H  H780  1  0.39220000  0.37120000  0.50440000  1.0 0.0878778897
H  H781  1  0.27770000  0.28170000  0.69690000  1.0 0.0163355538
H  H782  1  0.30980000  0.31600000  0.62280000  1.0 0.0878778897
H  H783  1  0.24450000  0.30430000  0.64690000  1.0 0.0599384644
H  H784  1  0.36120000  0.20980000  0.65080000  1.0 0.0878778897
H  H785  1  0.29600000  0.19800000  0.67480000  1.0 0.0725611004
H  H786  1  0.32810000  0.23250000  0.60070000  1.0 0.1077032508
H  H787  1  0.59060000  0.93100000  0.00420000  1.0 0.0599384644
H  H788  1  0.56870000  0.96650000  0.04430000  1.0 0.0725611004
H  H789  1  0.45010000  0.94630000  0.01590000  1.0 0.0599384644
H  H790  1  0.51730000  0.91830000  0.98650000  1.0 0.0725611004
H  H791  1  0.45900000  0.01200000  0.09220000  1.0 0.0599384644
H  H792  1  0.41400000  0.00420000  0.08140000  1.0 0.0725611004
H  H793  1  0.16490000  0.31990000  0.53570000  1.0 0.1077032508
H  H794  1  0.56680000  0.65620000  0.36340000  1.0 0.0827574854
H  H795  1  0.69810000  0.72430000  0.30930000  1.0 0.0043450012
H  H796  1  0.74070000  0.58170000  0.26250000  1.0 0.1296100642
H  H797  1  0.77020000  0.65200000  0.26000000  1.0 0.0599384644
H  H798  1  0.38550000  0.76930000  0.35370000  1.0 0.0878778897
H  H799  1  0.37240000  0.70820000  0.41500000  1.0 0.0980148923
H  H800  1  0.33500000  0.77860000  0.42100000  1.0 0.0878778897
H  H801  1  0.37330000  0.76570000  0.48930000  1.0 0.0980148923
H  H802  1  0.39750000  0.69070000  0.50090000  1.0 0.1077032508
H  H803  1  0.44680000  0.72320000  0.48240000  1.0 0.1296100642
H  H804  1  0.50440000  0.73220000  0.39220000  1.0 0.0878778897
H  H805  1  0.69690000  0.74370000  0.27770000  1.0 0.0163355538
H  H806  1  0.62280000  0.75140000  0.30980000  1.0 0.0878778897
H  H807  1  0.64690000  0.80430000  0.24450000  1.0 0.0599384644
H  H808  1  0.65080000  0.77820000  0.36120000  1.0 0.0878778897
H  H809  1  0.67480000  0.83120000  0.29600000  1.0 0.0725611004
H  H810  1  0.60070000  0.83870000  0.32810000  1.0 0.1077032508
H  H811  1  0.00420000  0.47420000  0.59060000  1.0 0.0599384644
H  H812  1  0.04430000  0.42050000  0.56870000  1.0 0.0725611004
H  H813  1  0.01590000  0.58770000  0.45010000  1.0 0.0599384644
H  H814  1  0.98650000  0.57790000  0.51730000  1.0 0.0725611004
H  H815  1  0.09220000  0.43680000  0.45900000  1.0 0.0599384644
H  H816  1  0.08140000  0.50040000  0.41400000  1.0 0.0725611004
H  H817  1  0.31990000  0.16490000  0.97950000  1.0 0.1077032508
H  H818  1  0.65620000  0.56680000  0.41360000  1.0 0.0827574854
H  H819  1  0.72430000  0.69810000  0.26830000  1.0 0.0043450012
H  H820  1  0.58170000  0.74070000  0.41510000  1.0 0.1296100642
H  H821  1  0.65200000  0.77020000  0.31780000  1.0 0.0599384644
H  H822  1  0.76930000  0.38550000  0.49150000  1.0 0.0878778897
H  H823  1  0.70820000  0.37240000  0.50440000  1.0 0.0980148923
H  H824  1  0.77860000  0.33500000  0.46540000  1.0 0.0878778897
H  H825  1  0.76570000  0.37330000  0.37170000  1.0 0.0980148923
H  H826  1  0.69070000  0.39750000  0.41090000  1.0 0.1077032508
H  H827  1  0.72320000  0.44680000  0.34760000  1.0 0.1296100642
H  H828  1  0.73220000  0.50440000  0.37120000  1.0 0.0878778897
H  H829  1  0.74370000  0.69690000  0.28170000  1.0 0.0163355538
H  H830  1  0.75140000  0.62280000  0.31600000  1.0 0.0878778897
H  H831  1  0.80430000  0.64690000  0.30430000  1.0 0.0599384644
H  H832  1  0.77820000  0.65080000  0.20980000  1.0 0.0878778897
H  H833  1  0.83120000  0.67480000  0.19800000  1.0 0.0725611004
H  H834  1  0.83870000  0.60070000  0.23250000  1.0 0.1077032508
H  H835  1  0.47420000  0.00420000  0.93100000  1.0 0.0599384644
H  H836  1  0.42050000  0.04430000  0.96650000  1.0 0.0725611004
H  H837  1  0.58770000  0.01590000  0.94630000  1.0 0.0599384644
H  H838  1  0.57790000  0.98650000  0.91830000  1.0 0.0725611004
H  H839  1  0.43680000  0.09220000  0.01200000  1.0 0.0599384644
H  H840  1  0.50040000  0.08140000  0.00420000  1.0 0.0725611004
H  H841  1  0.97950000  0.53570000  0.31990000  1.0 0.1077032508
H  H842  1  0.41360000  0.36340000  0.65620000  1.0 0.0827574854
H  H843  1  0.26830000  0.30930000  0.72430000  1.0 0.0043450012
H  H844  1  0.41510000  0.26250000  0.58170000  1.0 0.1296100642
H  H845  1  0.31780000  0.26000000  0.65200000  1.0 0.0599384644
H  H846  1  0.49150000  0.35370000  0.76930000  1.0 0.0878778897
H  H847  1  0.50440000  0.41500000  0.70820000  1.0 0.0980148923
H  H848  1  0.46540000  0.42100000  0.77860000  1.0 0.0878778897
H  H849  1  0.37170000  0.48930000  0.76570000  1.0 0.0980148923
H  H850  1  0.41090000  0.50090000  0.69070000  1.0 0.1077032508
H  H851  1  0.34760000  0.48240000  0.72320000  1.0 0.1296100642
H  H852  1  0.37120000  0.39220000  0.73220000  1.0 0.0878778897
H  H853  1  0.28170000  0.27770000  0.74370000  1.0 0.0163355538
H  H854  1  0.31600000  0.30980000  0.75140000  1.0 0.0878778897
H  H855  1  0.30430000  0.24450000  0.80430000  1.0 0.0599384644
H  H856  1  0.20980000  0.36120000  0.77820000  1.0 0.0878778897
H  H857  1  0.19800000  0.29600000  0.83120000  1.0 0.0725611004
H  H858  1  0.23250000  0.32810000  0.83870000  1.0 0.1077032508
H  H859  1  0.93100000  0.59060000  0.47420000  1.0 0.0599384644
H  H860  1  0.96650000  0.56870000  0.42050000  1.0 0.0725611004
H  H861  1  0.94630000  0.45010000  0.58770000  1.0 0.0599384644
H  H862  1  0.91830000  0.51730000  0.57790000  1.0 0.0725611004
H  H863  1  0.01200000  0.45900000  0.43680000  1.0 0.0599384644
H  H864  1  0.00420000  0.41400000  0.50040000  1.0 0.0725611004
H  H865  1  0.83510000  0.46430000  0.68010000  1.0 0.1077032508
H  H866  1  0.43320000  0.63660000  0.34380000  1.0 0.0827574854
H  H867  1  0.30190000  0.69070000  0.27570000  1.0 0.0043450012
H  H868  1  0.25930000  0.73750000  0.41830000  1.0 0.1296100642
H  H869  1  0.22980000  0.74000000  0.34800000  1.0 0.0599384644
H  H870  1  0.61450000  0.64630000  0.23070000  1.0 0.0878778897
H  H871  1  0.62760000  0.58500000  0.29180000  1.0 0.0980148923
H  H872  1  0.66500000  0.57900000  0.22140000  1.0 0.0878778897
H  H873  1  0.62670000  0.51070000  0.23430000  1.0 0.0980148923
H  H874  1  0.60250000  0.49910000  0.30930000  1.0 0.1077032508
H  H875  1  0.55320000  0.51760000  0.27680000  1.0 0.1296100642
H  H876  1  0.49560000  0.60780000  0.26780000  1.0 0.0878778897
H  H877  1  0.30310000  0.72230000  0.25630000  1.0 0.0163355538
H  H878  1  0.37720000  0.69020000  0.24860000  1.0 0.0878778897
H  H879  1  0.35310000  0.75550000  0.19570000  1.0 0.0599384644
H  H880  1  0.34920000  0.63880000  0.22180000  1.0 0.0878778897
H  H881  1  0.32520000  0.70400000  0.16880000  1.0 0.0725611004
H  H882  1  0.39930000  0.67190000  0.16130000  1.0 0.1077032508
H  H883  1  0.99580000  0.40940000  0.52580000  1.0 0.0599384644
H  H884  1  0.95570000  0.43130000  0.57950000  1.0 0.0725611004
H  H885  1  0.98410000  0.54990000  0.41230000  1.0 0.0599384644
H  H886  1  0.01350000  0.48270000  0.42210000  1.0 0.0725611004
H  H887  1  0.90780000  0.54100000  0.56320000  1.0 0.0599384644
H  H888  1  0.91860000  0.58600000  0.49960000  1.0 0.0725611004
H  H889  1  0.46430000  0.83510000  0.02050000  1.0 0.1077032508
H  H890  1  0.63660000  0.43320000  0.58640000  1.0 0.0827574854
H  H891  1  0.69070000  0.30190000  0.73170000  1.0 0.0043450012
H  H892  1  0.73750000  0.25930000  0.58490000  1.0 0.1296100642
H  H893  1  0.74000000  0.22980000  0.68220000  1.0 0.0599384644
H  H894  1  0.64630000  0.61450000  0.50850000  1.0 0.0878778897
H  H895  1  0.58500000  0.62760000  0.49560000  1.0 0.0980148923
H  H896  1  0.57900000  0.66500000  0.53460000  1.0 0.0878778897
H  H897  1  0.51070000  0.62670000  0.62830000  1.0 0.0980148923
H  H898  1  0.49910000  0.60250000  0.58910000  1.0 0.1077032508
H  H899  1  0.51760000  0.55320000  0.65240000  1.0 0.1296100642
H  H900  1  0.60780000  0.49560000  0.62880000  1.0 0.0878778897
H  H901  1  0.72230000  0.30310000  0.71830000  1.0 0.0163355538
H  H902  1  0.69020000  0.37720000  0.68400000  1.0 0.0878778897
H  H903  1  0.75550000  0.35310000  0.69570000  1.0 0.0599384644
H  H904  1  0.63880000  0.34920000  0.79020000  1.0 0.0878778897
H  H905  1  0.70400000  0.32520000  0.80200000  1.0 0.0725611004
H  H906  1  0.67190000  0.39930000  0.76750000  1.0 0.1077032508
H  H907  1  0.40940000  0.99580000  0.06900000  1.0 0.0599384644
H  H908  1  0.43130000  0.95570000  0.03350000  1.0 0.0725611004
H  H909  1  0.54990000  0.98410000  0.05370000  1.0 0.0599384644
H  H910  1  0.48270000  0.01350000  0.08170000  1.0 0.0725611004
H  H911  1  0.54100000  0.90780000  0.98800000  1.0 0.0599384644
H  H912  1  0.58600000  0.91860000  0.99580000  1.0 0.0725611004
H  H913  1  0.02050000  0.68010000  0.46430000  1.0 0.1077032508
H  H914  1  0.58640000  0.34380000  0.63660000  1.0 0.0827574854
H  H915  1  0.73170000  0.27570000  0.69070000  1.0 0.0043450012
H  H916  1  0.58490000  0.41830000  0.73750000  1.0 0.1296100642
H  H917  1  0.68220000  0.34800000  0.74000000  1.0 0.0599384644
H  H918  1  0.50850000  0.23070000  0.64630000  1.0 0.0878778897
H  H919  1  0.49560000  0.29180000  0.58500000  1.0 0.0980148923
H  H920  1  0.53460000  0.22140000  0.57900000  1.0 0.0878778897
H  H921  1  0.62830000  0.23430000  0.51070000  1.0 0.0980148923
H  H922  1  0.58910000  0.30930000  0.49910000  1.0 0.1077032508
H  H923  1  0.65240000  0.27680000  0.51760000  1.0 0.1296100642
H  H924  1  0.62880000  0.26780000  0.60780000  1.0 0.0878778897
H  H925  1  0.71830000  0.25630000  0.72230000  1.0 0.0163355538
H  H926  1  0.68400000  0.24860000  0.69020000  1.0 0.0878778897
H  H927  1  0.69570000  0.19570000  0.75550000  1.0 0.0599384644
H  H928  1  0.79020000  0.22180000  0.63880000  1.0 0.0878778897
H  H929  1  0.80200000  0.16880000  0.70400000  1.0 0.0725611004
H  H930  1  0.76750000  0.16130000  0.67190000  1.0 0.1077032508
H  H931  1  0.06900000  0.52580000  0.40940000  1.0 0.0599384644
H  H932  1  0.03350000  0.57950000  0.43130000  1.0 0.0725611004
H  H933  1  0.05370000  0.41230000  0.54990000  1.0 0.0599384644
H  H934  1  0.08170000  0.42210000  0.48270000  1.0 0.0725611004
H  H935  1  0.98800000  0.56320000  0.54100000  1.0 0.0599384644
H  H936  1  0.99580000  0.49960000  0.58600000  1.0 0.0725611004
H  H937  1  0.68010000  0.02050000  0.83510000  1.0 0.1077032508
H  H938  1  0.34380000  0.58640000  0.43320000  1.0 0.0827574854
H  H939  1  0.27570000  0.73170000  0.30190000  1.0 0.0043450012
H  H940  1  0.41830000  0.58490000  0.25930000  1.0 0.1296100642
H  H941  1  0.34800000  0.68220000  0.22980000  1.0 0.0599384644
H  H942  1  0.23070000  0.50850000  0.61450000  1.0 0.0878778897
H  H943  1  0.29180000  0.49560000  0.62760000  1.0 0.0980148923
H  H944  1  0.22140000  0.53460000  0.66500000  1.0 0.0878778897
H  H945  1  0.23430000  0.62830000  0.62670000  1.0 0.0980148923
H  H946  1  0.30930000  0.58910000  0.60250000  1.0 0.1077032508
H  H947  1  0.27680000  0.65240000  0.55320000  1.0 0.1296100642
H  H948  1  0.26780000  0.62880000  0.49560000  1.0 0.0878778897
H  H949  1  0.25630000  0.71830000  0.30310000  1.0 0.0163355538
H  H950  1  0.24860000  0.68400000  0.37720000  1.0 0.0878778897
H  H951  1  0.19570000  0.69570000  0.35310000  1.0 0.0599384644
H  H952  1  0.22180000  0.79020000  0.34920000  1.0 0.0878778897
H  H953  1  0.16880000  0.80200000  0.32520000  1.0 0.0725611004
H  H954  1  0.16130000  0.76750000  0.39930000  1.0 0.1077032508
H  H955  1  0.52580000  0.06900000  0.99580000  1.0 0.0599384644
H  H956  1  0.57950000  0.03350000  0.95570000  1.0 0.0725611004
H  H957  1  0.41230000  0.05370000  0.98410000  1.0 0.0599384644
H  H958  1  0.42210000  0.08170000  0.01350000  1.0 0.0725611004
H  H959  1  0.56320000  0.98800000  0.90780000  1.0 0.0599384644
H  H960  1  0.49960000  0.99580000  0.91860000  1.0 0.0725611004
H  H961  1  0.02050000  0.83510000  0.68010000  1.0 0.1077032508
H  H962  1  0.58640000  0.43320000  0.34380000  1.0 0.0827574854
H  H963  1  0.73170000  0.30190000  0.27570000  1.0 0.0043450012
H  H964  1  0.58490000  0.25930000  0.41830000  1.0 0.1296100642
H  H965  1  0.68220000  0.22980000  0.34800000  1.0 0.0599384644
H  H966  1  0.50850000  0.61450000  0.23070000  1.0 0.0878778897
H  H967  1  0.49560000  0.62760000  0.29180000  1.0 0.0980148923
H  H968  1  0.53460000  0.66500000  0.22140000  1.0 0.0878778897
H  H969  1  0.62830000  0.62670000  0.23430000  1.0 0.0980148923
H  H970  1  0.58910000  0.60250000  0.30930000  1.0 0.1077032508
H  H971  1  0.65240000  0.55320000  0.27680000  1.0 0.1296100642
H  H972  1  0.62880000  0.49560000  0.26780000  1.0 0.0878778897
H  H973  1  0.71830000  0.30310000  0.25630000  1.0 0.0163355538
H  H974  1  0.68400000  0.37720000  0.24860000  1.0 0.0878778897
H  H975  1  0.69570000  0.35310000  0.19570000  1.0 0.0599384644
H  H976  1  0.79020000  0.34920000  0.22180000  1.0 0.0878778897
H  H977  1  0.80200000  0.32520000  0.16880000  1.0 0.0725611004
H  H978  1  0.76750000  0.39930000  0.16130000  1.0 0.1077032508
H  H979  1  0.06900000  0.99580000  0.52580000  1.0 0.0599384644
H  H980  1  0.03350000  0.95570000  0.57950000  1.0 0.0725611004
H  H981  1  0.05370000  0.98410000  0.41230000  1.0 0.0599384644
H  H982  1  0.08170000  0.01350000  0.42210000  1.0 0.0725611004
H  H983  1  0.98800000  0.90780000  0.56320000  1.0 0.0599384644
H  H984  1  0.99580000  0.91860000  0.49960000  1.0 0.0725611004
H  H985  1  0.68010000  0.46430000  0.02050000  1.0 0.1077032508
H  H986  1  0.34380000  0.63660000  0.58640000  1.0 0.0827574854
H  H987  1  0.27570000  0.69070000  0.73170000  1.0 0.0043450012
H  H988  1  0.41830000  0.73750000  0.58490000  1.0 0.1296100642
H  H989  1  0.34800000  0.74000000  0.68220000  1.0 0.0599384644
H  H990  1  0.23070000  0.64630000  0.50850000  1.0 0.0878778897
H  H991  1  0.29180000  0.58500000  0.49560000  1.0 0.0980148923
H  H992  1  0.22140000  0.57900000  0.53460000  1.0 0.0878778897
H  H993  1  0.23430000  0.51070000  0.62830000  1.0 0.0980148923
H  H994  1  0.30930000  0.49910000  0.58910000  1.0 0.1077032508
H  H995  1  0.27680000  0.51760000  0.65240000  1.0 0.1296100642
H  H996  1  0.26780000  0.60780000  0.62880000  1.0 0.0878778897
H  H997  1  0.25630000  0.72230000  0.71830000  1.0 0.0163355538
H  H998  1  0.24860000  0.69020000  0.68400000  1.0 0.0878778897
H  H999  1  0.19570000  0.75550000  0.69570000  1.0 0.0599384644
H  H1000  1  0.22180000  0.63880000  0.79020000  1.0 0.0878778897
H  H1001  1  0.16880000  0.70400000  0.80200000  1.0 0.0725611004
H  H1002  1  0.16130000  0.67190000  0.76750000  1.0 0.1077032508
H  H1003  1  0.52580000  0.40940000  0.06900000  1.0 0.0599384644
H  H1004  1  0.57950000  0.43130000  0.03350000  1.0 0.0725611004
H  H1005  1  0.41230000  0.54990000  0.05370000  1.0 0.0599384644
H  H1006  1  0.42210000  0.48270000  0.08170000  1.0 0.0725611004
H  H1007  1  0.56320000  0.54100000  0.98800000  1.0 0.0599384644
H  H1008  1  0.49960000  0.58600000  0.99580000  1.0 0.0725611004
H  H1009  1  0.83510000  0.02050000  0.46430000  1.0 0.1077032508
H  H1010  1  0.43320000  0.58640000  0.63660000  1.0 0.0827574854
H  H1011  1  0.30190000  0.73170000  0.69070000  1.0 0.0043450012
H  H1012  1  0.25930000  0.58490000  0.73750000  1.0 0.1296100642
H  H1013  1  0.22980000  0.68220000  0.74000000  1.0 0.0599384644
H  H1014  1  0.61450000  0.50850000  0.64630000  1.0 0.0878778897
H  H1015  1  0.62760000  0.49560000  0.58500000  1.0 0.0980148923
H  H1016  1  0.66500000  0.53460000  0.57900000  1.0 0.0878778897
H  H1017  1  0.62670000  0.62830000  0.51070000  1.0 0.0980148923
H  H1018  1  0.60250000  0.58910000  0.49910000  1.0 0.1077032508
H  H1019  1  0.55320000  0.65240000  0.51760000  1.0 0.1296100642
H  H1020  1  0.49560000  0.62880000  0.60780000  1.0 0.0878778897
H  H1021  1  0.30310000  0.71830000  0.72230000  1.0 0.0163355538
H  H1022  1  0.37720000  0.68400000  0.69020000  1.0 0.0878778897
H  H1023  1  0.35310000  0.69570000  0.75550000  1.0 0.0599384644
H  H1024  1  0.34920000  0.79020000  0.63880000  1.0 0.0878778897
H  H1025  1  0.32520000  0.80200000  0.70400000  1.0 0.0725611004
H  H1026  1  0.39930000  0.76750000  0.67190000  1.0 0.1077032508
H  H1027  1  0.99580000  0.06900000  0.40940000  1.0 0.0599384644
H  H1028  1  0.95570000  0.03350000  0.43130000  1.0 0.0725611004
H  H1029  1  0.98410000  0.05370000  0.54990000  1.0 0.0599384644
H  H1030  1  0.01350000  0.08170000  0.48270000  1.0 0.0725611004
H  H1031  1  0.90780000  0.98800000  0.54100000  1.0 0.0599384644
H  H1032  1  0.91860000  0.99580000  0.58600000  1.0 0.0725611004
H  H1033  1  0.46430000  0.68010000  0.83510000  1.0 0.1077032508
H  H1034  1  0.63660000  0.34380000  0.43320000  1.0 0.0827574854
H  H1035  1  0.69070000  0.27570000  0.30190000  1.0 0.0043450012
H  H1036  1  0.73750000  0.41830000  0.25930000  1.0 0.1296100642
H  H1037  1  0.74000000  0.34800000  0.22980000  1.0 0.0599384644
H  H1038  1  0.64630000  0.23070000  0.61450000  1.0 0.0878778897
H  H1039  1  0.58500000  0.29180000  0.62760000  1.0 0.0980148923
H  H1040  1  0.57900000  0.22140000  0.66500000  1.0 0.0878778897
H  H1041  1  0.51070000  0.23430000  0.62670000  1.0 0.0980148923
H  H1042  1  0.49910000  0.30930000  0.60250000  1.0 0.1077032508
H  H1043  1  0.51760000  0.27680000  0.55320000  1.0 0.1296100642
H  H1044  1  0.60780000  0.26780000  0.49560000  1.0 0.0878778897
H  H1045  1  0.72230000  0.25630000  0.30310000  1.0 0.0163355538
H  H1046  1  0.69020000  0.24860000  0.37720000  1.0 0.0878778897
H  H1047  1  0.75550000  0.19570000  0.35310000  1.0 0.0599384644
H  H1048  1  0.63880000  0.22180000  0.34920000  1.0 0.0878778897
H  H1049  1  0.70400000  0.16880000  0.32520000  1.0 0.0725611004
H  H1050  1  0.67190000  0.16130000  0.39930000  1.0 0.1077032508
H  H1051  1  0.40940000  0.52580000  0.99580000  1.0 0.0599384644
H  H1052  1  0.43130000  0.57950000  0.95570000  1.0 0.0725611004
H  H1053  1  0.54990000  0.41230000  0.98410000  1.0 0.0599384644
H  H1054  1  0.48270000  0.42210000  0.01350000  1.0 0.0725611004
H  H1055  1  0.54100000  0.56320000  0.90780000  1.0 0.0599384644
H  H1056  1  0.58600000  0.49960000  0.91860000  1.0 0.0725611004
H  H1057  1  0.46430000  0.02050000  0.68010000  1.0 0.1077032508
H  H1058  1  0.63660000  0.58640000  0.34380000  1.0 0.0827574854
H  H1059  1  0.69070000  0.73170000  0.27570000  1.0 0.0043450012
H  H1060  1  0.73750000  0.58490000  0.41830000  1.0 0.1296100642
H  H1061  1  0.74000000  0.68220000  0.34800000  1.0 0.0599384644
H  H1062  1  0.64630000  0.50850000  0.23070000  1.0 0.0878778897
H  H1063  1  0.58500000  0.49560000  0.29180000  1.0 0.0980148923
H  H1064  1  0.57900000  0.53460000  0.22140000  1.0 0.0878778897
H  H1065  1  0.51070000  0.62830000  0.23430000  1.0 0.0980148923
H  H1066  1  0.49910000  0.58910000  0.30930000  1.0 0.1077032508
H  H1067  1  0.51760000  0.65240000  0.27680000  1.0 0.1296100642
H  H1068  1  0.60780000  0.62880000  0.26780000  1.0 0.0878778897
H  H1069  1  0.72230000  0.71830000  0.25630000  1.0 0.0163355538
H  H1070  1  0.69020000  0.68400000  0.24860000  1.0 0.0878778897
H  H1071  1  0.75550000  0.69570000  0.19570000  1.0 0.0599384644
H  H1072  1  0.63880000  0.79020000  0.22180000  1.0 0.0878778897
H  H1073  1  0.70400000  0.80200000  0.16880000  1.0 0.0725611004
H  H1074  1  0.67190000  0.76750000  0.16130000  1.0 0.1077032508
H  H1075  1  0.40940000  0.06900000  0.52580000  1.0 0.0599384644
H  H1076  1  0.43130000  0.03350000  0.57950000  1.0 0.0725611004
H  H1077  1  0.54990000  0.05370000  0.41230000  1.0 0.0599384644
H  H1078  1  0.48270000  0.08170000  0.42210000  1.0 0.0725611004
H  H1079  1  0.54100000  0.98800000  0.56320000  1.0 0.0599384644
H  H1080  1  0.58600000  0.99580000  0.49960000  1.0 0.0725611004
H  H1081  1  0.83510000  0.68010000  0.02050000  1.0 0.1077032508
H  H1082  1  0.43320000  0.34380000  0.58640000  1.0 0.0827574854
H  H1083  1  0.30190000  0.27570000  0.73170000  1.0 0.0043450012
H  H1084  1  0.25930000  0.41830000  0.58490000  1.0 0.1296100642
H  H1085  1  0.22980000  0.34800000  0.68220000  1.0 0.0599384644
H  H1086  1  0.61450000  0.23070000  0.50850000  1.0 0.0878778897
H  H1087  1  0.62760000  0.29180000  0.49560000  1.0 0.0980148923
H  H1088  1  0.66500000  0.22140000  0.53460000  1.0 0.0878778897
H  H1089  1  0.62670000  0.23430000  0.62830000  1.0 0.0980148923
H  H1090  1  0.60250000  0.30930000  0.58910000  1.0 0.1077032508
H  H1091  1  0.55320000  0.27680000  0.65240000  1.0 0.1296100642
H  H1092  1  0.49560000  0.26780000  0.62880000  1.0 0.0878778897
H  H1093  1  0.30310000  0.25630000  0.71830000  1.0 0.0163355538
H  H1094  1  0.37720000  0.24860000  0.68400000  1.0 0.0878778897
H  H1095  1  0.35310000  0.19570000  0.69570000  1.0 0.0599384644
H  H1096  1  0.34920000  0.22180000  0.79020000  1.0 0.0878778897
H  H1097  1  0.32520000  0.16880000  0.80200000  1.0 0.0725611004
H  H1098  1  0.39930000  0.16130000  0.76750000  1.0 0.1077032508
H  H1099  1  0.99580000  0.52580000  0.06900000  1.0 0.0599384644
H  H1100  1  0.95570000  0.57950000  0.03350000  1.0 0.0725611004
H  H1101  1  0.98410000  0.41230000  0.05370000  1.0 0.0599384644
H  H1102  1  0.01350000  0.42210000  0.08170000  1.0 0.0725611004
H  H1103  1  0.90780000  0.56320000  0.98800000  1.0 0.0599384644
H  H1104  1  0.91860000  0.49960000  0.99580000  1.0 0.0725611004
H  H1105  1  0.68010000  0.83510000  0.46430000  1.0 0.1077032508
H  H1106  1  0.34380000  0.43320000  0.63660000  1.0 0.0827574854
H  H1107  1  0.27570000  0.30190000  0.69070000  1.0 0.0043450012
H  H1108  1  0.41830000  0.25930000  0.73750000  1.0 0.1296100642
H  H1109  1  0.34800000  0.22980000  0.74000000  1.0 0.0599384644
H  H1110  1  0.23070000  0.61450000  0.64630000  1.0 0.0878778897
H  H1111  1  0.29180000  0.62760000  0.58500000  1.0 0.0980148923
H  H1112  1  0.22140000  0.66500000  0.57900000  1.0 0.0878778897
H  H1113  1  0.23430000  0.62670000  0.51070000  1.0 0.0980148923
H  H1114  1  0.30930000  0.60250000  0.49910000  1.0 0.1077032508
H  H1115  1  0.27680000  0.55320000  0.51760000  1.0 0.1296100642
H  H1116  1  0.26780000  0.49560000  0.60780000  1.0 0.0878778897
H  H1117  1  0.25630000  0.30310000  0.72230000  1.0 0.0163355538
H  H1118  1  0.24860000  0.37720000  0.69020000  1.0 0.0878778897
H  H1119  1  0.19570000  0.35310000  0.75550000  1.0 0.0599384644
H  H1120  1  0.22180000  0.34920000  0.63880000  1.0 0.0878778897
H  H1121  1  0.16880000  0.32520000  0.70400000  1.0 0.0725611004
H  H1122  1  0.16130000  0.39930000  0.67190000  1.0 0.1077032508
H  H1123  1  0.52580000  0.99580000  0.40940000  1.0 0.0599384644
H  H1124  1  0.57950000  0.95570000  0.43130000  1.0 0.0725611004
H  H1125  1  0.41230000  0.98410000  0.54990000  1.0 0.0599384644
H  H1126  1  0.42210000  0.01350000  0.48270000  1.0 0.0725611004
H  H1127  1  0.56320000  0.90780000  0.54100000  1.0 0.0599384644
H  H1128  1  0.49960000  0.91860000  0.58600000  1.0 0.0725611004
H  H1129  1  0.02050000  0.46430000  0.83510000  1.0 0.1077032508
H  H1130  1  0.58640000  0.63660000  0.43320000  1.0 0.0827574854
H  H1131  1  0.73170000  0.69070000  0.30190000  1.0 0.0043450012
H  H1132  1  0.58490000  0.73750000  0.25930000  1.0 0.1296100642
H  H1133  1  0.68220000  0.74000000  0.22980000  1.0 0.0599384644
H  H1134  1  0.50850000  0.64630000  0.61450000  1.0 0.0878778897
H  H1135  1  0.49560000  0.58500000  0.62760000  1.0 0.0980148923
H  H1136  1  0.53460000  0.57900000  0.66500000  1.0 0.0878778897
H  H1137  1  0.62830000  0.51070000  0.62670000  1.0 0.0980148923
H  H1138  1  0.58910000  0.49910000  0.60250000  1.0 0.1077032508
H  H1139  1  0.65240000  0.51760000  0.55320000  1.0 0.1296100642
H  H1140  1  0.62880000  0.60780000  0.49560000  1.0 0.0878778897
H  H1141  1  0.71830000  0.72230000  0.30310000  1.0 0.0163355538
H  H1142  1  0.68400000  0.69020000  0.37720000  1.0 0.0878778897
H  H1143  1  0.69570000  0.75550000  0.35310000  1.0 0.0599384644
H  H1144  1  0.79020000  0.63880000  0.34920000  1.0 0.0878778897
H  H1145  1  0.80200000  0.70400000  0.32520000  1.0 0.0725611004
H  H1146  1  0.76750000  0.67190000  0.39930000  1.0 0.1077032508
H  H1147  1  0.06900000  0.40940000  0.99580000  1.0 0.0599384644
H  H1148  1  0.03350000  0.43130000  0.95570000  1.0 0.0725611004
H  H1149  1  0.05370000  0.54990000  0.98410000  1.0 0.0599384644
H  H1150  1  0.08170000  0.48270000  0.01350000  1.0 0.0725611004
H  H1151  1  0.98800000  0.54100000  0.90780000  1.0 0.0599384644
H  H1152  1  0.99580000  0.58600000  0.91860000  1.0 0.0725611004
H  H1153  1  0.67360000  0.48640000  0.16640000  1.0 0.1296100642
H  H1154  1  0.78590000  0.45550000  0.97270000  1.0 0.1488069686
H  H1155  1  0.48640000  0.67360000  0.67360000  1.0 0.1296100642
H  H1156  1  0.45550000  0.78590000  0.78590000  1.0 0.1488069686
H  H1157  1  0.16640000  0.67360000  0.67360000  1.0 0.1296100642
H  H1158  1  0.97270000  0.78590000  0.78590000  1.0 0.1488069686
H  H1159  1  0.67360000  0.16640000  0.48640000  1.0 0.1296100642
H  H1160  1  0.78590000  0.97270000  0.45550000  1.0 0.1488069686
H  H1161  1  0.16640000  0.67360000  0.48640000  1.0 0.1352692743
H  H1162  1  0.97270000  0.78590000  0.45550000  1.0 0.1488069686
H  H1163  1  0.67360000  0.48640000  0.67360000  1.0 0.1296100642
H  H1164  1  0.78590000  0.45550000  0.78590000  1.0 0.1488069686
H  H1165  1  0.67360000  0.16640000  0.67360000  1.0 0.1296100642
H  H1166  1  0.78590000  0.97270000  0.78590000  1.0 0.1488069686
H  H1167  1  0.48640000  0.67360000  0.16640000  1.0 0.1352692743
H  H1168  1  0.45550000  0.78590000  0.97270000  1.0 0.1488069686
H  H1169  1  0.48640000  0.16640000  0.67360000  1.0 0.1296100642
H  H1170  1  0.45550000  0.97270000  0.78590000  1.0 0.1488069686
H  H1171  1  0.67360000  0.67360000  0.48640000  1.0 0.1352692743
H  H1172  1  0.78590000  0.78590000  0.45550000  1.0 0.1488069686
H  H1173  1  0.67360000  0.67360000  0.16640000  1.0 0.1352692743
H  H1174  1  0.78590000  0.78590000  0.97270000  1.0 0.1488069686
H  H1175  1  0.16640000  0.48640000  0.67360000  1.0 0.1296100642
H  H1176  1  0.97270000  0.45550000  0.78590000  1.0 0.1488069686
H  H1177  1  0.32640000  0.51360000  0.32640000  1.0 0.1296100642
H  H1178  1  0.21410000  0.54450000  0.21410000  1.0 0.1488069686
H  H1179  1  0.51360000  0.32640000  0.83360000  1.0 0.1296100642
H  H1180  1  0.54450000  0.21410000  0.02730000  1.0 0.1488069686
H  H1181  1  0.83360000  0.32640000  0.51360000  1.0 0.1296100642
H  H1182  1  0.02730000  0.21410000  0.54450000  1.0 0.1488069686
H  H1183  1  0.32640000  0.83360000  0.32640000  1.0 0.1296100642
H  H1184  1  0.21410000  0.02730000  0.21410000  1.0 0.1488069686
H  H1185  1  0.83360000  0.32640000  0.32640000  1.0 0.1296100642
H  H1186  1  0.02730000  0.21410000  0.21410000  1.0 0.1488069686
H  H1187  1  0.32640000  0.51360000  0.83360000  1.0 0.1352692743
H  H1188  1  0.21410000  0.54450000  0.02730000  1.0 0.1488069686
H  H1189  1  0.32640000  0.83360000  0.51360000  1.0 0.1296100642
H  H1190  1  0.21410000  0.02730000  0.54450000  1.0 0.1488069686
H  H1191  1  0.51360000  0.32640000  0.32640000  1.0 0.1296100642
H  H1192  1  0.54450000  0.21410000  0.21410000  1.0 0.1488069686
H  H1193  1  0.51360000  0.83360000  0.32640000  1.0 0.1296100642
H  H1194  1  0.54450000  0.02730000  0.21410000  1.0 0.1488069686
H  H1195  1  0.32640000  0.32640000  0.83360000  1.0 0.1296100642
H  H1196  1  0.21410000  0.21410000  0.02730000  1.0 0.1488069686
H  H1197  1  0.32640000  0.32640000  0.51360000  1.0 0.1296100642
H  H1198  1  0.21410000  0.21410000  0.54450000  1.0 0.1488069686
H  H1199  1  0.83360000  0.51360000  0.32640000  1.0 0.1352692743
H  H1200  1  0.02730000  0.54450000  0.21410000  1.0 0.1488069686
C  C1  1  0.98180000  0.44800000  0.03520000  1.0 -0.0324261616
C  C2  1  0.99680000  0.51080000  0.04600000  1.0 -0.0324261616
C  C3  1  0.94080000  0.54160000  0.99640000  1.0 -0.0324261616
C  C4  1  0.78600000  0.48100000  0.12400000  1.0 0.1077032508
C  C5  1  0.75800000  0.47620000  0.09660000  1.0 -0.2664561129
C  C6  1  0.79010000  0.46730000  0.04130000  1.0 -0.0088066686
C  C7  1  0.41610000  0.63070000  0.69230000  1.0 0.0082134411
C  C8  1  0.36610000  0.68550000  0.52010000  1.0 0.0338115845
C  C9  1  0.37210000  0.66070000  0.66210000  1.0 -0.0088066686
C  C10  1  0.34810000  0.68690000  0.57950000  1.0 -0.0356256356
C  C11  1  0.38870000  0.65930000  0.60730000  1.0 -0.0515010042
C  C12  1  0.29100000  0.71600000  0.60640000  1.0 0.052343555
C  C13  1  0.27430000  0.71730000  0.66130000  1.0 -0.0204402063
C  C14  1  0.62410000  0.59970000  0.52650000  1.0 -0.0729500683
C  C15  1  0.59090000  0.52450000  0.61450000  1.0 -0.0204402063
C  C16  1  0.52690000  0.62470000  0.58770000  1.0 -0.0324261616
C  C17  1  0.35560000  0.68020000  0.77180000  1.0 -0.2338552792
C  C18  1  0.44800000  0.98180000  0.53500000  1.0 -0.0324261616
C  C19  1  0.51080000  0.99680000  0.44640000  1.0 -0.0324261616
C  C20  1  0.54160000  0.94080000  0.52120000  1.0 -0.0324261616
C  C21  1  0.48100000  0.78600000  0.60900000  1.0 0.1077032508
C  C22  1  0.47620000  0.75800000  0.66920000  1.0 -0.2664561129
C  C23  1  0.46730000  0.79010000  0.70130000  1.0 -0.0088066686
C  C24  1  0.63070000  0.41610000  0.26090000  1.0 0.0082134411
C  C25  1  0.68550000  0.36610000  0.42830000  1.0 0.0338115845
C  C26  1  0.66070000  0.37210000  0.30510000  1.0 -0.0088066686
C  C27  1  0.68690000  0.34810000  0.38550000  1.0 -0.0356256356
C  C28  1  0.65930000  0.38870000  0.34470000  1.0 -0.0515010042
C  C29  1  0.71600000  0.29100000  0.38660000  1.0 0.052343555
C  C30  1  0.71730000  0.27430000  0.34710000  1.0 -0.0204402063
C  C31  1  0.59970000  0.62410000  0.24970000  1.0 -0.0729500683
C  C32  1  0.52450000  0.59090000  0.27010000  1.0 -0.0204402063
C  C33  1  0.62470000  0.52690000  0.26070000  1.0 -0.0324261616
C  C34  1  0.68020000  0.35560000  0.19240000  1.0 -0.2338552792
C  C35  1  0.03520000  0.53500000  0.98180000  1.0 -0.0324261616
C  C36  1  0.04600000  0.44640000  0.99680000  1.0 -0.0324261616
C  C37  1  0.99640000  0.52120000  0.94080000  1.0 -0.0324261616
C  C38  1  0.12400000  0.60900000  0.78600000  1.0 0.1077032508
C  C39  1  0.09660000  0.66920000  0.75800000  1.0 -0.2664561129
C  C40  1  0.04130000  0.70130000  0.79010000  1.0 -0.0088066686
C  C41  1  0.69230000  0.26090000  0.41610000  1.0 0.0082134411
C  C42  1  0.52010000  0.42830000  0.36610000  1.0 0.0338115845
C  C43  1  0.66210000  0.30510000  0.37210000  1.0 -0.0088066686
C  C44  1  0.57950000  0.38550000  0.34810000  1.0 -0.0356256356
C  C45  1  0.60730000  0.34470000  0.38870000  1.0 -0.0515010042
C  C46  1  0.60640000  0.38660000  0.29100000  1.0 0.052343555
C  C47  1  0.66130000  0.34710000  0.27430000  1.0 -0.0204402063
C  C48  1  0.52650000  0.24970000  0.62410000  1.0 -0.0729500683
C  C49  1  0.61450000  0.27010000  0.59090000  1.0 -0.0204402063
C  C50  1  0.58770000  0.26070000  0.52690000  1.0 -0.0324261616
C  C51  1  0.77180000  0.19240000  0.35560000  1.0 -0.2338552792
C  C52  1  0.53500000  0.03520000  0.44800000  1.0 -0.0324261616
C  C53  1  0.44640000  0.04600000  0.51080000  1.0 -0.0324261616
C  C54  1  0.52120000  0.99640000  0.54160000  1.0 -0.0356256356
C  C55  1  0.60900000  0.12400000  0.48100000  1.0 0.1077032508
C  C56  1  0.66920000  0.09660000  0.47620000  1.0 -0.2664561129
C  C57  1  0.70130000  0.04130000  0.46730000  1.0 -0.0088066686
C  C58  1  0.26090000  0.69230000  0.63070000  1.0 0.0082134411
C  C59  1  0.42830000  0.52010000  0.68550000  1.0 0.0338115845
C  C60  1  0.30510000  0.66210000  0.66070000  1.0 -0.0088066686
C  C61  1  0.38550000  0.57950000  0.68690000  1.0 -0.0356256356
C  C62  1  0.34470000  0.60730000  0.65930000  1.0 -0.0515010042
C  C63  1  0.38660000  0.60640000  0.71600000  1.0 0.052343555
C  C64  1  0.34710000  0.66130000  0.71730000  1.0 -0.0204402063
C  C65  1  0.24970000  0.52650000  0.59970000  1.0 -0.0729500683
C  C66  1  0.27010000  0.61450000  0.52450000  1.0 -0.0204402063
C  C67  1  0.26070000  0.58770000  0.62470000  1.0 -0.0324261616
C  C68  1  0.19240000  0.77180000  0.68020000  1.0 -0.2338552792
C  C69  1  0.03520000  0.98180000  0.44800000  1.0 -0.0324261616
C  C70  1  0.04600000  0.99680000  0.51080000  1.0 -0.0324261616
C  C71  1  0.99640000  0.94080000  0.54160000  1.0 -0.0324261616
C  C72  1  0.12400000  0.78600000  0.48100000  1.0 0.1077032508
C  C73  1  0.09660000  0.75800000  0.47620000  1.0 -0.2664561129
C  C74  1  0.04130000  0.79010000  0.46730000  1.0 -0.0088066686
C  C75  1  0.69230000  0.41610000  0.63070000  1.0 0.0082134411
C  C76  1  0.52010000  0.36610000  0.68550000  1.0 0.0338115845
C  C77  1  0.66210000  0.37210000  0.66070000  1.0 -0.0088066686
C  C78  1  0.57950000  0.34810000  0.68690000  1.0 -0.0356256356
C  C79  1  0.60730000  0.38870000  0.65930000  1.0 -0.0515010042
C  C80  1  0.60640000  0.29100000  0.71600000  1.0 0.052343555
C  C81  1  0.66130000  0.27430000  0.71730000  1.0 -0.0204402063
C  C82  1  0.52650000  0.62410000  0.59970000  1.0 -0.0729500683
C  C83  1  0.61450000  0.59090000  0.52450000  1.0 -0.0204402063
C  C84  1  0.58770000  0.52690000  0.62470000  1.0 -0.0324261616
C  C85  1  0.77180000  0.35560000  0.68020000  1.0 -0.2338552792
C  C86  1  0.53500000  0.44800000  0.98180000  1.0 -0.0324261616
C  C87  1  0.44640000  0.51080000  0.99680000  1.0 -0.0324261616
C  C88  1  0.52120000  0.54160000  0.94080000  1.0 -0.0356256356
C  C89  1  0.60900000  0.48100000  0.78600000  1.0 0.1077032508
C  C90  1  0.66920000  0.47620000  0.75800000  1.0 -0.2664561129
C  C91  1  0.70130000  0.46730000  0.79010000  1.0 -0.0088066686
C  C92  1  0.26090000  0.63070000  0.41610000  1.0 0.0082134411
C  C93  1  0.42830000  0.68550000  0.36610000  1.0 0.0338115845
C  C94  1  0.30510000  0.66070000  0.37210000  1.0 -0.0088066686
C  C95  1  0.38550000  0.68690000  0.34810000  1.0 -0.0356256356
C  C96  1  0.34470000  0.65930000  0.38870000  1.0 -0.0515010042
C  C97  1  0.38660000  0.71600000  0.29100000  1.0 0.052343555
C  C98  1  0.34710000  0.71730000  0.27430000  1.0 -0.0204402063
C  C99  1  0.24970000  0.59970000  0.62410000  1.0 -0.0729500683
C  C100  1  0.27010000  0.52450000  0.59090000  1.0 -0.0204402063
C  C101  1  0.26070000  0.62470000  0.52690000  1.0 -0.0324261616
C  C102  1  0.19240000  0.68020000  0.35560000  1.0 -0.2338552792
C  C103  1  0.98180000  0.03520000  0.53500000  1.0 -0.0324261616
C  C104  1  0.99680000  0.04600000  0.44640000  1.0 -0.0324261616
C  C105  1  0.94080000  0.99640000  0.52120000  1.0 -0.0324261616
C  C106  1  0.78600000  0.12400000  0.60900000  1.0 0.1077032508
C  C107  1  0.75800000  0.09660000  0.66920000  1.0 -0.2664561129
C  C108  1  0.79010000  0.04130000  0.70130000  1.0 -0.0088066686
C  C109  1  0.41610000  0.69230000  0.26090000  1.0 0.0082134411
C  C110  1  0.36610000  0.52010000  0.42830000  1.0 0.0338115845
C  C111  1  0.37210000  0.66210000  0.30510000  1.0 -0.0088066686
C  C112  1  0.34810000  0.57950000  0.38550000  1.0 -0.0356256356
C  C113  1  0.38870000  0.60730000  0.34470000  1.0 -0.0515010042
C  C114  1  0.29100000  0.60640000  0.38660000  1.0 0.052343555
C  C115  1  0.27430000  0.66130000  0.34710000  1.0 -0.0204402063
C  C116  1  0.62410000  0.52650000  0.24970000  1.0 -0.0729500683
C  C117  1  0.59090000  0.61450000  0.27010000  1.0 -0.0204402063
C  C118  1  0.52690000  0.58770000  0.26070000  1.0 -0.0324261616
C  C119  1  0.35560000  0.77180000  0.19240000  1.0 -0.2338552792
C  C120  1  0.44800000  0.53500000  0.03520000  1.0 -0.0324261616
C  C121  1  0.51080000  0.44640000  0.04600000  1.0 -0.0324261616
C  C122  1  0.54160000  0.52120000  0.99640000  1.0 -0.0356256356
C  C123  1  0.48100000  0.60900000  0.12400000  1.0 0.1077032508
C  C124  1  0.47620000  0.66920000  0.09660000  1.0 -0.2664561129
C  C125  1  0.46730000  0.70130000  0.04130000  1.0 -0.0088066686
C  C126  1  0.63070000  0.26090000  0.69230000  1.0 0.0082134411
C  C127  1  0.68550000  0.42830000  0.52010000  1.0 0.0338115845
C  C128  1  0.66070000  0.30510000  0.66210000  1.0 -0.0088066686
C  C129  1  0.68690000  0.38550000  0.57950000  1.0 -0.0356256356
C  C130  1  0.65930000  0.34470000  0.60730000  1.0 -0.0515010042
C  C131  1  0.71600000  0.38660000  0.60640000  1.0 0.052343555
C  C132  1  0.71730000  0.34710000  0.66130000  1.0 -0.0204402063
C  C133  1  0.59970000  0.24970000  0.52650000  1.0 -0.0729500683
C  C134  1  0.52450000  0.27010000  0.61450000  1.0 -0.0204402063
C  C135  1  0.62470000  0.26070000  0.58770000  1.0 -0.0324261616
C  C136  1  0.68020000  0.19240000  0.77180000  1.0 -0.2338552792
C  C137  1  0.44800000  0.03520000  0.98180000  1.0 -0.0324261616
C  C138  1  0.51080000  0.04600000  0.99680000  1.0 -0.0324261616
C  C139  1  0.54160000  0.99640000  0.94080000  1.0 -0.0356256356
C  C140  1  0.48100000  0.12400000  0.78600000  1.0 0.1077032508
C  C141  1  0.47620000  0.09660000  0.75800000  1.0 -0.2664561129
C  C142  1  0.46730000  0.04130000  0.79010000  1.0 -0.0088066686
C  C143  1  0.63070000  0.69230000  0.41610000  1.0 0.0082134411
C  C144  1  0.68550000  0.52010000  0.36610000  1.0 0.0338115845
C  C145  1  0.66070000  0.66210000  0.37210000  1.0 -0.0088066686
C  C146  1  0.68690000  0.57950000  0.34810000  1.0 -0.0356256356
C  C147  1  0.65930000  0.60730000  0.38870000  1.0 -0.0515010042
C  C148  1  0.71600000  0.60640000  0.29100000  1.0 0.052343555
C  C149  1  0.71730000  0.66130000  0.27430000  1.0 -0.0204402063
C  C150  1  0.59970000  0.52650000  0.62410000  1.0 -0.0729500683
C  C151  1  0.52450000  0.61450000  0.59090000  1.0 -0.0204402063
C  C152  1  0.62470000  0.58770000  0.52690000  1.0 -0.0324261616
C  C153  1  0.68020000  0.77180000  0.35560000  1.0 -0.2338552792
C  C154  1  0.98180000  0.53500000  0.44800000  1.0 -0.0324261616
C  C155  1  0.99680000  0.44640000  0.51080000  1.0 -0.0324261616
C  C156  1  0.94080000  0.52120000  0.54160000  1.0 -0.0324261616
C  C157  1  0.78600000  0.60900000  0.48100000  1.0 0.1077032508
C  C158  1  0.75800000  0.66920000  0.47620000  1.0 -0.2664561129
C  C159  1  0.79010000  0.70130000  0.46730000  1.0 -0.0088066686
C  C160  1  0.41610000  0.26090000  0.63070000  1.0 0.0082134411
C  C161  1  0.36610000  0.42830000  0.68550000  1.0 0.0338115845
C  C162  1  0.37210000  0.30510000  0.66070000  1.0 -0.0088066686
C  C163  1  0.34810000  0.38550000  0.68690000  1.0 -0.0356256356
C  C164  1  0.38870000  0.34470000  0.65930000  1.0 -0.0515010042
C  C165  1  0.29100000  0.38660000  0.71600000  1.0 0.052343555
C  C166  1  0.27430000  0.34710000  0.71730000  1.0 -0.0204402063
C  C167  1  0.62410000  0.24970000  0.59970000  1.0 -0.0729500683
C  C168  1  0.59090000  0.27010000  0.52450000  1.0 -0.0204402063
C  C169  1  0.52690000  0.26070000  0.62470000  1.0 -0.0324261616
C  C170  1  0.35560000  0.19240000  0.68020000  1.0 -0.2338552792
C  C171  1  0.53500000  0.98180000  0.03520000  1.0 -0.0324261616
C  C172  1  0.44640000  0.99680000  0.04600000  1.0 -0.0324261616
C  C173  1  0.52120000  0.94080000  0.99640000  1.0 -0.0356256356
C  C174  1  0.60900000  0.78600000  0.12400000  1.0 0.1077032508
C  C175  1  0.66920000  0.75800000  0.09660000  1.0 -0.2664561129
C  C176  1  0.70130000  0.79010000  0.04130000  1.0 -0.0088066686
C  C177  1  0.26090000  0.41610000  0.69230000  1.0 0.0082134411
C  C178  1  0.42830000  0.36610000  0.52010000  1.0 0.0338115845
C  C179  1  0.30510000  0.37210000  0.66210000  1.0 -0.0088066686
C  C180  1  0.38550000  0.34810000  0.57950000  1.0 -0.0356256356
C  C181  1  0.34470000  0.38870000  0.60730000  1.0 -0.0515010042
C  C182  1  0.38660000  0.29100000  0.60640000  1.0 0.052343555
C  C183  1  0.34710000  0.27430000  0.66130000  1.0 -0.0204402063
C  C184  1  0.24970000  0.62410000  0.52650000  1.0 -0.0729500683
C  C185  1  0.27010000  0.59090000  0.61450000  1.0 -0.0204402063
C  C186  1  0.26070000  0.52690000  0.58770000  1.0 -0.0324261616
C  C187  1  0.19240000  0.35560000  0.77180000  1.0 -0.2338552792
C  C188  1  0.03520000  0.44800000  0.53500000  1.0 -0.0324261616
C  C189  1  0.04600000  0.51080000  0.44640000  1.0 -0.0324261616
C  C190  1  0.99640000  0.54160000  0.52120000  1.0 -0.0324261616
C  C191  1  0.12400000  0.48100000  0.60900000  1.0 0.1077032508
C  C192  1  0.09660000  0.47620000  0.66920000  1.0 -0.2664561129
C  C193  1  0.04130000  0.46730000  0.70130000  1.0 -0.0088066686
C  C194  1  0.69230000  0.63070000  0.26090000  1.0 0.0082134411
C  C195  1  0.52010000  0.68550000  0.42830000  1.0 0.0338115845
C  C196  1  0.66210000  0.66070000  0.30510000  1.0 -0.0088066686
C  C197  1  0.57950000  0.68690000  0.38550000  1.0 -0.0356256356
C  C198  1  0.60730000  0.65930000  0.34470000  1.0 -0.0515010042
C  C199  1  0.60640000  0.71600000  0.38660000  1.0 0.052343555
C  C200  1  0.66130000  0.71730000  0.34710000  1.0 -0.0204402063
C  C201  1  0.52650000  0.59970000  0.24970000  1.0 -0.0729500683
C  C202  1  0.61450000  0.52450000  0.27010000  1.0 -0.0204402063
C  C203  1  0.58770000  0.62470000  0.26070000  1.0 -0.0324261616
C  C204  1  0.77180000  0.68020000  0.19240000  1.0 -0.2338552792
C  C205  1  0.01820000  0.55200000  0.46500000  1.0 -0.0324261616
C  C206  1  0.00320000  0.48920000  0.55360000  1.0 -0.0324261616
C  C207  1  0.05920000  0.45840000  0.47880000  1.0 -0.0356256356
C  C208  1  0.21400000  0.51900000  0.39100000  1.0 0.1077032508
C  C209  1  0.24200000  0.52380000  0.33080000  1.0 -0.2664561129
C  C210  1  0.20990000  0.53270000  0.29870000  1.0 -0.0088066686
C  C211  1  0.58390000  0.36930000  0.73910000  1.0 0.0082134411
C  C212  1  0.63390000  0.31450000  0.57170000  1.0 0.0338115845
C  C213  1  0.62790000  0.33930000  0.69490000  1.0 -0.0088066686
C  C214  1  0.65190000  0.31310000  0.61450000  1.0 -0.0356256356
C  C215  1  0.61130000  0.34070000  0.65530000  1.0 -0.0515010042
C  C216  1  0.70900000  0.28400000  0.61340000  1.0 0.052343555
C  C217  1  0.72570000  0.28270000  0.65290000  1.0 -0.0204402063
C  C218  1  0.37590000  0.40030000  0.75030000  1.0 -0.0729500683
C  C219  1  0.40910000  0.47550000  0.72990000  1.0 -0.0204402063
C  C220  1  0.47310000  0.37530000  0.73930000  1.0 -0.0324261616
C  C221  1  0.64440000  0.31980000  0.80760000  1.0 -0.2338552792
C  C222  1  0.55200000  0.01820000  0.96480000  1.0 -0.0324261616
C  C223  1  0.48920000  0.00320000  0.95400000  1.0 -0.0324261616
C  C224  1  0.45840000  0.05920000  0.00360000  1.0 -0.0324261616
C  C225  1  0.51900000  0.21400000  0.87600000  1.0 0.1077032508
C  C226  1  0.52380000  0.24200000  0.90340000  1.0 -0.2664561129
C  C227  1  0.53270000  0.20990000  0.95870000  1.0 -0.0088066686
C  C228  1  0.36930000  0.58390000  0.30770000  1.0 0.0082134411
C  C229  1  0.31450000  0.63390000  0.47990000  1.0 0.0338115845
C  C230  1  0.33930000  0.62790000  0.33790000  1.0 -0.0088066686
C  C231  1  0.31310000  0.65190000  0.42050000  1.0 -0.0356256356
C  C232  1  0.34070000  0.61130000  0.39270000  1.0 -0.0515010042
C  C233  1  0.28400000  0.70900000  0.39360000  1.0 0.052343555
C  C234  1  0.28270000  0.72570000  0.33870000  1.0 -0.0204402063
C  C235  1  0.40030000  0.37590000  0.47350000  1.0 -0.0729500683
C  C236  1  0.47550000  0.40910000  0.38550000  1.0 -0.0204402063
C  C237  1  0.37530000  0.47310000  0.41230000  1.0 -0.0324261616
C  C238  1  0.31980000  0.64440000  0.22820000  1.0 -0.2338552792
C  C239  1  0.96480000  0.46500000  0.55200000  1.0 -0.0324261616
C  C240  1  0.95400000  0.55360000  0.48920000  1.0 -0.0324261616
C  C241  1  0.00360000  0.47880000  0.45840000  1.0 -0.0356256356
C  C242  1  0.87600000  0.39100000  0.51900000  1.0 0.1077032508
C  C243  1  0.90340000  0.33080000  0.52380000  1.0 -0.2664561129
C  C244  1  0.95870000  0.29870000  0.53270000  1.0 -0.0088066686
C  C245  1  0.30770000  0.73910000  0.36930000  1.0 0.0082134411
C  C246  1  0.47990000  0.57170000  0.31450000  1.0 0.0338115845
C  C247  1  0.33790000  0.69490000  0.33930000  1.0 -0.0088066686
C  C248  1  0.42050000  0.61450000  0.31310000  1.0 -0.0356256356
C  C249  1  0.39270000  0.65530000  0.34070000  1.0 -0.0515010042
C  C250  1  0.39360000  0.61340000  0.28400000  1.0 0.052343555
C  C251  1  0.33870000  0.65290000  0.28270000  1.0 -0.0204402063
C  C252  1  0.47350000  0.75030000  0.40030000  1.0 -0.0729500683
C  C253  1  0.38550000  0.72990000  0.47550000  1.0 -0.0204402063
C  C254  1  0.41230000  0.73930000  0.37530000  1.0 -0.0324261616
C  C255  1  0.22820000  0.80760000  0.31980000  1.0 -0.2338552792
C  C256  1  0.46500000  0.96480000  0.01820000  1.0 -0.0324261616
C  C257  1  0.55360000  0.95400000  0.00320000  1.0 -0.0324261616
C  C258  1  0.47880000  0.00360000  0.05920000  1.0 -0.0324261616
C  C259  1  0.39100000  0.87600000  0.21400000  1.0 0.1077032508
C  C260  1  0.33080000  0.90340000  0.24200000  1.0 -0.2664561129
C  C261  1  0.29870000  0.95870000  0.20990000  1.0 -0.0088066686
C  C262  1  0.73910000  0.30770000  0.58390000  1.0 0.0082134411
C  C263  1  0.57170000  0.47990000  0.63390000  1.0 0.0338115845
C  C264  1  0.69490000  0.33790000  0.62790000  1.0 -0.0088066686
C  C265  1  0.61450000  0.42050000  0.65190000  1.0 -0.0356256356
C  C266  1  0.65530000  0.39270000  0.61130000  1.0 -0.0515010042
C  C267  1  0.61340000  0.39360000  0.70900000  1.0 0.052343555
C  C268  1  0.65290000  0.33870000  0.72570000  1.0 -0.0204402063
C  C269  1  0.75030000  0.47350000  0.37590000  1.0 -0.0729500683
C  C270  1  0.72990000  0.38550000  0.40910000  1.0 -0.0204402063
C  C271  1  0.73930000  0.41230000  0.47310000  1.0 -0.0324261616
C  C272  1  0.80760000  0.22820000  0.64440000  1.0 -0.2338552792
C  C273  1  0.96480000  0.01820000  0.46500000  1.0 -0.0324261616
C  C274  1  0.95400000  0.00320000  0.55360000  1.0 -0.0324261616
C  C275  1  0.00360000  0.05920000  0.47880000  1.0 -0.0356256356
C  C276  1  0.87600000  0.21400000  0.39100000  1.0 0.1077032508
C  C277  1  0.90340000  0.24200000  0.33080000  1.0 -0.2664561129
C  C278  1  0.95870000  0.20990000  0.29870000  1.0 -0.0088066686
C  C279  1  0.30770000  0.58390000  0.73910000  1.0 0.0082134411
C  C280  1  0.47990000  0.63390000  0.57170000  1.0 0.0338115845
C  C281  1  0.33790000  0.62790000  0.69490000  1.0 -0.0088066686
C  C282  1  0.42050000  0.65190000  0.61450000  1.0 -0.0356256356
C  C283  1  0.39270000  0.61130000  0.65530000  1.0 -0.0515010042
C  C284  1  0.39360000  0.70900000  0.61340000  1.0 0.052343555
C  C285  1  0.33870000  0.72570000  0.65290000  1.0 -0.0204402063
C  C286  1  0.47350000  0.37590000  0.75030000  1.0 -0.0729500683
C  C287  1  0.38550000  0.40910000  0.72990000  1.0 -0.0204402063
C  C288  1  0.41230000  0.47310000  0.73930000  1.0 -0.0324261616
C  C289  1  0.22820000  0.64440000  0.80760000  1.0 -0.2338552792
C  C290  1  0.46500000  0.55200000  0.96480000  1.0 -0.0324261616
C  C291  1  0.55360000  0.48920000  0.95400000  1.0 -0.0324261616
C  C292  1  0.47880000  0.45840000  0.00360000  1.0 -0.0324261616
C  C293  1  0.39100000  0.51900000  0.87600000  1.0 0.1077032508
C  C294  1  0.33080000  0.52380000  0.90340000  1.0 -0.2664561129
C  C295  1  0.29870000  0.53270000  0.95870000  1.0 -0.0088066686
C  C296  1  0.73910000  0.36930000  0.30770000  1.0 0.0082134411
C  C297  1  0.57170000  0.31450000  0.47990000  1.0 0.0338115845
C  C298  1  0.69490000  0.33930000  0.33790000  1.0 -0.0088066686
C  C299  1  0.61450000  0.31310000  0.42050000  1.0 -0.0356256356
C  C300  1  0.65530000  0.34070000  0.39270000  1.0 -0.0515010042
C  C301  1  0.61340000  0.28400000  0.39360000  1.0 0.052343555
C  C302  1  0.65290000  0.28270000  0.33870000  1.0 -0.0204402063
C  C303  1  0.75030000  0.40030000  0.47350000  1.0 -0.0729500683
C  C304  1  0.72990000  0.47550000  0.38550000  1.0 -0.0204402063
C  C305  1  0.73930000  0.37530000  0.41230000  1.0 -0.0324261616
C  C306  1  0.80760000  0.31980000  0.22820000  1.0 -0.2338552792
C  C307  1  0.01820000  0.96480000  0.55200000  1.0 -0.0324261616
C  C308  1  0.00320000  0.95400000  0.48920000  1.0 -0.0324261616
C  C309  1  0.05920000  0.00360000  0.45840000  1.0 -0.0356256356
C  C310  1  0.21400000  0.87600000  0.51900000  1.0 0.1077032508
C  C311  1  0.24200000  0.90340000  0.52380000  1.0 -0.2664561129
C  C312  1  0.20990000  0.95870000  0.53270000  1.0 -0.0088066686
C  C313  1  0.58390000  0.30770000  0.36930000  1.0 0.0082134411
C  C314  1  0.63390000  0.47990000  0.31450000  1.0 0.0338115845
C  C315  1  0.62790000  0.33790000  0.33930000  1.0 -0.0088066686
C  C316  1  0.65190000  0.42050000  0.31310000  1.0 -0.0356256356
C  C317  1  0.61130000  0.39270000  0.34070000  1.0 -0.0515010042
C  C318  1  0.70900000  0.39360000  0.28400000  1.0 0.052343555
C  C319  1  0.72570000  0.33870000  0.28270000  1.0 -0.0204402063
C  C320  1  0.37590000  0.47350000  0.40030000  1.0 -0.0729500683
C  C321  1  0.40910000  0.38550000  0.47550000  1.0 -0.0204402063
C  C322  1  0.47310000  0.41230000  0.37530000  1.0 -0.0324261616
C  C323  1  0.64440000  0.22820000  0.31980000  1.0 -0.2338552792
C  C324  1  0.55200000  0.46500000  0.01820000  1.0 -0.0324261616
C  C325  1  0.48920000  0.55360000  0.00320000  1.0 -0.0324261616
C  C326  1  0.45840000  0.47880000  0.05920000  1.0 -0.0356256356
C  C327  1  0.51900000  0.39100000  0.21400000  1.0 0.1077032508
C  C328  1  0.52380000  0.33080000  0.24200000  1.0 -0.2664561129
C  C329  1  0.53270000  0.29870000  0.20990000  1.0 -0.0088066686
C  C330  1  0.36930000  0.73910000  0.58390000  1.0 0.0082134411
C  C331  1  0.31450000  0.57170000  0.63390000  1.0 0.0338115845
C  C332  1  0.33930000  0.69490000  0.62790000  1.0 -0.0088066686
C  C333  1  0.31310000  0.61450000  0.65190000  1.0 -0.0356256356
C  C334  1  0.34070000  0.65530000  0.61130000  1.0 -0.0515010042
C  C335  1  0.28400000  0.61340000  0.70900000  1.0 0.052343555
C  C336  1  0.28270000  0.65290000  0.72570000  1.0 -0.0204402063
C  C337  1  0.40030000  0.75030000  0.37590000  1.0 -0.0729500683
C  C338  1  0.47550000  0.72990000  0.40910000  1.0 -0.0204402063
C  C339  1  0.37530000  0.73930000  0.47310000  1.0 -0.0324261616
C  C340  1  0.31980000  0.80760000  0.64440000  1.0 -0.2338552792
C  C341  1  0.55200000  0.96480000  0.46500000  1.0 -0.0324261616
C  C342  1  0.48920000  0.95400000  0.55360000  1.0 -0.0324261616
C  C343  1  0.45840000  0.00360000  0.47880000  1.0 -0.0324261616
C  C344  1  0.51900000  0.87600000  0.39100000  1.0 0.1077032508
C  C345  1  0.52380000  0.90340000  0.33080000  1.0 -0.2664561129
C  C346  1  0.53270000  0.95870000  0.29870000  1.0 -0.0088066686
C  C347  1  0.36930000  0.30770000  0.73910000  1.0 0.0082134411
C  C348  1  0.31450000  0.47990000  0.57170000  1.0 0.0338115845
C  C349  1  0.33930000  0.33790000  0.69490000  1.0 -0.0088066686
C  C350  1  0.31310000  0.42050000  0.61450000  1.0 -0.0356256356
C  C351  1  0.34070000  0.39270000  0.65530000  1.0 -0.0515010042
C  C352  1  0.28400000  0.39360000  0.61340000  1.0 0.052343555
C  C353  1  0.28270000  0.33870000  0.65290000  1.0 -0.0204402063
C  C354  1  0.40030000  0.47350000  0.75030000  1.0 -0.0729500683
C  C355  1  0.47550000  0.38550000  0.72990000  1.0 -0.0204402063
C  C356  1  0.37530000  0.41230000  0.73930000  1.0 -0.0324261616
C  C357  1  0.31980000  0.22820000  0.80760000  1.0 -0.2338552792
C  C358  1  0.01820000  0.46500000  0.96480000  1.0 -0.0324261616
C  C359  1  0.00320000  0.55360000  0.95400000  1.0 -0.0324261616
C  C360  1  0.05920000  0.47880000  0.00360000  1.0 -0.0356256356
C  C361  1  0.21400000  0.39100000  0.87600000  1.0 0.1077032508
C  C362  1  0.24200000  0.33080000  0.90340000  1.0 -0.2664561129
C  C363  1  0.20990000  0.29870000  0.95870000  1.0 -0.0088066686
C  C364  1  0.58390000  0.73910000  0.30770000  1.0 0.0082134411
C  C365  1  0.63390000  0.57170000  0.47990000  1.0 0.0338115845
C  C366  1  0.62790000  0.69490000  0.33790000  1.0 -0.0088066686
C  C367  1  0.65190000  0.61450000  0.42050000  1.0 -0.0356256356
C  C368  1  0.61130000  0.65530000  0.39270000  1.0 -0.0515010042
C  C369  1  0.70900000  0.61340000  0.39360000  1.0 0.052343555
C  C370  1  0.72570000  0.65290000  0.33870000  1.0 -0.0204402063
C  C371  1  0.37590000  0.75030000  0.47350000  1.0 -0.0729500683
C  C372  1  0.40910000  0.72990000  0.38550000  1.0 -0.0204402063
C  C373  1  0.47310000  0.73930000  0.41230000  1.0 -0.0324261616
C  C374  1  0.64440000  0.80760000  0.22820000  1.0 -0.2338552792
C  C375  1  0.46500000  0.01820000  0.55200000  1.0 -0.0324261616
C  C376  1  0.55360000  0.00320000  0.48920000  1.0 -0.0324261616
C  C377  1  0.47880000  0.05920000  0.45840000  1.0 -0.0356256356
C  C378  1  0.39100000  0.21400000  0.51900000  1.0 0.1077032508
C  C379  1  0.33080000  0.24200000  0.52380000  1.0 -0.2664561129
C  C380  1  0.29870000  0.20990000  0.53270000  1.0 -0.0088066686
C  C381  1  0.73910000  0.58390000  0.36930000  1.0 0.0082134411
C  C382  1  0.57170000  0.63390000  0.31450000  1.0 0.0338115845
C  C383  1  0.69490000  0.62790000  0.33930000  1.0 -0.0088066686
C  C384  1  0.61450000  0.65190000  0.31310000  1.0 -0.0356256356
C  C385  1  0.65530000  0.61130000  0.34070000  1.0 -0.0515010042
C  C386  1  0.61340000  0.70900000  0.28400000  1.0 0.052343555
C  C387  1  0.65290000  0.72570000  0.28270000  1.0 -0.0204402063
C  C388  1  0.75030000  0.37590000  0.40030000  1.0 -0.0729500683
C  C389  1  0.72990000  0.40910000  0.47550000  1.0 -0.0204402063
C  C390  1  0.73930000  0.47310000  0.37530000  1.0 -0.0324261616
C  C391  1  0.80760000  0.64440000  0.31980000  1.0 -0.2338552792
C  C392  1  0.96480000  0.55200000  0.01820000  1.0 -0.0324261616
C  C393  1  0.95400000  0.48920000  0.00320000  1.0 -0.0324261616
C  C394  1  0.00360000  0.45840000  0.05920000  1.0 -0.0356256356
C  C395  1  0.87600000  0.51900000  0.21400000  1.0 0.1077032508
C  C396  1  0.90340000  0.52380000  0.24200000  1.0 -0.2664561129
C  C397  1  0.95870000  0.53270000  0.20990000  1.0 -0.0088066686
C  C398  1  0.30770000  0.36930000  0.58390000  1.0 0.0082134411
C  C399  1  0.47990000  0.31450000  0.63390000  1.0 0.0338115845
C  C400  1  0.33790000  0.33930000  0.62790000  1.0 -0.0088066686
C  C401  1  0.42050000  0.31310000  0.65190000  1.0 -0.0356256356
C  C402  1  0.39270000  0.34070000  0.61130000  1.0 -0.0515010042
C  C403  1  0.39360000  0.28400000  0.70900000  1.0 0.052343555
C  C404  1  0.33870000  0.28270000  0.72570000  1.0 -0.0204402063
C  C405  1  0.47350000  0.40030000  0.37590000  1.0 -0.0729500683
C  C406  1  0.38550000  0.47550000  0.40910000  1.0 -0.0204402063
C  C407  1  0.41230000  0.37530000  0.47310000  1.0 -0.0324261616
C  C408  1  0.22820000  0.31980000  0.64440000  1.0 -0.2338552792
C  C409  1  0.01820000  0.55200000  0.96480000  1.0 -0.0324261616
C  C410  1  0.00320000  0.48920000  0.95400000  1.0 -0.0324261616
C  C411  1  0.05920000  0.45840000  0.00360000  1.0 -0.0324261616
C  C412  1  0.21400000  0.51900000  0.87600000  1.0 0.1077032508
C  C413  1  0.24200000  0.52380000  0.90340000  1.0 -0.2664561129
C  C414  1  0.20990000  0.53270000  0.95870000  1.0 -0.0088066686
C  C415  1  0.58390000  0.36930000  0.30770000  1.0 0.0082134411
C  C416  1  0.63390000  0.31450000  0.47990000  1.0 0.0338115845
C  C417  1  0.62790000  0.33930000  0.33790000  1.0 -0.0088066686
C  C418  1  0.65190000  0.31310000  0.42050000  1.0 -0.0356256356
C  C419  1  0.61130000  0.34070000  0.39270000  1.0 -0.0515010042
C  C420  1  0.70900000  0.28400000  0.39360000  1.0 0.052343555
C  C421  1  0.72570000  0.28270000  0.33870000  1.0 -0.0204402063
C  C422  1  0.37590000  0.40030000  0.47350000  1.0 -0.0729500683
C  C423  1  0.40910000  0.47550000  0.38550000  1.0 -0.0204402063
C  C424  1  0.47310000  0.37530000  0.41230000  1.0 -0.0324261616
C  C425  1  0.64440000  0.31980000  0.22820000  1.0 -0.2338552792
C  C426  1  0.55200000  0.01820000  0.46500000  1.0 -0.0324261616
C  C427  1  0.48920000  0.00320000  0.55360000  1.0 -0.0324261616
C  C428  1  0.45840000  0.05920000  0.47880000  1.0 -0.0356256356
C  C429  1  0.51900000  0.21400000  0.39100000  1.0 0.1077032508
C  C430  1  0.52380000  0.24200000  0.33080000  1.0 -0.2664561129
C  C431  1  0.53270000  0.20990000  0.29870000  1.0 -0.0088066686
C  C432  1  0.36930000  0.58390000  0.73910000  1.0 0.0082134411
C  C433  1  0.31450000  0.63390000  0.57170000  1.0 0.0338115845
C  C434  1  0.33930000  0.62790000  0.69490000  1.0 -0.0088066686
C  C435  1  0.31310000  0.65190000  0.61450000  1.0 -0.0356256356
C  C436  1  0.34070000  0.61130000  0.65530000  1.0 -0.0515010042
C  C437  1  0.28400000  0.70900000  0.61340000  1.0 0.052343555
C  C438  1  0.28270000  0.72570000  0.65290000  1.0 -0.0204402063
C  C439  1  0.40030000  0.37590000  0.75030000  1.0 -0.0729500683
C  C440  1  0.47550000  0.40910000  0.72990000  1.0 -0.0204402063
C  C441  1  0.37530000  0.47310000  0.73930000  1.0 -0.0324261616
C  C442  1  0.31980000  0.64440000  0.80760000  1.0 -0.2338552792
C  C443  1  0.96480000  0.46500000  0.01820000  1.0 -0.0324261616
C  C444  1  0.95400000  0.55360000  0.00320000  1.0 -0.0324261616
C  C445  1  0.00360000  0.47880000  0.05920000  1.0 -0.0356256356
C  C446  1  0.87600000  0.39100000  0.21400000  1.0 0.1077032508
C  C447  1  0.90340000  0.33080000  0.24200000  1.0 -0.2664561129
C  C448  1  0.95870000  0.29870000  0.20990000  1.0 -0.0088066686
C  C449  1  0.30770000  0.73910000  0.58390000  1.0 0.0082134411
C  C450  1  0.47990000  0.57170000  0.63390000  1.0 0.0338115845
C  C451  1  0.33790000  0.69490000  0.62790000  1.0 -0.0088066686
C  C452  1  0.42050000  0.61450000  0.65190000  1.0 -0.0356256356
C  C453  1  0.39270000  0.65530000  0.61130000  1.0 -0.0515010042
C  C454  1  0.39360000  0.61340000  0.70900000  1.0 0.052343555
C  C455  1  0.33870000  0.65290000  0.72570000  1.0 -0.0204402063
C  C456  1  0.47350000  0.75030000  0.37590000  1.0 -0.0729500683
C  C457  1  0.38550000  0.72990000  0.40910000  1.0 -0.0204402063
C  C458  1  0.41230000  0.73930000  0.47310000  1.0 -0.0324261616
C  C459  1  0.22820000  0.80760000  0.64440000  1.0 -0.2338552792
C  C460  1  0.46500000  0.96480000  0.55200000  1.0 -0.0324261616
C  C461  1  0.55360000  0.95400000  0.48920000  1.0 -0.0324261616
C  C462  1  0.47880000  0.00360000  0.45840000  1.0 -0.0324261616
C  C463  1  0.39100000  0.87600000  0.51900000  1.0 0.1077032508
C  C464  1  0.33080000  0.90340000  0.52380000  1.0 -0.2664561129
C  C465  1  0.29870000  0.95870000  0.53270000  1.0 -0.0088066686
C  C466  1  0.73910000  0.30770000  0.36930000  1.0 0.0082134411
C  C467  1  0.57170000  0.47990000  0.31450000  1.0 0.0338115845
C  C468  1  0.69490000  0.33790000  0.33930000  1.0 -0.0088066686
C  C469  1  0.61450000  0.42050000  0.31310000  1.0 -0.0356256356
C  C470  1  0.65530000  0.39270000  0.34070000  1.0 -0.0515010042
C  C471  1  0.61340000  0.39360000  0.28400000  1.0 0.052343555
C  C472  1  0.65290000  0.33870000  0.28270000  1.0 -0.0204402063
C  C473  1  0.75030000  0.47350000  0.40030000  1.0 -0.0729500683
C  C474  1  0.72990000  0.38550000  0.47550000  1.0 -0.0204402063
C  C475  1  0.73930000  0.41230000  0.37530000  1.0 -0.0324261616
C  C476  1  0.80760000  0.22820000  0.31980000  1.0 -0.2338552792
C  C477  1  0.96480000  0.01820000  0.55200000  1.0 -0.0324261616
C  C478  1  0.95400000  0.00320000  0.48920000  1.0 -0.0324261616
C  C479  1  0.00360000  0.05920000  0.45840000  1.0 -0.0356256356
C  C480  1  0.87600000  0.21400000  0.51900000  1.0 0.1077032508
C  C481  1  0.90340000  0.24200000  0.52380000  1.0 -0.2664561129
C  C482  1  0.95870000  0.20990000  0.53270000  1.0 -0.0088066686
C  C483  1  0.30770000  0.58390000  0.36930000  1.0 0.0082134411
C  C484  1  0.47990000  0.63390000  0.31450000  1.0 0.0338115845
C  C485  1  0.33790000  0.62790000  0.33930000  1.0 -0.0088066686
C  C486  1  0.42050000  0.65190000  0.31310000  1.0 -0.0356256356
C  C487  1  0.39270000  0.61130000  0.34070000  1.0 -0.0515010042
C  C488  1  0.39360000  0.70900000  0.28400000  1.0 0.052343555
C  C489  1  0.33870000  0.72570000  0.28270000  1.0 -0.0204402063
C  C490  1  0.47350000  0.37590000  0.40030000  1.0 -0.0729500683
C  C491  1  0.38550000  0.40910000  0.47550000  1.0 -0.0204402063
C  C492  1  0.41230000  0.47310000  0.37530000  1.0 -0.0324261616
C  C493  1  0.22820000  0.64440000  0.31980000  1.0 -0.2338552792
C  C494  1  0.46500000  0.55200000  0.01820000  1.0 -0.0324261616
C  C495  1  0.55360000  0.48920000  0.00320000  1.0 -0.0324261616
C  C496  1  0.47880000  0.45840000  0.05920000  1.0 -0.0324261616
C  C497  1  0.39100000  0.51900000  0.21400000  1.0 0.1077032508
C  C498  1  0.33080000  0.52380000  0.24200000  1.0 -0.2664561129
C  C499  1  0.29870000  0.53270000  0.20990000  1.0 -0.0088066686
C  C500  1  0.73910000  0.36930000  0.58390000  1.0 0.0082134411
C  C501  1  0.57170000  0.31450000  0.63390000  1.0 0.0338115845
C  C502  1  0.69490000  0.33930000  0.62790000  1.0 -0.0088066686
C  C503  1  0.61450000  0.31310000  0.65190000  1.0 -0.0356256356
C  C504  1  0.65530000  0.34070000  0.61130000  1.0 -0.0515010042
C  C505  1  0.61340000  0.28400000  0.70900000  1.0 0.052343555
C  C506  1  0.65290000  0.28270000  0.72570000  1.0 -0.0204402063
C  C507  1  0.75030000  0.40030000  0.37590000  1.0 -0.0729500683
C  C508  1  0.72990000  0.47550000  0.40910000  1.0 -0.0204402063
C  C509  1  0.73930000  0.37530000  0.47310000  1.0 -0.0324261616
C  C510  1  0.80760000  0.31980000  0.64440000  1.0 -0.2338552792
C  C511  1  0.01820000  0.96480000  0.46500000  1.0 -0.0324261616
C  C512  1  0.00320000  0.95400000  0.55360000  1.0 -0.0324261616
C  C513  1  0.05920000  0.00360000  0.47880000  1.0 -0.0356256356
C  C514  1  0.21400000  0.87600000  0.39100000  1.0 0.1077032508
C  C515  1  0.24200000  0.90340000  0.33080000  1.0 -0.2664561129
C  C516  1  0.20990000  0.95870000  0.29870000  1.0 -0.0088066686
C  C517  1  0.58390000  0.30770000  0.73910000  1.0 0.0082134411
C  C518  1  0.63390000  0.47990000  0.57170000  1.0 0.0338115845
C  C519  1  0.62790000  0.33790000  0.69490000  1.0 -0.0088066686
C  C520  1  0.65190000  0.42050000  0.61450000  1.0 -0.0356256356
C  C521  1  0.61130000  0.39270000  0.65530000  1.0 -0.0515010042
C  C522  1  0.70900000  0.39360000  0.61340000  1.0 0.052343555
C  C523  1  0.72570000  0.33870000  0.65290000  1.0 -0.0204402063
C  C524  1  0.37590000  0.47350000  0.75030000  1.0 -0.0729500683
C  C525  1  0.40910000  0.38550000  0.72990000  1.0 -0.0204402063
C  C526  1  0.47310000  0.41230000  0.73930000  1.0 -0.0324261616
C  C527  1  0.64440000  0.22820000  0.80760000  1.0 -0.2338552792
C  C528  1  0.55200000  0.46500000  0.96480000  1.0 -0.0324261616
C  C529  1  0.48920000  0.55360000  0.95400000  1.0 -0.0324261616
C  C530  1  0.45840000  0.47880000  0.00360000  1.0 -0.0324261616
C  C531  1  0.51900000  0.39100000  0.87600000  1.0 0.1077032508
C  C532  1  0.52380000  0.33080000  0.90340000  1.0 -0.2664561129
C  C533  1  0.53270000  0.29870000  0.95870000  1.0 -0.0088066686
C  C534  1  0.36930000  0.73910000  0.30770000  1.0 0.0082134411
C  C535  1  0.31450000  0.57170000  0.47990000  1.0 0.0338115845
C  C536  1  0.33930000  0.69490000  0.33790000  1.0 -0.0088066686
C  C537  1  0.31310000  0.61450000  0.42050000  1.0 -0.0356256356
C  C538  1  0.34070000  0.65530000  0.39270000  1.0 -0.0515010042
C  C539  1  0.28400000  0.61340000  0.39360000  1.0 0.052343555
C  C540  1  0.28270000  0.65290000  0.33870000  1.0 -0.0204402063
C  C541  1  0.40030000  0.75030000  0.47350000  1.0 -0.0729500683
C  C542  1  0.47550000  0.72990000  0.38550000  1.0 -0.0204402063
C  C543  1  0.37530000  0.73930000  0.41230000  1.0 -0.0324261616
C  C544  1  0.31980000  0.80760000  0.22820000  1.0 -0.2338552792
C  C545  1  0.55200000  0.96480000  0.01820000  1.0 -0.0324261616
C  C546  1  0.48920000  0.95400000  0.00320000  1.0 -0.0324261616
C  C547  1  0.45840000  0.00360000  0.05920000  1.0 -0.0324261616
C  C548  1  0.51900000  0.87600000  0.21400000  1.0 0.1077032508
C  C549  1  0.52380000  0.90340000  0.24200000  1.0 -0.2664561129
C  C550  1  0.53270000  0.95870000  0.20990000  1.0 -0.0088066686
C  C551  1  0.36930000  0.30770000  0.58390000  1.0 0.0082134411
C  C552  1  0.31450000  0.47990000  0.63390000  1.0 0.0338115845
C  C553  1  0.33930000  0.33790000  0.62790000  1.0 -0.0088066686
C  C554  1  0.31310000  0.42050000  0.65190000  1.0 -0.0356256356
C  C555  1  0.34070000  0.39270000  0.61130000  1.0 -0.0515010042
C  C556  1  0.28400000  0.39360000  0.70900000  1.0 0.052343555
C  C557  1  0.28270000  0.33870000  0.72570000  1.0 -0.0204402063
C  C558  1  0.40030000  0.47350000  0.37590000  1.0 -0.0729500683
C  C559  1  0.47550000  0.38550000  0.40910000  1.0 -0.0204402063
C  C560  1  0.37530000  0.41230000  0.47310000  1.0 -0.0324261616
C  C561  1  0.31980000  0.22820000  0.64440000  1.0 -0.2338552792
C  C562  1  0.01820000  0.46500000  0.55200000  1.0 -0.0324261616
C  C563  1  0.00320000  0.55360000  0.48920000  1.0 -0.0324261616
C  C564  1  0.05920000  0.47880000  0.45840000  1.0 -0.0356256356
C  C565  1  0.21400000  0.39100000  0.51900000  1.0 0.1077032508
C  C566  1  0.24200000  0.33080000  0.52380000  1.0 -0.2664561129
C  C567  1  0.20990000  0.29870000  0.53270000  1.0 -0.0088066686
C  C568  1  0.58390000  0.73910000  0.36930000  1.0 0.0082134411
C  C569  1  0.63390000  0.57170000  0.31450000  1.0 0.0338115845
C  C570  1  0.62790000  0.69490000  0.33930000  1.0 -0.0088066686
C  C571  1  0.65190000  0.61450000  0.31310000  1.0 -0.0356256356
C  C572  1  0.61130000  0.65530000  0.34070000  1.0 -0.0515010042
C  C573  1  0.70900000  0.61340000  0.28400000  1.0 0.052343555
C  C574  1  0.72570000  0.65290000  0.28270000  1.0 -0.0204402063
C  C575  1  0.37590000  0.75030000  0.40030000  1.0 -0.0729500683
C  C576  1  0.40910000  0.72990000  0.47550000  1.0 -0.0204402063
C  C577  1  0.47310000  0.73930000  0.37530000  1.0 -0.0324261616
C  C578  1  0.64440000  0.80760000  0.31980000  1.0 -0.2338552792
C  C579  1  0.46500000  0.01820000  0.96480000  1.0 -0.0324261616
C  C580  1  0.55360000  0.00320000  0.95400000  1.0 -0.0324261616
C  C581  1  0.47880000  0.05920000  0.00360000  1.0 -0.0324261616
C  C582  1  0.39100000  0.21400000  0.87600000  1.0 0.1077032508
C  C583  1  0.33080000  0.24200000  0.90340000  1.0 -0.2664561129
C  C584  1  0.29870000  0.20990000  0.95870000  1.0 -0.0088066686
C  C585  1  0.73910000  0.58390000  0.30770000  1.0 0.0082134411
C  C586  1  0.57170000  0.63390000  0.47990000  1.0 0.0338115845
C  C587  1  0.69490000  0.62790000  0.33790000  1.0 -0.0088066686
C  C588  1  0.61450000  0.65190000  0.42050000  1.0 -0.0356256356
C  C589  1  0.65530000  0.61130000  0.39270000  1.0 -0.0515010042
C  C590  1  0.61340000  0.70900000  0.39360000  1.0 0.052343555
C  C591  1  0.65290000  0.72570000  0.33870000  1.0 -0.0204402063
C  C592  1  0.75030000  0.37590000  0.47350000  1.0 -0.0729500683
C  C593  1  0.72990000  0.40910000  0.38550000  1.0 -0.0204402063
C  C594  1  0.73930000  0.47310000  0.41230000  1.0 -0.0324261616
C  C595  1  0.80760000  0.64440000  0.22820000  1.0 -0.2338552792
C  C596  1  0.96480000  0.55200000  0.46500000  1.0 -0.0324261616
C  C597  1  0.95400000  0.48920000  0.55360000  1.0 -0.0324261616
C  C598  1  0.00360000  0.45840000  0.47880000  1.0 -0.0356256356
C  C599  1  0.87600000  0.51900000  0.39100000  1.0 0.1077032508
C  C600  1  0.90340000  0.52380000  0.33080000  1.0 -0.2664561129
C  C601  1  0.95870000  0.53270000  0.29870000  1.0 -0.0088066686
C  C602  1  0.30770000  0.36930000  0.73910000  1.0 0.0082134411
C  C603  1  0.47990000  0.31450000  0.57170000  1.0 0.0338115845
C  C604  1  0.33790000  0.33930000  0.69490000  1.0 -0.0088066686
C  C605  1  0.42050000  0.31310000  0.61450000  1.0 -0.0356256356
C  C606  1  0.39270000  0.34070000  0.65530000  1.0 -0.0515010042
C  C607  1  0.39360000  0.28400000  0.61340000  1.0 0.052343555
C  C608  1  0.33870000  0.28270000  0.65290000  1.0 -0.0204402063
C  C609  1  0.47350000  0.40030000  0.75030000  1.0 -0.0729500683
C  C610  1  0.38550000  0.47550000  0.72990000  1.0 -0.0204402063
C  C611  1  0.41230000  0.37530000  0.73930000  1.0 -0.0324261616
C  C612  1  0.22820000  0.31980000  0.80760000  1.0 -0.2338552792
C  C613  1  0.98180000  0.44800000  0.53500000  1.0 -0.0324261616
C  C614  1  0.99680000  0.51080000  0.44640000  1.0 -0.0324261616
C  C615  1  0.94080000  0.54160000  0.52120000  1.0 -0.0324261616
C  C616  1  0.78600000  0.48100000  0.60900000  1.0 0.1077032508
C  C617  1  0.75800000  0.47620000  0.66920000  1.0 -0.2664561129
C  C618  1  0.79010000  0.46730000  0.70130000  1.0 -0.0088066686
C  C619  1  0.41610000  0.63070000  0.26090000  1.0 0.0082134411
C  C620  1  0.36610000  0.68550000  0.42830000  1.0 0.0338115845
C  C621  1  0.37210000  0.66070000  0.30510000  1.0 -0.0088066686
C  C622  1  0.34810000  0.68690000  0.38550000  1.0 -0.0356256356
C  C623  1  0.38870000  0.65930000  0.34470000  1.0 -0.0515010042
C  C624  1  0.29100000  0.71600000  0.38660000  1.0 0.052343555
C  C625  1  0.27430000  0.71730000  0.34710000  1.0 -0.0204402063
C  C626  1  0.62410000  0.59970000  0.24970000  1.0 -0.0729500683
C  C627  1  0.59090000  0.52450000  0.27010000  1.0 -0.0204402063
C  C628  1  0.52690000  0.62470000  0.26070000  1.0 -0.0324261616
C  C629  1  0.35560000  0.68020000  0.19240000  1.0 -0.2338552792
C  C630  1  0.44800000  0.98180000  0.03520000  1.0 -0.0324261616
C  C631  1  0.51080000  0.99680000  0.04600000  1.0 -0.0324261616
C  C632  1  0.54160000  0.94080000  0.99640000  1.0 -0.0356256356
C  C633  1  0.48100000  0.78600000  0.12400000  1.0 0.1077032508
C  C634  1  0.47620000  0.75800000  0.09660000  1.0 -0.2664561129
C  C635  1  0.46730000  0.79010000  0.04130000  1.0 -0.0088066686
C  C636  1  0.63070000  0.41610000  0.69230000  1.0 0.0082134411
C  C637  1  0.68550000  0.36610000  0.52010000  1.0 0.0338115845
C  C638  1  0.66070000  0.37210000  0.66210000  1.0 -0.0088066686
C  C639  1  0.68690000  0.34810000  0.57950000  1.0 -0.0356256356
C  C640  1  0.65930000  0.38870000  0.60730000  1.0 -0.0515010042
C  C641  1  0.71600000  0.29100000  0.60640000  1.0 0.052343555
C  C642  1  0.71730000  0.27430000  0.66130000  1.0 -0.0204402063
C  C643  1  0.59970000  0.62410000  0.52650000  1.0 -0.0729500683
C  C644  1  0.52450000  0.59090000  0.61450000  1.0 -0.0204402063
C  C645  1  0.62470000  0.52690000  0.58770000  1.0 -0.0324261616
C  C646  1  0.68020000  0.35560000  0.77180000  1.0 -0.2338552792
C  C647  1  0.03520000  0.53500000  0.44800000  1.0 -0.0324261616
C  C648  1  0.04600000  0.44640000  0.51080000  1.0 -0.0324261616
C  C649  1  0.99640000  0.52120000  0.54160000  1.0 -0.0324261616
C  C650  1  0.12400000  0.60900000  0.48100000  1.0 0.1077032508
C  C651  1  0.09660000  0.66920000  0.47620000  1.0 -0.2664561129
C  C652  1  0.04130000  0.70130000  0.46730000  1.0 -0.0088066686
C  C653  1  0.69230000  0.26090000  0.63070000  1.0 0.0082134411
C  C654  1  0.52010000  0.42830000  0.68550000  1.0 0.0338115845
C  C655  1  0.66210000  0.30510000  0.66070000  1.0 -0.0088066686
C  C656  1  0.57950000  0.38550000  0.68690000  1.0 -0.0356256356
C  C657  1  0.60730000  0.34470000  0.65930000  1.0 -0.0515010042
C  C658  1  0.60640000  0.38660000  0.71600000  1.0 0.052343555
C  C659  1  0.66130000  0.34710000  0.71730000  1.0 -0.0204402063
C  C660  1  0.52650000  0.24970000  0.59970000  1.0 -0.0729500683
C  C661  1  0.61450000  0.27010000  0.52450000  1.0 -0.0204402063
C  C662  1  0.58770000  0.26070000  0.62470000  1.0 -0.0324261616
C  C663  1  0.77180000  0.19240000  0.68020000  1.0 -0.2338552792
C  C664  1  0.53500000  0.03520000  0.98180000  1.0 -0.0324261616
C  C665  1  0.44640000  0.04600000  0.99680000  1.0 -0.0324261616
C  C666  1  0.52120000  0.99640000  0.94080000  1.0 -0.0356256356
C  C667  1  0.60900000  0.12400000  0.78600000  1.0 0.1077032508
C  C668  1  0.66920000  0.09660000  0.75800000  1.0 -0.2664561129
C  C669  1  0.70130000  0.04130000  0.79010000  1.0 -0.0088066686
C  C670  1  0.26090000  0.69230000  0.41610000  1.0 0.0082134411
C  C671  1  0.42830000  0.52010000  0.36610000  1.0 0.0338115845
C  C672  1  0.30510000  0.66210000  0.37210000  1.0 -0.0088066686
C  C673  1  0.38550000  0.57950000  0.34810000  1.0 -0.0356256356
C  C674  1  0.34470000  0.60730000  0.38870000  1.0 -0.0515010042
C  C675  1  0.38660000  0.60640000  0.29100000  1.0 0.052343555
C  C676  1  0.34710000  0.66130000  0.27430000  1.0 -0.0204402063
C  C677  1  0.24970000  0.52650000  0.62410000  1.0 -0.0729500683
C  C678  1  0.27010000  0.61450000  0.59090000  1.0 -0.0204402063
C  C679  1  0.26070000  0.58770000  0.52690000  1.0 -0.0324261616
C  C680  1  0.19240000  0.77180000  0.35560000  1.0 -0.2338552792
C  C681  1  0.03520000  0.98180000  0.53500000  1.0 -0.0324261616
C  C682  1  0.04600000  0.99680000  0.44640000  1.0 -0.0324261616
C  C683  1  0.99640000  0.94080000  0.52120000  1.0 -0.0324261616
C  C684  1  0.12400000  0.78600000  0.60900000  1.0 0.1077032508
C  C685  1  0.09660000  0.75800000  0.66920000  1.0 -0.2664561129
C  C686  1  0.04130000  0.79010000  0.70130000  1.0 -0.0088066686
C  C687  1  0.69230000  0.41610000  0.26090000  1.0 0.0082134411
C  C688  1  0.52010000  0.36610000  0.42830000  1.0 0.0338115845
C  C689  1  0.66210000  0.37210000  0.30510000  1.0 -0.0088066686
C  C690  1  0.57950000  0.34810000  0.38550000  1.0 -0.0356256356
C  C691  1  0.60730000  0.38870000  0.34470000  1.0 -0.0515010042
C  C692  1  0.60640000  0.29100000  0.38660000  1.0 0.052343555
C  C693  1  0.66130000  0.27430000  0.34710000  1.0 -0.0204402063
C  C694  1  0.52650000  0.62410000  0.24970000  1.0 -0.0729500683
C  C695  1  0.61450000  0.59090000  0.27010000  1.0 -0.0204402063
C  C696  1  0.58770000  0.52690000  0.26070000  1.0 -0.0324261616
C  C697  1  0.77180000  0.35560000  0.19240000  1.0 -0.2338552792
C  C698  1  0.53500000  0.44800000  0.03520000  1.0 -0.0324261616
C  C699  1  0.44640000  0.51080000  0.04600000  1.0 -0.0324261616
C  C700  1  0.52120000  0.54160000  0.99640000  1.0 -0.0356256356
C  C701  1  0.60900000  0.48100000  0.12400000  1.0 0.1077032508
C  C702  1  0.66920000  0.47620000  0.09660000  1.0 -0.2664561129
C  C703  1  0.70130000  0.46730000  0.04130000  1.0 -0.0088066686
C  C704  1  0.26090000  0.63070000  0.69230000  1.0 0.0082134411
C  C705  1  0.42830000  0.68550000  0.52010000  1.0 0.0338115845
C  C706  1  0.30510000  0.66070000  0.66210000  1.0 -0.0088066686
C  C707  1  0.38550000  0.68690000  0.57950000  1.0 -0.0356256356
C  C708  1  0.34470000  0.65930000  0.60730000  1.0 -0.0515010042
C  C709  1  0.38660000  0.71600000  0.60640000  1.0 0.052343555
C  C710  1  0.34710000  0.71730000  0.66130000  1.0 -0.0204402063
C  C711  1  0.24970000  0.59970000  0.52650000  1.0 -0.0729500683
C  C712  1  0.27010000  0.52450000  0.61450000  1.0 -0.0204402063
C  C713  1  0.26070000  0.62470000  0.58770000  1.0 -0.0324261616
C  C714  1  0.19240000  0.68020000  0.77180000  1.0 -0.2338552792
C  C715  1  0.98180000  0.03520000  0.44800000  1.0 -0.0324261616
C  C716  1  0.99680000  0.04600000  0.51080000  1.0 -0.0324261616
C  C717  1  0.94080000  0.99640000  0.54160000  1.0 -0.0324261616
C  C718  1  0.78600000  0.12400000  0.48100000  1.0 0.1077032508
C  C719  1  0.75800000  0.09660000  0.47620000  1.0 -0.2664561129
C  C720  1  0.79010000  0.04130000  0.46730000  1.0 -0.0088066686
C  C721  1  0.41610000  0.69230000  0.63070000  1.0 0.0082134411
C  C722  1  0.36610000  0.52010000  0.68550000  1.0 0.0338115845
C  C723  1  0.37210000  0.66210000  0.66070000  1.0 -0.0088066686
C  C724  1  0.34810000  0.57950000  0.68690000  1.0 -0.0356256356
C  C725  1  0.38870000  0.60730000  0.65930000  1.0 -0.0515010042
C  C726  1  0.29100000  0.60640000  0.71600000  1.0 0.052343555
C  C727  1  0.27430000  0.66130000  0.71730000  1.0 -0.0204402063
C  C728  1  0.62410000  0.52650000  0.59970000  1.0 -0.0729500683
C  C729  1  0.59090000  0.61450000  0.52450000  1.0 -0.0204402063
C  C730  1  0.52690000  0.58770000  0.62470000  1.0 -0.0324261616
C  C731  1  0.35560000  0.77180000  0.68020000  1.0 -0.2338552792
C  C732  1  0.44800000  0.53500000  0.98180000  1.0 -0.0324261616
C  C733  1  0.51080000  0.44640000  0.99680000  1.0 -0.0324261616
C  C734  1  0.54160000  0.52120000  0.94080000  1.0 -0.0356256356
C  C735  1  0.48100000  0.60900000  0.78600000  1.0 0.1077032508
C  C736  1  0.47620000  0.66920000  0.75800000  1.0 -0.2664561129
C  C737  1  0.46730000  0.70130000  0.79010000  1.0 -0.0088066686
C  C738  1  0.63070000  0.26090000  0.41610000  1.0 0.0082134411
C  C739  1  0.68550000  0.42830000  0.36610000  1.0 0.0338115845
C  C740  1  0.66070000  0.30510000  0.37210000  1.0 -0.0088066686
C  C741  1  0.68690000  0.38550000  0.34810000  1.0 -0.0356256356
C  C742  1  0.65930000  0.34470000  0.38870000  1.0 -0.0515010042
C  C743  1  0.71600000  0.38660000  0.29100000  1.0 0.052343555
C  C744  1  0.71730000  0.34710000  0.27430000  1.0 -0.0204402063
C  C745  1  0.59970000  0.24970000  0.62410000  1.0 -0.0729500683
C  C746  1  0.52450000  0.27010000  0.59090000  1.0 -0.0204402063
C  C747  1  0.62470000  0.26070000  0.52690000  1.0 -0.0324261616
C  C748  1  0.68020000  0.19240000  0.35560000  1.0 -0.2338552792
C  C749  1  0.44800000  0.03520000  0.53500000  1.0 -0.0324261616
C  C750  1  0.51080000  0.04600000  0.44640000  1.0 -0.0324261616
C  C751  1  0.54160000  0.99640000  0.52120000  1.0 -0.0324261616
C  C752  1  0.48100000  0.12400000  0.60900000  1.0 0.1077032508
C  C753  1  0.47620000  0.09660000  0.66920000  1.0 -0.2664561129
C  C754  1  0.46730000  0.04130000  0.70130000  1.0 -0.0088066686
C  C755  1  0.63070000  0.69230000  0.26090000  1.0 0.0082134411
C  C756  1  0.68550000  0.52010000  0.42830000  1.0 0.0338115845
C  C757  1  0.66070000  0.66210000  0.30510000  1.0 -0.0088066686
C  C758  1  0.68690000  0.57950000  0.38550000  1.0 -0.0356256356
C  C759  1  0.65930000  0.60730000  0.34470000  1.0 -0.0515010042
C  C760  1  0.71600000  0.60640000  0.38660000  1.0 0.052343555
C  C761  1  0.71730000  0.66130000  0.34710000  1.0 -0.0204402063
C  C762  1  0.59970000  0.52650000  0.24970000  1.0 -0.0729500683
C  C763  1  0.52450000  0.61450000  0.27010000  1.0 -0.0204402063
C  C764  1  0.62470000  0.58770000  0.26070000  1.0 -0.0324261616
C  C765  1  0.68020000  0.77180000  0.19240000  1.0 -0.2338552792
C  C766  1  0.98180000  0.53500000  0.03520000  1.0 -0.0324261616
C  C767  1  0.99680000  0.44640000  0.04600000  1.0 -0.0324261616
C  C768  1  0.94080000  0.52120000  0.99640000  1.0 -0.0324261616
C  C769  1  0.78600000  0.60900000  0.12400000  1.0 0.1077032508
C  C770  1  0.75800000  0.66920000  0.09660000  1.0 -0.2664561129
C  C771  1  0.79010000  0.70130000  0.04130000  1.0 -0.0088066686
C  C772  1  0.41610000  0.26090000  0.69230000  1.0 0.0082134411
C  C773  1  0.36610000  0.42830000  0.52010000  1.0 0.0338115845
C  C774  1  0.37210000  0.30510000  0.66210000  1.0 -0.0088066686
C  C775  1  0.34810000  0.38550000  0.57950000  1.0 -0.0356256356
C  C776  1  0.38870000  0.34470000  0.60730000  1.0 -0.0515010042
C  C777  1  0.29100000  0.38660000  0.60640000  1.0 0.052343555
C  C778  1  0.27430000  0.34710000  0.66130000  1.0 -0.0204402063
C  C779  1  0.62410000  0.24970000  0.52650000  1.0 -0.0729500683
C  C780  1  0.59090000  0.27010000  0.61450000  1.0 -0.0204402063
C  C781  1  0.52690000  0.26070000  0.58770000  1.0 -0.0324261616
C  C782  1  0.35560000  0.19240000  0.77180000  1.0 -0.2338552792
C  C783  1  0.53500000  0.98180000  0.44800000  1.0 -0.0324261616
C  C784  1  0.44640000  0.99680000  0.51080000  1.0 -0.0324261616
C  C785  1  0.52120000  0.94080000  0.54160000  1.0 -0.0324261616
C  C786  1  0.60900000  0.78600000  0.48100000  1.0 0.1077032508
C  C787  1  0.66920000  0.75800000  0.47620000  1.0 -0.2664561129
C  C788  1  0.70130000  0.79010000  0.46730000  1.0 -0.0088066686
C  C789  1  0.26090000  0.41610000  0.63070000  1.0 0.0082134411
C  C790  1  0.42830000  0.36610000  0.68550000  1.0 0.0338115845
C  C791  1  0.30510000  0.37210000  0.66070000  1.0 -0.0088066686
C  C792  1  0.38550000  0.34810000  0.68690000  1.0 -0.0356256356
C  C793  1  0.34470000  0.38870000  0.65930000  1.0 -0.0515010042
C  C794  1  0.38660000  0.29100000  0.71600000  1.0 0.052343555
C  C795  1  0.34710000  0.27430000  0.71730000  1.0 -0.0204402063
C  C796  1  0.24970000  0.62410000  0.59970000  1.0 -0.0729500683
C  C797  1  0.27010000  0.59090000  0.52450000  1.0 -0.0204402063
C  C798  1  0.26070000  0.52690000  0.62470000  1.0 -0.0324261616
C  C799  1  0.19240000  0.35560000  0.68020000  1.0 -0.2338552792
C  C800  1  0.03520000  0.44800000  0.98180000  1.0 -0.0324261616
C  C801  1  0.04600000  0.51080000  0.99680000  1.0 -0.0324261616
C  C802  1  0.99640000  0.54160000  0.94080000  1.0 -0.0324261616
C  C803  1  0.12400000  0.48100000  0.78600000  1.0 0.1077032508
C  C804  1  0.09660000  0.47620000  0.75800000  1.0 -0.2664561129
C  C805  1  0.04130000  0.46730000  0.79010000  1.0 -0.0088066686
C  C806  1  0.69230000  0.63070000  0.41610000  1.0 0.0082134411
C  C807  1  0.52010000  0.68550000  0.36610000  1.0 0.0338115845
C  C808  1  0.66210000  0.66070000  0.37210000  1.0 -0.0088066686
C  C809  1  0.57950000  0.68690000  0.34810000  1.0 -0.0356256356
C  C810  1  0.60730000  0.65930000  0.38870000  1.0 -0.0515010042
C  C811  1  0.60640000  0.71600000  0.29100000  1.0 0.052343555
C  C812  1  0.66130000  0.71730000  0.27430000  1.0 -0.0204402063
C  C813  1  0.52650000  0.59970000  0.62410000  1.0 -0.0729500683
C  C814  1  0.61450000  0.52450000  0.59090000  1.0 -0.0204402063
C  C815  1  0.58770000  0.62470000  0.52690000  1.0 -0.0324261616
C  C816  1  0.77180000  0.68020000  0.35560000  1.0 -0.2338552792
C  C817  1  0.69770000  0.47970000  0.12490000  1.0 -0.3490037211
C  C818  1  0.76180000  0.46220000  0.01420000  1.0 -0.0324261616
C  C819  1  0.47970000  0.69770000  0.69770000  1.0 -0.3490037211
C  C820  1  0.46220000  0.76180000  0.76180000  1.0 -0.0324261616
C  C821  1  0.12490000  0.69770000  0.69770000  1.0 -0.3490037211
C  C822  1  0.01420000  0.76180000  0.76180000  1.0 -0.0324261616
C  C823  1  0.69770000  0.12490000  0.47970000  1.0 -0.3490037211
C  C824  1  0.76180000  0.01420000  0.46220000  1.0 -0.0324261616
C  C825  1  0.12490000  0.69770000  0.47970000  1.0 -0.3490037211
C  C826  1  0.01420000  0.76180000  0.46220000  1.0 -0.0324261616
C  C827  1  0.69770000  0.47970000  0.69770000  1.0 -0.3490037211
C  C828  1  0.76180000  0.46220000  0.76180000  1.0 -0.0324261616
C  C829  1  0.69770000  0.12490000  0.69770000  1.0 -0.3490037211
C  C830  1  0.76180000  0.01420000  0.76180000  1.0 -0.0324261616
C  C831  1  0.47970000  0.69770000  0.12490000  1.0 -0.3490037211
C  C832  1  0.46220000  0.76180000  0.01420000  1.0 -0.0324261616
C  C833  1  0.47970000  0.12490000  0.69770000  1.0 -0.3490037211
C  C834  1  0.46220000  0.01420000  0.76180000  1.0 -0.0324261616
C  C835  1  0.69770000  0.69770000  0.47970000  1.0 -0.3490037211
C  C836  1  0.76180000  0.76180000  0.46220000  1.0 -0.0324261616
C  C837  1  0.69770000  0.69770000  0.12490000  1.0 -0.3490037211
C  C838  1  0.76180000  0.76180000  0.01420000  1.0 -0.0324261616
C  C839  1  0.12490000  0.47970000  0.69770000  1.0 -0.3490037211
C  C840  1  0.01420000  0.46220000  0.76180000  1.0 -0.0324261616
C  C841  1  0.30230000  0.52030000  0.30230000  1.0 -0.3490037211
C  C842  1  0.23820000  0.53780000  0.23820000  1.0 -0.0324261616
C  C843  1  0.52030000  0.30230000  0.87510000  1.0 -0.3490037211
C  C844  1  0.53780000  0.23820000  0.98580000  1.0 -0.0324261616
C  C845  1  0.87510000  0.30230000  0.52030000  1.0 -0.3490037211
C  C846  1  0.98580000  0.23820000  0.53780000  1.0 -0.0324261616
C  C847  1  0.30230000  0.87510000  0.30230000  1.0 -0.3490037211
C  C848  1  0.23820000  0.98580000  0.23820000  1.0 -0.0324261616
C  C849  1  0.87510000  0.30230000  0.30230000  1.0 -0.3490037211
C  C850  1  0.98580000  0.23820000  0.23820000  1.0 -0.0324261616
C  C851  1  0.30230000  0.52030000  0.87510000  1.0 -0.3490037211
C  C852  1  0.23820000  0.53780000  0.98580000  1.0 -0.0324261616
C  C853  1  0.30230000  0.87510000  0.52030000  1.0 -0.3490037211
C  C854  1  0.23820000  0.98580000  0.53780000  1.0 -0.0324261616
C  C855  1  0.52030000  0.30230000  0.30230000  1.0 -0.3490037211
C  C856  1  0.53780000  0.23820000  0.23820000  1.0 -0.0324261616
C  C857  1  0.52030000  0.87510000  0.30230000  1.0 -0.3490037211
C  C858  1  0.53780000  0.98580000  0.23820000  1.0 -0.0324261616
C  C859  1  0.30230000  0.30230000  0.87510000  1.0 -0.3490037211
C  C860  1  0.23820000  0.23820000  0.98580000  1.0 -0.0324261616
C  C861  1  0.30230000  0.30230000  0.52030000  1.0 -0.3490037211
C  C862  1  0.23820000  0.23820000  0.53780000  1.0 -0.0324261616
C  C863  1  0.87510000  0.52030000  0.30230000  1.0 -0.3490037211
C  C864  1  0.98580000  0.53780000  0.23820000  1.0 -0.0324261616
C  C865  1  0.31480000  0.68940000  0.68940000  1.0 -0.0324261616
C  C866  1  0.34680000  0.71400000  0.71400000  1.0 -0.1109476564
C  C867  1  0.68940000  0.31480000  0.30640000  1.0 -0.0324261616
C  C868  1  0.71400000  0.34680000  0.22520000  1.0 -0.1109476564
C  C869  1  0.68940000  0.30640000  0.31480000  1.0 -0.0324261616
C  C870  1  0.71400000  0.22520000  0.34680000  1.0 -0.1109476564
C  C871  1  0.30640000  0.68940000  0.68940000  1.0 -0.0324261616
C  C872  1  0.22520000  0.71400000  0.71400000  1.0 -0.1109476564
C  C873  1  0.68940000  0.31480000  0.68940000  1.0 -0.0324261616
C  C874  1  0.71400000  0.34680000  0.71400000  1.0 -0.1109476564
C  C875  1  0.30640000  0.68940000  0.31480000  1.0 -0.0324261616
C  C876  1  0.22520000  0.71400000  0.34680000  1.0 -0.1109476564
C  C877  1  0.31480000  0.68940000  0.30640000  1.0 -0.0324261616
C  C878  1  0.34680000  0.71400000  0.22520000  1.0 -0.1109476564
C  C879  1  0.68940000  0.30640000  0.68940000  1.0 -0.0324261616
C  C880  1  0.71400000  0.22520000  0.71400000  1.0 -0.1109476564
C  C881  1  0.68940000  0.68940000  0.31480000  1.0 -0.0324261616
C  C882  1  0.71400000  0.71400000  0.34680000  1.0 -0.1109476564
C  C883  1  0.31480000  0.30640000  0.68940000  1.0 -0.0324261616
C  C884  1  0.34680000  0.22520000  0.71400000  1.0 -0.1109476564
C  C885  1  0.30640000  0.31480000  0.68940000  1.0 -0.0324261616
C  C886  1  0.22520000  0.34680000  0.71400000  1.0 -0.1109476564
C  C887  1  0.68940000  0.68940000  0.30640000  1.0 -0.0324261616
C  C888  1  0.71400000  0.71400000  0.22520000  1.0 -0.1109476564
C  C889  1  0.68520000  0.31060000  0.69360000  1.0 -0.0324261616
C  C890  1  0.65320000  0.28600000  0.77480000  1.0 -0.1109476564
C  C891  1  0.31060000  0.68520000  0.31060000  1.0 -0.0324261616
C  C892  1  0.28600000  0.65320000  0.28600000  1.0 -0.1109476564
C  C893  1  0.31060000  0.69360000  0.31060000  1.0 -0.0324261616
C  C894  1  0.28600000  0.77480000  0.28600000  1.0 -0.1109476564
C  C895  1  0.69360000  0.31060000  0.68520000  1.0 -0.0324261616
C  C896  1  0.77480000  0.28600000  0.65320000  1.0 -0.1109476564
C  C897  1  0.31060000  0.68520000  0.69360000  1.0 -0.0324261616
C  C898  1  0.28600000  0.65320000  0.77480000  1.0 -0.1109476564
C  C899  1  0.69360000  0.31060000  0.31060000  1.0 -0.0324261616
C  C900  1  0.77480000  0.28600000  0.28600000  1.0 -0.1109476564
C  C901  1  0.68520000  0.31060000  0.31060000  1.0 -0.0324261616
C  C902  1  0.65320000  0.28600000  0.28600000  1.0 -0.1109476564
C  C903  1  0.31060000  0.69360000  0.68520000  1.0 -0.0324261616
C  C904  1  0.28600000  0.77480000  0.65320000  1.0 -0.1109476564
C  C905  1  0.31060000  0.31060000  0.69360000  1.0 -0.0324261616
C  C906  1  0.28600000  0.28600000  0.77480000  1.0 -0.1109476564
C  C907  1  0.68520000  0.69360000  0.31060000  1.0 -0.0324261616
C  C908  1  0.65320000  0.77480000  0.28600000  1.0 -0.1109476564
C  C909  1  0.69360000  0.68520000  0.31060000  1.0 -0.0324261616
C  C910  1  0.77480000  0.65320000  0.28600000  1.0 -0.1109476564
C  C911  1  0.31060000  0.31060000  0.68520000  1.0 -0.0324261616
C  C912  1  0.28600000  0.28600000  0.65320000  1.0 -0.1109476564
N  N1  1  0.95360000  0.50000000  0.04640000  1.0 -0.1260209022
N  N2  1  0.50000000  0.95360000  0.50000000  1.0 -0.1260209022
N  N3  1  0.04640000  0.50000000  0.95360000  1.0 -0.1260209022
N  N4  1  0.50000000  0.04640000  0.50000000  1.0 -0.1260209022
N  N5  1  0.04640000  0.95360000  0.50000000  1.0 -0.1260209022
N  N6  1  0.50000000  0.50000000  0.95360000  1.0 -0.1260209022
N  N7  1  0.95360000  0.04640000  0.50000000  1.0 -0.1260209022
N  N8  1  0.50000000  0.50000000  0.04640000  1.0 -0.1260209022
N  N9  1  0.50000000  0.04640000  0.95360000  1.0 -0.1260209022
N  N10  1  0.95360000  0.50000000  0.50000000  1.0 -0.1260209022
N  N11  1  0.50000000  0.95360000  0.04640000  1.0 -0.1260209022
N  N12  1  0.04640000  0.50000000  0.50000000  1.0 -0.1260209022
N  N13  1  0.58490000  0.58490000  0.58490000  1.0 -0.1109476564
N  N14  1  0.58490000  0.58490000  0.24530000  1.0 -0.1109476564
N  N15  1  0.58490000  0.24530000  0.58490000  1.0 -0.1109476564
N  N16  1  0.24530000  0.58490000  0.58490000  1.0 -0.1109476564
N  N17  1  0.41510000  0.41510000  0.75470000  1.0 -0.1109476564
N  N18  1  0.41510000  0.41510000  0.41510000  1.0 -0.1109476564
N  N19  1  0.41510000  0.75470000  0.41510000  1.0 -0.1109476564
N  N20  1  0.75470000  0.41510000  0.41510000  1.0 -0.1109476564
O  O1  1  0.84020000  0.47620000  0.09800000  1.0 -0.3321917095
O  O2  1  0.75540000  0.49000000  0.17320000  1.0 -0.4937133274
O  O3  1  0.40010000  0.63290000  0.73910000  1.0 -0.1234732668
O  O4  1  0.33010000  0.70970000  0.49770000  1.0 -0.0579241879
O  O5  1  0.46860000  0.60420000  0.66580000  1.0 -0.0842919822
O  O6  1  0.41960000  0.65800000  0.49660000  1.0 -0.3018631575
O  O7  1  0.51280000  0.67460000  0.55620000  1.0 -0.0515010042
O  O8  1  0.47620000  0.84020000  0.58560000  1.0 -0.3321917095
O  O9  1  0.49000000  0.75540000  0.58140000  1.0 -0.4937133274
O  O10  1  0.63290000  0.40010000  0.22790000  1.0 -0.1234732668
O  O11  1  0.70970000  0.33010000  0.46250000  1.0 -0.0579241879
O  O12  1  0.60420000  0.46860000  0.26140000  1.0 -0.0858580812
O  O13  1  0.65800000  0.41960000  0.42580000  1.0 -0.3018631575
O  O14  1  0.67460000  0.51280000  0.25640000  1.0 -0.0515010042
O  O15  1  0.09800000  0.58560000  0.84020000  1.0 -0.3321917095
O  O16  1  0.17320000  0.58140000  0.75540000  1.0 -0.4937133274
O  O17  1  0.73910000  0.22790000  0.40010000  1.0 -0.1234732668
O  O18  1  0.49770000  0.46250000  0.33010000  1.0 -0.0579241879
O  O19  1  0.66580000  0.26140000  0.46860000  1.0 -0.0842919822
O  O20  1  0.49660000  0.42580000  0.41960000  1.0 -0.3018631575
O  O21  1  0.55620000  0.25640000  0.51280000  1.0 -0.0515010042
O  O22  1  0.58560000  0.09800000  0.47620000  1.0 -0.3321917095
O  O23  1  0.58140000  0.17320000  0.49000000  1.0 -0.4937133274
O  O24  1  0.22790000  0.73910000  0.63290000  1.0 -0.1234732668
O  O25  1  0.46250000  0.49770000  0.70970000  1.0 -0.0579241879
O  O26  1  0.26140000  0.66580000  0.60420000  1.0 -0.0842919822
O  O27  1  0.42580000  0.49660000  0.65800000  1.0 -0.3018631575
O  O28  1  0.25640000  0.55620000  0.67460000  1.0 -0.0515010042
O  O29  1  0.09800000  0.84020000  0.47620000  1.0 -0.3321917095
O  O30  1  0.17320000  0.75540000  0.49000000  1.0 -0.4937133274
O  O31  1  0.73910000  0.40010000  0.63290000  1.0 -0.1234732668
O  O32  1  0.49770000  0.33010000  0.70970000  1.0 -0.0579241879
O  O33  1  0.66580000  0.46860000  0.60420000  1.0 -0.0842919822
O  O34  1  0.49660000  0.41960000  0.65800000  1.0 -0.3018631575
O  O35  1  0.55620000  0.51280000  0.67460000  1.0 -0.0515010042
O  O36  1  0.58560000  0.47620000  0.84020000  1.0 -0.3321917095
O  O37  1  0.58140000  0.49000000  0.75540000  1.0 -0.4937133274
O  O38  1  0.22790000  0.63290000  0.40010000  1.0 -0.1234732668
O  O39  1  0.46250000  0.70970000  0.33010000  1.0 -0.0579241879
O  O40  1  0.26140000  0.60420000  0.46860000  1.0 -0.0842919822
O  O41  1  0.42580000  0.65800000  0.41960000  1.0 -0.3018631575
O  O42  1  0.25640000  0.67460000  0.51280000  1.0 -0.0515010042
O  O43  1  0.84020000  0.09800000  0.58560000  1.0 -0.3321917095
O  O44  1  0.75540000  0.17320000  0.58140000  1.0 -0.4937133274
O  O45  1  0.40010000  0.73910000  0.22790000  1.0 -0.1234732668
O  O46  1  0.33010000  0.49770000  0.46250000  1.0 -0.0579241879
O  O47  1  0.46860000  0.66580000  0.26140000  1.0 -0.0842919822
O  O48  1  0.41960000  0.49660000  0.42580000  1.0 -0.3018631575
O  O49  1  0.51280000  0.55620000  0.25640000  1.0 -0.0515010042
O  O50  1  0.47620000  0.58560000  0.09800000  1.0 -0.3321917095
O  O51  1  0.49000000  0.58140000  0.17320000  1.0 -0.4937133274
O  O52  1  0.63290000  0.22790000  0.73910000  1.0 -0.1234732668
O  O53  1  0.70970000  0.46250000  0.49770000  1.0 -0.0579241879
O  O54  1  0.60420000  0.26140000  0.66580000  1.0 -0.0842919822
O  O55  1  0.65800000  0.42580000  0.49660000  1.0 -0.3018631575
O  O56  1  0.67460000  0.25640000  0.55620000  1.0 -0.0515010042
O  O57  1  0.47620000  0.09800000  0.84020000  1.0 -0.3321917095
O  O58  1  0.49000000  0.17320000  0.75540000  1.0 -0.4937133274
O  O59  1  0.63290000  0.73910000  0.40010000  1.0 -0.1234732668
O  O60  1  0.70970000  0.49770000  0.33010000  1.0 -0.0579241879
O  O61  1  0.60420000  0.66580000  0.46860000  1.0 -0.0842919822
O  O62  1  0.65800000  0.49660000  0.41960000  1.0 -0.3018631575
O  O63  1  0.67460000  0.55620000  0.51280000  1.0 -0.0515010042
O  O64  1  0.84020000  0.58560000  0.47620000  1.0 -0.3321917095
O  O65  1  0.75540000  0.58140000  0.49000000  1.0 -0.4937133274
O  O66  1  0.40010000  0.22790000  0.63290000  1.0 -0.1234732668
O  O67  1  0.33010000  0.46250000  0.70970000  1.0 -0.0579241879
O  O68  1  0.46860000  0.26140000  0.60420000  1.0 -0.0842919822
O  O69  1  0.41960000  0.42580000  0.65800000  1.0 -0.3018631575
O  O70  1  0.51280000  0.25640000  0.67460000  1.0 -0.0515010042
O  O71  1  0.58560000  0.84020000  0.09800000  1.0 -0.3321917095
O  O72  1  0.58140000  0.75540000  0.17320000  1.0 -0.4937133274
O  O73  1  0.22790000  0.40010000  0.73910000  1.0 -0.1234732668
O  O74  1  0.46250000  0.33010000  0.49770000  1.0 -0.0579241879
O  O75  1  0.26140000  0.46860000  0.66580000  1.0 -0.0842919822
O  O76  1  0.42580000  0.41960000  0.49660000  1.0 -0.3018631575
O  O77  1  0.25640000  0.51280000  0.55620000  1.0 -0.0515010042
O  O78  1  0.09800000  0.47620000  0.58560000  1.0 -0.3321917095
O  O79  1  0.17320000  0.49000000  0.58140000  1.0 -0.4937133274
O  O80  1  0.73910000  0.63290000  0.22790000  1.0 -0.1234732668
O  O81  1  0.49770000  0.70970000  0.46250000  1.0 -0.0579241879
O  O82  1  0.66580000  0.60420000  0.26140000  1.0 -0.0842919822
O  O83  1  0.49660000  0.65800000  0.42580000  1.0 -0.3018631575
O  O84  1  0.55620000  0.67460000  0.25640000  1.0 -0.0515010042
O  O85  1  0.15980000  0.52380000  0.41440000  1.0 -0.3321917095
O  O86  1  0.24460000  0.51000000  0.41860000  1.0 -0.4937133274
O  O87  1  0.59990000  0.36710000  0.77210000  1.0 -0.1234732668
O  O88  1  0.66990000  0.29030000  0.53750000  1.0 -0.0579241879
O  O89  1  0.53140000  0.39580000  0.73860000  1.0 -0.0842919822
O  O90  1  0.58040000  0.34200000  0.57420000  1.0 -0.3018631575
O  O91  1  0.48720000  0.32540000  0.74360000  1.0 -0.0515010042
O  O92  1  0.52380000  0.15980000  0.90200000  1.0 -0.3321917095
O  O93  1  0.51000000  0.24460000  0.82680000  1.0 -0.4937133274
O  O94  1  0.36710000  0.59990000  0.26090000  1.0 -0.1234732668
O  O95  1  0.29030000  0.66990000  0.50230000  1.0 -0.0579241879
O  O96  1  0.39580000  0.53140000  0.33420000  1.0 -0.0842919822
O  O97  1  0.34200000  0.58040000  0.50340000  1.0 -0.3018631575
O  O98  1  0.32540000  0.48720000  0.44380000  1.0 -0.0515010042
O  O99  1  0.90200000  0.41440000  0.52380000  1.0 -0.3321917095
O  O100  1  0.82680000  0.41860000  0.51000000  1.0 -0.4937133274
O  O101  1  0.26090000  0.77210000  0.36710000  1.0 -0.1234732668
O  O102  1  0.50230000  0.53750000  0.29030000  1.0 -0.0579241879
O  O103  1  0.33420000  0.73860000  0.39580000  1.0 -0.0842919822
O  O104  1  0.50340000  0.57420000  0.34200000  1.0 -0.3018631575
O  O105  1  0.44380000  0.74360000  0.32540000  1.0 -0.0515010042
O  O106  1  0.41440000  0.90200000  0.15980000  1.0 -0.3321917095
O  O107  1  0.41860000  0.82680000  0.24460000  1.0 -0.4937133274
O  O108  1  0.77210000  0.26090000  0.59990000  1.0 -0.1234732668
O  O109  1  0.53750000  0.50230000  0.66990000  1.0 -0.0579241879
O  O110  1  0.73860000  0.33420000  0.53140000  1.0 -0.0842919822
O  O111  1  0.57420000  0.50340000  0.58040000  1.0 -0.3018631575
O  O112  1  0.74360000  0.44380000  0.48720000  1.0 -0.0515010042
O  O113  1  0.90200000  0.15980000  0.41440000  1.0 -0.3321917095
O  O114  1  0.82680000  0.24460000  0.41860000  1.0 -0.4937133274
O  O115  1  0.26090000  0.59990000  0.77210000  1.0 -0.1234732668
O  O116  1  0.50230000  0.66990000  0.53750000  1.0 -0.0579241879
O  O117  1  0.33420000  0.53140000  0.73860000  1.0 -0.0842919822
O  O118  1  0.50340000  0.58040000  0.57420000  1.0 -0.3018631575
O  O119  1  0.44380000  0.48720000  0.74360000  1.0 -0.0515010042
O  O120  1  0.41440000  0.52380000  0.90200000  1.0 -0.3321917095
O  O121  1  0.41860000  0.51000000  0.82680000  1.0 -0.4937133274
O  O122  1  0.77210000  0.36710000  0.26090000  1.0 -0.1234732668
O  O123  1  0.53750000  0.29030000  0.50230000  1.0 -0.0579241879
O  O124  1  0.73860000  0.39580000  0.33420000  1.0 -0.0842919822
O  O125  1  0.57420000  0.34200000  0.50340000  1.0 -0.3018631575
O  O126  1  0.74360000  0.32540000  0.44380000  1.0 -0.0515010042
O  O127  1  0.15980000  0.90200000  0.52380000  1.0 -0.3321917095
O  O128  1  0.24460000  0.82680000  0.51000000  1.0 -0.4937133274
O  O129  1  0.59990000  0.26090000  0.36710000  1.0 -0.1234732668
O  O130  1  0.66990000  0.50230000  0.29030000  1.0 -0.0579241879
O  O131  1  0.53140000  0.33420000  0.39580000  1.0 -0.0842919822
O  O132  1  0.58040000  0.50340000  0.34200000  1.0 -0.3018631575
O  O133  1  0.48720000  0.44380000  0.32540000  1.0 -0.0515010042
O  O134  1  0.52380000  0.41440000  0.15980000  1.0 -0.3321917095
O  O135  1  0.51000000  0.41860000  0.24460000  1.0 -0.4937133274
O  O136  1  0.36710000  0.77210000  0.59990000  1.0 -0.1234732668
O  O137  1  0.29030000  0.53750000  0.66990000  1.0 -0.0579241879
O  O138  1  0.39580000  0.73860000  0.53140000  1.0 -0.0858580812
O  O139  1  0.34200000  0.57420000  0.58040000  1.0 -0.3018631575
O  O140  1  0.32540000  0.74360000  0.48720000  1.0 -0.0515010042
O  O141  1  0.52380000  0.90200000  0.41440000  1.0 -0.3321917095
O  O142  1  0.51000000  0.82680000  0.41860000  1.0 -0.4937133274
O  O143  1  0.36710000  0.26090000  0.77210000  1.0 -0.1234732668
O  O144  1  0.29030000  0.50230000  0.53750000  1.0 -0.0579241879
O  O145  1  0.39580000  0.33420000  0.73860000  1.0 -0.0842919822
O  O146  1  0.34200000  0.50340000  0.57420000  1.0 -0.3018631575
O  O147  1  0.32540000  0.44380000  0.74360000  1.0 -0.0515010042
O  O148  1  0.15980000  0.41440000  0.90200000  1.0 -0.3321917095
O  O149  1  0.24460000  0.41860000  0.82680000  1.0 -0.4937133274
O  O150  1  0.59990000  0.77210000  0.26090000  1.0 -0.1234732668
O  O151  1  0.66990000  0.53750000  0.50230000  1.0 -0.0579241879
O  O152  1  0.53140000  0.73860000  0.33420000  1.0 -0.0842919822
O  O153  1  0.58040000  0.57420000  0.50340000  1.0 -0.3018631575
O  O154  1  0.48720000  0.74360000  0.44380000  1.0 -0.0515010042
O  O155  1  0.41440000  0.15980000  0.52380000  1.0 -0.3321917095
O  O156  1  0.41860000  0.24460000  0.51000000  1.0 -0.4937133274
O  O157  1  0.77210000  0.59990000  0.36710000  1.0 -0.1234732668
O  O158  1  0.53750000  0.66990000  0.29030000  1.0 -0.0579241879
O  O159  1  0.73860000  0.53140000  0.39580000  1.0 -0.0842919822
O  O160  1  0.57420000  0.58040000  0.34200000  1.0 -0.3018631575
O  O161  1  0.74360000  0.48720000  0.32540000  1.0 -0.0515010042
O  O162  1  0.90200000  0.52380000  0.15980000  1.0 -0.3321917095
O  O163  1  0.82680000  0.51000000  0.24460000  1.0 -0.4937133274
O  O164  1  0.26090000  0.36710000  0.59990000  1.0 -0.1234732668
O  O165  1  0.50230000  0.29030000  0.66990000  1.0 -0.0579241879
O  O166  1  0.33420000  0.39580000  0.53140000  1.0 -0.0842919822
O  O167  1  0.50340000  0.34200000  0.58040000  1.0 -0.3018631575
O  O168  1  0.44380000  0.32540000  0.48720000  1.0 -0.0515010042
O  O169  1  0.15980000  0.52380000  0.90200000  1.0 -0.3321917095
O  O170  1  0.24460000  0.51000000  0.82680000  1.0 -0.4937133274
O  O171  1  0.59990000  0.36710000  0.26090000  1.0 -0.1234732668
O  O172  1  0.66990000  0.29030000  0.50230000  1.0 -0.0579241879
O  O173  1  0.53140000  0.39580000  0.33420000  1.0 -0.0842919822
O  O174  1  0.58040000  0.34200000  0.50340000  1.0 -0.3018631575
O  O175  1  0.48720000  0.32540000  0.44380000  1.0 -0.0515010042
O  O176  1  0.52380000  0.15980000  0.41440000  1.0 -0.3321917095
O  O177  1  0.51000000  0.24460000  0.41860000  1.0 -0.4937133274
O  O178  1  0.36710000  0.59990000  0.77210000  1.0 -0.1234732668
O  O179  1  0.29030000  0.66990000  0.53750000  1.0 -0.0579241879
O  O180  1  0.39580000  0.53140000  0.73860000  1.0 -0.0842919822
O  O181  1  0.34200000  0.58040000  0.57420000  1.0 -0.3018631575
O  O182  1  0.32540000  0.48720000  0.74360000  1.0 -0.0515010042
O  O183  1  0.90200000  0.41440000  0.15980000  1.0 -0.3321917095
O  O184  1  0.82680000  0.41860000  0.24460000  1.0 -0.4937133274
O  O185  1  0.26090000  0.77210000  0.59990000  1.0 -0.1234732668
O  O186  1  0.50230000  0.53750000  0.66990000  1.0 -0.0579241879
O  O187  1  0.33420000  0.73860000  0.53140000  1.0 -0.0842919822
O  O188  1  0.50340000  0.57420000  0.58040000  1.0 -0.3018631575
O  O189  1  0.44380000  0.74360000  0.48720000  1.0 -0.0515010042
O  O190  1  0.41440000  0.90200000  0.52380000  1.0 -0.3321917095
O  O191  1  0.41860000  0.82680000  0.51000000  1.0 -0.4937133274
O  O192  1  0.77210000  0.26090000  0.36710000  1.0 -0.1234732668
O  O193  1  0.53750000  0.50230000  0.29030000  1.0 -0.0579241879
O  O194  1  0.73860000  0.33420000  0.39580000  1.0 -0.0842919822
O  O195  1  0.57420000  0.50340000  0.34200000  1.0 -0.3018631575
O  O196  1  0.74360000  0.44380000  0.32540000  1.0 -0.0515010042
O  O197  1  0.90200000  0.15980000  0.52380000  1.0 -0.3321917095
O  O198  1  0.82680000  0.24460000  0.51000000  1.0 -0.4937133274
O  O199  1  0.26090000  0.59990000  0.36710000  1.0 -0.1234732668
O  O200  1  0.50230000  0.66990000  0.29030000  1.0 -0.0579241879
O  O201  1  0.33420000  0.53140000  0.39580000  1.0 -0.0842919822
O  O202  1  0.50340000  0.58040000  0.34200000  1.0 -0.3018631575
O  O203  1  0.44380000  0.48720000  0.32540000  1.0 -0.0515010042
O  O204  1  0.41440000  0.52380000  0.15980000  1.0 -0.3321917095
O  O205  1  0.41860000  0.51000000  0.24460000  1.0 -0.4937133274
O  O206  1  0.77210000  0.36710000  0.59990000  1.0 -0.1234732668
O  O207  1  0.53750000  0.29030000  0.66990000  1.0 -0.0579241879
O  O208  1  0.73860000  0.39580000  0.53140000  1.0 -0.0842919822
O  O209  1  0.57420000  0.34200000  0.58040000  1.0 -0.3018631575
O  O210  1  0.74360000  0.32540000  0.48720000  1.0 -0.0515010042
O  O211  1  0.15980000  0.90200000  0.41440000  1.0 -0.3321917095
O  O212  1  0.24460000  0.82680000  0.41860000  1.0 -0.4937133274
O  O213  1  0.59990000  0.26090000  0.77210000  1.0 -0.1234732668
O  O214  1  0.66990000  0.50230000  0.53750000  1.0 -0.0579241879
O  O215  1  0.53140000  0.33420000  0.73860000  1.0 -0.0842919822
O  O216  1  0.58040000  0.50340000  0.57420000  1.0 -0.3018631575
O  O217  1  0.48720000  0.44380000  0.74360000  1.0 -0.0515010042
O  O218  1  0.52380000  0.41440000  0.90200000  1.0 -0.3321917095
O  O219  1  0.51000000  0.41860000  0.82680000  1.0 -0.4937133274
O  O220  1  0.36710000  0.77210000  0.26090000  1.0 -0.1234732668
O  O221  1  0.29030000  0.53750000  0.50230000  1.0 -0.0579241879
O  O222  1  0.39580000  0.73860000  0.33420000  1.0 -0.0842919822
O  O223  1  0.34200000  0.57420000  0.50340000  1.0 -0.3018631575
O  O224  1  0.32540000  0.74360000  0.44380000  1.0 -0.0515010042
O  O225  1  0.52380000  0.90200000  0.15980000  1.0 -0.3321917095
O  O226  1  0.51000000  0.82680000  0.24460000  1.0 -0.4937133274
O  O227  1  0.36710000  0.26090000  0.59990000  1.0 -0.1234732668
O  O228  1  0.29030000  0.50230000  0.66990000  1.0 -0.0579241879
O  O229  1  0.39580000  0.33420000  0.53140000  1.0 -0.0842919822
O  O230  1  0.34200000  0.50340000  0.58040000  1.0 -0.3018631575
O  O231  1  0.32540000  0.44380000  0.48720000  1.0 -0.0515010042
O  O232  1  0.15980000  0.41440000  0.52380000  1.0 -0.3321917095
O  O233  1  0.24460000  0.41860000  0.51000000  1.0 -0.4937133274
O  O234  1  0.59990000  0.77210000  0.36710000  1.0 -0.1234732668
O  O235  1  0.66990000  0.53750000  0.29030000  1.0 -0.0579241879
O  O236  1  0.53140000  0.73860000  0.39580000  1.0 -0.0842919822
O  O237  1  0.58040000  0.57420000  0.34200000  1.0 -0.3018631575
O  O238  1  0.48720000  0.74360000  0.32540000  1.0 -0.0515010042
O  O239  1  0.41440000  0.15980000  0.90200000  1.0 -0.3321917095
O  O240  1  0.41860000  0.24460000  0.82680000  1.0 -0.4937133274
O  O241  1  0.77210000  0.59990000  0.26090000  1.0 -0.1234732668
O  O242  1  0.53750000  0.66990000  0.50230000  1.0 -0.0579241879
O  O243  1  0.73860000  0.53140000  0.33420000  1.0 -0.0842919822
O  O244  1  0.57420000  0.58040000  0.50340000  1.0 -0.3018631575
O  O245  1  0.74360000  0.48720000  0.44380000  1.0 -0.0515010042
O  O246  1  0.90200000  0.52380000  0.41440000  1.0 -0.3321917095
O  O247  1  0.82680000  0.51000000  0.41860000  1.0 -0.4937133274
O  O248  1  0.26090000  0.36710000  0.77210000  1.0 -0.1234732668
O  O249  1  0.50230000  0.29030000  0.53750000  1.0 -0.0579241879
O  O250  1  0.33420000  0.39580000  0.73860000  1.0 -0.0842919822
O  O251  1  0.50340000  0.34200000  0.57420000  1.0 -0.3018631575
O  O252  1  0.44380000  0.32540000  0.74360000  1.0 -0.0515010042
O  O253  1  0.84020000  0.47620000  0.58560000  1.0 -0.3321917095
O  O254  1  0.75540000  0.49000000  0.58140000  1.0 -0.4937133274
O  O255  1  0.40010000  0.63290000  0.22790000  1.0 -0.1234732668
O  O256  1  0.33010000  0.70970000  0.46250000  1.0 -0.0579241879
O  O257  1  0.46860000  0.60420000  0.26140000  1.0 -0.0858580812
O  O258  1  0.41960000  0.65800000  0.42580000  1.0 -0.3018631575
O  O259  1  0.51280000  0.67460000  0.25640000  1.0 -0.0515010042
O  O260  1  0.47620000  0.84020000  0.09800000  1.0 -0.3321917095
O  O261  1  0.49000000  0.75540000  0.17320000  1.0 -0.4937133274
O  O262  1  0.63290000  0.40010000  0.73910000  1.0 -0.1234732668
O  O263  1  0.70970000  0.33010000  0.49770000  1.0 -0.0579241879
O  O264  1  0.60420000  0.46860000  0.66580000  1.0 -0.0842919822
O  O265  1  0.65800000  0.41960000  0.49660000  1.0 -0.3018631575
O  O266  1  0.67460000  0.51280000  0.55620000  1.0 -0.0515010042
O  O267  1  0.09800000  0.58560000  0.47620000  1.0 -0.3321917095
O  O268  1  0.17320000  0.58140000  0.49000000  1.0 -0.4937133274
O  O269  1  0.73910000  0.22790000  0.63290000  1.0 -0.1234732668
O  O270  1  0.49770000  0.46250000  0.70970000  1.0 -0.0579241879
O  O271  1  0.66580000  0.26140000  0.60420000  1.0 -0.0842919822
O  O272  1  0.49660000  0.42580000  0.65800000  1.0 -0.3018631575
O  O273  1  0.55620000  0.25640000  0.67460000  1.0 -0.0515010042
O  O274  1  0.58560000  0.09800000  0.84020000  1.0 -0.3321917095
O  O275  1  0.58140000  0.17320000  0.75540000  1.0 -0.4937133274
O  O276  1  0.22790000  0.73910000  0.40010000  1.0 -0.1234732668
O  O277  1  0.46250000  0.49770000  0.33010000  1.0 -0.0579241879
O  O278  1  0.26140000  0.66580000  0.46860000  1.0 -0.0842919822
O  O279  1  0.42580000  0.49660000  0.41960000  1.0 -0.3018631575
O  O280  1  0.25640000  0.55620000  0.51280000  1.0 -0.0515010042
O  O281  1  0.09800000  0.84020000  0.58560000  1.0 -0.3321917095
O  O282  1  0.17320000  0.75540000  0.58140000  1.0 -0.4937133274
O  O283  1  0.73910000  0.40010000  0.22790000  1.0 -0.1234732668
O  O284  1  0.49770000  0.33010000  0.46250000  1.0 -0.0579241879
O  O285  1  0.66580000  0.46860000  0.26140000  1.0 -0.0842919822
O  O286  1  0.49660000  0.41960000  0.42580000  1.0 -0.3018631575
O  O287  1  0.55620000  0.51280000  0.25640000  1.0 -0.0515010042
O  O288  1  0.58560000  0.47620000  0.09800000  1.0 -0.3321917095
O  O289  1  0.58140000  0.49000000  0.17320000  1.0 -0.4937133274
O  O290  1  0.22790000  0.63290000  0.73910000  1.0 -0.1234732668
O  O291  1  0.46250000  0.70970000  0.49770000  1.0 -0.0579241879
O  O292  1  0.26140000  0.60420000  0.66580000  1.0 -0.0842919822
O  O293  1  0.42580000  0.65800000  0.49660000  1.0 -0.3018631575
O  O294  1  0.25640000  0.67460000  0.55620000  1.0 -0.0515010042
O  O295  1  0.84020000  0.09800000  0.47620000  1.0 -0.3321917095
O  O296  1  0.75540000  0.17320000  0.49000000  1.0 -0.4937133274
O  O297  1  0.40010000  0.73910000  0.63290000  1.0 -0.1234732668
O  O298  1  0.33010000  0.49770000  0.70970000  1.0 -0.0579241879
O  O299  1  0.46860000  0.66580000  0.60420000  1.0 -0.0842919822
O  O300  1  0.41960000  0.49660000  0.65800000  1.0 -0.3018631575
O  O301  1  0.51280000  0.55620000  0.67460000  1.0 -0.0515010042
O  O302  1  0.47620000  0.58560000  0.84020000  1.0 -0.3321917095
O  O303  1  0.49000000  0.58140000  0.75540000  1.0 -0.4937133274
O  O304  1  0.63290000  0.22790000  0.40010000  1.0 -0.1234732668
O  O305  1  0.70970000  0.46250000  0.33010000  1.0 -0.0579241879
O  O306  1  0.60420000  0.26140000  0.46860000  1.0 -0.0842919822
O  O307  1  0.65800000  0.42580000  0.41960000  1.0 -0.3018631575
O  O308  1  0.67460000  0.25640000  0.51280000  1.0 -0.0515010042
O  O309  1  0.47620000  0.09800000  0.58560000  1.0 -0.3321917095
O  O310  1  0.49000000  0.17320000  0.58140000  1.0 -0.4937133274
O  O311  1  0.63290000  0.73910000  0.22790000  1.0 -0.1234732668
O  O312  1  0.70970000  0.49770000  0.46250000  1.0 -0.0579241879
O  O313  1  0.60420000  0.66580000  0.26140000  1.0 -0.0858580812
O  O314  1  0.65800000  0.49660000  0.42580000  1.0 -0.3018631575
O  O315  1  0.67460000  0.55620000  0.25640000  1.0 -0.0515010042
O  O316  1  0.84020000  0.58560000  0.09800000  1.0 -0.3321917095
O  O317  1  0.75540000  0.58140000  0.17320000  1.0 -0.4937133274
O  O318  1  0.40010000  0.22790000  0.73910000  1.0 -0.1234732668
O  O319  1  0.33010000  0.46250000  0.49770000  1.0 -0.0579241879
O  O320  1  0.46860000  0.26140000  0.66580000  1.0 -0.0842919822
O  O321  1  0.41960000  0.42580000  0.49660000  1.0 -0.3018631575
O  O322  1  0.51280000  0.25640000  0.55620000  1.0 -0.0515010042
O  O323  1  0.58560000  0.84020000  0.47620000  1.0 -0.3321917095
O  O324  1  0.58140000  0.75540000  0.49000000  1.0 -0.4937133274
O  O325  1  0.22790000  0.40010000  0.63290000  1.0 -0.1234732668
O  O326  1  0.46250000  0.33010000  0.70970000  1.0 -0.0579241879
O  O327  1  0.26140000  0.46860000  0.60420000  1.0 -0.0842919822
O  O328  1  0.42580000  0.41960000  0.65800000  1.0 -0.3018631575
O  O329  1  0.25640000  0.51280000  0.67460000  1.0 -0.0515010042
O  O330  1  0.09800000  0.47620000  0.84020000  1.0 -0.3321917095
O  O331  1  0.17320000  0.49000000  0.75540000  1.0 -0.4937133274
O  O332  1  0.73910000  0.63290000  0.40010000  1.0 -0.1234732668
O  O333  1  0.49770000  0.70970000  0.33010000  1.0 -0.0579241879
O  O334  1  0.66580000  0.60420000  0.46860000  1.0 -0.0842919822
O  O335  1  0.49660000  0.65800000  0.41960000  1.0 -0.3018631575
O  O336  1  0.55620000  0.67460000  0.51280000  1.0 -0.0515010042
