# DDEC6 charges by PACMAN v1.1 (https://github.com/mtap-research/PACMAN-charge/)
data_GUPBIE_ASR_pacman
_symmetry_space_group_name_H-M   'P 1'
_cell_length_a   10.74020000
_cell_length_b   28.55900000
_cell_length_c   42.64200000
_cell_angle_alpha   90.00000000
_cell_angle_beta   90.00000000
_cell_angle_gamma   90.00000000
_symmetry_Int_Tables_number   1
_chemical_formula_structural   Zn12H56C99O61
_chemical_formula_sum   'Zn48 H224 C396 O244'
_cell_volume   13079.55387230
_cell_formula_units_Z   4
loop_
 _symmetry_equiv_pos_site_id
 _symmetry_equiv_pos_as_xyz
  1  'x, y, z'
loop_
 _atom_site_type_symbol
 _atom_site_label
 _atom_site_symmetry_multiplicity
 _atom_site_fract_x
 _atom_site_fract_y
 _atom_site_fract_z
 _atom_site_occupancy
 _atom_site_charge
Zn  Zn1  1  0.92947000  0.98214000  0.35866000  1.0 1.0963764485
Zn  Zn2  1  0.07053000  0.01786000  0.64134000  1.0 1.0963764485
Zn  Zn3  1  0.57053000  0.51786000  0.85866000  1.0 1.0963764485
Zn  Zn4  1  0.42947000  0.48214000  0.14134000  1.0 1.0963764485
Zn  Zn5  1  0.07053000  0.98214000  0.14134000  1.0 1.0963764485
Zn  Zn6  1  0.92947000  0.01786000  0.85866000  1.0 1.0963764485
Zn  Zn7  1  0.42947000  0.51786000  0.64134000  1.0 1.0963764485
Zn  Zn8  1  0.57053000  0.48214000  0.35866000  1.0 1.0963764485
Zn  Zn9  1  0.69007000  0.26501000  0.42499000  1.0 1.0313717793
Zn  Zn10  1  0.30993000  0.73499000  0.57501000  1.0 1.0313717793
Zn  Zn11  1  0.80993000  0.23499000  0.92499000  1.0 1.0313717793
Zn  Zn12  1  0.19007000  0.76501000  0.07501000  1.0 1.0313717793
Zn  Zn13  1  0.30993000  0.26501000  0.07501000  1.0 1.0313717793
Zn  Zn14  1  0.69007000  0.73499000  0.92499000  1.0 1.0313717793
Zn  Zn15  1  0.19007000  0.23499000  0.57501000  1.0 1.0313717793
Zn  Zn16  1  0.80993000  0.76501000  0.42499000  1.0 1.0313717793
Zn  Zn17  1  0.43059000  0.28698000  0.60989000  1.0 1.0313717793
Zn  Zn18  1  0.56941000  0.71302000  0.39011000  1.0 1.0313717793
Zn  Zn19  1  0.06941000  0.21302000  0.10989000  1.0 1.0313717793
Zn  Zn20  1  0.93059000  0.78698000  0.89011000  1.0 1.0313717793
Zn  Zn21  1  0.56941000  0.28698000  0.89011000  1.0 1.0313717793
Zn  Zn22  1  0.43059000  0.71302000  0.10989000  1.0 1.0313717793
Zn  Zn23  1  0.93059000  0.21302000  0.39011000  1.0 1.0313717793
Zn  Zn24  1  0.06941000  0.78698000  0.60989000  1.0 1.0313717793
Zn  Zn25  1  0.31633000  0.19932000  0.64366000  1.0 1.0572436448
Zn  Zn26  1  0.68367000  0.80068000  0.35634000  1.0 1.0572436448
Zn  Zn27  1  0.18367000  0.30068000  0.14366000  1.0 1.0572436448
Zn  Zn28  1  0.81633000  0.69932000  0.85634000  1.0 1.0572436448
Zn  Zn29  1  0.68367000  0.19932000  0.85634000  1.0 1.0572436448
Zn  Zn30  1  0.31633000  0.80068000  0.14366000  1.0 1.0572436448
Zn  Zn31  1  0.81633000  0.30068000  0.35634000  1.0 1.0572436448
Zn  Zn32  1  0.18367000  0.69932000  0.64366000  1.0 1.0572436448
Zn  Zn33  1  0.16033000  0.56338000  0.66432000  1.0 1.0963764485
Zn  Zn34  1  0.83967000  0.43662000  0.33568000  1.0 1.0963764485
Zn  Zn35  1  0.33967000  0.93662000  0.16432000  1.0 1.0963764485
Zn  Zn36  1  0.66033000  0.06338000  0.83568000  1.0 1.0963764485
Zn  Zn37  1  0.83967000  0.56338000  0.83568000  1.0 1.0963764485
Zn  Zn38  1  0.16033000  0.43662000  0.16432000  1.0 1.0963764485
Zn  Zn39  1  0.66033000  0.93662000  0.33568000  1.0 1.0963764485
Zn  Zn40  1  0.33967000  0.06338000  0.66432000  1.0 1.0963764485
Zn  Zn41  1  0.28587000  0.60082000  0.60071000  1.0 1.0727790143
Zn  Zn42  1  0.71413000  0.39918000  0.39929000  1.0 1.0727790143
Zn  Zn43  1  0.21413000  0.89918000  0.10071000  1.0 1.0727790143
Zn  Zn44  1  0.78587000  0.10082000  0.89929000  1.0 1.0727790143
Zn  Zn45  1  0.71413000  0.60082000  0.89929000  1.0 1.0727790143
Zn  Zn46  1  0.28587000  0.39918000  0.10071000  1.0 1.0727790143
Zn  Zn47  1  0.78587000  0.89918000  0.39929000  1.0 1.0727790143
Zn  Zn48  1  0.21413000  0.10082000  0.60071000  1.0 1.0727790143
H  H1  1  0.79706000  0.09066000  0.39785000  1.0 0.3236034806
H  H2  1  0.20294000  0.90934000  0.60215000  1.0 0.3236034806
H  H3  1  0.70294000  0.40934000  0.89785000  1.0 0.3236034806
H  H4  1  0.29706000  0.59066000  0.10215000  1.0 0.3236034806
H  H5  1  0.20294000  0.09066000  0.10215000  1.0 0.3236034806
H  H6  1  0.79706000  0.90934000  0.89785000  1.0 0.3236034806
H  H7  1  0.29706000  0.40934000  0.60215000  1.0 0.3236034806
H  H8  1  0.70294000  0.59066000  0.39785000  1.0 0.3236034806
H  H9  1  0.57135000  0.14904000  0.48212000  1.0 0.2676857333
H  H10  1  0.42865000  0.85096000  0.51788000  1.0 0.2676857333
H  H11  1  0.92865000  0.35096000  0.98212000  1.0 0.2676857333
H  H12  1  0.07135000  0.64904000  0.01788000  1.0 0.2676857333
H  H13  1  0.42865000  0.14904000  0.01788000  1.0 0.2676857333
H  H14  1  0.57135000  0.85096000  0.98212000  1.0 0.2676857333
H  H15  1  0.07135000  0.35096000  0.51788000  1.0 0.2676857333
H  H16  1  0.92865000  0.64904000  0.48212000  1.0 0.2676857333
H  H17  1  0.60770000  0.98799000  0.46718000  1.0 0.4006520059
H  H18  1  0.39230000  0.01201000  0.53282000  1.0 0.4006520059
H  H19  1  0.89230000  0.51201000  0.96718000  1.0 0.4006520059
H  H20  1  0.10770000  0.48799000  0.03282000  1.0 0.4006520059
H  H21  1  0.39230000  0.98799000  0.03282000  1.0 0.4006520059
H  H22  1  0.60770000  0.01201000  0.96718000  1.0 0.4006520059
H  H23  1  0.10770000  0.51201000  0.53282000  1.0 0.4006520059
H  H24  1  0.89230000  0.48799000  0.46718000  1.0 0.4006520059
H  H25  1  0.37307000  0.08146000  0.53492000  1.0 -0.0785822925
H  H26  1  0.62693000  0.91854000  0.46508000  1.0 -0.0747159302
H  H27  1  0.12693000  0.41854000  0.03492000  1.0 -0.0785822925
H  H28  1  0.87307000  0.58146000  0.96508000  1.0 -0.0785822925
H  H29  1  0.62693000  0.08146000  0.96508000  1.0 -0.0785822925
H  H30  1  0.37307000  0.91854000  0.03492000  1.0 -0.0785822925
H  H31  1  0.87307000  0.41854000  0.46508000  1.0 -0.0785822925
H  H32  1  0.12693000  0.58146000  0.53492000  1.0 -0.0785822925
H  H33  1  0.40251000  0.12587000  0.49928000  1.0 0.0023208715
H  H34  1  0.59749000  0.87413000  0.50072000  1.0 0.0023208715
H  H35  1  0.09749000  0.37413000  0.99928000  1.0 0.0023208715
H  H36  1  0.90251000  0.62587000  0.00072000  1.0 0.0023208715
H  H37  1  0.59749000  0.12587000  0.00072000  1.0 0.0023208715
H  H38  1  0.40251000  0.87413000  0.99928000  1.0 0.0023208715
H  H39  1  0.90251000  0.37413000  0.50072000  1.0 0.0023208715
H  H40  1  0.09749000  0.62587000  0.49928000  1.0 0.0023208715
H  H41  1  0.53558000  0.11509000  0.53225000  1.0 -0.0097420879
H  H42  1  0.46442000  0.88491000  0.46775000  1.0 -0.0097420879
H  H43  1  0.96442000  0.38491000  0.03225000  1.0 -0.0097420879
H  H44  1  0.03558000  0.61509000  0.96775000  1.0 -0.0097420879
H  H45  1  0.46442000  0.11509000  0.96775000  1.0 -0.0097420879
H  H46  1  0.53558000  0.88491000  0.03225000  1.0 -0.0097420879
H  H47  1  0.03558000  0.38491000  0.46775000  1.0 -0.0097420879
H  H48  1  0.96442000  0.61509000  0.53225000  1.0 -0.0097420879
H  H49  1  0.31932000  0.26175000  0.38780000  1.0 0.2676857333
H  H50  1  0.68068000  0.73825000  0.61220000  1.0 0.2676857333
H  H51  1  0.18068000  0.23825000  0.88780000  1.0 0.2676857333
H  H52  1  0.81932000  0.76175000  0.11220000  1.0 0.2676857333
H  H53  1  0.68068000  0.26175000  0.11220000  1.0 0.2676857333
H  H54  1  0.31932000  0.73825000  0.88780000  1.0 0.2676857333
H  H55  1  0.81932000  0.23825000  0.61220000  1.0 0.2676857333
H  H56  1  0.18068000  0.76175000  0.38780000  1.0 0.2676857333
H  H57  1  0.13653000  0.31458000  0.29807000  1.0 0.291172653
H  H58  1  0.86347000  0.68542000  0.70193000  1.0 0.291172653
H  H59  1  0.36347000  0.18542000  0.79807000  1.0 0.291172653
H  H60  1  0.63653000  0.81458000  0.20193000  1.0 0.291172653
H  H61  1  0.86347000  0.31458000  0.20193000  1.0 0.291172653
H  H62  1  0.13653000  0.68542000  0.79807000  1.0 0.291172653
H  H63  1  0.63653000  0.18542000  0.70193000  1.0 0.291172653
H  H64  1  0.36347000  0.81458000  0.29807000  1.0 0.291172653
H  H65  1  0.56111000  0.33725000  0.31388000  1.0 0.3413219858
H  H66  1  0.43889000  0.66275000  0.68612000  1.0 0.3413219858
H  H67  1  0.93889000  0.16275000  0.81388000  1.0 0.3413219858
H  H68  1  0.06111000  0.83725000  0.18612000  1.0 0.3413219858
H  H69  1  0.43889000  0.33725000  0.18612000  1.0 0.3413219858
H  H70  1  0.56111000  0.66275000  0.81388000  1.0 0.3413219858
H  H71  1  0.06111000  0.16275000  0.68612000  1.0 0.3413219858
H  H72  1  0.93889000  0.83725000  0.31388000  1.0 0.3413219858
H  H73  1  0.57358000  0.30790000  0.51761000  1.0 0.3109840896
H  H74  1  0.42642000  0.69210000  0.48239000  1.0 0.3109840896
H  H75  1  0.92642000  0.19210000  0.01761000  1.0 0.3109840896
H  H76  1  0.07358000  0.80790000  0.98239000  1.0 0.3109840896
H  H77  1  0.42642000  0.30790000  0.98239000  1.0 0.3109840896
H  H78  1  0.57358000  0.69210000  0.01761000  1.0 0.3109840896
H  H79  1  0.07358000  0.19210000  0.48239000  1.0 0.3109840896
H  H80  1  0.92642000  0.80790000  0.51761000  1.0 0.3109840896
H  H81  1  0.59145000  0.45611000  0.56520000  1.0 0.1970931139
H  H82  1  0.40855000  0.54389000  0.43480000  1.0 0.1970931139
H  H83  1  0.90855000  0.04389000  0.06520000  1.0 0.1970931139
H  H84  1  0.09145000  0.95611000  0.93480000  1.0 0.1970931139
H  H85  1  0.40855000  0.45611000  0.93480000  1.0 0.1970931139
H  H86  1  0.59145000  0.54389000  0.06520000  1.0 0.1970931139
H  H87  1  0.09145000  0.04389000  0.43480000  1.0 0.1970931139
H  H88  1  0.90855000  0.95611000  0.56520000  1.0 0.1970931139
H  H89  1  0.75346000  0.43454000  0.46612000  1.0 0.0606452886
H  H90  1  0.24654000  0.56546000  0.53388000  1.0 0.0606452886
H  H91  1  0.74654000  0.06546000  0.96612000  1.0 0.0606452886
H  H92  1  0.25346000  0.93454000  0.03388000  1.0 0.0606452886
H  H93  1  0.24654000  0.43454000  0.03388000  1.0 0.0606452886
H  H94  1  0.75346000  0.56546000  0.96612000  1.0 0.0606452886
H  H95  1  0.25346000  0.06546000  0.53388000  1.0 0.0606452886
H  H96  1  0.74654000  0.93454000  0.46612000  1.0 0.0606452886
H  H97  1  0.69286000  0.56588000  0.52598000  1.0 0.0513704641
H  H98  1  0.30714000  0.43412000  0.47402000  1.0 0.0513704641
H  H99  1  0.80714000  0.93412000  0.02598000  1.0 0.0513704641
H  H100  1  0.19286000  0.06588000  0.97402000  1.0 0.0513704641
H  H101  1  0.30714000  0.56588000  0.97402000  1.0 0.0513704641
H  H102  1  0.69286000  0.43412000  0.02598000  1.0 0.0513704641
H  H103  1  0.19286000  0.93412000  0.47402000  1.0 0.0513704641
H  H104  1  0.80714000  0.06588000  0.52598000  1.0 0.0513704641
H  H105  1  0.71316000  0.51465000  0.55824000  1.0 0.0378183206
H  H106  1  0.28684000  0.48535000  0.44176000  1.0 0.0378183206
H  H107  1  0.78684000  0.98535000  0.05824000  1.0 0.0378183206
H  H108  1  0.21316000  0.01465000  0.94176000  1.0 0.0378183206
H  H109  1  0.28684000  0.51465000  0.94176000  1.0 0.0378183206
H  H110  1  0.71316000  0.48535000  0.05824000  1.0 0.0378183206
H  H111  1  0.21316000  0.98535000  0.44176000  1.0 0.0378183206
H  H112  1  0.78684000  0.01465000  0.55824000  1.0 0.0378183206
H  H113  1  0.54285000  0.52771000  0.53958000  1.0 0.0513704641
H  H114  1  0.45715000  0.47229000  0.46042000  1.0 0.0513704641
H  H115  1  0.95715000  0.97229000  0.03958000  1.0 0.0513704641
H  H116  1  0.04285000  0.02771000  0.96042000  1.0 0.0513704641
H  H117  1  0.45715000  0.52771000  0.96042000  1.0 0.0513704641
H  H118  1  0.54285000  0.47229000  0.03958000  1.0 0.0513704641
H  H119  1  0.04285000  0.97229000  0.46042000  1.0 0.0513704641
H  H120  1  0.95715000  0.02771000  0.53958000  1.0 0.0513704641
H  H121  1  0.33142000  0.39021000  0.65804000  1.0 0.1518652705
H  H122  1  0.66858000  0.60979000  0.34196000  1.0 0.1518652705
H  H123  1  0.16858000  0.10979000  0.15804000  1.0 0.1518652705
H  H124  1  0.83142000  0.89021000  0.84196000  1.0 0.1518652705
H  H125  1  0.66858000  0.39021000  0.84196000  1.0 0.1518652705
H  H126  1  0.33142000  0.60979000  0.15804000  1.0 0.1518652705
H  H127  1  0.83142000  0.10979000  0.34196000  1.0 0.1518652705
H  H128  1  0.16858000  0.89021000  0.65804000  1.0 0.1518652705
H  H129  1  0.97487000  0.43900000  0.70768000  1.0 0.1581029068
H  H130  1  0.02513000  0.56100000  0.29232000  1.0 0.1581029068
H  H131  1  0.52513000  0.06100000  0.20768000  1.0 0.1581029068
H  H132  1  0.47487000  0.93900000  0.79232000  1.0 0.1581029068
H  H133  1  0.02513000  0.43900000  0.79232000  1.0 0.1581029068
H  H134  1  0.97487000  0.56100000  0.20768000  1.0 0.1581029068
H  H135  1  0.47487000  0.06100000  0.29232000  1.0 0.1581029068
H  H136  1  0.52513000  0.93900000  0.70768000  1.0 0.1581029068
H  H137  1  0.05783000  0.27881000  0.69754000  1.0 0.291172653
H  H138  1  0.94217000  0.72119000  0.30246000  1.0 0.291172653
H  H139  1  0.44217000  0.22119000  0.19754000  1.0 0.291172653
H  H140  1  0.55783000  0.77881000  0.80246000  1.0 0.291172653
H  H141  1  0.94217000  0.27881000  0.80246000  1.0 0.291172653
H  H142  1  0.05783000  0.72119000  0.19754000  1.0 0.291172653
H  H143  1  0.55783000  0.22119000  0.30246000  1.0 0.291172653
H  H144  1  0.44217000  0.77881000  0.69754000  1.0 0.291172653
H  H145  1  0.76750000  0.30455000  0.73989000  1.0 0.0606452886
H  H146  1  0.23250000  0.69545000  0.26011000  1.0 0.0606452886
H  H147  1  0.73250000  0.19545000  0.23989000  1.0 0.0606452886
H  H148  1  0.26750000  0.80455000  0.76011000  1.0 0.0606452886
H  H149  1  0.23250000  0.30455000  0.76011000  1.0 0.0606452886
H  H150  1  0.76750000  0.69545000  0.23989000  1.0 0.0606452886
H  H151  1  0.26750000  0.19545000  0.26011000  1.0 0.0606452886
H  H152  1  0.73250000  0.80455000  0.73989000  1.0 0.0606452886
H  H153  1  0.94542000  0.28243000  0.74162000  1.0 -0.0233749933
H  H154  1  0.05458000  0.71757000  0.25838000  1.0 -0.0233749933
H  H155  1  0.55458000  0.21757000  0.24162000  1.0 -0.0233749933
H  H156  1  0.44542000  0.78243000  0.75838000  1.0 -0.0233749933
H  H157  1  0.05458000  0.28243000  0.75838000  1.0 -0.0233749933
H  H158  1  0.94542000  0.71757000  0.24162000  1.0 -0.0233749933
H  H159  1  0.44542000  0.21757000  0.25838000  1.0 -0.0233749933
H  H160  1  0.55458000  0.78243000  0.74162000  1.0 -0.0233749933
H  H161  1  0.85348000  0.28219000  0.70027000  1.0 0.031194006
H  H162  1  0.14652000  0.71781000  0.29973000  1.0 0.031194006
H  H163  1  0.64652000  0.21781000  0.20027000  1.0 0.031194006
H  H164  1  0.35348000  0.78219000  0.79973000  1.0 0.031194006
H  H165  1  0.14652000  0.28219000  0.79973000  1.0 0.031194006
H  H166  1  0.85348000  0.71781000  0.20027000  1.0 0.031194006
H  H167  1  0.35348000  0.21781000  0.29973000  1.0 0.031194006
H  H168  1  0.64652000  0.78219000  0.70027000  1.0 0.031194006
H  H169  1  0.78576000  0.56801000  0.63170000  1.0 0.2599891867
H  H170  1  0.21424000  0.43199000  0.36830000  1.0 0.2599891867
H  H171  1  0.71424000  0.93199000  0.13170000  1.0 0.2599891867
H  H172  1  0.28576000  0.06801000  0.86830000  1.0 0.2599891867
H  H173  1  0.21424000  0.56801000  0.86830000  1.0 0.2599891867
H  H174  1  0.78576000  0.43199000  0.13170000  1.0 0.2599891867
H  H175  1  0.28576000  0.93199000  0.36830000  1.0 0.2599891867
H  H176  1  0.71424000  0.06801000  0.63170000  1.0 0.2599891867
H  H177  1  0.58429000  0.65200000  0.55440000  1.0 0.1424493487
H  H178  1  0.41571000  0.34800000  0.44560000  1.0 0.1424493487
H  H179  1  0.91571000  0.84800000  0.05440000  1.0 0.1424493487
H  H180  1  0.08429000  0.15200000  0.94560000  1.0 0.1424493487
H  H181  1  0.41571000  0.65200000  0.94560000  1.0 0.1424493487
H  H182  1  0.58429000  0.34800000  0.05440000  1.0 0.1424493487
H  H183  1  0.08429000  0.84800000  0.44560000  1.0 0.1424493487
H  H184  1  0.91571000  0.15200000  0.55440000  1.0 0.1424493487
H  H185  1  0.00777000  0.67301000  0.57037000  1.0 0.3581268374
H  H186  1  0.99223000  0.32699000  0.42963000  1.0 0.3581268374
H  H187  1  0.49223000  0.82699000  0.07037000  1.0 0.3581268374
H  H188  1  0.50777000  0.17301000  0.92963000  1.0 0.3581268374
H  H189  1  0.99223000  0.67301000  0.92963000  1.0 0.3581268374
H  H190  1  0.00777000  0.32699000  0.07037000  1.0 0.3581268374
H  H191  1  0.50777000  0.82699000  0.42963000  1.0 0.3581268374
H  H192  1  0.49223000  0.17301000  0.57037000  1.0 0.3581268374
H  H193  1  0.61214000  0.68323000  0.52829000  1.0 0.0023208715
H  H194  1  0.38786000  0.31677000  0.47171000  1.0 0.0023208715
H  H195  1  0.88786000  0.81677000  0.02829000  1.0 0.0023208715
H  H196  1  0.11214000  0.18323000  0.97171000  1.0 0.0023208715
H  H197  1  0.38786000  0.68323000  0.97171000  1.0 0.0023208715
H  H198  1  0.61214000  0.31677000  0.02829000  1.0 0.0023208715
H  H199  1  0.11214000  0.81677000  0.47171000  1.0 0.0023208715
H  H200  1  0.88786000  0.18323000  0.52829000  1.0 0.0023208715
H  H201  1  0.72458000  0.69869000  0.49190000  1.0 0.0606452886
H  H202  1  0.27542000  0.30131000  0.50810000  1.0 0.0606452886
H  H203  1  0.77542000  0.80131000  0.99190000  1.0 0.0606452886
H  H204  1  0.22458000  0.19869000  0.00810000  1.0 0.0606452886
H  H205  1  0.27542000  0.69869000  0.00810000  1.0 0.0606452886
H  H206  1  0.72458000  0.30131000  0.99190000  1.0 0.0606452886
H  H207  1  0.22458000  0.80131000  0.50810000  1.0 0.0606452886
H  H208  1  0.77542000  0.19869000  0.49190000  1.0 0.0606452886
H  H209  1  0.67542000  0.74890000  0.52311000  1.0 0.0606452886
H  H210  1  0.32458000  0.25110000  0.47689000  1.0 0.0606452886
H  H211  1  0.82458000  0.75110000  0.02311000  1.0 0.0606452886
H  H212  1  0.17542000  0.24890000  0.97689000  1.0 0.0606452886
H  H213  1  0.32458000  0.74890000  0.97689000  1.0 0.0606452886
H  H214  1  0.67542000  0.25110000  0.02311000  1.0 0.0606452886
H  H215  1  0.17542000  0.75110000  0.47689000  1.0 0.0606452886
H  H216  1  0.82458000  0.24890000  0.52311000  1.0 0.0606452886
H  H217  1  0.03907000  0.48713000  0.69159000  1.0 0.4929558929
H  H218  1  0.96093000  0.51287000  0.30841000  1.0 0.4929558929
H  H219  1  0.46093000  0.01287000  0.19159000  1.0 0.4929558929
H  H220  1  0.53907000  0.98713000  0.80841000  1.0 0.4929558929
H  H221  1  0.96093000  0.48713000  0.80841000  1.0 0.4929558929
H  H222  1  0.03907000  0.51287000  0.19159000  1.0 0.4929558929
H  H223  1  0.53907000  0.01287000  0.30841000  1.0 0.4929558929
H  H224  1  0.46093000  0.98713000  0.69159000  1.0 0.4929558929
C  C1  1  0.75801000  0.99900000  0.41442000  1.0 0.6005865667
C  C2  1  0.24199000  0.00100000  0.58558000  1.0 0.6005865667
C  C3  1  0.74199000  0.50100000  0.91442000  1.0 0.6005865667
C  C4  1  0.25801000  0.49900000  0.08558000  1.0 0.6005865667
C  C5  1  0.24199000  0.99900000  0.08558000  1.0 0.6005865667
C  C6  1  0.75801000  0.00100000  0.91442000  1.0 0.6005865667
C  C7  1  0.25801000  0.50100000  0.58558000  1.0 0.6005865667
C  C8  1  0.74199000  0.49900000  0.41442000  1.0 0.6005865667
C  C9  1  0.70750000  0.03871000  0.43220000  1.0 -0.1224099805
C  C10  1  0.29250000  0.96129000  0.56780000  1.0 -0.1224099805
C  C11  1  0.79250000  0.46129000  0.93220000  1.0 -0.1224099805
C  C12  1  0.20750000  0.53871000  0.06780000  1.0 -0.1224099805
C  C13  1  0.29250000  0.03871000  0.06780000  1.0 -0.1224099805
C  C14  1  0.70750000  0.96129000  0.93220000  1.0 -0.1224099805
C  C15  1  0.20750000  0.46129000  0.56780000  1.0 -0.1224099805
C  C16  1  0.79250000  0.53871000  0.43220000  1.0 -0.1224099805
C  C17  1  0.71625000  0.08110000  0.42790000  1.0 0.031194006
C  C18  1  0.28375000  0.91890000  0.57210000  1.0 0.031194006
C  C19  1  0.78375000  0.41890000  0.92790000  1.0 0.031194006
C  C20  1  0.21625000  0.58110000  0.07210000  1.0 0.031194006
C  C21  1  0.28375000  0.08110000  0.07210000  1.0 0.031194006
C  C22  1  0.71625000  0.91890000  0.92790000  1.0 0.031194006
C  C23  1  0.21625000  0.41890000  0.57210000  1.0 0.031194006
C  C24  1  0.78375000  0.58110000  0.42790000  1.0 0.031194006
C  C25  1  0.68161000  0.12241000  0.43987000  1.0 -0.131781653
C  C26  1  0.31839000  0.87759000  0.56013000  1.0 -0.131781653
C  C27  1  0.81839000  0.37759000  0.93987000  1.0 -0.131781653
C  C28  1  0.18161000  0.62241000  0.06013000  1.0 -0.131781653
C  C29  1  0.31839000  0.12241000  0.06013000  1.0 -0.131781653
C  C30  1  0.68161000  0.87759000  0.93987000  1.0 -0.131781653
C  C31  1  0.18161000  0.37759000  0.56013000  1.0 -0.131781653
C  C32  1  0.81839000  0.62241000  0.43987000  1.0 -0.131781653
C  C33  1  0.70132000  0.16779000  0.42834000  1.0 0.5450535264
C  C34  1  0.29868000  0.83221000  0.57166000  1.0 0.5450535264
C  C35  1  0.79868000  0.33221000  0.92834000  1.0 0.5450535264
C  C36  1  0.20132000  0.66779000  0.07166000  1.0 0.5450535264
C  C37  1  0.29868000  0.16779000  0.07166000  1.0 0.5445551719
C  C38  1  0.70132000  0.83221000  0.92834000  1.0 0.5450535264
C  C39  1  0.20132000  0.33221000  0.57166000  1.0 0.5450535264
C  C40  1  0.79868000  0.66779000  0.42834000  1.0 0.5450535264
C  C41  1  0.62477000  0.10503000  0.46267000  1.0 -0.0747159302
C  C42  1  0.37523000  0.89497000  0.53733000  1.0 -0.0747159302
C  C43  1  0.87523000  0.39497000  0.96267000  1.0 -0.0747159302
C  C44  1  0.12477000  0.60503000  0.03733000  1.0 -0.0747159302
C  C45  1  0.37523000  0.10503000  0.03733000  1.0 -0.0747159302
C  C46  1  0.62477000  0.89497000  0.96267000  1.0 -0.0747159302
C  C47  1  0.12477000  0.39497000  0.53733000  1.0 -0.0747159302
C  C48  1  0.87523000  0.60503000  0.46267000  1.0 -0.0747159302
C  C49  1  0.58087000  0.06917000  0.47673000  1.0 0.1518652705
C  C50  1  0.41913000  0.93083000  0.52327000  1.0 0.1518652705
C  C51  1  0.91913000  0.43083000  0.97673000  1.0 0.1518652705
C  C52  1  0.08087000  0.56917000  0.02327000  1.0 0.1518652705
C  C53  1  0.41913000  0.06917000  0.02327000  1.0 0.1518652705
C  C54  1  0.58087000  0.93083000  0.97673000  1.0 0.1518652705
C  C55  1  0.08087000  0.43083000  0.52327000  1.0 0.1518652705
C  C56  1  0.91913000  0.56917000  0.47673000  1.0 0.1518652705
C  C57  1  0.63942000  0.03864000  0.45753000  1.0 -0.1224099805
C  C58  1  0.36058000  0.96136000  0.54247000  1.0 -0.1224099805
C  C59  1  0.86058000  0.46136000  0.95753000  1.0 -0.1224099805
C  C60  1  0.13942000  0.53864000  0.04247000  1.0 -0.1224099805
C  C61  1  0.36058000  0.03864000  0.04247000  1.0 -0.1224099805
C  C62  1  0.63942000  0.96136000  0.95753000  1.0 -0.1224099805
C  C63  1  0.13942000  0.46136000  0.54247000  1.0 -0.1224099805
C  C64  1  0.86058000  0.53864000  0.45753000  1.0 -0.1224099805
C  C65  1  0.45905000  0.09127000  0.51385000  1.0 0.0176740862
C  C66  1  0.54095000  0.90873000  0.48615000  1.0 0.0176740862
C  C67  1  0.04095000  0.40873000  0.01385000  1.0 0.0176740862
C  C68  1  0.95905000  0.59127000  0.98615000  1.0 0.0176740862
C  C69  1  0.54095000  0.09127000  0.98615000  1.0 0.0176740862
C  C70  1  0.45905000  0.90873000  0.01385000  1.0 0.0176740862
C  C71  1  0.95905000  0.40873000  0.48615000  1.0 0.0176740862
C  C72  1  0.04095000  0.59127000  0.51385000  1.0 0.0176740862
C  C73  1  0.54774000  0.30330000  0.37364000  1.0 0.5886167493
C  C74  1  0.45226000  0.69670000  0.62636000  1.0 0.5886167493
C  C75  1  0.95226000  0.19670000  0.87364000  1.0 0.5886167493
C  C76  1  0.04774000  0.80330000  0.12636000  1.0 0.5886167493
C  C77  1  0.45226000  0.30330000  0.12636000  1.0 0.5886167493
C  C78  1  0.54774000  0.69670000  0.87364000  1.0 0.5886167493
C  C79  1  0.04774000  0.19670000  0.62636000  1.0 0.5886167493
C  C80  1  0.95226000  0.80330000  0.37364000  1.0 0.5886167493
C  C81  1  0.43981000  0.30648000  0.35418000  1.0 -0.0902114741
C  C82  1  0.56019000  0.69352000  0.64582000  1.0 -0.0992020167
C  C83  1  0.06019000  0.19352000  0.85418000  1.0 -0.0992020167
C  C84  1  0.93981000  0.80648000  0.14582000  1.0 -0.0902114741
C  C85  1  0.56019000  0.30648000  0.14582000  1.0 -0.0992020167
C  C86  1  0.43981000  0.69352000  0.85418000  1.0 -0.0992020167
C  C87  1  0.93981000  0.19352000  0.64582000  1.0 -0.0992020167
C  C88  1  0.06019000  0.80648000  0.35418000  1.0 -0.0992020167
C  C89  1  0.32679000  0.29467000  0.35890000  1.0 -0.0233749933
C  C90  1  0.67321000  0.70533000  0.64110000  1.0 -0.0233749933
C  C91  1  0.17321000  0.20533000  0.85890000  1.0 -0.0233749933
C  C92  1  0.82679000  0.79467000  0.14110000  1.0 -0.0233749933
C  C93  1  0.67321000  0.29467000  0.14110000  1.0 -0.0233749933
C  C94  1  0.32679000  0.70533000  0.85890000  1.0 -0.0233749933
C  C95  1  0.82679000  0.20533000  0.64110000  1.0 -0.0233749933
C  C96  1  0.17321000  0.79467000  0.35890000  1.0 -0.0233749933
C  C97  1  0.21723000  0.29329000  0.34715000  1.0 -0.1388453696
C  C98  1  0.78277000  0.70671000  0.65285000  1.0 -0.1388453696
C  C99  1  0.28277000  0.20671000  0.84715000  1.0 -0.1388453696
C  C100  1  0.71723000  0.79329000  0.15285000  1.0 -0.1388453696
C  C101  1  0.78277000  0.29329000  0.15285000  1.0 -0.1388453696
C  C102  1  0.21723000  0.70671000  0.84715000  1.0 -0.1388453696
C  C103  1  0.71723000  0.20671000  0.65285000  1.0 -0.1388453696
C  C104  1  0.28277000  0.79329000  0.34715000  1.0 -0.1388453696
C  C105  1  0.09597000  0.27757000  0.35661000  1.0 0.5886167493
C  C106  1  0.90403000  0.72243000  0.64339000  1.0 0.5886167493
C  C107  1  0.40403000  0.22243000  0.85661000  1.0 0.5886167493
C  C108  1  0.59597000  0.77757000  0.14339000  1.0 0.5886167493
C  C109  1  0.90403000  0.27757000  0.14339000  1.0 0.5886167493
C  C110  1  0.09597000  0.72243000  0.85661000  1.0 0.5886167493
C  C111  1  0.59597000  0.22243000  0.64339000  1.0 0.5886167493
C  C112  1  0.40403000  0.77757000  0.35661000  1.0 0.5886167493
C  C113  1  0.25433000  0.31539000  0.31777000  1.0 -0.0902114741
C  C114  1  0.74567000  0.68461000  0.68223000  1.0 -0.0902114741
C  C115  1  0.24567000  0.18461000  0.81777000  1.0 -0.0902114741
C  C116  1  0.75433000  0.81539000  0.18223000  1.0 -0.0902114741
C  C117  1  0.74567000  0.31539000  0.18223000  1.0 -0.0902114741
C  C118  1  0.25433000  0.68461000  0.81777000  1.0 -0.0902114741
C  C119  1  0.75433000  0.18461000  0.68223000  1.0 -0.0902114741
C  C120  1  0.24567000  0.81539000  0.31777000  1.0 -0.0902114741
C  C121  1  0.34618000  0.32894000  0.30581000  1.0 0.0832172479
C  C122  1  0.65382000  0.67106000  0.69419000  1.0 0.0832172479
C  C123  1  0.15382000  0.17106000  0.80581000  1.0 0.0832172479
C  C124  1  0.84618000  0.82894000  0.19419000  1.0 0.0832172479
C  C125  1  0.65382000  0.32894000  0.19419000  1.0 0.0832172479
C  C126  1  0.34618000  0.67106000  0.80581000  1.0 0.0832172479
C  C127  1  0.84618000  0.17106000  0.69419000  1.0 0.0832172479
C  C128  1  0.15382000  0.82894000  0.30581000  1.0 0.0832172479
C  C129  1  0.42740000  0.32370000  0.32643000  1.0 -0.0902114741
C  C130  1  0.57260000  0.67630000  0.67357000  1.0 -0.0902114741
C  C131  1  0.07260000  0.17630000  0.82643000  1.0 -0.0902114741
C  C132  1  0.92740000  0.82370000  0.17357000  1.0 -0.0902114741
C  C133  1  0.57260000  0.32370000  0.17357000  1.0 -0.0902114741
C  C134  1  0.42740000  0.67630000  0.82643000  1.0 -0.0902114741
C  C135  1  0.92740000  0.17630000  0.67357000  1.0 -0.0902114741
C  C136  1  0.07260000  0.82370000  0.32643000  1.0 -0.0902114741
C  C137  1  0.46474000  0.36230000  0.25886000  1.0 0.1581029068
C  C138  1  0.53526000  0.63770000  0.74114000  1.0 0.1581029068
C  C139  1  0.03526000  0.13770000  0.75886000  1.0 0.1581029068
C  C140  1  0.96474000  0.86230000  0.24114000  1.0 0.1581029068
C  C141  1  0.53526000  0.36230000  0.24114000  1.0 0.1581029068
C  C142  1  0.46474000  0.63770000  0.75886000  1.0 0.1581029068
C  C143  1  0.96474000  0.13770000  0.74114000  1.0 0.1581029068
C  C144  1  0.03526000  0.86230000  0.25886000  1.0 0.1581029068
C  C145  1  0.67230000  0.34379000  0.46199000  1.0 0.5886167493
C  C146  1  0.32770000  0.65621000  0.53801000  1.0 0.5886167493
C  C147  1  0.82770000  0.15621000  0.96199000  1.0 0.5886167493
C  C148  1  0.17230000  0.84379000  0.03801000  1.0 0.5886167493
C  C149  1  0.32770000  0.34379000  0.03801000  1.0 0.5886167493
C  C150  1  0.67230000  0.65621000  0.96199000  1.0 0.5886167493
C  C151  1  0.17230000  0.15621000  0.53801000  1.0 0.5886167493
C  C152  1  0.82770000  0.84379000  0.46199000  1.0 0.5886167493
C  C153  1  0.64508000  0.37424000  0.48853000  1.0 -0.0992020167
C  C154  1  0.35492000  0.62576000  0.51147000  1.0 -0.0992020167
C  C155  1  0.85492000  0.12576000  0.98853000  1.0 -0.0992020167
C  C156  1  0.14508000  0.87424000  0.01147000  1.0 -0.0992020167
C  C157  1  0.35492000  0.37424000  0.01147000  1.0 -0.0992020167
C  C158  1  0.64508000  0.62576000  0.98853000  1.0 -0.0992020167
C  C159  1  0.14508000  0.12576000  0.51147000  1.0 -0.0992020167
C  C160  1  0.85492000  0.87424000  0.48853000  1.0 -0.0992020167
C  C161  1  0.59375000  0.36381000  0.51512000  1.0 -0.0097420879
C  C162  1  0.40625000  0.63619000  0.48488000  1.0 -0.0097420879
C  C163  1  0.90625000  0.13619000  0.01512000  1.0 -0.0097420879
C  C164  1  0.09375000  0.86381000  0.98488000  1.0 -0.0097420879
C  C165  1  0.40625000  0.36381000  0.98488000  1.0 -0.0097420879
C  C166  1  0.59375000  0.63619000  0.01512000  1.0 -0.0097420879
C  C167  1  0.09375000  0.13619000  0.48488000  1.0 -0.0097420879
C  C168  1  0.90625000  0.86381000  0.51512000  1.0 -0.0097420879
C  C169  1  0.57272000  0.38481000  0.54264000  1.0 -0.0785822925
C  C170  1  0.42728000  0.61519000  0.45736000  1.0 -0.0785822925
C  C171  1  0.92728000  0.11519000  0.04264000  1.0 -0.0785822925
C  C172  1  0.07272000  0.88481000  0.95736000  1.0 -0.0785822925
C  C173  1  0.42728000  0.38481000  0.95736000  1.0 -0.0785822925
C  C174  1  0.57272000  0.61519000  0.04264000  1.0 -0.0785822925
C  C175  1  0.07272000  0.11519000  0.45736000  1.0 -0.0785822925
C  C176  1  0.92728000  0.88481000  0.54264000  1.0 -0.0785822925
C  C177  1  0.53253000  0.36053000  0.57208000  1.0 0.5586461645
C  C178  1  0.46747000  0.63947000  0.42792000  1.0 0.5586461645
C  C179  1  0.96747000  0.13947000  0.07208000  1.0 0.5586461645
C  C180  1  0.03253000  0.86053000  0.92792000  1.0 0.5586461645
C  C181  1  0.46747000  0.36053000  0.92792000  1.0 0.5586461645
C  C182  1  0.53253000  0.63947000  0.07208000  1.0 0.5586461645
C  C183  1  0.03253000  0.13947000  0.42792000  1.0 0.5586461645
C  C184  1  0.96747000  0.86053000  0.57208000  1.0 0.5586461645
C  C185  1  0.59624000  0.41943000  0.53708000  1.0 0.0106994619
C  C186  1  0.40376000  0.58057000  0.46292000  1.0 0.0106994619
C  C187  1  0.90376000  0.08057000  0.03708000  1.0 0.0106994619
C  C188  1  0.09624000  0.91943000  0.96292000  1.0 0.0106994619
C  C189  1  0.40376000  0.41943000  0.96292000  1.0 0.0106994619
C  C190  1  0.59624000  0.58057000  0.03708000  1.0 0.0106994619
C  C191  1  0.09624000  0.08057000  0.46292000  1.0 0.0106994619
C  C192  1  0.90376000  0.91943000  0.53708000  1.0 0.0106994619
C  C193  1  0.65793000  0.45051000  0.51083000  1.0 0.2338695447
C  C194  1  0.34207000  0.54949000  0.48917000  1.0 0.2338695447
C  C195  1  0.84207000  0.04949000  0.01083000  1.0 0.2338695447
C  C196  1  0.15793000  0.95051000  0.98917000  1.0 0.2338695447
C  C197  1  0.34207000  0.45051000  0.98917000  1.0 0.2338695447
C  C198  1  0.65793000  0.54949000  0.01083000  1.0 0.2338695447
C  C199  1  0.15793000  0.04949000  0.48917000  1.0 0.2338695447
C  C200  1  0.84207000  0.95051000  0.51083000  1.0 0.2338695447
C  C201  1  0.65906000  0.41561000  0.49450000  1.0 -0.0785822925
C  C202  1  0.34094000  0.58439000  0.50550000  1.0 -0.0785822925
C  C203  1  0.84094000  0.08439000  0.99450000  1.0 -0.0785822925
C  C204  1  0.15906000  0.91561000  0.00550000  1.0 -0.0785822925
C  C205  1  0.34094000  0.41561000  0.00550000  1.0 -0.0785822925
C  C206  1  0.65906000  0.58439000  0.99450000  1.0 -0.0785822925
C  C207  1  0.15906000  0.08439000  0.50550000  1.0 -0.0785822925
C  C208  1  0.84094000  0.91561000  0.49450000  1.0 -0.0785822925
C  C209  1  0.65967000  0.52269000  0.53203000  1.0 -0.131781653
C  C210  1  0.34033000  0.47731000  0.46797000  1.0 -0.131781653
C  C211  1  0.84033000  0.97731000  0.03203000  1.0 -0.131781653
C  C212  1  0.15967000  0.02269000  0.96797000  1.0 -0.131781653
C  C213  1  0.34033000  0.52269000  0.96797000  1.0 -0.131781653
C  C214  1  0.65967000  0.47731000  0.03203000  1.0 -0.131781653
C  C215  1  0.15967000  0.97731000  0.46797000  1.0 -0.131781653
C  C216  1  0.84033000  0.02269000  0.53203000  1.0 -0.131781653
C  C217  1  0.27675000  0.29748000  0.66367000  1.0 0.6163881864
C  C218  1  0.72325000  0.70252000  0.33633000  1.0 0.6163881864
C  C219  1  0.22325000  0.20252000  0.16367000  1.0 0.6163881864
C  C220  1  0.77675000  0.79748000  0.83633000  1.0 0.6163881864
C  C221  1  0.72325000  0.29748000  0.83633000  1.0 0.6163881864
C  C222  1  0.27675000  0.70252000  0.16367000  1.0 0.6163881864
C  C223  1  0.77675000  0.20252000  0.33633000  1.0 0.6163881864
C  C224  1  0.22325000  0.79748000  0.66367000  1.0 0.6163881864
C  C225  1  0.19615000  0.33547000  0.67729000  1.0 -0.0473001231
C  C226  1  0.80385000  0.66453000  0.32271000  1.0 -0.0473001231
C  C227  1  0.30385000  0.16453000  0.17729000  1.0 -0.0473001231
C  C228  1  0.69615000  0.83547000  0.82271000  1.0 -0.0473001231
C  C229  1  0.80385000  0.33547000  0.82271000  1.0 -0.0473001231
C  C230  1  0.19615000  0.66453000  0.17729000  1.0 -0.0473001231
C  C231  1  0.69615000  0.16453000  0.32271000  1.0 -0.0473001231
C  C232  1  0.30385000  0.83547000  0.67729000  1.0 -0.0473001231
C  C233  1  0.21040000  0.37705000  0.67541000  1.0 -0.0097420879
C  C234  1  0.78960000  0.62295000  0.32459000  1.0 -0.0097420879
C  C235  1  0.28960000  0.12295000  0.17541000  1.0 -0.0097420879
C  C236  1  0.71040000  0.87705000  0.82459000  1.0 -0.0097420879
C  C237  1  0.78960000  0.37705000  0.82459000  1.0 -0.0097420879
C  C238  1  0.21040000  0.62295000  0.17541000  1.0 -0.0097420879
C  C239  1  0.71040000  0.12295000  0.32459000  1.0 -0.0097420879
C  C240  1  0.28960000  0.87705000  0.67541000  1.0 -0.0097420879
C  C241  1  0.16023000  0.41783000  0.68115000  1.0 -0.0902114741
C  C242  1  0.83977000  0.58217000  0.31885000  1.0 -0.0902114741
C  C243  1  0.33977000  0.08217000  0.18115000  1.0 -0.0902114741
C  C244  1  0.66023000  0.91783000  0.81885000  1.0 -0.0902114741
C  C245  1  0.83977000  0.41783000  0.81885000  1.0 -0.0902114741
C  C246  1  0.16023000  0.58217000  0.18115000  1.0 -0.0902114741
C  C247  1  0.66023000  0.08217000  0.31885000  1.0 -0.0902114741
C  C248  1  0.33977000  0.91783000  0.68115000  1.0 -0.0902114741
C  C249  1  0.24172000  0.44704000  0.67715000  1.0 0.3109840896
C  C250  1  0.75828000  0.55296000  0.32285000  1.0 0.3109840896
C  C251  1  0.25828000  0.05296000  0.17715000  1.0 0.3109840896
C  C252  1  0.74172000  0.94704000  0.82285000  1.0 0.3109840896
C  C253  1  0.75828000  0.44704000  0.82285000  1.0 0.3109840896
C  C254  1  0.24172000  0.55296000  0.17715000  1.0 0.3109840896
C  C255  1  0.74172000  0.05296000  0.32285000  1.0 0.3109840896
C  C256  1  0.25828000  0.94704000  0.67715000  1.0 0.3109840896
C  C257  1  0.05328000  0.39631000  0.69783000  1.0 -0.0992020167
C  C258  1  0.94672000  0.60369000  0.30217000  1.0 -0.0992020167
C  C259  1  0.44672000  0.10369000  0.19783000  1.0 -0.0992020167
C  C260  1  0.55328000  0.89631000  0.80217000  1.0 -0.0992020167
C  C261  1  0.94672000  0.39631000  0.80217000  1.0 -0.0992020167
C  C262  1  0.05328000  0.60369000  0.19783000  1.0 -0.0992020167
C  C263  1  0.55328000  0.10369000  0.30217000  1.0 -0.0992020167
C  C264  1  0.44672000  0.89631000  0.69783000  1.0 -0.0992020167
C  C265  1  0.01546000  0.35916000  0.70399000  1.0 0.1244079914
C  C266  1  0.98454000  0.64084000  0.29601000  1.0 0.1252495494
C  C267  1  0.48454000  0.14084000  0.20399000  1.0 0.1244079914
C  C268  1  0.51546000  0.85916000  0.79601000  1.0 0.1252495494
C  C269  1  0.98454000  0.35916000  0.79601000  1.0 0.1244079914
C  C270  1  0.01546000  0.64084000  0.20399000  1.0 0.1252495494
C  C271  1  0.51546000  0.14084000  0.29601000  1.0 0.1244079914
C  C272  1  0.48454000  0.85916000  0.70399000  1.0 0.1252495494
C  C273  1  0.09507000  0.33264000  0.69237000  1.0 -0.0992020167
C  C274  1  0.90493000  0.66736000  0.30763000  1.0 -0.0992020167
C  C275  1  0.40493000  0.16736000  0.19237000  1.0 -0.0992020167
C  C276  1  0.59507000  0.83264000  0.80763000  1.0 -0.0992020167
C  C277  1  0.90493000  0.33264000  0.80763000  1.0 -0.0992020167
C  C278  1  0.09507000  0.66736000  0.19237000  1.0 -0.0992020167
C  C279  1  0.59507000  0.16736000  0.30763000  1.0 -0.0992020167
C  C280  1  0.40493000  0.83264000  0.69237000  1.0 -0.0992020167
C  C281  1  0.87346000  0.30695000  0.72454000  1.0 -0.108120598
C  C282  1  0.12654000  0.69305000  0.27546000  1.0 -0.108120598
C  C283  1  0.62654000  0.19305000  0.22454000  1.0 -0.108120598
C  C284  1  0.37346000  0.80695000  0.77546000  1.0 -0.108120598
C  C285  1  0.12654000  0.30695000  0.77546000  1.0 -0.108120598
C  C286  1  0.87346000  0.69305000  0.22454000  1.0 -0.108120598
C  C287  1  0.37346000  0.19305000  0.27546000  1.0 -0.108120598
C  C288  1  0.62654000  0.80695000  0.72454000  1.0 -0.108120598
C  C289  1  0.01897000  0.60970000  0.61907000  1.0 0.6005865667
C  C290  1  0.98103000  0.39030000  0.38093000  1.0 0.6005865667
C  C291  1  0.48103000  0.89030000  0.11907000  1.0 0.6005865667
C  C292  1  0.51897000  0.10970000  0.88093000  1.0 0.6005865667
C  C293  1  0.98103000  0.60970000  0.88093000  1.0 0.6005865667
C  C294  1  0.01897000  0.39030000  0.11907000  1.0 0.6005865667
C  C295  1  0.51897000  0.89030000  0.38093000  1.0 0.6005865667
C  C296  1  0.48103000  0.10970000  0.61907000  1.0 0.6005865667
C  C297  1  0.89998000  0.62012000  0.60179000  1.0 -0.0785822925
C  C298  1  0.10002000  0.37988000  0.39821000  1.0 -0.0785822925
C  C299  1  0.60002000  0.87988000  0.10179000  1.0 -0.0785822925
C  C300  1  0.39998000  0.12012000  0.89821000  1.0 -0.0785822925
C  C301  1  0.10002000  0.62012000  0.89821000  1.0 -0.0785822925
C  C302  1  0.89998000  0.37988000  0.10179000  1.0 -0.0785822925
C  C303  1  0.39998000  0.87988000  0.39821000  1.0 -0.0785822925
C  C304  1  0.60002000  0.12012000  0.60179000  1.0 -0.0785822925
C  C305  1  0.79272000  0.60474000  0.60462000  1.0 0.0106994619
C  C306  1  0.20728000  0.39526000  0.39538000  1.0 0.0106994619
C  C307  1  0.70728000  0.89526000  0.10462000  1.0 0.0106994619
C  C308  1  0.29272000  0.10474000  0.89538000  1.0 0.0106994619
C  C309  1  0.20728000  0.60474000  0.89538000  1.0 0.0106994619
C  C310  1  0.79272000  0.39526000  0.10462000  1.0 0.0106994619
C  C311  1  0.29272000  0.89526000  0.39538000  1.0 0.0106994619
C  C312  1  0.70728000  0.10474000  0.60462000  1.0 0.0106994619
C  C313  1  0.68092000  0.60907000  0.59309000  1.0 -0.108120598
C  C314  1  0.31908000  0.39093000  0.40691000  1.0 -0.108120598
C  C315  1  0.81908000  0.89093000  0.09309000  1.0 -0.108120598
C  C316  1  0.18092000  0.10907000  0.90691000  1.0 -0.108120598
C  C317  1  0.31908000  0.60907000  0.90691000  1.0 -0.108120598
C  C318  1  0.68092000  0.39093000  0.09309000  1.0 -0.108120598
C  C319  1  0.18092000  0.89093000  0.40691000  1.0 -0.108120598
C  C320  1  0.81908000  0.10907000  0.59309000  1.0 -0.108120598
C  C321  1  0.56994000  0.58589000  0.60299000  1.0 0.5886167493
C  C322  1  0.43006000  0.41411000  0.39701000  1.0 0.5886167493
C  C323  1  0.93006000  0.91411000  0.10299000  1.0 0.5886167493
C  C324  1  0.06994000  0.08589000  0.89701000  1.0 0.5886167493
C  C325  1  0.43006000  0.58589000  0.89701000  1.0 0.5886167493
C  C326  1  0.56994000  0.41411000  0.10299000  1.0 0.5886167493
C  C327  1  0.06994000  0.91411000  0.39701000  1.0 0.5886167493
C  C328  1  0.93006000  0.08589000  0.60299000  1.0 0.5886167493
C  C329  1  0.70399000  0.63955000  0.57256000  1.0 -0.108120598
C  C330  1  0.29601000  0.36045000  0.42744000  1.0 -0.108120598
C  C331  1  0.79601000  0.86045000  0.07256000  1.0 -0.108120598
C  C332  1  0.20399000  0.13955000  0.92744000  1.0 -0.108120598
C  C333  1  0.29601000  0.63955000  0.92744000  1.0 -0.108120598
C  C334  1  0.70399000  0.36045000  0.07256000  1.0 -0.108120598
C  C335  1  0.20399000  0.86045000  0.42744000  1.0 -0.108120598
C  C336  1  0.79601000  0.13955000  0.57256000  1.0 -0.108120598
C  C337  1  0.79851000  0.66529000  0.56083000  1.0 0.1835000436
C  C338  1  0.20149000  0.33471000  0.43917000  1.0 0.1835000436
C  C339  1  0.70149000  0.83471000  0.06083000  1.0 0.1835000436
C  C340  1  0.29851000  0.16529000  0.93917000  1.0 0.1835000436
C  C341  1  0.20149000  0.66529000  0.93917000  1.0 0.1835000436
C  C342  1  0.79851000  0.33471000  0.06083000  1.0 0.1835000436
C  C343  1  0.29851000  0.83471000  0.43917000  1.0 0.1835000436
C  C344  1  0.70149000  0.16529000  0.56083000  1.0 0.1835000436
C  C345  1  0.88181000  0.64897000  0.57921000  1.0 -0.131781653
C  C346  1  0.11819000  0.35103000  0.42079000  1.0 -0.131781653
C  C347  1  0.61819000  0.85103000  0.07921000  1.0 -0.131781653
C  C348  1  0.38181000  0.14897000  0.92079000  1.0 -0.131781653
C  C349  1  0.11819000  0.64897000  0.92079000  1.0 -0.131781653
C  C350  1  0.88181000  0.35103000  0.07921000  1.0 -0.131781653
C  C351  1  0.38181000  0.85103000  0.42079000  1.0 -0.131781653
C  C352  1  0.61819000  0.14897000  0.57921000  1.0 -0.131781653
C  C353  1  0.71028000  0.70552000  0.52189000  1.0 -0.0992020167
C  C354  1  0.28972000  0.29448000  0.47811000  1.0 -0.0992020167
C  C355  1  0.78972000  0.79448000  0.02189000  1.0 -0.0992020167
C  C356  1  0.21028000  0.20552000  0.97811000  1.0 -0.0992020167
C  C357  1  0.28972000  0.70552000  0.97811000  1.0 -0.0992020167
C  C358  1  0.71028000  0.29448000  0.02189000  1.0 -0.0992020167
C  C359  1  0.21028000  0.79448000  0.47811000  1.0 -0.0992020167
C  C360  1  0.78972000  0.20552000  0.52189000  1.0 -0.0992020167
C  C361  1  0.14195000  0.63765000  0.70354000  1.0 0.5886167493
C  C362  1  0.85805000  0.36235000  0.29646000  1.0 0.5886167493
C  C363  1  0.35805000  0.86235000  0.20354000  1.0 0.5886167493
C  C364  1  0.64195000  0.13765000  0.79646000  1.0 0.5886167493
C  C365  1  0.85805000  0.63765000  0.79646000  1.0 0.5886167493
C  C366  1  0.14195000  0.36235000  0.20354000  1.0 0.5886167493
C  C367  1  0.64195000  0.86235000  0.29646000  1.0 0.5886167493
C  C368  1  0.35805000  0.13765000  0.70354000  1.0 0.5886167493
C  C369  1  0.07450000  0.66388000  0.72716000  1.0 -0.1497623747
C  C370  1  0.92550000  0.33612000  0.27284000  1.0 -0.1497623747
C  C371  1  0.42550000  0.83612000  0.22716000  1.0 -0.1497623747
C  C372  1  0.57450000  0.16388000  0.77284000  1.0 -0.1497623747
C  C373  1  0.92550000  0.66388000  0.77284000  1.0 -0.1497623747
C  C374  1  0.07450000  0.33612000  0.22716000  1.0 -0.1497623747
C  C375  1  0.57450000  0.83612000  0.27284000  1.0 -0.1497623747
C  C376  1  0.42550000  0.16388000  0.72716000  1.0 -0.1497623747
C  C377  1  0.00000000  0.64231000  0.75000000  1.0 0.0106994619
C  C378  1  0.00000000  0.35769000  0.25000000  1.0 0.0106994619
C  C379  1  0.50000000  0.85769000  0.25000000  1.0 0.0106994619
C  C380  1  0.50000000  0.14231000  0.75000000  1.0 0.0106994619
C  C381  1  0.07125000  0.71237000  0.72868000  1.0 0.031194006
C  C382  1  0.92875000  0.28763000  0.27132000  1.0 0.031194006
C  C383  1  0.42875000  0.78763000  0.22868000  1.0 0.031194006
C  C384  1  0.57125000  0.21237000  0.77132000  1.0 0.031194006
C  C385  1  0.92875000  0.71237000  0.77132000  1.0 0.031194006
C  C386  1  0.07125000  0.28763000  0.22868000  1.0 0.031194006
C  C387  1  0.57125000  0.78763000  0.27132000  1.0 0.031194006
C  C388  1  0.42875000  0.21237000  0.72868000  1.0 0.031194006
C  C389  1  0.00000000  0.72822000  0.75000000  1.0 -0.0902114741
C  C390  1  0.00000000  0.27178000  0.25000000  1.0 -0.0902114741
C  C391  1  0.50000000  0.77178000  0.25000000  1.0 -0.0902114741
C  C392  1  0.50000000  0.22822000  0.75000000  1.0 -0.0902114741
C  C393  1  0.00000000  0.11367000  0.75000000  1.0 -0.0747159302
C  C394  1  0.00000000  0.88633000  0.25000000  1.0 -0.0747159302
C  C395  1  0.50000000  0.38633000  0.25000000  1.0 -0.0747159302
C  C396  1  0.50000000  0.61367000  0.75000000  1.0 -0.0747159302
O  O1  1  0.70683000  0.95580000  0.41888000  1.0 -0.6062690433
O  O2  1  0.29317000  0.04420000  0.58112000  1.0 -0.6062690433
O  O3  1  0.79317000  0.54420000  0.91888000  1.0 -0.6062690433
O  O4  1  0.20683000  0.45580000  0.08112000  1.0 -0.6062690433
O  O5  1  0.29317000  0.95580000  0.08112000  1.0 -0.6062690433
O  O6  1  0.70683000  0.04420000  0.91888000  1.0 -0.6062690433
O  O7  1  0.20683000  0.54420000  0.58112000  1.0 -0.6062690433
O  O8  1  0.79317000  0.45580000  0.41888000  1.0 -0.6062690433
O  O9  1  0.83572000  0.27088000  0.39987000  1.0 -0.8234374931
O  O10  1  0.16428000  0.72912000  0.60013000  1.0 -0.8234374931
O  O11  1  0.66428000  0.22912000  0.89987000  1.0 -0.8234374931
O  O12  1  0.33572000  0.77088000  0.10013000  1.0 -0.8254352365
O  O13  1  0.16428000  0.27088000  0.10013000  1.0 -0.8234374931
O  O14  1  0.83572000  0.72912000  0.89987000  1.0 -0.8234374931
O  O15  1  0.33572000  0.22912000  0.60013000  1.0 -0.8234374931
O  O16  1  0.66428000  0.77088000  0.39987000  1.0 -0.8234374931
O  O17  1  0.84978000  0.00943000  0.39551000  1.0 -0.5624684472
O  O18  1  0.15022000  0.99057000  0.60449000  1.0 -0.5624684472
O  O19  1  0.65022000  0.49057000  0.89551000  1.0 -0.5624684472
O  O20  1  0.34978000  0.50943000  0.10449000  1.0 -0.5624684472
O  O21  1  0.15022000  0.00943000  0.10449000  1.0 -0.5624684472
O  O22  1  0.84978000  0.99057000  0.89551000  1.0 -0.5624684472
O  O23  1  0.34978000  0.49057000  0.60449000  1.0 -0.5624684472
O  O24  1  0.65022000  0.50943000  0.39551000  1.0 -0.5624684472
O  O25  1  0.02707000  0.04311000  0.35803000  1.0 -0.3714686152
O  O26  1  0.97293000  0.95689000  0.64197000  1.0 -0.3714686152
O  O27  1  0.47293000  0.45689000  0.85803000  1.0 -0.3714686152
O  O28  1  0.52707000  0.54311000  0.14197000  1.0 -0.3714686152
O  O29  1  0.97293000  0.04311000  0.14197000  1.0 -0.3714686152
O  O30  1  0.02707000  0.95689000  0.85803000  1.0 -0.3714686152
O  O31  1  0.52707000  0.45689000  0.64197000  1.0 -0.3714686152
O  O32  1  0.47293000  0.54311000  0.35803000  1.0 -0.3714686152
O  O33  1  0.30886000  0.57204000  0.64501000  1.0 -0.866754115
O  O34  1  0.69114000  0.42796000  0.35499000  1.0 -0.866754115
O  O35  1  0.19114000  0.92796000  0.14501000  1.0 -0.866754115
O  O36  1  0.80886000  0.07204000  0.85499000  1.0 -0.866754115
O  O37  1  0.69114000  0.57204000  0.85499000  1.0 -0.866754115
O  O38  1  0.30886000  0.42796000  0.14501000  1.0 -0.866754115
O  O39  1  0.80886000  0.92796000  0.35499000  1.0 -0.866754115
O  O40  1  0.19114000  0.07204000  0.64501000  1.0 -0.866754115
O  O41  1  0.75942000  0.17529000  0.39949000  1.0 -0.6322654043
O  O42  1  0.24058000  0.82471000  0.60051000  1.0 -0.6322654043
O  O43  1  0.74058000  0.32471000  0.89949000  1.0 -0.6322654043
O  O44  1  0.25942000  0.67529000  0.10051000  1.0 -0.6322654043
O  O45  1  0.24058000  0.17529000  0.10051000  1.0 -0.6322654043
O  O46  1  0.75942000  0.82471000  0.89949000  1.0 -0.6322654043
O  O47  1  0.25942000  0.32471000  0.60051000  1.0 -0.6322654043
O  O48  1  0.74058000  0.67529000  0.39949000  1.0 -0.6322654043
O  O49  1  0.65979000  0.20422000  0.44598000  1.0 -0.5701041971
O  O50  1  0.34021000  0.79578000  0.55402000  1.0 -0.5701041971
O  O51  1  0.84021000  0.29578000  0.94598000  1.0 -0.5701041971
O  O52  1  0.15979000  0.70422000  0.05402000  1.0 -0.5701041971
O  O53  1  0.34021000  0.20422000  0.05402000  1.0 -0.5701041971
O  O54  1  0.65979000  0.79578000  0.94598000  1.0 -0.5701041971
O  O55  1  0.15979000  0.29578000  0.55402000  1.0 -0.5701041971
O  O56  1  0.84021000  0.70422000  0.44598000  1.0 -0.5701041971
O  O57  1  0.50377000  0.05677000  0.49826000  1.0 -0.1497623747
O  O58  1  0.49623000  0.94323000  0.50174000  1.0 -0.1497623747
O  O59  1  0.99623000  0.44323000  0.99826000  1.0 -0.1497623747
O  O60  1  0.00377000  0.55677000  0.00174000  1.0 -0.1497623747
O  O61  1  0.49623000  0.05677000  0.00174000  1.0 -0.1497623747
O  O62  1  0.50377000  0.94323000  0.99826000  1.0 -0.1497623747
O  O63  1  0.00377000  0.44323000  0.50174000  1.0 -0.1497623747
O  O64  1  0.99623000  0.55677000  0.49826000  1.0 -0.1497623747
O  O65  1  0.54238000  0.27038000  0.39769000  1.0 -0.5968803395
O  O66  1  0.45762000  0.72962000  0.60231000  1.0 -0.5968803395
O  O67  1  0.95762000  0.22962000  0.89769000  1.0 -0.5968803395
O  O68  1  0.04238000  0.77038000  0.10231000  1.0 -0.5968803395
O  O69  1  0.45762000  0.27038000  0.10231000  1.0 -0.5968803395
O  O70  1  0.54238000  0.72962000  0.89769000  1.0 -0.5968803395
O  O71  1  0.04238000  0.22962000  0.60231000  1.0 -0.5968803395
O  O72  1  0.95762000  0.77038000  0.39769000  1.0 -0.5968803395
O  O73  1  0.64733000  0.32894000  0.36824000  1.0 -0.5896170702
O  O74  1  0.35267000  0.67106000  0.63176000  1.0 -0.5896170702
O  O75  1  0.85267000  0.17106000  0.86824000  1.0 -0.5896170702
O  O76  1  0.14733000  0.82894000  0.13176000  1.0 -0.5896170702
O  O77  1  0.35267000  0.32894000  0.13176000  1.0 -0.5896170702
O  O78  1  0.64733000  0.67106000  0.86824000  1.0 -0.5896170702
O  O79  1  0.14733000  0.17106000  0.63176000  1.0 -0.5896170702
O  O80  1  0.85267000  0.82894000  0.36824000  1.0 -0.5896170702
O  O81  1  0.09418000  0.24349000  0.37612000  1.0 -0.5508602737
O  O82  1  0.90582000  0.75651000  0.62388000  1.0 -0.5508602737
O  O83  1  0.40582000  0.25651000  0.87612000  1.0 -0.5508602737
O  O84  1  0.59418000  0.74349000  0.12388000  1.0 -0.5508602737
O  O85  1  0.90582000  0.24349000  0.12388000  1.0 -0.5508602737
O  O86  1  0.09418000  0.75651000  0.87612000  1.0 -0.5508602737
O  O87  1  0.59418000  0.25651000  0.62388000  1.0 -0.5508602737
O  O88  1  0.40582000  0.74349000  0.37612000  1.0 -0.5508602737
O  O89  1  0.99569000  0.29954000  0.34371000  1.0 -0.6228076969
O  O90  1  0.00431000  0.70046000  0.65629000  1.0 -0.6228076969
O  O91  1  0.50431000  0.20046000  0.84371000  1.0 -0.6228076969
O  O92  1  0.49569000  0.79954000  0.15629000  1.0 -0.6228076969
O  O93  1  0.00431000  0.29954000  0.15629000  1.0 -0.6228076969
O  O94  1  0.99569000  0.70046000  0.84371000  1.0 -0.6228076969
O  O95  1  0.49569000  0.20046000  0.65629000  1.0 -0.6228076969
O  O96  1  0.50431000  0.79954000  0.34371000  1.0 -0.6228076969
O  O97  1  0.35740000  0.35220000  0.27350000  1.0 -0.1757899415
O  O98  1  0.64260000  0.64780000  0.72650000  1.0 -0.1757899415
O  O99  1  0.14260000  0.14780000  0.77350000  1.0 -0.1757899415
O  O100  1  0.85740000  0.85220000  0.22650000  1.0 -0.1757899415
O  O101  1  0.64260000  0.35220000  0.22650000  1.0 -0.1757899415
O  O102  1  0.35740000  0.64780000  0.77350000  1.0 -0.1757899415
O  O103  1  0.85740000  0.14780000  0.72650000  1.0 -0.1757899415
O  O104  1  0.14260000  0.85220000  0.27350000  1.0 -0.1757899415
O  O105  1  0.63415000  0.29916000  0.46277000  1.0 -0.5837366734
O  O106  1  0.36585000  0.70084000  0.53723000  1.0 -0.5837366734
O  O107  1  0.86585000  0.20084000  0.96277000  1.0 -0.5837366734
O  O108  1  0.13415000  0.79916000  0.03723000  1.0 -0.5837366734
O  O109  1  0.36585000  0.29916000  0.03723000  1.0 -0.5837366734
O  O110  1  0.63415000  0.70084000  0.96277000  1.0 -0.5837366734
O  O111  1  0.13415000  0.20084000  0.53723000  1.0 -0.5837366734
O  O112  1  0.86585000  0.79916000  0.46277000  1.0 -0.5837366734
O  O113  1  0.74187000  0.36015000  0.43859000  1.0 -0.5624684472
O  O114  1  0.25813000  0.63985000  0.56141000  1.0 -0.5624684472
O  O115  1  0.75813000  0.13985000  0.93859000  1.0 -0.5624684472
O  O116  1  0.24187000  0.86015000  0.06141000  1.0 -0.5624684472
O  O117  1  0.25813000  0.36015000  0.06141000  1.0 -0.5624684472
O  O118  1  0.74187000  0.63985000  0.93859000  1.0 -0.5624684472
O  O119  1  0.24187000  0.13985000  0.56141000  1.0 -0.5624684472
O  O120  1  0.75813000  0.86015000  0.43859000  1.0 -0.5624684472
O  O121  1  0.49166000  0.31427000  0.57083000  1.0 -0.6322654043
O  O122  1  0.50834000  0.68573000  0.42917000  1.0 -0.6322654043
O  O123  1  0.00834000  0.18573000  0.07083000  1.0 -0.6322654043
O  O124  1  0.99166000  0.81427000  0.92917000  1.0 -0.6322654043
O  O125  1  0.50834000  0.31427000  0.92917000  1.0 -0.6322654043
O  O126  1  0.49166000  0.68573000  0.07083000  1.0 -0.6322654043
O  O127  1  0.99166000  0.18573000  0.42917000  1.0 -0.6322654043
O  O128  1  0.00834000  0.81427000  0.57083000  1.0 -0.6322654043
O  O129  1  0.54081000  0.38114000  0.59845000  1.0 -0.4659872825
O  O130  1  0.45919000  0.61886000  0.40155000  1.0 -0.4639257644
O  O131  1  0.95919000  0.11886000  0.09845000  1.0 -0.4659872825
O  O132  1  0.04081000  0.88114000  0.90155000  1.0 -0.4659872825
O  O133  1  0.45919000  0.38114000  0.90155000  1.0 -0.4659872825
O  O134  1  0.54081000  0.61886000  0.09845000  1.0 -0.4639257644
O  O135  1  0.04081000  0.11886000  0.40155000  1.0 -0.4659872825
O  O136  1  0.95919000  0.88114000  0.59845000  1.0 -0.4659872825
O  O137  1  0.68412000  0.49219000  0.50780000  1.0 -0.131781653
O  O138  1  0.31588000  0.50781000  0.49220000  1.0 -0.131781653
O  O139  1  0.81588000  0.00781000  0.00780000  1.0 -0.131781653
O  O140  1  0.18412000  0.99219000  0.99220000  1.0 -0.131781653
O  O141  1  0.31588000  0.49219000  0.99220000  1.0 -0.131781653
O  O142  1  0.68412000  0.50781000  0.00780000  1.0 -0.131781653
O  O143  1  0.18412000  0.00781000  0.49220000  1.0 -0.131781653
O  O144  1  0.81588000  0.99219000  0.50780000  1.0 -0.131781653
O  O145  1  0.38460000  0.31038000  0.65214000  1.0 -0.5508602737
O  O146  1  0.61540000  0.68962000  0.34786000  1.0 -0.5508602737
O  O147  1  0.11540000  0.18962000  0.15214000  1.0 -0.5508602737
O  O148  1  0.88460000  0.81038000  0.84786000  1.0 -0.5508602737
O  O149  1  0.61540000  0.31038000  0.84786000  1.0 -0.5508602737
O  O150  1  0.38460000  0.68962000  0.15214000  1.0 -0.5508602737
O  O151  1  0.88460000  0.18962000  0.34786000  1.0 -0.5508602737
O  O152  1  0.11540000  0.81038000  0.65214000  1.0 -0.5508602737
O  O153  1  0.23072000  0.25367000  0.66436000  1.0 -0.6062690433
O  O154  1  0.76928000  0.74633000  0.33564000  1.0 -0.6062690433
O  O155  1  0.26928000  0.24633000  0.16436000  1.0 -0.6062690433
O  O156  1  0.73072000  0.75367000  0.83564000  1.0 -0.6062690433
O  O157  1  0.76928000  0.25367000  0.83564000  1.0 -0.6062690433
O  O158  1  0.23072000  0.74633000  0.16436000  1.0 -0.6062690433
O  O159  1  0.73072000  0.24633000  0.33564000  1.0 -0.6062690433
O  O160  1  0.26928000  0.75367000  0.66436000  1.0 -0.6062690433
O  O161  1  0.30348000  0.47792000  0.67397000  1.0 -0.4659872825
O  O162  1  0.69652000  0.52208000  0.32603000  1.0 -0.4659872825
O  O163  1  0.19652000  0.02208000  0.17397000  1.0 -0.4659872825
O  O164  1  0.80348000  0.97792000  0.82603000  1.0 -0.4659872825
O  O165  1  0.69652000  0.47792000  0.82603000  1.0 -0.4659872825
O  O166  1  0.30348000  0.52208000  0.17397000  1.0 -0.4659872825
O  O167  1  0.80348000  0.02208000  0.32603000  1.0 -0.4659872825
O  O168  1  0.19652000  0.97792000  0.67397000  1.0 -0.4659872825
O  O169  1  0.07010000  0.51147000  0.67659000  1.0 -0.7953589116
O  O170  1  0.92990000  0.48853000  0.32341000  1.0 -0.7953589116
O  O171  1  0.42990000  0.98853000  0.17659000  1.0 -0.7953589116
O  O172  1  0.57010000  0.01147000  0.82341000  1.0 -0.7953589116
O  O173  1  0.92990000  0.51147000  0.82341000  1.0 -0.7953589116
O  O174  1  0.07010000  0.48853000  0.17659000  1.0 -0.7953589116
O  O175  1  0.57010000  0.98853000  0.32341000  1.0 -0.7953589116
O  O176  1  0.42990000  0.01147000  0.67659000  1.0 -0.7953589116
O  O177  1  0.90542000  0.35557000  0.72020000  1.0 -0.131781653
O  O178  1  0.09458000  0.64443000  0.27980000  1.0 -0.131781653
O  O179  1  0.59458000  0.14443000  0.22020000  1.0 -0.131781653
O  O180  1  0.40542000  0.85557000  0.77980000  1.0 -0.131781653
O  O181  1  0.09458000  0.35557000  0.77980000  1.0 -0.131781653
O  O182  1  0.90542000  0.64443000  0.22020000  1.0 -0.131781653
O  O183  1  0.40542000  0.14443000  0.27980000  1.0 -0.131781653
O  O184  1  0.59458000  0.85557000  0.72020000  1.0 -0.131781653
O  O185  1  0.00747000  0.57484000  0.64074000  1.0 -0.5508602737
O  O186  1  0.99253000  0.42516000  0.35926000  1.0 -0.5508602737
O  O187  1  0.49253000  0.92516000  0.14074000  1.0 -0.5508602737
O  O188  1  0.50747000  0.07484000  0.85926000  1.0 -0.5508602737
O  O189  1  0.99253000  0.57484000  0.85926000  1.0 -0.5508602737
O  O190  1  0.00747000  0.42516000  0.14074000  1.0 -0.5508602737
O  O191  1  0.50747000  0.92516000  0.35926000  1.0 -0.5508602737
O  O192  1  0.49253000  0.07484000  0.64074000  1.0 -0.5508602737
O  O193  1  0.11761000  0.63255000  0.61337000  1.0 -0.5701041971
O  O194  1  0.88239000  0.36745000  0.38663000  1.0 -0.5701041971
O  O195  1  0.38239000  0.86745000  0.11337000  1.0 -0.5701041971
O  O196  1  0.61761000  0.13255000  0.88663000  1.0 -0.5701041971
O  O197  1  0.88239000  0.63255000  0.88663000  1.0 -0.5701041971
O  O198  1  0.11761000  0.36745000  0.11337000  1.0 -0.5701041971
O  O199  1  0.61761000  0.86745000  0.38663000  1.0 -0.5701041971
O  O200  1  0.38239000  0.13255000  0.61337000  1.0 -0.5701041971
O  O201  1  0.57148000  0.55396000  0.62404000  1.0 -0.5896170702
O  O202  1  0.42852000  0.44604000  0.37596000  1.0 -0.5896170702
O  O203  1  0.92852000  0.94604000  0.12404000  1.0 -0.5896170702
O  O204  1  0.07148000  0.05396000  0.87596000  1.0 -0.5896170702
O  O205  1  0.42852000  0.55396000  0.87596000  1.0 -0.5896170702
O  O206  1  0.57148000  0.44604000  0.12404000  1.0 -0.5896170702
O  O207  1  0.07148000  0.94604000  0.37596000  1.0 -0.5896170702
O  O208  1  0.92852000  0.05396000  0.62404000  1.0 -0.5896170702
O  O209  1  0.45778000  0.60219000  0.58698000  1.0 -0.6322654043
O  O210  1  0.54222000  0.39781000  0.41302000  1.0 -0.6322654043
O  O211  1  0.04222000  0.89781000  0.08698000  1.0 -0.6322654043
O  O212  1  0.95778000  0.10219000  0.91302000  1.0 -0.6322654043
O  O213  1  0.54222000  0.60219000  0.91302000  1.0 -0.6322654043
O  O214  1  0.45778000  0.39781000  0.08698000  1.0 -0.6322654043
O  O215  1  0.95778000  0.89781000  0.41302000  1.0 -0.6322654043
O  O216  1  0.04222000  0.10219000  0.58698000  1.0 -0.6322654043
O  O217  1  0.81642000  0.69547000  0.53956000  1.0 -0.1224099805
O  O218  1  0.18358000  0.30453000  0.46044000  1.0 -0.1224099805
O  O219  1  0.68358000  0.80453000  0.03956000  1.0 -0.1224099805
O  O220  1  0.31642000  0.19547000  0.96044000  1.0 -0.1224099805
O  O221  1  0.18358000  0.69547000  0.96044000  1.0 -0.1224099805
O  O222  1  0.81642000  0.30453000  0.03956000  1.0 -0.1224099805
O  O223  1  0.31642000  0.80453000  0.46044000  1.0 -0.1224099805
O  O224  1  0.68358000  0.19547000  0.53956000  1.0 -0.1224099805
O  O225  1  0.12566000  0.58980000  0.70596000  1.0 -0.533344381
O  O226  1  0.87434000  0.41020000  0.29404000  1.0 -0.533344381
O  O227  1  0.37434000  0.91020000  0.20596000  1.0 -0.533344381
O  O228  1  0.62566000  0.08980000  0.79404000  1.0 -0.533344381
O  O229  1  0.87434000  0.58980000  0.79404000  1.0 -0.533344381
O  O230  1  0.12566000  0.41020000  0.20596000  1.0 -0.533344381
O  O231  1  0.62566000  0.91020000  0.29404000  1.0 -0.533344381
O  O232  1  0.37434000  0.08980000  0.70596000  1.0 -0.533344381
O  O233  1  0.20757000  0.65699000  0.68358000  1.0 -0.5060216639
O  O234  1  0.79243000  0.34301000  0.31642000  1.0 -0.5060216639
O  O235  1  0.29243000  0.84301000  0.18358000  1.0 -0.5060216639
O  O236  1  0.70757000  0.15699000  0.81642000  1.0 -0.5060216639
O  O237  1  0.79243000  0.65699000  0.81642000  1.0 -0.5060216639
O  O238  1  0.20757000  0.34301000  0.18358000  1.0 -0.5060216639
O  O239  1  0.70757000  0.84301000  0.31642000  1.0 -0.5060216639
O  O240  1  0.29243000  0.15699000  0.68358000  1.0 -0.5060216639
O  O241  1  0.00000000  0.48847000  0.75000000  1.0 -0.2312901881
O  O242  1  0.00000000  0.51153000  0.25000000  1.0 -0.2312901881
O  O243  1  0.50000000  0.01153000  0.25000000  1.0 -0.2312901881
O  O244  1  0.50000000  0.98847000  0.75000000  1.0 -0.2312901881
