# DDEC6 charges by PACMAN v1.1 (https://github.com/mtap-research/PACMAN-charge/)
data_GUPCEA_FSR_pacman
_symmetry_space_group_name_H-M   'P 1'
_cell_length_a   26.74900000
_cell_length_b   26.74900000
_cell_length_c   26.74900000
_cell_angle_alpha   109.47100000
_cell_angle_beta   109.47100000
_cell_angle_gamma   109.47100000
_symmetry_Int_Tables_number   1
_chemical_formula_structural   CdH29(C4N)4
_chemical_formula_sum   'Cd24 H696 C384 N96'
_cell_volume   14733.44509754
_cell_formula_units_Z   24
loop_
 _symmetry_equiv_pos_site_id
 _symmetry_equiv_pos_as_xyz
  1  'x, y, z'
loop_
 _atom_site_type_symbol
 _atom_site_label
 _atom_site_symmetry_multiplicity
 _atom_site_fract_x
 _atom_site_fract_y
 _atom_site_fract_z
 _atom_site_occupancy
 _atom_site_charge
Cd  Cd1  1  0.70778000  0.85389000  0.35389000  1.0 0.5652442965
Cd  Cd2  1  0.50000000  0.35389000  0.64611000  1.0 0.5619192649
Cd  Cd3  1  0.50000000  0.14611000  0.85389000  1.0 0.5541739854
Cd  Cd4  1  0.29222000  0.64611000  0.14611000  1.0 0.5619192649
Cd  Cd5  1  0.35389000  0.70778000  0.85389000  1.0 0.5619192649
Cd  Cd6  1  0.64611000  0.50000000  0.35389000  1.0 0.5619192649
Cd  Cd7  1  0.85389000  0.50000000  0.14611000  1.0 0.5619192649
Cd  Cd8  1  0.14611000  0.29222000  0.64611000  1.0 0.5619192649
Cd  Cd9  1  0.85389000  0.35389000  0.70778000  1.0 0.5619192649
Cd  Cd10  1  0.35389000  0.64611000  0.50000000  1.0 0.5619192649
Cd  Cd11  1  0.14611000  0.85389000  0.50000000  1.0 0.5619192649
Cd  Cd12  1  0.64611000  0.14611000  0.29222000  1.0 0.5619192649
Cd  Cd13  1  0.29222000  0.14611000  0.64611000  1.0 0.5619192649
Cd  Cd14  1  0.50000000  0.64611000  0.35389000  1.0 0.5619192649
Cd  Cd15  1  0.50000000  0.85389000  0.14611000  1.0 0.5619192649
Cd  Cd16  1  0.70778000  0.35389000  0.85389000  1.0 0.5619192649
Cd  Cd17  1  0.64611000  0.29222000  0.14611000  1.0 0.5619192649
Cd  Cd18  1  0.35389000  0.50000000  0.64611000  1.0 0.5619192649
Cd  Cd19  1  0.14611000  0.50000000  0.85389000  1.0 0.5619192649
Cd  Cd20  1  0.85389000  0.70778000  0.35389000  1.0 0.5619192649
Cd  Cd21  1  0.14611000  0.64611000  0.29222000  1.0 0.5619192649
Cd  Cd22  1  0.64611000  0.35389000  0.50000000  1.0 0.5619192649
Cd  Cd23  1  0.85389000  0.14611000  0.50000000  1.0 0.5619192649
Cd  Cd24  1  0.35389000  0.85389000  0.70778000  1.0 0.5619192649
H  H1  1  0.68360000  0.86750000  0.47090000  1.0 0.1200164063
H  H2  1  0.39660000  0.21270000  0.52910000  1.0 0.1200164063
H  H3  1  0.60340000  0.13250000  0.81610000  1.0 0.1200164063
H  H4  1  0.31640000  0.78730000  0.18390000  1.0 0.1200164063
H  H5  1  0.47090000  0.68360000  0.86750000  1.0 0.1200164063
H  H6  1  0.52910000  0.39660000  0.21270000  1.0 0.1200164063
H  H7  1  0.81610000  0.60340000  0.13250000  1.0 0.1200164063
H  H8  1  0.18390000  0.31640000  0.78730000  1.0 0.1200164063
H  H9  1  0.86750000  0.47090000  0.68360000  1.0 0.1200164063
H  H10  1  0.21270000  0.52910000  0.39660000  1.0 0.1200164063
H  H11  1  0.13250000  0.81610000  0.60340000  1.0 0.1200164063
H  H12  1  0.78730000  0.18390000  0.31640000  1.0 0.1200164063
H  H13  1  0.78730000  0.60340000  0.47090000  1.0 0.1200164063
H  H14  1  0.13250000  0.31640000  0.52910000  1.0 0.1200164063
H  H15  1  0.21270000  0.68360000  0.81610000  1.0 0.1200164063
H  H16  1  0.86750000  0.39660000  0.18390000  1.0 0.1200164063
H  H17  1  0.39660000  0.18390000  0.86750000  1.0 0.1200164063
H  H18  1  0.68360000  0.81610000  0.21270000  1.0 0.1200164063
H  H19  1  0.31640000  0.52910000  0.13250000  1.0 0.1200164063
H  H20  1  0.60340000  0.47090000  0.78730000  1.0 0.1200164063
H  H21  1  0.81610000  0.21270000  0.68360000  1.0 0.1200164063
H  H22  1  0.18390000  0.86750000  0.39660000  1.0 0.1200164063
H  H23  1  0.47090000  0.78730000  0.60340000  1.0 0.1200164063
H  H24  1  0.52910000  0.13250000  0.31640000  1.0 0.1200164063
H  H25  1  0.31640000  0.13250000  0.52910000  1.0 0.1200164063
H  H26  1  0.60340000  0.78730000  0.47090000  1.0 0.1200164063
H  H27  1  0.39660000  0.86750000  0.18390000  1.0 0.1200164063
H  H28  1  0.68360000  0.21270000  0.81610000  1.0 0.1200164063
H  H29  1  0.52910000  0.31640000  0.13250000  1.0 0.1200164063
H  H30  1  0.47090000  0.60340000  0.78730000  1.0 0.1200164063
H  H31  1  0.18390000  0.39660000  0.86750000  1.0 0.1200164063
H  H32  1  0.81610000  0.68360000  0.21270000  1.0 0.1200164063
H  H33  1  0.13250000  0.52910000  0.31640000  1.0 0.1200164063
H  H34  1  0.78730000  0.47090000  0.60340000  1.0 0.1200164063
H  H35  1  0.86750000  0.18390000  0.39660000  1.0 0.1200164063
H  H36  1  0.21270000  0.81610000  0.68360000  1.0 0.1200164063
H  H37  1  0.21270000  0.39660000  0.52910000  1.0 0.1200164063
H  H38  1  0.86750000  0.68360000  0.47090000  1.0 0.1200164063
H  H39  1  0.78730000  0.31640000  0.18390000  1.0 0.1200164063
H  H40  1  0.13250000  0.60340000  0.81610000  1.0 0.1200164063
H  H41  1  0.60340000  0.81610000  0.13250000  1.0 0.1200164063
H  H42  1  0.31640000  0.18390000  0.78730000  1.0 0.1200164063
H  H43  1  0.68360000  0.47090000  0.86750000  1.0 0.1200164063
H  H44  1  0.39660000  0.52910000  0.21270000  1.0 0.1200164063
H  H45  1  0.18390000  0.78730000  0.31640000  1.0 0.1200164063
H  H46  1  0.81610000  0.13250000  0.60340000  1.0 0.1200164063
H  H47  1  0.52910000  0.21270000  0.39660000  1.0 0.1200164063
H  H48  1  0.47090000  0.86750000  0.68360000  1.0 0.1200164063
H  H49  1  0.65290000  0.71530000  0.31700000  1.0 0.0796814027
H  H50  1  0.39830000  0.33590000  0.68300000  1.0 0.0796814027
H  H51  1  0.60170000  0.28470000  0.93760000  1.0 0.0796814027
H  H52  1  0.34710000  0.66410000  0.06240000  1.0 0.0796814027
H  H53  1  0.31700000  0.65290000  0.71530000  1.0 0.0796814027
H  H54  1  0.68300000  0.39830000  0.33590000  1.0 0.0796814027
H  H55  1  0.93760000  0.60170000  0.28470000  1.0 0.0796814027
H  H56  1  0.06240000  0.34710000  0.66410000  1.0 0.0796814027
H  H57  1  0.71530000  0.31700000  0.65290000  1.0 0.0796814027
H  H58  1  0.33590000  0.68300000  0.39830000  1.0 0.0796814027
H  H59  1  0.28470000  0.93760000  0.60170000  1.0 0.0796814027
H  H60  1  0.66410000  0.06240000  0.34710000  1.0 0.0796814027
H  H61  1  0.66410000  0.60170000  0.31700000  1.0 0.0796814027
H  H62  1  0.28470000  0.34710000  0.68300000  1.0 0.0796814027
H  H63  1  0.33590000  0.65290000  0.93760000  1.0 0.0796814027
H  H64  1  0.71530000  0.39830000  0.06240000  1.0 0.0796814027
H  H65  1  0.39830000  0.06240000  0.71530000  1.0 0.0796814027
H  H66  1  0.65290000  0.93760000  0.33590000  1.0 0.0796814027
H  H67  1  0.34710000  0.68300000  0.28470000  1.0 0.0796814027
H  H68  1  0.60170000  0.31700000  0.66410000  1.0 0.0796814027
H  H69  1  0.93760000  0.33590000  0.65290000  1.0 0.0796814027
H  H70  1  0.06240000  0.71530000  0.39830000  1.0 0.0796814027
H  H71  1  0.31700000  0.66410000  0.60170000  1.0 0.0796814027
H  H72  1  0.68300000  0.28470000  0.34710000  1.0 0.0796814027
H  H73  1  0.34710000  0.28470000  0.68300000  1.0 0.0796814027
H  H74  1  0.60170000  0.66410000  0.31700000  1.0 0.0796814027
H  H75  1  0.39830000  0.71530000  0.06240000  1.0 0.0796814027
H  H76  1  0.65290000  0.33590000  0.93760000  1.0 0.0796814027
H  H77  1  0.68300000  0.34710000  0.28470000  1.0 0.0796814027
H  H78  1  0.31700000  0.60170000  0.66410000  1.0 0.0796814027
H  H79  1  0.06240000  0.39830000  0.71530000  1.0 0.0796814027
H  H80  1  0.93760000  0.65290000  0.33590000  1.0 0.0796814027
H  H81  1  0.28470000  0.68300000  0.34710000  1.0 0.0796814027
H  H82  1  0.66410000  0.31700000  0.60170000  1.0 0.0796814027
H  H83  1  0.71530000  0.06240000  0.39830000  1.0 0.0796814027
H  H84  1  0.33590000  0.93760000  0.65290000  1.0 0.0796814027
H  H85  1  0.33590000  0.39830000  0.68300000  1.0 0.0796814027
H  H86  1  0.71530000  0.65290000  0.31700000  1.0 0.0796814027
H  H87  1  0.66410000  0.34710000  0.06240000  1.0 0.0796814027
H  H88  1  0.28470000  0.60170000  0.93760000  1.0 0.0796814027
H  H89  1  0.60170000  0.93760000  0.28470000  1.0 0.0796814027
H  H90  1  0.34710000  0.06240000  0.66410000  1.0 0.0796814027
H  H91  1  0.65290000  0.31700000  0.71530000  1.0 0.0796814027
H  H92  1  0.39830000  0.68300000  0.33590000  1.0 0.0796814027
H  H93  1  0.06240000  0.66410000  0.34710000  1.0 0.0796814027
H  H94  1  0.93760000  0.28470000  0.60170000  1.0 0.0796814027
H  H95  1  0.68300000  0.33590000  0.39830000  1.0 0.0796814027
H  H96  1  0.31700000  0.71530000  0.65290000  1.0 0.0796814027
H  H97  1  0.56560000  0.65040000  0.21600000  1.0 0.1065831776
H  H98  1  0.43440000  0.34960000  0.78400000  1.0 0.1065831776
H  H99  1  0.56560000  0.34960000  0.91520000  1.0 0.1065831776
H  H100  1  0.43440000  0.65040000  0.08480000  1.0 0.1065831776
H  H101  1  0.21600000  0.56560000  0.65040000  1.0 0.1065831776
H  H102  1  0.78400000  0.43440000  0.34960000  1.0 0.1065831776
H  H103  1  0.91520000  0.56560000  0.34960000  1.0 0.1065831776
H  H104  1  0.08480000  0.43440000  0.65040000  1.0 0.1065831776
H  H105  1  0.65040000  0.21600000  0.56560000  1.0 0.1065831776
H  H106  1  0.34960000  0.78400000  0.43440000  1.0 0.1065831776
H  H107  1  0.34960000  0.91520000  0.56560000  1.0 0.1065831776
H  H108  1  0.65040000  0.08480000  0.43440000  1.0 0.1065831776
H  H109  1  0.65040000  0.56560000  0.21600000  1.0 0.1065831776
H  H110  1  0.34960000  0.43440000  0.78400000  1.0 0.1065831776
H  H111  1  0.34960000  0.56560000  0.91520000  1.0 0.1065831776
H  H112  1  0.65040000  0.43440000  0.08480000  1.0 0.1065831776
H  H113  1  0.43440000  0.08480000  0.65040000  1.0 0.1065831776
H  H114  1  0.56560000  0.91520000  0.34960000  1.0 0.1065831776
H  H115  1  0.43440000  0.78400000  0.34960000  1.0 0.1065831776
H  H116  1  0.56560000  0.21600000  0.65040000  1.0 0.1065831776
H  H117  1  0.91520000  0.34960000  0.56560000  1.0 0.1065831776
H  H118  1  0.08480000  0.65040000  0.43440000  1.0 0.1065831776
H  H119  1  0.21600000  0.65040000  0.56560000  1.0 0.1065831776
H  H120  1  0.78400000  0.34960000  0.43440000  1.0 0.1065831776
H  H121  1  0.57550000  0.71700000  0.24170000  1.0 0.0339648096
H  H122  1  0.47530000  0.33380000  0.75830000  1.0 0.0339648096
H  H123  1  0.52470000  0.28300000  0.85850000  1.0 0.0339648096
H  H124  1  0.42450000  0.66620000  0.14150000  1.0 0.0339648096
H  H125  1  0.24170000  0.57550000  0.71700000  1.0 0.0339648096
H  H126  1  0.75830000  0.47530000  0.33380000  1.0 0.0339648096
H  H127  1  0.85850000  0.52470000  0.28300000  1.0 0.0339648096
H  H128  1  0.14150000  0.42450000  0.66620000  1.0 0.0339648096
H  H129  1  0.71700000  0.24170000  0.57550000  1.0 0.0339648096
H  H130  1  0.33380000  0.75830000  0.47530000  1.0 0.0339648096
H  H131  1  0.28300000  0.85850000  0.52470000  1.0 0.0339648096
H  H132  1  0.66620000  0.14150000  0.42450000  1.0 0.0339648096
H  H133  1  0.66620000  0.52470000  0.24170000  1.0 0.0339648096
H  H134  1  0.28300000  0.42450000  0.75830000  1.0 0.0339648096
H  H135  1  0.33380000  0.57550000  0.85850000  1.0 0.0339648096
H  H136  1  0.71700000  0.47530000  0.14150000  1.0 0.0339648096
H  H137  1  0.47530000  0.14150000  0.71700000  1.0 0.0339648096
H  H138  1  0.57550000  0.85850000  0.33380000  1.0 0.0339648096
H  H139  1  0.42450000  0.75830000  0.28300000  1.0 0.0339648096
H  H140  1  0.52470000  0.24170000  0.66620000  1.0 0.0339648096
H  H141  1  0.85850000  0.33380000  0.57550000  1.0 0.0339648096
H  H142  1  0.14150000  0.71700000  0.47530000  1.0 0.0339648096
H  H143  1  0.24170000  0.66620000  0.52470000  1.0 0.0339648096
H  H144  1  0.75830000  0.28300000  0.42450000  1.0 0.0339648096
H  H145  1  0.42450000  0.28300000  0.75830000  1.0 0.0339648096
H  H146  1  0.52470000  0.66620000  0.24170000  1.0 0.0339648096
H  H147  1  0.47530000  0.71700000  0.14150000  1.0 0.0339648096
H  H148  1  0.57550000  0.33380000  0.85850000  1.0 0.0339648096
H  H149  1  0.75830000  0.42450000  0.28300000  1.0 0.0339648096
H  H150  1  0.24170000  0.52470000  0.66620000  1.0 0.0339648096
H  H151  1  0.14150000  0.47530000  0.71700000  1.0 0.0339648096
H  H152  1  0.85850000  0.57550000  0.33380000  1.0 0.0339648096
H  H153  1  0.28300000  0.75830000  0.42450000  1.0 0.0339648096
H  H154  1  0.66620000  0.24170000  0.52470000  1.0 0.0339648096
H  H155  1  0.71700000  0.14150000  0.47530000  1.0 0.0339648096
H  H156  1  0.33380000  0.85850000  0.57550000  1.0 0.0339648096
H  H157  1  0.33380000  0.47530000  0.75830000  1.0 0.0339648096
H  H158  1  0.71700000  0.57550000  0.24170000  1.0 0.0339648096
H  H159  1  0.66620000  0.42450000  0.14150000  1.0 0.0339648096
H  H160  1  0.28300000  0.52470000  0.85850000  1.0 0.0339648096
H  H161  1  0.52470000  0.85850000  0.28300000  1.0 0.0339648096
H  H162  1  0.42450000  0.14150000  0.66620000  1.0 0.0339648096
H  H163  1  0.57550000  0.24170000  0.71700000  1.0 0.0339648096
H  H164  1  0.47530000  0.75830000  0.33380000  1.0 0.0339648096
H  H165  1  0.14150000  0.66620000  0.42450000  1.0 0.0339648096
H  H166  1  0.85850000  0.28300000  0.52470000  1.0 0.0339648096
H  H167  1  0.75830000  0.33380000  0.47530000  1.0 0.0339648096
H  H168  1  0.24170000  0.71700000  0.57550000  1.0 0.0339648096
H  H169  1  0.69700000  0.94290000  0.46030000  1.0 0.0796814027
H  H170  1  0.48260000  0.23670000  0.53970000  1.0 0.0796814027
H  H171  1  0.51740000  0.05710000  0.75410000  1.0 0.0796814027
H  H172  1  0.30300000  0.76330000  0.24590000  1.0 0.0796814027
H  H173  1  0.46030000  0.69700000  0.94290000  1.0 0.0796814027
H  H174  1  0.53970000  0.48260000  0.23670000  1.0 0.0796814027
H  H175  1  0.75410000  0.51740000  0.05710000  1.0 0.0796814027
H  H176  1  0.24590000  0.30300000  0.76330000  1.0 0.0796814027
H  H177  1  0.94290000  0.46030000  0.69700000  1.0 0.0796814027
H  H178  1  0.23670000  0.53970000  0.48260000  1.0 0.0796814027
H  H179  1  0.05710000  0.75410000  0.51740000  1.0 0.0850277933
H  H180  1  0.76330000  0.24590000  0.30300000  1.0 0.0796814027
H  H181  1  0.76330000  0.51740000  0.46030000  1.0 0.0796814027
H  H182  1  0.05710000  0.30300000  0.53970000  1.0 0.0796814027
H  H183  1  0.23670000  0.69700000  0.75410000  1.0 0.0796814027
H  H184  1  0.94290000  0.48260000  0.24590000  1.0 0.0796814027
H  H185  1  0.48260000  0.24590000  0.94290000  1.0 0.0796814027
H  H186  1  0.69700000  0.75410000  0.23670000  1.0 0.0796814027
H  H187  1  0.30300000  0.53970000  0.05710000  1.0 0.0850277933
H  H188  1  0.51740000  0.46030000  0.76330000  1.0 0.0796814027
H  H189  1  0.75410000  0.23670000  0.69700000  1.0 0.0796814027
H  H190  1  0.24590000  0.94290000  0.48260000  1.0 0.0850277933
H  H191  1  0.46030000  0.76330000  0.51740000  1.0 0.0796814027
H  H192  1  0.53970000  0.05710000  0.30300000  1.0 0.0796814027
H  H193  1  0.30300000  0.05710000  0.53970000  1.0 0.0796814027
H  H194  1  0.51740000  0.76330000  0.46030000  1.0 0.0850277933
H  H195  1  0.48260000  0.94290000  0.24590000  1.0 0.0796814027
H  H196  1  0.69700000  0.23670000  0.75410000  1.0 0.0796814027
H  H197  1  0.53970000  0.30300000  0.05710000  1.0 0.0796814027
H  H198  1  0.46030000  0.51740000  0.76330000  1.0 0.0796814027
H  H199  1  0.24590000  0.48260000  0.94290000  1.0 0.0796814027
H  H200  1  0.75410000  0.69700000  0.23670000  1.0 0.0796814027
H  H201  1  0.05710000  0.53970000  0.30300000  1.0 0.0796814027
H  H202  1  0.76330000  0.46030000  0.51740000  1.0 0.0796814027
H  H203  1  0.94290000  0.24590000  0.48260000  1.0 0.0796814027
H  H204  1  0.23670000  0.75410000  0.69700000  1.0 0.0796814027
H  H205  1  0.23670000  0.48260000  0.53970000  1.0 0.0796814027
H  H206  1  0.94290000  0.69700000  0.46030000  1.0 0.0796814027
H  H207  1  0.76330000  0.30300000  0.24590000  1.0 0.0796814027
H  H208  1  0.05710000  0.51740000  0.75410000  1.0 0.0796814027
H  H209  1  0.51740000  0.75410000  0.05710000  1.0 0.0796814027
H  H210  1  0.30300000  0.24590000  0.76330000  1.0 0.0796814027
H  H211  1  0.69700000  0.46030000  0.94290000  1.0 0.0796814027
H  H212  1  0.48260000  0.53970000  0.23670000  1.0 0.0796814027
H  H213  1  0.24590000  0.76330000  0.30300000  1.0 0.0796814027
H  H214  1  0.75410000  0.05710000  0.51740000  1.0 0.0796814027
H  H215  1  0.53970000  0.23670000  0.48260000  1.0 0.0796814027
H  H216  1  0.46030000  0.94290000  0.69700000  1.0 0.0796814027
H  H217  1  0.84340000  0.96330000  0.40430000  1.0 0.0700197406
H  H218  1  0.55900000  0.43910000  0.59570000  1.0 0.0700197406
H  H219  1  0.44100000  0.03670000  0.88010000  1.0 0.0700197406
H  H220  1  0.15660000  0.56090000  0.11990000  1.0 0.0700197406
H  H221  1  0.40430000  0.84340000  0.96330000  1.0 0.0700197406
H  H222  1  0.59570000  0.55900000  0.43910000  1.0 0.0700197406
H  H223  1  0.88010000  0.44100000  0.03670000  1.0 0.0796814027
H  H224  1  0.11990000  0.15660000  0.56090000  1.0 0.0700197406
H  H225  1  0.96330000  0.40430000  0.84340000  1.0 0.0700197406
H  H226  1  0.43910000  0.59570000  0.55900000  1.0 0.0700197406
H  H227  1  0.03670000  0.88010000  0.44100000  1.0 0.0700197406
H  H228  1  0.56090000  0.11990000  0.15660000  1.0 0.0700197406
H  H229  1  0.56090000  0.44100000  0.40430000  1.0 0.0700197406
H  H230  1  0.03670000  0.15660000  0.59570000  1.0 0.0700197406
H  H231  1  0.43910000  0.84340000  0.88010000  1.0 0.0700197406
H  H232  1  0.96330000  0.55900000  0.11990000  1.0 0.0700197406
H  H233  1  0.55900000  0.11990000  0.96330000  1.0 0.0700197406
H  H234  1  0.84340000  0.88010000  0.43910000  1.0 0.0700197406
H  H235  1  0.15660000  0.59570000  0.03670000  1.0 0.0700197406
H  H236  1  0.44100000  0.40430000  0.56090000  1.0 0.0700197406
H  H237  1  0.88010000  0.43910000  0.84340000  1.0 0.0700197406
H  H238  1  0.11990000  0.96330000  0.55900000  1.0 0.0700197406
H  H239  1  0.40430000  0.56090000  0.44100000  1.0 0.0700197406
H  H240  1  0.59570000  0.03670000  0.15660000  1.0 0.0700197406
H  H241  1  0.15660000  0.03670000  0.59570000  1.0 0.0700197406
H  H242  1  0.44100000  0.56090000  0.40430000  1.0 0.0796814027
H  H243  1  0.55900000  0.96330000  0.11990000  1.0 0.0700197406
H  H244  1  0.84340000  0.43910000  0.88010000  1.0 0.0700197406
H  H245  1  0.59570000  0.15660000  0.03670000  1.0 0.0700197406
H  H246  1  0.40430000  0.44100000  0.56090000  1.0 0.0700197406
H  H247  1  0.11990000  0.55900000  0.96330000  1.0 0.0700197406
H  H248  1  0.88010000  0.84340000  0.43910000  1.0 0.0700197406
H  H249  1  0.03670000  0.59570000  0.15660000  1.0 0.0700197406
H  H250  1  0.56090000  0.40430000  0.44100000  1.0 0.0700197406
H  H251  1  0.96330000  0.11990000  0.55900000  1.0 0.0700197406
H  H252  1  0.43910000  0.88010000  0.84340000  1.0 0.0700197406
H  H253  1  0.43910000  0.55900000  0.59570000  1.0 0.0700197406
H  H254  1  0.96330000  0.84340000  0.40430000  1.0 0.0700197406
H  H255  1  0.56090000  0.15660000  0.11990000  1.0 0.0700197406
H  H256  1  0.03670000  0.44100000  0.88010000  1.0 0.0700197406
H  H257  1  0.44100000  0.88010000  0.03670000  1.0 0.0700197406
H  H258  1  0.15660000  0.11990000  0.56090000  1.0 0.0700197406
H  H259  1  0.84340000  0.40430000  0.96330000  1.0 0.0796814027
H  H260  1  0.55900000  0.59570000  0.43910000  1.0 0.0796814027
H  H261  1  0.11990000  0.56090000  0.15660000  1.0 0.0700197406
H  H262  1  0.88010000  0.03670000  0.44100000  1.0 0.0700197406
H  H263  1  0.59570000  0.43910000  0.55900000  1.0 0.0700197406
H  H264  1  0.40430000  0.96330000  0.84340000  1.0 0.0700197406
H  H265  1  0.82040000  0.99950000  0.33110000  1.0 -0.086981188
H  H266  1  0.66840000  0.48930000  0.66890000  1.0 -0.08396715
H  H267  1  0.33160000  0.00050000  0.82090000  1.0 -0.08396715
H  H268  1  0.17960000  0.51070000  0.17910000  1.0 -0.086981188
H  H269  1  0.33110000  0.82040000  0.99950000  1.0 -0.086981188
H  H270  1  0.66890000  0.66840000  0.48930000  1.0 -0.086981188
H  H271  1  0.82090000  0.33160000  0.00050000  1.0 -0.08396715
H  H272  1  0.17910000  0.17960000  0.51070000  1.0 -0.08396715
H  H273  1  0.99950000  0.33110000  0.82040000  1.0 -0.08396715
H  H274  1  0.48930000  0.66890000  0.66840000  1.0 -0.08396715
H  H275  1  0.00050000  0.82090000  0.33160000  1.0 -0.086981188
H  H276  1  0.51070000  0.17910000  0.17960000  1.0 -0.08396715
H  H277  1  0.51070000  0.33160000  0.33110000  1.0 -0.086981188
H  H278  1  0.00050000  0.17960000  0.66890000  1.0 -0.08396715
H  H279  1  0.48930000  0.82040000  0.82090000  1.0 -0.08396715
H  H280  1  0.99950000  0.66840000  0.17910000  1.0 -0.08396715
H  H281  1  0.66840000  0.17910000  0.99950000  1.0 -0.08396715
H  H282  1  0.82040000  0.82090000  0.48930000  1.0 -0.08396715
H  H283  1  0.17960000  0.66890000  0.00050000  1.0 -0.08396715
H  H284  1  0.33160000  0.33110000  0.51070000  1.0 -0.086981188
H  H285  1  0.82090000  0.48930000  0.82040000  1.0 -0.08396715
H  H286  1  0.17910000  0.99950000  0.66840000  1.0 -0.086981188
H  H287  1  0.33110000  0.51070000  0.33160000  1.0 -0.086981188
H  H288  1  0.66890000  0.00050000  0.17960000  1.0 -0.08396715
H  H289  1  0.79770000  0.03610000  0.36800000  1.0 0.0119110397
H  H290  1  0.66810000  0.42970000  0.63200000  1.0 0.0119110397
H  H291  1  0.33190000  0.96390000  0.76160000  1.0 0.0119110397
H  H292  1  0.20230000  0.57030000  0.23840000  1.0 0.0119110397
H  H293  1  0.36800000  0.79770000  0.03610000  1.0 0.0119110397
H  H294  1  0.63200000  0.66810000  0.42970000  1.0 0.0119110397
H  H295  1  0.76160000  0.33190000  0.96390000  1.0 0.0119110397
H  H296  1  0.23840000  0.20230000  0.57030000  1.0 0.0119110397
H  H297  1  0.03610000  0.36800000  0.79770000  1.0 0.0119110397
H  H298  1  0.42970000  0.63200000  0.66810000  1.0 0.0119110397
H  H299  1  0.96390000  0.76160000  0.33190000  1.0 0.0119110397
H  H300  1  0.57030000  0.23840000  0.20230000  1.0 0.0119110397
H  H301  1  0.57030000  0.33190000  0.36800000  1.0 0.0119110397
H  H302  1  0.96390000  0.20230000  0.63200000  1.0 0.0119110397
H  H303  1  0.42970000  0.79770000  0.76160000  1.0 0.0119110397
H  H304  1  0.03610000  0.66810000  0.23840000  1.0 0.0119110397
H  H305  1  0.66810000  0.23840000  0.03610000  1.0 0.0119110397
H  H306  1  0.79770000  0.76160000  0.42970000  1.0 0.0119110397
H  H307  1  0.20230000  0.63200000  0.96390000  1.0 0.0119110397
H  H308  1  0.33190000  0.36800000  0.57030000  1.0 0.0119110397
H  H309  1  0.76160000  0.42970000  0.79770000  1.0 0.0119110397
H  H310  1  0.23840000  0.03610000  0.66810000  1.0 0.0119110397
H  H311  1  0.36800000  0.57030000  0.33190000  1.0 0.0119110397
H  H312  1  0.63200000  0.96390000  0.20230000  1.0 0.0119110397
H  H313  1  0.20230000  0.96390000  0.63200000  1.0 0.0119110397
H  H314  1  0.33190000  0.57030000  0.36800000  1.0 0.0119110397
H  H315  1  0.66810000  0.03610000  0.23840000  1.0 0.0119110397
H  H316  1  0.79770000  0.42970000  0.76160000  1.0 0.0119110397
H  H317  1  0.63200000  0.20230000  0.96390000  1.0 0.0119110397
H  H318  1  0.36800000  0.33190000  0.57030000  1.0 0.0119110397
H  H319  1  0.23840000  0.66810000  0.03610000  1.0 0.0119110397
H  H320  1  0.76160000  0.79770000  0.42970000  1.0 0.0119110397
H  H321  1  0.96390000  0.63200000  0.20230000  1.0 0.0119110397
H  H322  1  0.57030000  0.36800000  0.33190000  1.0 0.0119110397
H  H323  1  0.03610000  0.23840000  0.66810000  1.0 0.0119110397
H  H324  1  0.42970000  0.76160000  0.79770000  1.0 0.0119110397
H  H325  1  0.42970000  0.66810000  0.63200000  1.0 0.0119110397
H  H326  1  0.03610000  0.79770000  0.36800000  1.0 0.0119110397
H  H327  1  0.57030000  0.20230000  0.23840000  1.0 0.0119110397
H  H328  1  0.96390000  0.33190000  0.76160000  1.0 0.0119110397
H  H329  1  0.33190000  0.76160000  0.96390000  1.0 0.0119110397
H  H330  1  0.20230000  0.23840000  0.57030000  1.0 0.0119110397
H  H331  1  0.79770000  0.36800000  0.03610000  1.0 0.0119110397
H  H332  1  0.66810000  0.63200000  0.42970000  1.0 0.0119110397
H  H333  1  0.23840000  0.57030000  0.20230000  1.0 0.0119110397
H  H334  1  0.76160000  0.96390000  0.33190000  1.0 0.0119110397
H  H335  1  0.63200000  0.42970000  0.66810000  1.0 0.0119110397
H  H336  1  0.36800000  0.03610000  0.79770000  1.0 0.0119110397
H  H337  1  0.52250000  0.69630000  0.26980000  1.0 0.0700197406
H  H338  1  0.42650000  0.25270000  0.73020000  1.0 0.0700197406
H  H339  1  0.57350000  0.30370000  0.82620000  1.0 0.0700197406
H  H340  1  0.47750000  0.74730000  0.17380000  1.0 0.0700197406
H  H341  1  0.26980000  0.52250000  0.69630000  1.0 0.0700197406
H  H342  1  0.73020000  0.42650000  0.25270000  1.0 0.0700197406
H  H343  1  0.82620000  0.57350000  0.30370000  1.0 0.0700197406
H  H344  1  0.17380000  0.47750000  0.74730000  1.0 0.0700197406
H  H345  1  0.69630000  0.26980000  0.52250000  1.0 0.0700197406
H  H346  1  0.25270000  0.73020000  0.42650000  1.0 0.0700197406
H  H347  1  0.30370000  0.82620000  0.57350000  1.0 0.0700197406
H  H348  1  0.74730000  0.17380000  0.47750000  1.0 0.0700197406
H  H349  1  0.74730000  0.57350000  0.26980000  1.0 0.0700197406
H  H350  1  0.30370000  0.47750000  0.73020000  1.0 0.0700197406
H  H351  1  0.25270000  0.52250000  0.82620000  1.0 0.0700197406
H  H352  1  0.69630000  0.42650000  0.17380000  1.0 0.0700197406
H  H353  1  0.42650000  0.17380000  0.69630000  1.0 0.0700197406
H  H354  1  0.52250000  0.82620000  0.25270000  1.0 0.0700197406
H  H355  1  0.47750000  0.73020000  0.30370000  1.0 0.0700197406
H  H356  1  0.57350000  0.26980000  0.74730000  1.0 0.0700197406
H  H357  1  0.82620000  0.25270000  0.52250000  1.0 0.0700197406
H  H358  1  0.17380000  0.69630000  0.42650000  1.0 0.0700197406
H  H359  1  0.26980000  0.74730000  0.57350000  1.0 0.0700197406
H  H360  1  0.73020000  0.30370000  0.47750000  1.0 0.0700197406
H  H361  1  0.47750000  0.30370000  0.73020000  1.0 0.0700197406
H  H362  1  0.57350000  0.74730000  0.26980000  1.0 0.0700197406
H  H363  1  0.42650000  0.69630000  0.17380000  1.0 0.0700197406
H  H364  1  0.52250000  0.25270000  0.82620000  1.0 0.0700197406
H  H365  1  0.73020000  0.47750000  0.30370000  1.0 0.0700197406
H  H366  1  0.26980000  0.57350000  0.74730000  1.0 0.0700197406
H  H367  1  0.17380000  0.42650000  0.69630000  1.0 0.0700197406
H  H368  1  0.82620000  0.52250000  0.25270000  1.0 0.0700197406
H  H369  1  0.30370000  0.73020000  0.47750000  1.0 0.0700197406
H  H370  1  0.74730000  0.26980000  0.57350000  1.0 0.0700197406
H  H371  1  0.69630000  0.17380000  0.42650000  1.0 0.0700197406
H  H372  1  0.25270000  0.82620000  0.52250000  1.0 0.0700197406
H  H373  1  0.25270000  0.42650000  0.73020000  1.0 0.0700197406
H  H374  1  0.69630000  0.52250000  0.26980000  1.0 0.0700197406
H  H375  1  0.74730000  0.47750000  0.17380000  1.0 0.0700197406
H  H376  1  0.30370000  0.57350000  0.82620000  1.0 0.0700197406
H  H377  1  0.57350000  0.82620000  0.30370000  1.0 0.0700197406
H  H378  1  0.47750000  0.17380000  0.74730000  1.0 0.0700197406
H  H379  1  0.52250000  0.26980000  0.69630000  1.0 0.0700197406
H  H380  1  0.42650000  0.73020000  0.25270000  1.0 0.0700197406
H  H381  1  0.17380000  0.74730000  0.47750000  1.0 0.0700197406
H  H382  1  0.82620000  0.30370000  0.57350000  1.0 0.0700197406
H  H383  1  0.73020000  0.25270000  0.42650000  1.0 0.0700197406
H  H384  1  0.26980000  0.69630000  0.52250000  1.0 0.0700197406
H  H385  1  0.56200000  0.65040000  0.21240000  1.0 0.1065831776
H  H386  1  0.43800000  0.34960000  0.78760000  1.0 0.1065831776
H  H387  1  0.56200000  0.34960000  0.91160000  1.0 0.1065831776
H  H388  1  0.43800000  0.65040000  0.08840000  1.0 0.1065831776
H  H389  1  0.21240000  0.56200000  0.65040000  1.0 0.1065831776
H  H390  1  0.78760000  0.43800000  0.34960000  1.0 0.1065831776
H  H391  1  0.91160000  0.56200000  0.34960000  1.0 0.1065831776
H  H392  1  0.08840000  0.43800000  0.65040000  1.0 0.1065831776
H  H393  1  0.65040000  0.21240000  0.56200000  1.0 0.1065831776
H  H394  1  0.34960000  0.78760000  0.43800000  1.0 0.1065831776
H  H395  1  0.34960000  0.91160000  0.56200000  1.0 0.1065831776
H  H396  1  0.65040000  0.08840000  0.43800000  1.0 0.1065831776
H  H397  1  0.65040000  0.56200000  0.21240000  1.0 0.1065831776
H  H398  1  0.34960000  0.43800000  0.78760000  1.0 0.1065831776
H  H399  1  0.34960000  0.56200000  0.91160000  1.0 0.1065831776
H  H400  1  0.65040000  0.43800000  0.08840000  1.0 0.1065831776
H  H401  1  0.43800000  0.08840000  0.65040000  1.0 0.1065831776
H  H402  1  0.56200000  0.91160000  0.34960000  1.0 0.1065831776
H  H403  1  0.43800000  0.78760000  0.34960000  1.0 0.1065831776
H  H404  1  0.56200000  0.21240000  0.65040000  1.0 0.1065831776
H  H405  1  0.91160000  0.34960000  0.56200000  1.0 0.1065831776
H  H406  1  0.08840000  0.65040000  0.43800000  1.0 0.1065831776
H  H407  1  0.21240000  0.65040000  0.56200000  1.0 0.1065831776
H  H408  1  0.78760000  0.34960000  0.43800000  1.0 0.1065831776
H  H409  1  0.57720000  0.64200000  0.27000000  1.0 0.0412123658
H  H410  1  0.37200000  0.30720000  0.73000000  1.0 0.0412123658
H  H411  1  0.62800000  0.35800000  0.93520000  1.0 0.0412123658
H  H412  1  0.42280000  0.69280000  0.06480000  1.0 0.0412123658
H  H413  1  0.27000000  0.57720000  0.64200000  1.0 0.0412123658
H  H414  1  0.73000000  0.37200000  0.30720000  1.0 0.0412123658
H  H415  1  0.93520000  0.62800000  0.35800000  1.0 0.0412123658
H  H416  1  0.06480000  0.42280000  0.69280000  1.0 0.0412123658
H  H417  1  0.64200000  0.27000000  0.57720000  1.0 0.0412123658
H  H418  1  0.30720000  0.73000000  0.37200000  1.0 0.0412123658
H  H419  1  0.35800000  0.93520000  0.62800000  1.0 0.0412123658
H  H420  1  0.69280000  0.06480000  0.42280000  1.0 0.0412123658
H  H421  1  0.69280000  0.62800000  0.27000000  1.0 0.0412123658
H  H422  1  0.35800000  0.42280000  0.73000000  1.0 0.0412123658
H  H423  1  0.30720000  0.57720000  0.93520000  1.0 0.0412123658
H  H424  1  0.64200000  0.37200000  0.06480000  1.0 0.0412123658
H  H425  1  0.37200000  0.06480000  0.64200000  1.0 0.0412123658
H  H426  1  0.57720000  0.93520000  0.30720000  1.0 0.0412123658
H  H427  1  0.42280000  0.73000000  0.35800000  1.0 0.0412123658
H  H428  1  0.62800000  0.27000000  0.69280000  1.0 0.0412123658
H  H429  1  0.93520000  0.30720000  0.57720000  1.0 0.0412123658
H  H430  1  0.06480000  0.64200000  0.37200000  1.0 0.0412123658
H  H431  1  0.27000000  0.69280000  0.62800000  1.0 0.0412123658
H  H432  1  0.73000000  0.35800000  0.42280000  1.0 0.0412123658
H  H433  1  0.42280000  0.35800000  0.73000000  1.0 0.0412123658
H  H434  1  0.62800000  0.69280000  0.27000000  1.0 0.0412123658
H  H435  1  0.37200000  0.64200000  0.06480000  1.0 0.0412123658
H  H436  1  0.57720000  0.30720000  0.93520000  1.0 0.0412123658
H  H437  1  0.73000000  0.42280000  0.35800000  1.0 0.0412123658
H  H438  1  0.27000000  0.62800000  0.69280000  1.0 0.0412123658
H  H439  1  0.06480000  0.37200000  0.64200000  1.0 0.0412123658
H  H440  1  0.93520000  0.57720000  0.30720000  1.0 0.0412123658
H  H441  1  0.35800000  0.73000000  0.42280000  1.0 0.0412123658
H  H442  1  0.69280000  0.27000000  0.62800000  1.0 0.0412123658
H  H443  1  0.64200000  0.06480000  0.37200000  1.0 0.0412123658
H  H444  1  0.30720000  0.93520000  0.57720000  1.0 0.0412123658
H  H445  1  0.30720000  0.37200000  0.73000000  1.0 0.0412123658
H  H446  1  0.64200000  0.57720000  0.27000000  1.0 0.0412123658
H  H447  1  0.69280000  0.42280000  0.06480000  1.0 0.0412123658
H  H448  1  0.35800000  0.62800000  0.93520000  1.0 0.0412123658
H  H449  1  0.62800000  0.93520000  0.35800000  1.0 0.0412123658
H  H450  1  0.42280000  0.06480000  0.69280000  1.0 0.0412123658
H  H451  1  0.57720000  0.27000000  0.64200000  1.0 0.0412123658
H  H452  1  0.37200000  0.73000000  0.30720000  1.0 0.0412123658
H  H453  1  0.06480000  0.69280000  0.42280000  1.0 0.0412123658
H  H454  1  0.93520000  0.35800000  0.62800000  1.0 0.0412123658
H  H455  1  0.73000000  0.30720000  0.37200000  1.0 0.0412123658
H  H456  1  0.27000000  0.64200000  0.57720000  1.0 0.0412123658
H  H457  1  0.76490000  0.03590000  0.37500000  1.0 0.0796814027
H  H458  1  0.66090000  0.38990000  0.62500000  1.0 0.0796814027
H  H459  1  0.33910000  0.96410000  0.72900000  1.0 0.0796814027
H  H460  1  0.23510000  0.61010000  0.27100000  1.0 0.0796814027
H  H461  1  0.37500000  0.76490000  0.03590000  1.0 0.0796814027
H  H462  1  0.62500000  0.66090000  0.38990000  1.0 0.0796814027
H  H463  1  0.72900000  0.33910000  0.96410000  1.0 0.0796814027
H  H464  1  0.27100000  0.23510000  0.61010000  1.0 0.0796814027
H  H465  1  0.03590000  0.37500000  0.76490000  1.0 0.0796814027
H  H466  1  0.38990000  0.62500000  0.66090000  1.0 0.0796814027
H  H467  1  0.96410000  0.72900000  0.33910000  1.0 0.0796814027
H  H468  1  0.61010000  0.27100000  0.23510000  1.0 0.0796814027
H  H469  1  0.61010000  0.33910000  0.37500000  1.0 0.0796814027
H  H470  1  0.96410000  0.23510000  0.62500000  1.0 0.0796814027
H  H471  1  0.38990000  0.76490000  0.72900000  1.0 0.0796814027
H  H472  1  0.03590000  0.66090000  0.27100000  1.0 0.0796814027
H  H473  1  0.66090000  0.27100000  0.03590000  1.0 0.0796814027
H  H474  1  0.76490000  0.72900000  0.38990000  1.0 0.0796814027
H  H475  1  0.23510000  0.62500000  0.96410000  1.0 0.0796814027
H  H476  1  0.33910000  0.37500000  0.61010000  1.0 0.0796814027
H  H477  1  0.72900000  0.38990000  0.76490000  1.0 0.0796814027
H  H478  1  0.27100000  0.03590000  0.66090000  1.0 0.0796814027
H  H479  1  0.37500000  0.61010000  0.33910000  1.0 0.0796814027
H  H480  1  0.62500000  0.96410000  0.23510000  1.0 0.0796814027
H  H481  1  0.23510000  0.96410000  0.62500000  1.0 0.0796814027
H  H482  1  0.33910000  0.61010000  0.37500000  1.0 0.0796814027
H  H483  1  0.66090000  0.03590000  0.27100000  1.0 0.0796814027
H  H484  1  0.76490000  0.38990000  0.72900000  1.0 0.0796814027
H  H485  1  0.62500000  0.23510000  0.96410000  1.0 0.0796814027
H  H486  1  0.37500000  0.33910000  0.61010000  1.0 0.0796814027
H  H487  1  0.27100000  0.66090000  0.03590000  1.0 0.0796814027
H  H488  1  0.72900000  0.76490000  0.38990000  1.0 0.0796814027
H  H489  1  0.96410000  0.62500000  0.23510000  1.0 0.0796814027
H  H490  1  0.61010000  0.37500000  0.33910000  1.0 0.0796814027
H  H491  1  0.03590000  0.27100000  0.66090000  1.0 0.0796814027
H  H492  1  0.38990000  0.72900000  0.76490000  1.0 0.0796814027
H  H493  1  0.38990000  0.66090000  0.62500000  1.0 0.0796814027
H  H494  1  0.03590000  0.76490000  0.37500000  1.0 0.0796814027
H  H495  1  0.61010000  0.23510000  0.27100000  1.0 0.0796814027
H  H496  1  0.96410000  0.33910000  0.72900000  1.0 0.0796814027
H  H497  1  0.33910000  0.72900000  0.96410000  1.0 0.0796814027
H  H498  1  0.23510000  0.27100000  0.61010000  1.0 0.0796814027
H  H499  1  0.76490000  0.37500000  0.03590000  1.0 0.0796814027
H  H500  1  0.66090000  0.62500000  0.38990000  1.0 0.0796814027
H  H501  1  0.27100000  0.61010000  0.23510000  1.0 0.0796814027
H  H502  1  0.72900000  0.96410000  0.33910000  1.0 0.0796814027
H  H503  1  0.62500000  0.38990000  0.66090000  1.0 0.0796814027
H  H504  1  0.37500000  0.03590000  0.76490000  1.0 0.0796814027
H  H505  1  0.80000000  0.00260000  0.30820000  1.0 0.0700197406
H  H506  1  0.69440000  0.49180000  0.69180000  1.0 0.0700197406
H  H507  1  0.30560000  0.99740000  0.79740000  1.0 0.0700197406
H  H508  1  0.20000000  0.50820000  0.20260000  1.0 0.0601261977
H  H509  1  0.30820000  0.80000000  0.00260000  1.0 0.0700197406
H  H510  1  0.69180000  0.69440000  0.49180000  1.0 0.0700197406
H  H511  1  0.79740000  0.30560000  0.99740000  1.0 0.0601261977
H  H512  1  0.20260000  0.20000000  0.50820000  1.0 0.0601261977
H  H513  1  0.00260000  0.30820000  0.80000000  1.0 0.0601261977
H  H514  1  0.49180000  0.69180000  0.69440000  1.0 0.0700197406
H  H515  1  0.99740000  0.79740000  0.30560000  1.0 0.0700197406
H  H516  1  0.50820000  0.20260000  0.20000000  1.0 0.0601261977
H  H517  1  0.50820000  0.30560000  0.30820000  1.0 0.0700197406
H  H518  1  0.99740000  0.20000000  0.69180000  1.0 0.0700197406
H  H519  1  0.49180000  0.80000000  0.79740000  1.0 0.0700197406
H  H520  1  0.00260000  0.69440000  0.20260000  1.0 0.0601261977
H  H521  1  0.69440000  0.20260000  0.00260000  1.0 0.0601261977
H  H522  1  0.80000000  0.79740000  0.49180000  1.0 0.0601261977
H  H523  1  0.20000000  0.69180000  0.99740000  1.0 0.0601261977
H  H524  1  0.30560000  0.30820000  0.50820000  1.0 0.0700197406
H  H525  1  0.79740000  0.49180000  0.80000000  1.0 0.0700197406
H  H526  1  0.20260000  0.00260000  0.69440000  1.0 0.0700197406
H  H527  1  0.30820000  0.50820000  0.30560000  1.0 0.0700197406
H  H528  1  0.69180000  0.99740000  0.20000000  1.0 0.0601261977
H  H529  1  0.20000000  0.99740000  0.69180000  1.0 0.0700197406
H  H530  1  0.30560000  0.50820000  0.30820000  1.0 0.0700197406
H  H531  1  0.69440000  0.00260000  0.20260000  1.0 0.0601261977
H  H532  1  0.80000000  0.49180000  0.79740000  1.0 0.0700197406
H  H533  1  0.69180000  0.20000000  0.99740000  1.0 0.0700197406
H  H534  1  0.30820000  0.30560000  0.50820000  1.0 0.0700197406
H  H535  1  0.20260000  0.69440000  0.00260000  1.0 0.0601261977
H  H536  1  0.79740000  0.80000000  0.49180000  1.0 0.0700197406
H  H537  1  0.99740000  0.69180000  0.20000000  1.0 0.0601261977
H  H538  1  0.50820000  0.30820000  0.30560000  1.0 0.0700197406
H  H539  1  0.00260000  0.20260000  0.69440000  1.0 0.0601261977
H  H540  1  0.49180000  0.79740000  0.80000000  1.0 0.0700197406
H  H541  1  0.49180000  0.69440000  0.69180000  1.0 0.0700197406
H  H542  1  0.00260000  0.80000000  0.30820000  1.0 0.0601261977
H  H543  1  0.50820000  0.20000000  0.20260000  1.0 0.0601261977
H  H544  1  0.99740000  0.30560000  0.79740000  1.0 0.0700197406
H  H545  1  0.30560000  0.79740000  0.99740000  1.0 0.0601261977
H  H546  1  0.20000000  0.20260000  0.50820000  1.0 0.0601261977
H  H547  1  0.80000000  0.30820000  0.00260000  1.0 0.0601261977
H  H548  1  0.69440000  0.69180000  0.49180000  1.0 0.0601261977
H  H549  1  0.20260000  0.50820000  0.20000000  1.0 0.0601261977
H  H550  1  0.79740000  0.99740000  0.30560000  1.0 0.0700197406
H  H551  1  0.69180000  0.49180000  0.69440000  1.0 0.0700197406
H  H552  1  0.30820000  0.00260000  0.80000000  1.0 0.0601261977
H  H553  1  0.85380000  0.03450000  0.37510000  1.0 0.0520114199
H  H554  1  0.65940000  0.47870000  0.62490000  1.0 0.0520114199
H  H555  1  0.34060000  0.96550000  0.81930000  1.0 0.0520114199
H  H556  1  0.14620000  0.52130000  0.18070000  1.0 0.0520114199
H  H557  1  0.37510000  0.85380000  0.03450000  1.0 0.0520114199
H  H558  1  0.62490000  0.65940000  0.47870000  1.0 0.0520114199
H  H559  1  0.81930000  0.34060000  0.96550000  1.0 0.0520114199
H  H560  1  0.18070000  0.14620000  0.52130000  1.0 0.0520114199
H  H561  1  0.03450000  0.37510000  0.85380000  1.0 0.0520114199
H  H562  1  0.47870000  0.62490000  0.65940000  1.0 0.0520114199
H  H563  1  0.96550000  0.81930000  0.34060000  1.0 0.0520114199
H  H564  1  0.52130000  0.18070000  0.14620000  1.0 0.0520114199
H  H565  1  0.52130000  0.34060000  0.37510000  1.0 0.0520114199
H  H566  1  0.96550000  0.14620000  0.62490000  1.0 0.0520114199
H  H567  1  0.47870000  0.85380000  0.81930000  1.0 0.0520114199
H  H568  1  0.03450000  0.65940000  0.18070000  1.0 0.0520114199
H  H569  1  0.65940000  0.18070000  0.03450000  1.0 0.0520114199
H  H570  1  0.85380000  0.81930000  0.47870000  1.0 0.0520114199
H  H571  1  0.14620000  0.62490000  0.96550000  1.0 0.0520114199
H  H572  1  0.34060000  0.37510000  0.52130000  1.0 0.0520114199
H  H573  1  0.81930000  0.47870000  0.85380000  1.0 0.0520114199
H  H574  1  0.18070000  0.03450000  0.65940000  1.0 0.0520114199
H  H575  1  0.37510000  0.52130000  0.34060000  1.0 0.0520114199
H  H576  1  0.62490000  0.96550000  0.14620000  1.0 0.0520114199
H  H577  1  0.14620000  0.96550000  0.62490000  1.0 0.0520114199
H  H578  1  0.34060000  0.52130000  0.37510000  1.0 0.0520114199
H  H579  1  0.65940000  0.03450000  0.18070000  1.0 0.0520114199
H  H580  1  0.85380000  0.47870000  0.81930000  1.0 0.0520114199
H  H581  1  0.62490000  0.14620000  0.96550000  1.0 0.0520114199
H  H582  1  0.37510000  0.34060000  0.52130000  1.0 0.0520114199
H  H583  1  0.18070000  0.65940000  0.03450000  1.0 0.0520114199
H  H584  1  0.81930000  0.85380000  0.47870000  1.0 0.0520114199
H  H585  1  0.96550000  0.62490000  0.14620000  1.0 0.0520114199
H  H586  1  0.52130000  0.37510000  0.34060000  1.0 0.0520114199
H  H587  1  0.03450000  0.18070000  0.65940000  1.0 0.0520114199
H  H588  1  0.47870000  0.81930000  0.85380000  1.0 0.0520114199
H  H589  1  0.47870000  0.65940000  0.62490000  1.0 0.0520114199
H  H590  1  0.03450000  0.85380000  0.37510000  1.0 0.0520114199
H  H591  1  0.52130000  0.14620000  0.18070000  1.0 0.0520114199
H  H592  1  0.96550000  0.34060000  0.81930000  1.0 0.0520114199
H  H593  1  0.34060000  0.81930000  0.96550000  1.0 0.0520114199
H  H594  1  0.14620000  0.18070000  0.52130000  1.0 0.0520114199
H  H595  1  0.85380000  0.37510000  0.03450000  1.0 0.0520114199
H  H596  1  0.65940000  0.62490000  0.47870000  1.0 0.0520114199
H  H597  1  0.18070000  0.52130000  0.14620000  1.0 0.0520114199
H  H598  1  0.81930000  0.96550000  0.34060000  1.0 0.0520114199
H  H599  1  0.62490000  0.47870000  0.65940000  1.0 0.0520114199
H  H600  1  0.37510000  0.03450000  0.85380000  1.0 0.0520114199
H  H601  1  0.81540000  0.96290000  0.33590000  1.0 0.0601261977
H  H602  1  0.62700000  0.47950000  0.66410000  1.0 0.0601261977
H  H603  1  0.37300000  0.03710000  0.85250000  1.0 0.0601261977
H  H604  1  0.18460000  0.52050000  0.14750000  1.0 0.0601261977
H  H605  1  0.33590000  0.81540000  0.96290000  1.0 0.0601261977
H  H606  1  0.66410000  0.62700000  0.47950000  1.0 0.0601261977
H  H607  1  0.85250000  0.37300000  0.03710000  1.0 0.0601261977
H  H608  1  0.14750000  0.18460000  0.52050000  1.0 0.0601261977
H  H609  1  0.96290000  0.33590000  0.81540000  1.0 0.0601261977
H  H610  1  0.47950000  0.66410000  0.62700000  1.0 0.0601261977
H  H611  1  0.03710000  0.85250000  0.37300000  1.0 0.0601261977
H  H612  1  0.52050000  0.14750000  0.18460000  1.0 0.0601261977
H  H613  1  0.52050000  0.37300000  0.33590000  1.0 0.0601261977
H  H614  1  0.03710000  0.18460000  0.66410000  1.0 0.0601261977
H  H615  1  0.47950000  0.81540000  0.85250000  1.0 0.0601261977
H  H616  1  0.96290000  0.62700000  0.14750000  1.0 0.0601261977
H  H617  1  0.62700000  0.14750000  0.96290000  1.0 0.0601261977
H  H618  1  0.81540000  0.85250000  0.47950000  1.0 0.0601261977
H  H619  1  0.18460000  0.66410000  0.03710000  1.0 0.0601261977
H  H620  1  0.37300000  0.33590000  0.52050000  1.0 0.0601261977
H  H621  1  0.85250000  0.47950000  0.81540000  1.0 0.0601261977
H  H622  1  0.14750000  0.96290000  0.62700000  1.0 0.0601261977
H  H623  1  0.33590000  0.52050000  0.37300000  1.0 0.0601261977
H  H624  1  0.66410000  0.03710000  0.18460000  1.0 0.0601261977
H  H625  1  0.18460000  0.03710000  0.66410000  1.0 0.0601261977
H  H626  1  0.37300000  0.52050000  0.33590000  1.0 0.0601261977
H  H627  1  0.62700000  0.96290000  0.14750000  1.0 0.0601261977
H  H628  1  0.81540000  0.47950000  0.85250000  1.0 0.0601261977
H  H629  1  0.66410000  0.18460000  0.03710000  1.0 0.0601261977
H  H630  1  0.33590000  0.37300000  0.52050000  1.0 0.0601261977
H  H631  1  0.14750000  0.62700000  0.96290000  1.0 0.0601261977
H  H632  1  0.85250000  0.81540000  0.47950000  1.0 0.0601261977
H  H633  1  0.03710000  0.66410000  0.18460000  1.0 0.0601261977
H  H634  1  0.52050000  0.33590000  0.37300000  1.0 0.0601261977
H  H635  1  0.96290000  0.14750000  0.62700000  1.0 0.0601261977
H  H636  1  0.47950000  0.85250000  0.81540000  1.0 0.0601261977
H  H637  1  0.47950000  0.62700000  0.66410000  1.0 0.0601261977
H  H638  1  0.96290000  0.81540000  0.33590000  1.0 0.0601261977
H  H639  1  0.52050000  0.18460000  0.14750000  1.0 0.0601261977
H  H640  1  0.03710000  0.37300000  0.85250000  1.0 0.0601261977
H  H641  1  0.37300000  0.85250000  0.03710000  1.0 0.0601261977
H  H642  1  0.18460000  0.14750000  0.52050000  1.0 0.0601261977
H  H643  1  0.81540000  0.33590000  0.96290000  1.0 0.0601261977
H  H644  1  0.62700000  0.66410000  0.47950000  1.0 0.0601261977
H  H645  1  0.14750000  0.52050000  0.18460000  1.0 0.0601261977
H  H646  1  0.85250000  0.03710000  0.37300000  1.0 0.0601261977
H  H647  1  0.66410000  0.47950000  0.62700000  1.0 0.0601261977
H  H648  1  0.33590000  0.96290000  0.81540000  1.0 0.0601261977
H  H649  1  0.72010000  0.51010000  0.56560000  1.0 0.1200164063
H  H650  1  0.94450000  0.15450000  0.43440000  1.0 0.1200164063
H  H651  1  0.05550000  0.48990000  0.21000000  1.0 0.1200164063
H  H652  1  0.27990000  0.84550000  0.79000000  1.0 0.1200164063
H  H653  1  0.56560000  0.72010000  0.51010000  1.0 0.1200164063
H  H654  1  0.43440000  0.94450000  0.15450000  1.0 0.1200164063
H  H655  1  0.21000000  0.05550000  0.48990000  1.0 0.1200164063
H  H656  1  0.79000000  0.27990000  0.84550000  1.0 0.1200164063
H  H657  1  0.51010000  0.56560000  0.72010000  1.0 0.1200164063
H  H658  1  0.15450000  0.43440000  0.94450000  1.0 0.1200164063
H  H659  1  0.48990000  0.21000000  0.05550000  1.0 0.1200164063
H  H660  1  0.84550000  0.79000000  0.27990000  1.0 0.1200164063
H  H661  1  0.84550000  0.05550000  0.56560000  1.0 0.1200164063
H  H662  1  0.48990000  0.27990000  0.43440000  1.0 0.1200164063
H  H663  1  0.15450000  0.72010000  0.21000000  1.0 0.1200164063
H  H664  1  0.51010000  0.94450000  0.79000000  1.0 0.1200164063
H  H665  1  0.94450000  0.79000000  0.51010000  1.0 0.1200164063
H  H666  1  0.72010000  0.21000000  0.15450000  1.0 0.1200164063
H  H667  1  0.27990000  0.43440000  0.48990000  1.0 0.1200164063
H  H668  1  0.05550000  0.56560000  0.84550000  1.0 0.1200164063
H  H669  1  0.21000000  0.15450000  0.72010000  1.0 0.1200164063
H  H670  1  0.79000000  0.51010000  0.94450000  1.0 0.1200164063
H  H671  1  0.56560000  0.84550000  0.05550000  1.0 0.1200164063
H  H672  1  0.43440000  0.48990000  0.27990000  1.0 0.1200164063
H  H673  1  0.27990000  0.48990000  0.43440000  1.0 0.1200164063
H  H674  1  0.05550000  0.84550000  0.56560000  1.0 0.1200164063
H  H675  1  0.94450000  0.51010000  0.79000000  1.0 0.1200164063
H  H676  1  0.72010000  0.15450000  0.21000000  1.0 0.1200164063
H  H677  1  0.43440000  0.27990000  0.48990000  1.0 0.1200164063
H  H678  1  0.56560000  0.05550000  0.84550000  1.0 0.1200164063
H  H679  1  0.79000000  0.94450000  0.51010000  1.0 0.1200164063
H  H680  1  0.21000000  0.72010000  0.15450000  1.0 0.1200164063
H  H681  1  0.48990000  0.43440000  0.27990000  1.0 0.1200164063
H  H682  1  0.84550000  0.56560000  0.05550000  1.0 0.1200164063
H  H683  1  0.51010000  0.79000000  0.94450000  1.0 0.1200164063
H  H684  1  0.15450000  0.21000000  0.72010000  1.0 0.1200164063
H  H685  1  0.15450000  0.94450000  0.43440000  1.0 0.1200164063
H  H686  1  0.51010000  0.72010000  0.56560000  1.0 0.1200164063
H  H687  1  0.84550000  0.27990000  0.79000000  1.0 0.1200164063
H  H688  1  0.48990000  0.05550000  0.21000000  1.0 0.1200164063
H  H689  1  0.05550000  0.21000000  0.48990000  1.0 0.1200164063
H  H690  1  0.27990000  0.79000000  0.84550000  1.0 0.1200164063
H  H691  1  0.72010000  0.56560000  0.51010000  1.0 0.1200164063
H  H692  1  0.94450000  0.43440000  0.15450000  1.0 0.1200164063
H  H693  1  0.79000000  0.84550000  0.27990000  1.0 0.1200164063
H  H694  1  0.21000000  0.48990000  0.05550000  1.0 0.1200164063
H  H695  1  0.43440000  0.15450000  0.94450000  1.0 0.1200164063
H  H696  1  0.56560000  0.51010000  0.72010000  1.0 0.1200164063
C  C1  1  0.79100000  0.00000000  0.43020000  1.0 0.1596880318
C  C2  1  0.56980000  0.36080000  0.56980000  1.0 0.1596880318
C  C3  1  0.43020000  0.00000000  0.79100000  1.0 0.1596880318
C  C4  1  0.20900000  0.63920000  0.20900000  1.0 0.1596880318
C  C5  1  0.43020000  0.79100000  0.00000000  1.0 0.1596880318
C  C6  1  0.56980000  0.56980000  0.36080000  1.0 0.1596880318
C  C7  1  0.79100000  0.43020000  0.00000000  1.0 0.1596880318
C  C8  1  0.20900000  0.20900000  0.63920000  1.0 0.1596880318
C  C9  1  0.00000000  0.43020000  0.79100000  1.0 0.1596880318
C  C10  1  0.36080000  0.56980000  0.56980000  1.0 0.1596880318
C  C11  1  0.00000000  0.79100000  0.43020000  1.0 0.1596880318
C  C12  1  0.63920000  0.20900000  0.20900000  1.0 0.1596880318
C  C13  1  0.63920000  0.43020000  0.43020000  1.0 0.1596880318
C  C14  1  0.00000000  0.20900000  0.56980000  1.0 0.1596880318
C  C15  1  0.36080000  0.79100000  0.79100000  1.0 0.1596880318
C  C16  1  0.00000000  0.56980000  0.20900000  1.0 0.1596880318
C  C17  1  0.56980000  0.20900000  0.00000000  1.0 0.1596880318
C  C18  1  0.79100000  0.79100000  0.36080000  1.0 0.1596880318
C  C19  1  0.20900000  0.56980000  0.00000000  1.0 0.1596880318
C  C20  1  0.43020000  0.43020000  0.63920000  1.0 0.1596880318
C  C21  1  0.79100000  0.36080000  0.79100000  1.0 0.1596880318
C  C22  1  0.20900000  0.00000000  0.56980000  1.0 0.1596880318
C  C23  1  0.43020000  0.63920000  0.43020000  1.0 0.1596880318
C  C24  1  0.56980000  0.00000000  0.20900000  1.0 0.1596880318
C  C25  1  0.60490000  0.74860000  0.35350000  1.0 0.1880708125
C  C26  1  0.39510000  0.25140000  0.64650000  1.0 0.1880708125
C  C27  1  0.60490000  0.25140000  0.85630000  1.0 0.1880708125
C  C28  1  0.39510000  0.74860000  0.14370000  1.0 0.1880708125
C  C29  1  0.35350000  0.60490000  0.74860000  1.0 0.1880708125
C  C30  1  0.64650000  0.39510000  0.25140000  1.0 0.1880708125
C  C31  1  0.85630000  0.60490000  0.25140000  1.0 0.1880708125
C  C32  1  0.14370000  0.39510000  0.74860000  1.0 0.1880708125
C  C33  1  0.74860000  0.35350000  0.60490000  1.0 0.1880708125
C  C34  1  0.25140000  0.64650000  0.39510000  1.0 0.1880708125
C  C35  1  0.25140000  0.85630000  0.60490000  1.0 0.1880708125
C  C36  1  0.74860000  0.14370000  0.39510000  1.0 0.1880708125
C  C37  1  0.74860000  0.60490000  0.35350000  1.0 0.1880708125
C  C38  1  0.25140000  0.39510000  0.64650000  1.0 0.1880708125
C  C39  1  0.25140000  0.60490000  0.85630000  1.0 0.1880708125
C  C40  1  0.74860000  0.39510000  0.14370000  1.0 0.1880708125
C  C41  1  0.39510000  0.14370000  0.74860000  1.0 0.1880708125
C  C42  1  0.60490000  0.85630000  0.25140000  1.0 0.1880708125
C  C43  1  0.39510000  0.64650000  0.25140000  1.0 0.1880708125
C  C44  1  0.60490000  0.35350000  0.74860000  1.0 0.1880708125
C  C45  1  0.85630000  0.25140000  0.60490000  1.0 0.1880708125
C  C46  1  0.14370000  0.74860000  0.39510000  1.0 0.1880708125
C  C47  1  0.35350000  0.74860000  0.60490000  1.0 0.1880708125
C  C48  1  0.64650000  0.25140000  0.39510000  1.0 0.1880708125
C  C49  1  0.65470000  0.82820000  0.43810000  1.0 -0.069353518
C  C50  1  0.39010000  0.21660000  0.56190000  1.0 -0.069353518
C  C51  1  0.60990000  0.17180000  0.82650000  1.0 -0.069353518
C  C52  1  0.34530000  0.78340000  0.17350000  1.0 -0.069353518
C  C53  1  0.43810000  0.65470000  0.82820000  1.0 -0.069353518
C  C54  1  0.56190000  0.39010000  0.21660000  1.0 -0.069353518
C  C55  1  0.82650000  0.60990000  0.17180000  1.0 -0.069353518
C  C56  1  0.17350000  0.34530000  0.78340000  1.0 -0.069353518
C  C57  1  0.82820000  0.43810000  0.65470000  1.0 -0.069353518
C  C58  1  0.21660000  0.56190000  0.39010000  1.0 -0.069353518
C  C59  1  0.17180000  0.82650000  0.60990000  1.0 -0.069353518
C  C60  1  0.78340000  0.17350000  0.34530000  1.0 -0.069353518
C  C61  1  0.78340000  0.60990000  0.43810000  1.0 -0.069353518
C  C62  1  0.17180000  0.34530000  0.56190000  1.0 -0.069353518
C  C63  1  0.21660000  0.65470000  0.82650000  1.0 -0.069353518
C  C64  1  0.82820000  0.39010000  0.17350000  1.0 -0.069353518
C  C65  1  0.39010000  0.17350000  0.82820000  1.0 -0.069353518
C  C66  1  0.65470000  0.82650000  0.21660000  1.0 -0.069353518
C  C67  1  0.34530000  0.56190000  0.17180000  1.0 -0.069353518
C  C68  1  0.60990000  0.43810000  0.78340000  1.0 -0.069353518
C  C69  1  0.82650000  0.21660000  0.65470000  1.0 -0.069353518
C  C70  1  0.17350000  0.82820000  0.39010000  1.0 -0.069353518
C  C71  1  0.43810000  0.78340000  0.60990000  1.0 -0.069353518
C  C72  1  0.56190000  0.17180000  0.34530000  1.0 -0.069353518
C  C73  1  0.34530000  0.17180000  0.56190000  1.0 -0.069353518
C  C74  1  0.60990000  0.78340000  0.43810000  1.0 -0.069353518
C  C75  1  0.39010000  0.82820000  0.17350000  1.0 -0.069353518
C  C76  1  0.65470000  0.21660000  0.82650000  1.0 -0.069353518
C  C77  1  0.56190000  0.34530000  0.17180000  1.0 -0.069353518
C  C78  1  0.43810000  0.60990000  0.78340000  1.0 -0.069353518
C  C79  1  0.17350000  0.39010000  0.82820000  1.0 -0.069353518
C  C80  1  0.82650000  0.65470000  0.21660000  1.0 -0.069353518
C  C81  1  0.17180000  0.56190000  0.34530000  1.0 -0.069353518
C  C82  1  0.78340000  0.43810000  0.60990000  1.0 -0.069353518
C  C83  1  0.82820000  0.17350000  0.39010000  1.0 -0.069353518
C  C84  1  0.21660000  0.82650000  0.65470000  1.0 -0.069353518
C  C85  1  0.21660000  0.39010000  0.56190000  1.0 -0.069353518
C  C86  1  0.82820000  0.65470000  0.43810000  1.0 -0.069353518
C  C87  1  0.78340000  0.34530000  0.17350000  1.0 -0.069353518
C  C88  1  0.17180000  0.60990000  0.82650000  1.0 -0.069353518
C  C89  1  0.60990000  0.82650000  0.17180000  1.0 -0.069353518
C  C90  1  0.34530000  0.17350000  0.78340000  1.0 -0.069353518
C  C91  1  0.65470000  0.43810000  0.82820000  1.0 -0.069353518
C  C92  1  0.39010000  0.56190000  0.21660000  1.0 -0.069353518
C  C93  1  0.17350000  0.78340000  0.34530000  1.0 -0.069353518
C  C94  1  0.82650000  0.17180000  0.60990000  1.0 -0.069353518
C  C95  1  0.56190000  0.21660000  0.39010000  1.0 -0.069353518
C  C96  1  0.43810000  0.82820000  0.65470000  1.0 -0.069353518
C  C97  1  0.61160000  0.69900000  0.31060000  1.0 -0.11770562
C  C98  1  0.38840000  0.30100000  0.68940000  1.0 -0.11770562
C  C99  1  0.61160000  0.30100000  0.91260000  1.0 -0.11770562
C  C100  1  0.38840000  0.69900000  0.08740000  1.0 -0.11770562
C  C101  1  0.31060000  0.61160000  0.69900000  1.0 -0.11770562
C  C102  1  0.68940000  0.38840000  0.30100000  1.0 -0.11770562
C  C103  1  0.91260000  0.61160000  0.30100000  1.0 -0.11770562
C  C104  1  0.08740000  0.38840000  0.69900000  1.0 -0.11770562
C  C105  1  0.69900000  0.31060000  0.61160000  1.0 -0.11770562
C  C106  1  0.30100000  0.68940000  0.38840000  1.0 -0.11770562
C  C107  1  0.30100000  0.91260000  0.61160000  1.0 -0.11770562
C  C108  1  0.69900000  0.08740000  0.38840000  1.0 -0.11770562
C  C109  1  0.69900000  0.61160000  0.31060000  1.0 -0.11770562
C  C110  1  0.30100000  0.38840000  0.68940000  1.0 -0.11770562
C  C111  1  0.30100000  0.61160000  0.91260000  1.0 -0.11770562
C  C112  1  0.69900000  0.38840000  0.08740000  1.0 -0.11770562
C  C113  1  0.38840000  0.08740000  0.69900000  1.0 -0.11770562
C  C114  1  0.61160000  0.91260000  0.30100000  1.0 -0.11770562
C  C115  1  0.38840000  0.68940000  0.30100000  1.0 -0.11770562
C  C116  1  0.61160000  0.31060000  0.69900000  1.0 -0.11770562
C  C117  1  0.91260000  0.30100000  0.61160000  1.0 -0.11770562
C  C118  1  0.08740000  0.69900000  0.38840000  1.0 -0.11770562
C  C119  1  0.31060000  0.69900000  0.61160000  1.0 -0.11770562
C  C120  1  0.68940000  0.30100000  0.38840000  1.0 -0.11770562
C  C121  1  0.56500000  0.68150000  0.24650000  1.0 -0.1321524367
C  C122  1  0.43500000  0.31850000  0.75350000  1.0 -0.1321524367
C  C123  1  0.56500000  0.31850000  0.88350000  1.0 -0.1321524367
C  C124  1  0.43500000  0.68150000  0.11650000  1.0 -0.1321524367
C  C125  1  0.24650000  0.56500000  0.68150000  1.0 -0.1321524367
C  C126  1  0.75350000  0.43500000  0.31850000  1.0 -0.1321524367
C  C127  1  0.88350000  0.56500000  0.31850000  1.0 -0.1321524367
C  C128  1  0.11650000  0.43500000  0.68150000  1.0 -0.1321524367
C  C129  1  0.68150000  0.24650000  0.56500000  1.0 -0.1321524367
C  C130  1  0.31850000  0.75350000  0.43500000  1.0 -0.1321524367
C  C131  1  0.31850000  0.88350000  0.56500000  1.0 -0.1321524367
C  C132  1  0.68150000  0.11650000  0.43500000  1.0 -0.1321524367
C  C133  1  0.68150000  0.56500000  0.24650000  1.0 -0.1321524367
C  C134  1  0.31850000  0.43500000  0.75350000  1.0 -0.1321524367
C  C135  1  0.31850000  0.56500000  0.88350000  1.0 -0.1321524367
C  C136  1  0.68150000  0.43500000  0.11650000  1.0 -0.1321524367
C  C137  1  0.43500000  0.11650000  0.68150000  1.0 -0.1321524367
C  C138  1  0.56500000  0.88350000  0.31850000  1.0 -0.1321524367
C  C139  1  0.43500000  0.75350000  0.31850000  1.0 -0.1321524367
C  C140  1  0.56500000  0.24650000  0.68150000  1.0 -0.1321524367
C  C141  1  0.88350000  0.31850000  0.56500000  1.0 -0.1321524367
C  C142  1  0.11650000  0.68150000  0.43500000  1.0 -0.1321524367
C  C143  1  0.24650000  0.68150000  0.56500000  1.0 -0.1321524367
C  C144  1  0.75350000  0.31850000  0.43500000  1.0 -0.1321524367
C  C145  1  0.73080000  0.96820000  0.46040000  1.0 -0.069353518
C  C146  1  0.50780000  0.27040000  0.53960000  1.0 -0.069353518
C  C147  1  0.49220000  0.03180000  0.76260000  1.0 -0.069353518
C  C148  1  0.26920000  0.72960000  0.23740000  1.0 -0.069353518
C  C149  1  0.46040000  0.73080000  0.96820000  1.0 -0.069353518
C  C150  1  0.53960000  0.50780000  0.27040000  1.0 -0.069353518
C  C151  1  0.76260000  0.49220000  0.03180000  1.0 -0.069353518
C  C152  1  0.23740000  0.26920000  0.72960000  1.0 -0.069353518
C  C153  1  0.96820000  0.46040000  0.73080000  1.0 -0.069353518
C  C154  1  0.27040000  0.53960000  0.50780000  1.0 -0.069353518
C  C155  1  0.03180000  0.76260000  0.49220000  1.0 -0.069353518
C  C156  1  0.72960000  0.23740000  0.26920000  1.0 -0.069353518
C  C157  1  0.72960000  0.49220000  0.46040000  1.0 -0.069353518
C  C158  1  0.03180000  0.26920000  0.53960000  1.0 -0.069353518
C  C159  1  0.27040000  0.73080000  0.76260000  1.0 -0.069353518
C  C160  1  0.96820000  0.50780000  0.23740000  1.0 -0.069353518
C  C161  1  0.50780000  0.23740000  0.96820000  1.0 -0.069353518
C  C162  1  0.73080000  0.76260000  0.27040000  1.0 -0.069353518
C  C163  1  0.26920000  0.53960000  0.03180000  1.0 -0.069353518
C  C164  1  0.49220000  0.46040000  0.72960000  1.0 -0.069353518
C  C165  1  0.76260000  0.27040000  0.73080000  1.0 -0.069353518
C  C166  1  0.23740000  0.96820000  0.50780000  1.0 -0.069353518
C  C167  1  0.46040000  0.72960000  0.49220000  1.0 -0.069353518
C  C168  1  0.53960000  0.03180000  0.26920000  1.0 -0.069353518
C  C169  1  0.26920000  0.03180000  0.53960000  1.0 -0.069353518
C  C170  1  0.49220000  0.72960000  0.46040000  1.0 -0.069353518
C  C171  1  0.50780000  0.96820000  0.23740000  1.0 -0.069353518
C  C172  1  0.73080000  0.27040000  0.76260000  1.0 -0.069353518
C  C173  1  0.53960000  0.26920000  0.03180000  1.0 -0.069353518
C  C174  1  0.46040000  0.49220000  0.72960000  1.0 -0.069353518
C  C175  1  0.23740000  0.50780000  0.96820000  1.0 -0.069353518
C  C176  1  0.76260000  0.73080000  0.27040000  1.0 -0.069353518
C  C177  1  0.03180000  0.53960000  0.26920000  1.0 -0.069353518
C  C178  1  0.72960000  0.46040000  0.49220000  1.0 -0.069353518
C  C179  1  0.96820000  0.23740000  0.50780000  1.0 -0.069353518
C  C180  1  0.27040000  0.76260000  0.73080000  1.0 -0.069353518
C  C181  1  0.27040000  0.50780000  0.53960000  1.0 -0.069353518
C  C182  1  0.96820000  0.73080000  0.46040000  1.0 -0.069353518
C  C183  1  0.72960000  0.26920000  0.23740000  1.0 -0.069353518
C  C184  1  0.03180000  0.49220000  0.76260000  1.0 -0.069353518
C  C185  1  0.49220000  0.76260000  0.03180000  1.0 -0.069353518
C  C186  1  0.26920000  0.23740000  0.72960000  1.0 -0.069353518
C  C187  1  0.73080000  0.46040000  0.96820000  1.0 -0.069353518
C  C188  1  0.50780000  0.53960000  0.27040000  1.0 -0.069353518
C  C189  1  0.23740000  0.72960000  0.26920000  1.0 -0.069353518
C  C190  1  0.76260000  0.03180000  0.49220000  1.0 -0.069353518
C  C191  1  0.53960000  0.27040000  0.50780000  1.0 -0.069353518
C  C192  1  0.46040000  0.96820000  0.73080000  1.0 -0.069353518
C  C193  1  0.84030000  0.00000000  0.41290000  1.0 -0.1513867023
C  C194  1  0.58710000  0.42740000  0.58710000  1.0 -0.1513867023
C  C195  1  0.41290000  0.00000000  0.84030000  1.0 -0.1557078252
C  C196  1  0.15970000  0.57260000  0.15970000  1.0 -0.1557078252
C  C197  1  0.41290000  0.84030000  0.00000000  1.0 -0.1557078252
C  C198  1  0.58710000  0.58710000  0.42740000  1.0 -0.1513867023
C  C199  1  0.84030000  0.41290000  0.00000000  1.0 -0.1557078252
C  C200  1  0.15970000  0.15970000  0.57260000  1.0 -0.1557078252
C  C201  1  0.00000000  0.41290000  0.84030000  1.0 -0.1557078252
C  C202  1  0.42740000  0.58710000  0.58710000  1.0 -0.1557078252
C  C203  1  0.00000000  0.84030000  0.41290000  1.0 -0.1557078252
C  C204  1  0.57260000  0.15970000  0.15970000  1.0 -0.1557078252
C  C205  1  0.57260000  0.41290000  0.41290000  1.0 -0.1557078252
C  C206  1  0.00000000  0.15970000  0.58710000  1.0 -0.1513867023
C  C207  1  0.42740000  0.84030000  0.84030000  1.0 -0.1557078252
C  C208  1  0.00000000  0.58710000  0.15970000  1.0 -0.1557078252
C  C209  1  0.58710000  0.15970000  0.00000000  1.0 -0.1513867023
C  C210  1  0.84030000  0.84030000  0.42740000  1.0 -0.1513867023
C  C211  1  0.15970000  0.58710000  0.00000000  1.0 -0.1557078252
C  C212  1  0.41290000  0.41290000  0.57260000  1.0 -0.1557078252
C  C213  1  0.84030000  0.42740000  0.84030000  1.0 -0.1557078252
C  C214  1  0.15970000  0.00000000  0.58710000  1.0 -0.1557078252
C  C215  1  0.41290000  0.57260000  0.41290000  1.0 -0.1557078252
C  C216  1  0.58710000  0.00000000  0.15970000  1.0 -0.1557078252
C  C217  1  0.80120000  0.00000000  0.35580000  1.0 -0.1760986461
C  C218  1  0.64420000  0.44540000  0.64420000  1.0 -0.1760986461
C  C219  1  0.35580000  0.00000000  0.80120000  1.0 -0.1760986461
C  C220  1  0.19880000  0.55460000  0.19880000  1.0 -0.1760986461
C  C221  1  0.35580000  0.80120000  0.00000000  1.0 -0.1760986461
C  C222  1  0.64420000  0.64420000  0.44540000  1.0 -0.1760986461
C  C223  1  0.80120000  0.35580000  0.00000000  1.0 -0.1760986461
C  C224  1  0.19880000  0.19880000  0.55460000  1.0 -0.1760986461
C  C225  1  0.00000000  0.35580000  0.80120000  1.0 -0.1760986461
C  C226  1  0.44540000  0.64420000  0.64420000  1.0 -0.1760986461
C  C227  1  0.00000000  0.80120000  0.35580000  1.0 -0.1760986461
C  C228  1  0.55460000  0.19880000  0.19880000  1.0 -0.1760986461
C  C229  1  0.55460000  0.35580000  0.35580000  1.0 -0.1760986461
C  C230  1  0.00000000  0.19880000  0.64420000  1.0 -0.1760986461
C  C231  1  0.44540000  0.80120000  0.80120000  1.0 -0.1760986461
C  C232  1  0.00000000  0.64420000  0.19880000  1.0 -0.1760986461
C  C233  1  0.64420000  0.19880000  0.00000000  1.0 -0.1760986461
C  C234  1  0.80120000  0.80120000  0.44540000  1.0 -0.1760986461
C  C235  1  0.19880000  0.64420000  0.00000000  1.0 -0.1760986461
C  C236  1  0.35580000  0.35580000  0.55460000  1.0 -0.1760986461
C  C237  1  0.80120000  0.44540000  0.80120000  1.0 -0.1760986461
C  C238  1  0.19880000  0.00000000  0.64420000  1.0 -0.1760986461
C  C239  1  0.35580000  0.55460000  0.35580000  1.0 -0.1760986461
C  C240  1  0.64420000  0.00000000  0.19880000  1.0 -0.1760986461
C  C241  1  0.56570000  0.71730000  0.28300000  1.0 -0.1004215049
C  C242  1  0.43430000  0.28270000  0.71700000  1.0 -0.1004215049
C  C243  1  0.56570000  0.28270000  0.84840000  1.0 -0.1004215049
C  C244  1  0.43430000  0.71730000  0.15160000  1.0 -0.1004215049
C  C245  1  0.28300000  0.56570000  0.71730000  1.0 -0.1004215049
C  C246  1  0.71700000  0.43430000  0.28270000  1.0 -0.1004215049
C  C247  1  0.84840000  0.56570000  0.28270000  1.0 -0.1004215049
C  C248  1  0.15160000  0.43430000  0.71730000  1.0 -0.1004215049
C  C249  1  0.71730000  0.28300000  0.56570000  1.0 -0.1004215049
C  C250  1  0.28270000  0.71700000  0.43430000  1.0 -0.1004215049
C  C251  1  0.28270000  0.84840000  0.56570000  1.0 -0.1004215049
C  C252  1  0.71730000  0.15160000  0.43430000  1.0 -0.1004215049
C  C253  1  0.71730000  0.56570000  0.28300000  1.0 -0.1004215049
C  C254  1  0.28270000  0.43430000  0.71700000  1.0 -0.1004215049
C  C255  1  0.28270000  0.56570000  0.84840000  1.0 -0.1004215049
C  C256  1  0.71730000  0.43430000  0.15160000  1.0 -0.1004215049
C  C257  1  0.43430000  0.15160000  0.71730000  1.0 -0.1004215049
C  C258  1  0.56570000  0.84840000  0.28270000  1.0 -0.1004215049
C  C259  1  0.43430000  0.71700000  0.28270000  1.0 -0.1004215049
C  C260  1  0.56570000  0.28300000  0.71730000  1.0 -0.1004215049
C  C261  1  0.84840000  0.28270000  0.56570000  1.0 -0.1004215049
C  C262  1  0.15160000  0.71730000  0.43430000  1.0 -0.1004215049
C  C263  1  0.28300000  0.71730000  0.56570000  1.0 -0.1004215049
C  C264  1  0.71700000  0.28270000  0.43430000  1.0 -0.1004215049
C  C265  1  0.58500000  0.67130000  0.25630000  1.0 -0.1444285991
C  C266  1  0.41500000  0.32870000  0.74370000  1.0 -0.1444285991
C  C267  1  0.58500000  0.32870000  0.91370000  1.0 -0.1444285991
C  C268  1  0.41500000  0.67130000  0.08630000  1.0 -0.1444285991
C  C269  1  0.25630000  0.58500000  0.67130000  1.0 -0.1444285991
C  C270  1  0.74370000  0.41500000  0.32870000  1.0 -0.1444285991
C  C271  1  0.91370000  0.58500000  0.32870000  1.0 -0.1444285991
C  C272  1  0.08630000  0.41500000  0.67130000  1.0 -0.1444285991
C  C273  1  0.67130000  0.25630000  0.58500000  1.0 -0.1444285991
C  C274  1  0.32870000  0.74370000  0.41500000  1.0 -0.1444285991
C  C275  1  0.32870000  0.91370000  0.58500000  1.0 -0.1444285991
C  C276  1  0.67130000  0.08630000  0.41500000  1.0 -0.1444285991
C  C277  1  0.67130000  0.58500000  0.25630000  1.0 -0.1444285991
C  C278  1  0.32870000  0.41500000  0.74370000  1.0 -0.1444285991
C  C279  1  0.32870000  0.58500000  0.91370000  1.0 -0.1444285991
C  C280  1  0.67130000  0.41500000  0.08630000  1.0 -0.1444285991
C  C281  1  0.41500000  0.08630000  0.67130000  1.0 -0.1444285991
C  C282  1  0.58500000  0.91370000  0.32870000  1.0 -0.1444285991
C  C283  1  0.41500000  0.74370000  0.32870000  1.0 -0.1444285991
C  C284  1  0.58500000  0.25630000  0.67130000  1.0 -0.1444285991
C  C285  1  0.91370000  0.32870000  0.58500000  1.0 -0.1444285991
C  C286  1  0.08630000  0.67130000  0.41500000  1.0 -0.1444285991
C  C287  1  0.25630000  0.67130000  0.58500000  1.0 -0.1444285991
C  C288  1  0.74370000  0.32870000  0.41500000  1.0 -0.1444285991
C  C289  1  0.76900000  0.00000000  0.36920000  1.0 -0.1513867023
C  C290  1  0.63080000  0.39980000  0.63080000  1.0 -0.1513867023
C  C291  1  0.36920000  0.00000000  0.76900000  1.0 -0.1513867023
C  C292  1  0.23100000  0.60020000  0.23100000  1.0 -0.1513867023
C  C293  1  0.36920000  0.76900000  0.00000000  1.0 -0.1513867023
C  C294  1  0.63080000  0.63080000  0.39980000  1.0 -0.1513867023
C  C295  1  0.76900000  0.36920000  0.00000000  1.0 -0.1513867023
C  C296  1  0.23100000  0.23100000  0.60020000  1.0 -0.1513867023
C  C297  1  0.00000000  0.36920000  0.76900000  1.0 -0.1513867023
C  C298  1  0.39980000  0.63080000  0.63080000  1.0 -0.1513867023
C  C299  1  0.00000000  0.76900000  0.36920000  1.0 -0.1513867023
C  C300  1  0.60020000  0.23100000  0.23100000  1.0 -0.1513867023
C  C301  1  0.60020000  0.36920000  0.36920000  1.0 -0.1513867023
C  C302  1  0.00000000  0.23100000  0.63080000  1.0 -0.1513867023
C  C303  1  0.39980000  0.76900000  0.76900000  1.0 -0.1513867023
C  C304  1  0.00000000  0.63080000  0.23100000  1.0 -0.1513867023
C  C305  1  0.63080000  0.23100000  0.00000000  1.0 -0.1513867023
C  C306  1  0.76900000  0.76900000  0.39980000  1.0 -0.1513867023
C  C307  1  0.23100000  0.63080000  0.00000000  1.0 -0.1513867023
C  C308  1  0.36920000  0.36920000  0.60020000  1.0 -0.1513867023
C  C309  1  0.76900000  0.39980000  0.76900000  1.0 -0.1513867023
C  C310  1  0.23100000  0.00000000  0.63080000  1.0 -0.1513867023
C  C311  1  0.36920000  0.60020000  0.36920000  1.0 -0.1513867023
C  C312  1  0.63080000  0.00000000  0.23100000  1.0 -0.1513867023
C  C313  1  0.81350000  0.00000000  0.34450000  1.0 -0.1999976474
C  C314  1  0.65550000  0.46900000  0.65550000  1.0 -0.1999976474
C  C315  1  0.34450000  0.00000000  0.81350000  1.0 -0.1999976474
C  C316  1  0.18650000  0.53100000  0.18650000  1.0 -0.1999976474
C  C317  1  0.34450000  0.81350000  0.00000000  1.0 -0.1999976474
C  C318  1  0.65550000  0.65550000  0.46900000  1.0 -0.1999976474
C  C319  1  0.81350000  0.34450000  0.00000000  1.0 -0.1999976474
C  C320  1  0.18650000  0.18650000  0.53100000  1.0 -0.1999976474
C  C321  1  0.00000000  0.34450000  0.81350000  1.0 -0.1999976474
C  C322  1  0.46900000  0.65550000  0.65550000  1.0 -0.1999976474
C  C323  1  0.00000000  0.81350000  0.34450000  1.0 -0.1999976474
C  C324  1  0.53100000  0.18650000  0.18650000  1.0 -0.1999976474
C  C325  1  0.53100000  0.34450000  0.34450000  1.0 -0.1999976474
C  C326  1  0.00000000  0.18650000  0.65550000  1.0 -0.1999976474
C  C327  1  0.46900000  0.81350000  0.81350000  1.0 -0.1999976474
C  C328  1  0.00000000  0.65550000  0.18650000  1.0 -0.1999976474
C  C329  1  0.65550000  0.18650000  0.00000000  1.0 -0.1999976474
C  C330  1  0.81350000  0.81350000  0.46900000  1.0 -0.1999976474
C  C331  1  0.18650000  0.65550000  0.00000000  1.0 -0.1999976474
C  C332  1  0.34450000  0.34450000  0.53100000  1.0 -0.1999976474
C  C333  1  0.81350000  0.46900000  0.81350000  1.0 -0.1999976474
C  C334  1  0.18650000  0.00000000  0.65550000  1.0 -0.1999976474
C  C335  1  0.34450000  0.53100000  0.34450000  1.0 -0.1999976474
C  C336  1  0.65550000  0.00000000  0.18650000  1.0 -0.1999976474
C  C337  1  0.70180000  0.49290000  0.52330000  1.0 -0.0478112698
C  C338  1  0.96960000  0.17850000  0.47670000  1.0 -0.0478112698
C  C339  1  0.03040000  0.50710000  0.20890000  1.0 -0.0478112698
C  C340  1  0.29820000  0.82150000  0.79110000  1.0 -0.0478112698
C  C341  1  0.52330000  0.70180000  0.49290000  1.0 -0.0478112698
C  C342  1  0.47670000  0.96960000  0.17850000  1.0 -0.0478112698
C  C343  1  0.20890000  0.03040000  0.50710000  1.0 -0.0478112698
C  C344  1  0.79110000  0.29820000  0.82150000  1.0 -0.0478112698
C  C345  1  0.49290000  0.52330000  0.70180000  1.0 -0.0478112698
C  C346  1  0.17850000  0.47670000  0.96960000  1.0 -0.0478112698
C  C347  1  0.50710000  0.20890000  0.03040000  1.0 -0.0478112698
C  C348  1  0.82150000  0.79110000  0.29820000  1.0 -0.0478112698
C  C349  1  0.82150000  0.03040000  0.52330000  1.0 -0.0478112698
C  C350  1  0.50710000  0.29820000  0.47670000  1.0 -0.0478112698
C  C351  1  0.17850000  0.70180000  0.20890000  1.0 -0.0478112698
C  C352  1  0.49290000  0.96960000  0.79110000  1.0 -0.0478112698
C  C353  1  0.96960000  0.79110000  0.49290000  1.0 -0.0478112698
C  C354  1  0.70180000  0.20890000  0.17850000  1.0 -0.0478112698
C  C355  1  0.29820000  0.47670000  0.50710000  1.0 -0.0478112698
C  C356  1  0.03040000  0.52330000  0.82150000  1.0 -0.0478112698
C  C357  1  0.20890000  0.17850000  0.70180000  1.0 -0.0478112698
C  C358  1  0.79110000  0.49290000  0.96960000  1.0 -0.0478112698
C  C359  1  0.52330000  0.82150000  0.03040000  1.0 -0.0478112698
C  C360  1  0.47670000  0.50710000  0.29820000  1.0 -0.0478112698
C  C361  1  0.29820000  0.50710000  0.47670000  1.0 -0.0478112698
C  C362  1  0.03040000  0.82150000  0.52330000  1.0 -0.0478112698
C  C363  1  0.96960000  0.49290000  0.79110000  1.0 -0.0478112698
C  C364  1  0.70180000  0.17850000  0.20890000  1.0 -0.0478112698
C  C365  1  0.47670000  0.29820000  0.50710000  1.0 -0.0478112698
C  C366  1  0.52330000  0.03040000  0.82150000  1.0 -0.0478112698
C  C367  1  0.79110000  0.96960000  0.49290000  1.0 -0.0478112698
C  C368  1  0.20890000  0.70180000  0.17850000  1.0 -0.0478112698
C  C369  1  0.50710000  0.47670000  0.29820000  1.0 -0.0478112698
C  C370  1  0.82150000  0.52330000  0.03040000  1.0 -0.0478112698
C  C371  1  0.49290000  0.79110000  0.96960000  1.0 -0.0478112698
C  C372  1  0.17850000  0.20890000  0.70180000  1.0 -0.0478112698
C  C373  1  0.17850000  0.96960000  0.47670000  1.0 -0.0478112698
C  C374  1  0.49290000  0.70180000  0.52330000  1.0 -0.0478112698
C  C375  1  0.82150000  0.29820000  0.79110000  1.0 -0.0478112698
C  C376  1  0.50710000  0.03040000  0.20890000  1.0 -0.0478112698
C  C377  1  0.03040000  0.20890000  0.50710000  1.0 -0.0478112698
C  C378  1  0.29820000  0.79110000  0.82150000  1.0 -0.0478112698
C  C379  1  0.70180000  0.52330000  0.49290000  1.0 -0.0478112698
C  C380  1  0.96960000  0.47670000  0.17850000  1.0 -0.0478112698
C  C381  1  0.79110000  0.82150000  0.29820000  1.0 -0.0478112698
C  C382  1  0.20890000  0.50710000  0.03040000  1.0 -0.0478112698
C  C383  1  0.47670000  0.17850000  0.96960000  1.0 -0.0478112698
C  C384  1  0.52330000  0.49290000  0.70180000  1.0 -0.0478112698
N  N1  1  0.64930000  0.80560000  0.38390000  1.0 -0.3330083925
N  N2  1  0.42170000  0.26540000  0.61610000  1.0 -0.3330083925
N  N3  1  0.57830000  0.19440000  0.84370000  1.0 -0.3330083925
N  N4  1  0.35070000  0.73460000  0.15630000  1.0 -0.3330083925
N  N5  1  0.38390000  0.64930000  0.80560000  1.0 -0.3330083925
N  N6  1  0.61610000  0.42170000  0.26540000  1.0 -0.3330083925
N  N7  1  0.84370000  0.57830000  0.19440000  1.0 -0.3330083925
N  N8  1  0.15630000  0.35070000  0.73460000  1.0 -0.3330083925
N  N9  1  0.80560000  0.38390000  0.64930000  1.0 -0.3330083925
N  N10  1  0.26540000  0.61610000  0.42170000  1.0 -0.3330083925
N  N11  1  0.19440000  0.84370000  0.57830000  1.0 -0.3330083925
N  N12  1  0.73460000  0.15630000  0.35070000  1.0 -0.3330083925
N  N13  1  0.73460000  0.57830000  0.38390000  1.0 -0.3330083925
N  N14  1  0.19440000  0.35070000  0.61610000  1.0 -0.3330083925
N  N15  1  0.26540000  0.64930000  0.84370000  1.0 -0.3330083925
N  N16  1  0.80560000  0.42170000  0.15630000  1.0 -0.3330083925
N  N17  1  0.42170000  0.15630000  0.80560000  1.0 -0.3330083925
N  N18  1  0.64930000  0.84370000  0.26540000  1.0 -0.3330083925
N  N19  1  0.35070000  0.61610000  0.19440000  1.0 -0.3330083925
N  N20  1  0.57830000  0.38390000  0.73460000  1.0 -0.3330083925
N  N21  1  0.84370000  0.26540000  0.64930000  1.0 -0.3330083925
N  N22  1  0.15630000  0.80560000  0.42170000  1.0 -0.3330083925
N  N23  1  0.38390000  0.73460000  0.57830000  1.0 -0.3330083925
N  N24  1  0.61610000  0.19440000  0.35070000  1.0 -0.3330083925
N  N25  1  0.35070000  0.19440000  0.61610000  1.0 -0.3330083925
N  N26  1  0.57830000  0.73460000  0.38390000  1.0 -0.3330083925
N  N27  1  0.42170000  0.80560000  0.15630000  1.0 -0.3330083925
N  N28  1  0.64930000  0.26540000  0.84370000  1.0 -0.3330083925
N  N29  1  0.61610000  0.35070000  0.19440000  1.0 -0.3330083925
N  N30  1  0.38390000  0.57830000  0.73460000  1.0 -0.3330083925
N  N31  1  0.15630000  0.42170000  0.80560000  1.0 -0.3330083925
N  N32  1  0.84370000  0.64930000  0.26540000  1.0 -0.3330083925
N  N33  1  0.19440000  0.61610000  0.35070000  1.0 -0.3330083925
N  N34  1  0.73460000  0.38390000  0.57830000  1.0 -0.3330083925
N  N35  1  0.80560000  0.15630000  0.42170000  1.0 -0.3330083925
N  N36  1  0.26540000  0.84370000  0.64930000  1.0 -0.3330083925
N  N37  1  0.26540000  0.42170000  0.61610000  1.0 -0.3330083925
N  N38  1  0.80560000  0.64930000  0.38390000  1.0 -0.3330083925
N  N39  1  0.73460000  0.35070000  0.15630000  1.0 -0.3330083925
N  N40  1  0.19440000  0.57830000  0.84370000  1.0 -0.3330083925
N  N41  1  0.57830000  0.84370000  0.19440000  1.0 -0.3330083925
N  N42  1  0.35070000  0.15630000  0.73460000  1.0 -0.3330083925
N  N43  1  0.64930000  0.38390000  0.80560000  1.0 -0.3330083925
N  N44  1  0.42170000  0.61610000  0.26540000  1.0 -0.3330083925
N  N45  1  0.15630000  0.73460000  0.35070000  1.0 -0.3330083925
N  N46  1  0.84370000  0.19440000  0.57830000  1.0 -0.3330083925
N  N47  1  0.61610000  0.26540000  0.42170000  1.0 -0.3330083925
N  N48  1  0.38390000  0.80560000  0.64930000  1.0 -0.3330083925
N  N49  1  0.76020000  0.94940000  0.42820000  1.0 -0.2959719402
N  N50  1  0.52120000  0.33200000  0.57180000  1.0 -0.2959719402
N  N51  1  0.47880000  0.05060000  0.81080000  1.0 -0.2959719402
N  N52  1  0.23980000  0.66800000  0.18920000  1.0 -0.2959719402
N  N53  1  0.42820000  0.76020000  0.94940000  1.0 -0.2959719402
N  N54  1  0.57180000  0.52120000  0.33200000  1.0 -0.2959719402
N  N55  1  0.81080000  0.47880000  0.05060000  1.0 -0.2959719402
N  N56  1  0.18920000  0.23980000  0.66800000  1.0 -0.2959719402
N  N57  1  0.94940000  0.42820000  0.76020000  1.0 -0.2959719402
N  N58  1  0.33200000  0.57180000  0.52120000  1.0 -0.2959719402
N  N59  1  0.05060000  0.81080000  0.47880000  1.0 -0.2959719402
N  N60  1  0.66800000  0.18920000  0.23980000  1.0 -0.2959719402
N  N61  1  0.66800000  0.47880000  0.42820000  1.0 -0.2959719402
N  N62  1  0.05060000  0.23980000  0.57180000  1.0 -0.2959719402
N  N63  1  0.33200000  0.76020000  0.81080000  1.0 -0.2959719402
N  N64  1  0.94940000  0.52120000  0.18920000  1.0 -0.2959719402
N  N65  1  0.52120000  0.18920000  0.94940000  1.0 -0.2959719402
N  N66  1  0.76020000  0.81080000  0.33200000  1.0 -0.2959719402
N  N67  1  0.23980000  0.57180000  0.05060000  1.0 -0.2959719402
N  N68  1  0.47880000  0.42820000  0.66800000  1.0 -0.2959719402
N  N69  1  0.81080000  0.33200000  0.76020000  1.0 -0.2959719402
N  N70  1  0.18920000  0.94940000  0.52120000  1.0 -0.2959719402
N  N71  1  0.42820000  0.66800000  0.47880000  1.0 -0.2959719402
N  N72  1  0.57180000  0.05060000  0.23980000  1.0 -0.2959719402
N  N73  1  0.23980000  0.05060000  0.57180000  1.0 -0.2959719402
N  N74  1  0.47880000  0.66800000  0.42820000  1.0 -0.2959719402
N  N75  1  0.52120000  0.94940000  0.18920000  1.0 -0.2959719402
N  N76  1  0.76020000  0.33200000  0.81080000  1.0 -0.2959719402
N  N77  1  0.57180000  0.23980000  0.05060000  1.0 -0.294811627
N  N78  1  0.42820000  0.47880000  0.66800000  1.0 -0.2959719402
N  N79  1  0.18920000  0.52120000  0.94940000  1.0 -0.2959719402
N  N80  1  0.81080000  0.76020000  0.33200000  1.0 -0.2959719402
N  N81  1  0.05060000  0.57180000  0.23980000  1.0 -0.2959719402
N  N82  1  0.66800000  0.42820000  0.47880000  1.0 -0.2959719402
N  N83  1  0.94940000  0.18920000  0.52120000  1.0 -0.2959719402
N  N84  1  0.33200000  0.81080000  0.76020000  1.0 -0.2959719402
N  N85  1  0.33200000  0.52120000  0.57180000  1.0 -0.2959719402
N  N86  1  0.94940000  0.76020000  0.42820000  1.0 -0.2959719402
N  N87  1  0.66800000  0.23980000  0.18920000  1.0 -0.294811627
N  N88  1  0.05060000  0.47880000  0.81080000  1.0 -0.2959719402
N  N89  1  0.47880000  0.81080000  0.05060000  1.0 -0.2959719402
N  N90  1  0.23980000  0.18920000  0.66800000  1.0 -0.2959719402
N  N91  1  0.76020000  0.42820000  0.94940000  1.0 -0.2959719402
N  N92  1  0.52120000  0.57180000  0.33200000  1.0 -0.2959719402
N  N93  1  0.18920000  0.66800000  0.23980000  1.0 -0.2959719402
N  N94  1  0.81080000  0.05060000  0.47880000  1.0 -0.2959719402
N  N95  1  0.57180000  0.33200000  0.52120000  1.0 -0.2959719402
N  N96  1  0.42820000  0.94940000  0.76020000  1.0 -0.2959719402
