# DDEC6 charges by PACMAN v1.1 (https://github.com/mtap-research/PACMAN-charge/)
data_GUPCAW_ASR_pacman
_symmetry_space_group_name_H-M   'P 1'
_cell_length_a   23.01730000
_cell_length_b   23.01730000
_cell_length_c   23.01730000
_cell_angle_alpha   101.19800000
_cell_angle_beta   101.19800000
_cell_angle_gamma   127.70400000
_symmetry_Int_Tables_number   1
_chemical_formula_structural   Cd2H30C21N8
_chemical_formula_sum   'Cd16 H240 C168 N64'
_cell_volume   8660.73710182
_cell_formula_units_Z   8
loop_
 _symmetry_equiv_pos_site_id
 _symmetry_equiv_pos_as_xyz
  1  'x, y, z'
loop_
 _atom_site_type_symbol
 _atom_site_label
 _atom_site_symmetry_multiplicity
 _atom_site_fract_x
 _atom_site_fract_y
 _atom_site_fract_z
 _atom_site_occupancy
 _atom_site_charge
Cd  Cd1  1  0.73316000  0.10751000  0.15583000  1.0 0.709266333
Cd  Cd2  1  0.95168000  0.57733000  0.84417000  1.0 0.709266333
Cd  Cd3  1  0.57733000  0.73316000  0.62565000  1.0 0.709266333
Cd  Cd4  1  0.10751000  0.95168000  0.37435000  1.0 0.709266333
Cd  Cd5  1  0.26684000  0.89249000  0.84417000  1.0 0.709266333
Cd  Cd6  1  0.04832000  0.42267000  0.15583000  1.0 0.709266333
Cd  Cd7  1  0.42267000  0.26684000  0.37435000  1.0 0.709266333
Cd  Cd8  1  0.89249000  0.04832000  0.62565000  1.0 0.709266333
Cd  Cd9  1  0.42270000  0.04838000  0.15580000  1.0 0.6959323567
Cd  Cd10  1  0.89258000  0.26690000  0.84420000  1.0 0.6959323567
Cd  Cd11  1  0.26690000  0.42270000  0.37432000  1.0 0.6959323567
Cd  Cd12  1  0.04838000  0.89258000  0.62568000  1.0 0.6959323567
Cd  Cd13  1  0.57730000  0.95162000  0.84420000  1.0 0.6959323567
Cd  Cd14  1  0.10742000  0.73310000  0.15580000  1.0 0.6935532672
Cd  Cd15  1  0.73310000  0.57730000  0.62568000  1.0 0.6959323567
Cd  Cd16  1  0.95162000  0.10742000  0.37432000  1.0 0.6935532672
H  H1  1  0.77510000  0.28090000  0.17200000  1.0 0.1203877563
H  H2  1  0.10890000  0.60310000  0.82800000  1.0 0.1203877563
H  H3  1  0.60310000  0.77510000  0.49420000  1.0 0.1203877563
H  H4  1  0.28090000  0.10890000  0.50580000  1.0 0.1203877563
H  H5  1  0.22490000  0.71910000  0.82800000  1.0 0.1203877563
H  H6  1  0.89110000  0.39690000  0.17200000  1.0 0.1203877563
H  H7  1  0.39690000  0.22490000  0.50580000  1.0 0.1203877563
H  H8  1  0.71910000  0.89110000  0.49420000  1.0 0.1203877563
H  H9  1  0.81660000  0.17850000  0.30090000  1.0 0.1285219466
H  H10  1  0.87760000  0.51570000  0.69910000  1.0 0.1285219466
H  H11  1  0.51570000  0.81660000  0.63810000  1.0 0.1285219466
H  H12  1  0.17850000  0.87760000  0.36190000  1.0 0.1285219466
H  H13  1  0.18340000  0.82150000  0.69910000  1.0 0.1285219466
H  H14  1  0.12240000  0.48430000  0.30090000  1.0 0.1285219466
H  H15  1  0.48430000  0.18340000  0.36190000  1.0 0.1285219466
H  H16  1  0.82150000  0.12240000  0.63810000  1.0 0.1285219466
H  H17  1  0.90080000  0.21160000  0.34320000  1.0 0.1476651783
H  H18  1  0.86840000  0.55760000  0.65680000  1.0 0.1476651783
H  H19  1  0.55760000  0.90080000  0.68920000  1.0 0.1476651783
H  H20  1  0.21160000  0.86840000  0.31080000  1.0 0.1476651783
H  H21  1  0.09920000  0.78840000  0.65680000  1.0 0.1476651783
H  H22  1  0.13160000  0.44240000  0.34320000  1.0 0.1476651783
H  H23  1  0.44240000  0.09920000  0.31080000  1.0 0.1476651783
H  H24  1  0.78840000  0.13160000  0.68920000  1.0 0.1476651783
H  H25  1  0.82410000  0.14420000  0.35150000  1.0 0.1285219466
H  H26  1  0.79270000  0.47260000  0.64850000  1.0 0.1285219466
H  H27  1  0.47260000  0.82410000  0.67990000  1.0 0.1285219466
H  H28  1  0.14420000  0.79270000  0.32010000  1.0 0.1285219466
H  H29  1  0.17590000  0.85580000  0.64850000  1.0 0.1285219466
H  H30  1  0.20730000  0.52740000  0.35150000  1.0 0.1285219466
H  H31  1  0.52740000  0.17590000  0.32010000  1.0 0.1285219466
H  H32  1  0.85580000  0.20730000  0.67990000  1.0 0.1285219466
H  H33  1  0.39540000  0.88870000  0.16970000  1.0 0.1203877563
H  H34  1  0.71900000  0.22570000  0.83030000  1.0 0.1203877563
H  H35  1  0.22570000  0.39540000  0.50670000  1.0 0.1203877563
H  H36  1  0.88870000  0.71900000  0.49330000  1.0 0.1203877563
H  H37  1  0.60460000  0.11130000  0.83030000  1.0 0.1203877563
H  H38  1  0.28100000  0.77430000  0.16970000  1.0 0.1203877563
H  H39  1  0.77430000  0.60460000  0.49330000  1.0 0.1203877563
H  H40  1  0.11130000  0.28100000  0.50670000  1.0 0.1203877563
H  H41  1  0.69040000  0.11390000  0.95710000  1.0 0.1476651783
H  H42  1  0.15680000  0.73330000  0.04290000  1.0 0.1476651783
H  H43  1  0.73330000  0.69040000  0.57650000  1.0 0.1476651783
H  H44  1  0.11390000  0.15680000  0.42350000  1.0 0.1476651783
H  H45  1  0.30960000  0.88610000  0.04290000  1.0 0.1476651783
H  H46  1  0.84320000  0.26670000  0.95710000  1.0 0.1476651783
H  H47  1  0.26670000  0.30960000  0.42350000  1.0 0.1476651783
H  H48  1  0.88610000  0.84320000  0.57650000  1.0 0.1476651783
H  H49  1  0.76000000  0.15250000  0.02310000  1.0 0.1476651783
H  H50  1  0.12940000  0.73690000  0.97690000  1.0 0.1476651783
H  H51  1  0.73690000  0.76000000  0.60750000  1.0 0.1476651783
H  H52  1  0.15250000  0.12940000  0.39250000  1.0 0.1476651783
H  H53  1  0.24000000  0.84750000  0.97690000  1.0 0.1476651783
H  H54  1  0.87060000  0.26310000  0.02310000  1.0 0.1476651783
H  H55  1  0.26310000  0.24000000  0.39250000  1.0 0.1476651783
H  H56  1  0.84750000  0.87060000  0.60750000  1.0 0.1476651783
H  H57  1  0.68370000  0.13780000  0.02230000  1.0 0.1446426642
H  H58  1  0.11550000  0.66140000  0.97770000  1.0 0.1476651783
H  H59  1  0.66140000  0.68370000  0.54590000  1.0 0.1476651783
H  H60  1  0.13780000  0.11550000  0.45410000  1.0 0.1476651783
H  H61  1  0.31630000  0.86220000  0.97770000  1.0 0.1476651783
H  H62  1  0.88450000  0.33860000  0.02230000  1.0 0.1476651783
H  H63  1  0.33860000  0.31630000  0.45410000  1.0 0.1476651783
H  H64  1  0.86220000  0.88450000  0.54590000  1.0 0.1476651783
H  H65  1  0.55990000  0.85670000  0.93760000  1.0 0.096160922
H  H66  1  0.91910000  0.62230000  0.06240000  1.0 0.1097458247
H  H67  1  0.62230000  0.55990000  0.70320000  1.0 0.1097458247
H  H68  1  0.85670000  0.91910000  0.29680000  1.0 0.1097458247
H  H69  1  0.44010000  0.14330000  0.06240000  1.0 0.1097458247
H  H70  1  0.08090000  0.37770000  0.93760000  1.0 0.1097458247
H  H71  1  0.37770000  0.44010000  0.29680000  1.0 0.1097458247
H  H72  1  0.14330000  0.08090000  0.70320000  1.0 0.1097458247
H  H73  1  0.61980000  0.91850000  0.06070000  1.0 0.1097458247
H  H74  1  0.85780000  0.55910000  0.93930000  1.0 0.1097458247
H  H75  1  0.55910000  0.61980000  0.70130000  1.0 0.1097458247
H  H76  1  0.91850000  0.85780000  0.29870000  1.0 0.1097458247
H  H77  1  0.38020000  0.08150000  0.93930000  1.0 0.1097458247
H  H78  1  0.14220000  0.44090000  0.06070000  1.0 0.1097458247
H  H79  1  0.44090000  0.38020000  0.29870000  1.0 0.1097458247
H  H80  1  0.08150000  0.14220000  0.70130000  1.0 0.1097458247
H  H81  1  0.59580000  0.14220000  0.09180000  1.0 0.1097458247
H  H82  1  0.05040000  0.50400000  0.90820000  1.0 0.1097458247
H  H83  1  0.50400000  0.59580000  0.45360000  1.0 0.1097458247
H  H84  1  0.14220000  0.05040000  0.54640000  1.0 0.1097458247
H  H85  1  0.40420000  0.85780000  0.90820000  1.0 0.1097458247
H  H86  1  0.94960000  0.49600000  0.09180000  1.0 0.1097458247
H  H87  1  0.49600000  0.40420000  0.54640000  1.0 0.1097458247
H  H88  1  0.85780000  0.94960000  0.45360000  1.0 0.1097458247
H  H89  1  0.50970000  0.05630000  0.05880000  1.0 0.0881468919
H  H90  1  0.99750000  0.45090000  0.94120000  1.0 0.0881468919
H  H91  1  0.45090000  0.50970000  0.45340000  1.0 0.0881468919
H  H92  1  0.05630000  0.99750000  0.54660000  1.0 0.0881468919
H  H93  1  0.49030000  0.94370000  0.94120000  1.0 0.0881468919
H  H94  1  0.00250000  0.54910000  0.05880000  1.0 0.0881468919
H  H95  1  0.54910000  0.49030000  0.54660000  1.0 0.0881468919
H  H96  1  0.94370000  0.00250000  0.45340000  1.0 0.0881468919
H  H97  1  0.58430000  0.06720000  0.06030000  1.0 0.0793261165
H  H98  1  0.00690000  0.52400000  0.93970000  1.0 0.0793261165
H  H99  1  0.52400000  0.58430000  0.51710000  1.0 0.0793261165
H  H100  1  0.06720000  0.00690000  0.48290000  1.0 0.0793261165
H  H101  1  0.41570000  0.93280000  0.93970000  1.0 0.0793261165
H  H102  1  0.99310000  0.47600000  0.06030000  1.0 0.0793261165
H  H103  1  0.47600000  0.41570000  0.48290000  1.0 0.0793261165
H  H104  1  0.93280000  0.99310000  0.51710000  1.0 0.0793261165
H  H105  1  0.54530000  0.06500000  0.27630000  1.0 0.096160922
H  H106  1  0.78870000  0.26900000  0.72370000  1.0 0.096160922
H  H107  1  0.26900000  0.54530000  0.48030000  1.0 0.096160922
H  H108  1  0.06500000  0.78870000  0.51970000  1.0 0.096160922
H  H109  1  0.45470000  0.93500000  0.72370000  1.0 0.096160922
H  H110  1  0.21130000  0.73100000  0.27630000  1.0 0.096160922
H  H111  1  0.73100000  0.45470000  0.51970000  1.0 0.096160922
H  H112  1  0.93500000  0.21130000  0.48030000  1.0 0.096160922
H  H113  1  0.65450000  0.07650000  0.27380000  1.0 0.0881468919
H  H114  1  0.80270000  0.38070000  0.72620000  1.0 0.0881468919
H  H115  1  0.38070000  0.65450000  0.57800000  1.0 0.096160922
H  H116  1  0.07650000  0.80270000  0.42200000  1.0 0.096160922
H  H117  1  0.34550000  0.92350000  0.72620000  1.0 0.096160922
H  H118  1  0.19730000  0.61930000  0.27380000  1.0 0.096160922
H  H119  1  0.61930000  0.34550000  0.42200000  1.0 0.0881468919
H  H120  1  0.92350000  0.19730000  0.57800000  1.0 0.096160922
H  H121  1  0.74270000  0.96550000  0.13800000  1.0 0.0627871354
H  H122  1  0.82750000  0.60470000  0.86200000  1.0 0.0627871354
H  H123  1  0.60470000  0.74270000  0.77720000  1.0 0.0627871354
H  H124  1  0.96550000  0.82750000  0.22280000  1.0 0.0627871354
H  H125  1  0.25730000  0.03450000  0.86200000  1.0 0.0627871354
H  H126  1  0.17250000  0.39530000  0.13800000  1.0 0.0627871354
H  H127  1  0.39530000  0.25730000  0.22280000  1.0 0.0627871354
H  H128  1  0.03450000  0.17250000  0.77720000  1.0 0.0627871354
H  H129  1  0.82530000  0.96490000  0.22260000  1.0 0.0627871354
H  H130  1  0.74230000  0.60270000  0.77740000  1.0 0.0627871354
H  H131  1  0.60270000  0.82530000  0.86040000  1.0 0.0627871354
H  H132  1  0.96490000  0.74230000  0.13960000  1.0 0.0627871354
H  H133  1  0.17470000  0.03510000  0.77740000  1.0 0.0627871354
H  H134  1  0.25770000  0.39730000  0.22260000  1.0 0.0627871354
H  H135  1  0.39730000  0.17470000  0.13960000  1.0 0.0627871354
H  H136  1  0.03510000  0.25770000  0.86040000  1.0 0.0627871354
H  H137  1  0.98690000  0.26770000  0.16540000  1.0 0.0627871354
H  H138  1  0.10230000  0.82150000  0.83460000  1.0 0.0627871354
H  H139  1  0.82150000  0.98690000  0.71920000  1.0 0.0627871354
H  H140  1  0.26770000  0.10230000  0.28080000  1.0 0.0627871354
H  H141  1  0.01310000  0.73230000  0.83460000  1.0 0.0627871354
H  H142  1  0.89770000  0.17850000  0.16540000  1.0 0.0627871354
H  H143  1  0.17850000  0.01310000  0.28080000  1.0 0.0627871354
H  H144  1  0.73230000  0.89770000  0.71920000  1.0 0.0627871354
H  H145  1  0.94070000  0.22070000  0.20460000  1.0 0.0793261165
H  H146  1  0.01610000  0.73610000  0.79540000  1.0 0.0793261165
H  H147  1  0.73610000  0.94070000  0.72000000  1.0 0.0793261165
H  H148  1  0.22070000  0.01610000  0.28000000  1.0 0.0793261165
H  H149  1  0.05930000  0.77930000  0.79540000  1.0 0.0793261165
H  H150  1  0.98390000  0.26390000  0.20460000  1.0 0.0793261165
H  H151  1  0.26390000  0.05930000  0.28000000  1.0 0.0793261165
H  H152  1  0.77930000  0.98390000  0.72000000  1.0 0.0793261165
H  H153  1  0.90060000  0.18210000  0.12870000  1.0 0.0793261165
H  H154  1  0.05340000  0.77190000  0.87130000  1.0 0.0793261165
H  H155  1  0.77190000  0.90060000  0.71850000  1.0 0.0793261165
H  H156  1  0.18210000  0.05340000  0.28150000  1.0 0.0793261165
H  H157  1  0.09940000  0.81790000  0.87130000  1.0 0.0793261165
H  H158  1  0.94660000  0.22810000  0.12870000  1.0 0.0793261165
H  H159  1  0.22810000  0.09940000  0.28150000  1.0 0.0793261165
H  H160  1  0.81790000  0.94660000  0.71850000  1.0 0.0793261165
H  H161  1  0.26780000  0.98520000  0.16420000  1.0 0.0627871354
H  H162  1  0.82100000  0.10360000  0.83580000  1.0 0.0627871354
H  H163  1  0.10360000  0.26780000  0.28260000  1.0 0.0627871354
H  H164  1  0.98520000  0.82100000  0.71740000  1.0 0.0627871354
H  H165  1  0.73220000  0.01480000  0.83580000  1.0 0.0627871354
H  H166  1  0.17900000  0.89640000  0.16420000  1.0 0.0627871354
H  H167  1  0.89640000  0.73220000  0.71740000  1.0 0.0627871354
H  H168  1  0.01480000  0.17900000  0.28260000  1.0 0.0627871354
H  H169  1  0.22700000  0.94350000  0.20790000  1.0 0.0793261165
H  H170  1  0.73560000  0.01910000  0.79210000  1.0 0.0793261165
H  H171  1  0.01910000  0.22700000  0.28350000  1.0 0.0793261165
H  H172  1  0.94350000  0.73560000  0.71650000  1.0 0.0793261165
H  H173  1  0.77300000  0.05650000  0.79210000  1.0 0.0793261165
H  H174  1  0.26440000  0.98090000  0.20790000  1.0 0.0793261165
H  H175  1  0.98090000  0.77300000  0.71650000  1.0 0.0793261165
H  H176  1  0.05650000  0.26440000  0.28350000  1.0 0.0793261165
H  H177  1  0.18140000  0.89950000  0.13230000  1.0 0.0686006132
H  H178  1  0.76720000  0.04910000  0.86770000  1.0 0.0686006132
H  H179  1  0.04910000  0.18140000  0.28190000  1.0 0.0686006132
H  H180  1  0.89950000  0.76720000  0.71810000  1.0 0.0686006132
H  H181  1  0.81860000  0.10050000  0.86770000  1.0 0.0686006132
H  H182  1  0.23280000  0.95090000  0.13230000  1.0 0.0686006132
H  H183  1  0.95090000  0.81860000  0.71810000  1.0 0.0686006132
H  H184  1  0.10050000  0.23280000  0.28190000  1.0 0.0686006132
H  H185  1  0.50380000  0.05000000  0.91020000  1.0 0.1097458247
H  H186  1  0.13980000  0.59360000  0.08980000  1.0 0.1097458247
H  H187  1  0.59360000  0.50380000  0.45380000  1.0 0.1097458247
H  H188  1  0.05000000  0.13980000  0.54620000  1.0 0.1097458247
H  H189  1  0.49620000  0.95000000  0.08980000  1.0 0.1097458247
H  H190  1  0.86020000  0.40640000  0.91020000  1.0 0.1097458247
H  H191  1  0.40640000  0.49620000  0.54620000  1.0 0.1097458247
H  H192  1  0.95000000  0.86020000  0.45380000  1.0 0.1097458247
H  H193  1  0.44690000  0.99360000  0.93950000  1.0 0.0881468919
H  H194  1  0.05410000  0.50740000  0.06050000  1.0 0.0881468919
H  H195  1  0.50740000  0.44690000  0.45330000  1.0 0.0881468919
H  H196  1  0.99360000  0.05410000  0.54670000  1.0 0.0881468919
H  H197  1  0.55310000  0.00640000  0.06050000  1.0 0.0881468919
H  H198  1  0.94590000  0.49260000  0.93950000  1.0 0.0881468919
H  H199  1  0.49260000  0.55310000  0.54670000  1.0 0.0881468919
H  H200  1  0.00640000  0.94590000  0.45330000  1.0 0.0881468919
H  H201  1  0.52150000  0.00460000  0.94110000  1.0 0.0881468919
H  H202  1  0.06350000  0.58040000  0.05890000  1.0 0.0881468919
H  H203  1  0.58040000  0.52150000  0.51690000  1.0 0.0881468919
H  H204  1  0.00460000  0.06350000  0.48310000  1.0 0.0881468919
H  H205  1  0.47850000  0.99540000  0.05890000  1.0 0.0881468919
H  H206  1  0.93650000  0.41960000  0.94110000  1.0 0.0881468919
H  H207  1  0.41960000  0.47850000  0.48310000  1.0 0.0881468919
H  H208  1  0.99540000  0.93650000  0.51690000  1.0 0.0881468919
H  H209  1  0.20800000  0.99040000  0.86680000  1.0 0.0627871354
H  H210  1  0.12360000  0.34120000  0.13320000  1.0 0.0627871354
H  H211  1  0.34120000  0.20800000  0.21760000  1.0 0.0627871354
H  H212  1  0.99040000  0.12360000  0.78240000  1.0 0.0627871354
H  H213  1  0.79200000  0.00960000  0.13320000  1.0 0.0627871354
H  H214  1  0.87640000  0.65880000  0.86680000  1.0 0.0627871354
H  H215  1  0.65880000  0.79200000  0.78240000  1.0 0.0627871354
H  H216  1  0.00960000  0.87640000  0.21760000  1.0 0.0627871354
H  H217  1  0.12820000  0.99480000  0.78360000  1.0 0.0686006132
H  H218  1  0.21120000  0.34460000  0.21640000  1.0 0.0686006132
H  H219  1  0.34460000  0.12820000  0.13340000  1.0 0.0686006132
H  H220  1  0.99480000  0.21120000  0.86660000  1.0 0.0686006132
H  H221  1  0.87180000  0.00520000  0.21640000  1.0 0.0686006132
H  H222  1  0.78880000  0.65540000  0.78360000  1.0 0.0686006132
H  H223  1  0.65540000  0.87180000  0.86660000  1.0 0.0686006132
H  H224  1  0.00520000  0.78880000  0.13340000  1.0 0.0686006132
H  H225  1  0.38590000  0.80630000  0.72640000  1.0 0.0881468919
H  H226  1  0.07990000  0.65950000  0.27360000  1.0 0.0881468919
H  H227  1  0.65950000  0.38590000  0.57960000  1.0 0.0881468919
H  H228  1  0.80630000  0.07990000  0.42040000  1.0 0.0881468919
H  H229  1  0.61410000  0.19370000  0.27360000  1.0 0.0881468919
H  H230  1  0.92010000  0.34050000  0.72640000  1.0 0.0881468919
H  H231  1  0.34050000  0.61410000  0.42040000  1.0 0.0881468919
H  H232  1  0.19370000  0.92010000  0.57960000  1.0 0.0881468919
H  H233  1  0.27130000  0.79050000  0.72140000  1.0 0.096160922
H  H234  1  0.06910000  0.54990000  0.27860000  1.0 0.096160922
H  H235  1  0.54990000  0.27130000  0.48080000  1.0 0.096160922
H  H236  1  0.79050000  0.06910000  0.51920000  1.0 0.0881468919
H  H237  1  0.72870000  0.20950000  0.27860000  1.0 0.096160922
H  H238  1  0.93090000  0.45010000  0.72140000  1.0 0.096160922
H  H239  1  0.45010000  0.72870000  0.51920000  1.0 0.096160922
H  H240  1  0.20950000  0.93090000  0.48080000  1.0 0.096160922
C  C1  1  0.57640000  0.07670000  0.15570000  1.0 0.2369162087
C  C2  1  0.92100000  0.42070000  0.84430000  1.0 0.2369162087
C  C3  1  0.42070000  0.57640000  0.49970000  1.0 0.2369162087
C  C4  1  0.07670000  0.92100000  0.50030000  1.0 0.2369162087
C  C5  1  0.42360000  0.92330000  0.84430000  1.0 0.2369162087
C  C6  1  0.07900000  0.57930000  0.15570000  1.0 0.2369162087
C  C7  1  0.57930000  0.42360000  0.50030000  1.0 0.2369162087
C  C8  1  0.92330000  0.07900000  0.49970000  1.0 0.2369162087
C  C9  1  0.93510000  0.23140000  0.16650000  1.0 -0.4231297988
C  C10  1  0.06490000  0.76860000  0.83350000  1.0 -0.4231297988
C  C11  1  0.76860000  0.93510000  0.70370000  1.0 -0.4231297988
C  C12  1  0.23140000  0.06490000  0.29630000  1.0 -0.4231297988
C  C13  1  0.89980000  0.26820000  0.16800000  1.0 0.2985037808
C  C14  1  0.10020000  0.73180000  0.83200000  1.0 0.2985037808
C  C15  1  0.73180000  0.89980000  0.63160000  1.0 0.2985037808
C  C16  1  0.26820000  0.10020000  0.36840000  1.0 0.2985037808
C  C17  1  0.81930000  0.28820000  0.17110000  1.0 -0.0610193842
C  C18  1  0.11710000  0.64820000  0.82890000  1.0 -0.0610193842
C  C19  1  0.64820000  0.81930000  0.53110000  1.0 -0.0610193842
C  C20  1  0.28820000  0.11710000  0.46890000  1.0 -0.0610193842
C  C21  1  0.18070000  0.71180000  0.82890000  1.0 -0.0610193842
C  C22  1  0.88290000  0.35180000  0.17110000  1.0 -0.0610193842
C  C23  1  0.35180000  0.18070000  0.46890000  1.0 -0.0610193842
C  C24  1  0.71180000  0.88290000  0.53110000  1.0 -0.0610193842
C  C25  1  0.84450000  0.16470000  0.32100000  1.0 -0.5401819516
C  C26  1  0.84370000  0.52350000  0.67900000  1.0 -0.5401819516
C  C27  1  0.52350000  0.84450000  0.67980000  1.0 -0.5401819516
C  C28  1  0.16470000  0.84370000  0.32020000  1.0 -0.5401819516
C  C29  1  0.15550000  0.83530000  0.67900000  1.0 -0.5401819516
C  C30  1  0.15630000  0.47650000  0.32100000  1.0 -0.5401819516
C  C31  1  0.47650000  0.15550000  0.32020000  1.0 -0.5401819516
C  C32  1  0.83530000  0.15630000  0.67980000  1.0 -0.5401819516
C  C33  1  0.83280000  0.10420000  0.27220000  1.0 0.1285219466
C  C34  1  0.83200000  0.56060000  0.72780000  1.0 0.1285219466
C  C35  1  0.56060000  0.83280000  0.72860000  1.0 0.1285219466
C  C36  1  0.10420000  0.83200000  0.27140000  1.0 0.1285219466
C  C37  1  0.16720000  0.89580000  0.72780000  1.0 0.1285219466
C  C38  1  0.16800000  0.43940000  0.27220000  1.0 0.1285219466
C  C39  1  0.43940000  0.16720000  0.27140000  1.0 0.1285219466
C  C40  1  0.89580000  0.16800000  0.72860000  1.0 0.1285219466
C  C41  1  0.23300000  0.93480000  0.16780000  1.0 -0.4094174373
C  C42  1  0.76700000  0.06520000  0.83220000  1.0 -0.4094174373
C  C43  1  0.06520000  0.23300000  0.29820000  1.0 -0.4094174373
C  C44  1  0.93480000  0.76700000  0.70180000  1.0 -0.4094174373
C  C45  1  0.26780000  0.89850000  0.16630000  1.0 0.2985037808
C  C46  1  0.73220000  0.10150000  0.83370000  1.0 0.2985037808
C  C47  1  0.10150000  0.26780000  0.36930000  1.0 0.2985037808
C  C48  1  0.89850000  0.73220000  0.63070000  1.0 0.2985037808
C  C49  1  0.35080000  0.88100000  0.16980000  1.0 -0.0610193842
C  C50  1  0.71120000  0.18100000  0.83020000  1.0 -0.0610193842
C  C51  1  0.18100000  0.35080000  0.46980000  1.0 -0.0610193842
C  C52  1  0.88100000  0.71120000  0.53020000  1.0 -0.0610193842
C  C53  1  0.64920000  0.11900000  0.83020000  1.0 -0.0610193842
C  C54  1  0.28880000  0.81900000  0.16980000  1.0 -0.0610193842
C  C55  1  0.81900000  0.64920000  0.53020000  1.0 -0.0610193842
C  C56  1  0.11900000  0.28880000  0.46980000  1.0 -0.0610193842
C  C57  1  0.70290000  0.11720000  0.00050000  1.0 -0.5734750944
C  C58  1  0.11670000  0.70240000  0.99950000  1.0 -0.5734750944
C  C59  1  0.70240000  0.70290000  0.58570000  1.0 -0.5734750944
C  C60  1  0.11720000  0.11670000  0.41430000  1.0 -0.5734750944
C  C61  1  0.29710000  0.88280000  0.99950000  1.0 -0.5734750944
C  C62  1  0.88330000  0.29760000  0.00050000  1.0 -0.5734750944
C  C63  1  0.29760000  0.29710000  0.41430000  1.0 -0.5734750944
C  C64  1  0.88280000  0.88330000  0.58570000  1.0 -0.5734750944
C  C65  1  0.66420000  0.03680000  0.99920000  1.0 0.3410337698
C  C66  1  0.03760000  0.66500000  0.00080000  1.0 0.3410337698
C  C67  1  0.66500000  0.66420000  0.62740000  1.0 0.3410337698
C  C68  1  0.03680000  0.03760000  0.37260000  1.0 0.3410337698
C  C69  1  0.33580000  0.96320000  0.00080000  1.0 0.3410337698
C  C70  1  0.96240000  0.33500000  0.99920000  1.0 0.3410337698
C  C71  1  0.33500000  0.33580000  0.37260000  1.0 0.3410337698
C  C72  1  0.96320000  0.96240000  0.62740000  1.0 0.3410337698
C  C73  1  0.59300000  0.91050000  0.96450000  1.0 -0.04931241
C  C74  1  0.94600000  0.62850000  0.03550000  1.0 -0.0396140541
C  C75  1  0.62850000  0.59300000  0.68250000  1.0 -0.0396140541
C  C76  1  0.91050000  0.94600000  0.31750000  1.0 -0.0396140541
C  C77  1  0.40700000  0.08950000  0.03550000  1.0 -0.0396140541
C  C78  1  0.05400000  0.37150000  0.96450000  1.0 -0.04931241
C  C79  1  0.37150000  0.40700000  0.31750000  1.0 -0.0396140541
C  C80  1  0.08950000  0.05400000  0.68250000  1.0 -0.04931241
C  C81  1  0.62740000  0.94590000  0.03390000  1.0 -0.0396140541
C  C82  1  0.91200000  0.59350000  0.96610000  1.0 -0.0396140541
C  C83  1  0.59350000  0.62740000  0.68150000  1.0 -0.0396140541
C  C84  1  0.94590000  0.91200000  0.31850000  1.0 -0.0396140541
C  C85  1  0.37260000  0.05410000  0.96610000  1.0 -0.0396140541
C  C86  1  0.08800000  0.40650000  0.03390000  1.0 -0.0396140541
C  C87  1  0.40650000  0.37260000  0.31850000  1.0 -0.0396140541
C  C88  1  0.05410000  0.08800000  0.68150000  1.0 -0.0396140541
C  C89  1  0.56530000  0.08670000  0.08380000  1.0 -0.3100670631
C  C90  1  0.00290000  0.48150000  0.91620000  1.0 -0.3100670631
C  C91  1  0.48150000  0.56530000  0.47860000  1.0 -0.3100670631
C  C92  1  0.08670000  0.00290000  0.52140000  1.0 -0.3100670631
C  C93  1  0.43470000  0.91330000  0.91620000  1.0 -0.3100670631
C  C94  1  0.99710000  0.51850000  0.08380000  1.0 -0.3100670631
C  C95  1  0.51850000  0.43470000  0.52140000  1.0 -0.3100670631
C  C96  1  0.91330000  0.99710000  0.47860000  1.0 -0.3100670631
C  C97  1  0.56670000  0.07460000  0.24530000  1.0 -0.0610193842
C  C98  1  0.82930000  0.32140000  0.75470000  1.0 -0.0610193842
C  C99  1  0.32140000  0.56670000  0.49210000  1.0 -0.0610193842
C  C100  1  0.07460000  0.82930000  0.50790000  1.0 -0.0610193842
C  C101  1  0.43330000  0.92540000  0.75470000  1.0 -0.0610193842
C  C102  1  0.17070000  0.67860000  0.24530000  1.0 -0.0610193842
C  C103  1  0.67860000  0.43330000  0.50790000  1.0 -0.0610193842
C  C104  1  0.92540000  0.17070000  0.49210000  1.0 -0.0610193842
C  C105  1  0.62740000  0.08310000  0.24430000  1.0 -0.0396140541
C  C106  1  0.83880000  0.38310000  0.75570000  1.0 -0.0396140541
C  C107  1  0.38310000  0.62740000  0.54430000  1.0 -0.0396140541
C  C108  1  0.08310000  0.83880000  0.45570000  1.0 -0.0396140541
C  C109  1  0.37260000  0.91690000  0.75570000  1.0 -0.0396140541
C  C110  1  0.16120000  0.61690000  0.24430000  1.0 -0.0396140541
C  C111  1  0.61690000  0.37260000  0.45570000  1.0 -0.0396140541
C  C112  1  0.91690000  0.16120000  0.54430000  1.0 -0.0396140541
C  C113  1  0.77590000  0.00350000  0.18040000  1.0 -0.0188054871
C  C114  1  0.82310000  0.59550000  0.81960000  1.0 -0.0188054871
C  C115  1  0.59550000  0.77590000  0.77240000  1.0 -0.0188054871
C  C116  1  0.00350000  0.82310000  0.22760000  1.0 -0.0188054871
C  C117  1  0.22410000  0.99650000  0.81960000  1.0 -0.0188054871
C  C118  1  0.17690000  0.40450000  0.18040000  1.0 -0.0188054871
C  C119  1  0.40450000  0.22410000  0.22760000  1.0 -0.0188054871
C  C120  1  0.99650000  0.17690000  0.77240000  1.0 -0.0188054871
C  C121  1  0.82240000  0.00400000  0.22760000  1.0 -0.0188054871
C  C122  1  0.77640000  0.59480000  0.77240000  1.0 -0.0188054871
C  C123  1  0.59480000  0.82240000  0.81840000  1.0 -0.0188054871
C  C124  1  0.00400000  0.77640000  0.18160000  1.0 -0.0188054871
C  C125  1  0.17760000  0.99600000  0.77240000  1.0 -0.0188054871
C  C126  1  0.22360000  0.40520000  0.22760000  1.0 -0.0188054871
C  C127  1  0.40520000  0.17760000  0.18160000  1.0 -0.0188054871
C  C128  1  0.99600000  0.22360000  0.81840000  1.0 -0.0188054871
C  C129  1  0.48010000  0.00130000  0.91660000  1.0 -0.2975739147
C  C130  1  0.08470000  0.56350000  0.08340000  1.0 -0.2975739147
C  C131  1  0.56350000  0.48010000  0.47880000  1.0 -0.2975739147
C  C132  1  0.00130000  0.08470000  0.52120000  1.0 -0.2975739147
C  C133  1  0.51990000  0.99870000  0.08340000  1.0 -0.2975739147
C  C134  1  0.91530000  0.43650000  0.91660000  1.0 -0.2975739147
C  C135  1  0.43650000  0.51990000  0.52120000  1.0 -0.2975739147
C  C136  1  0.99870000  0.91530000  0.47880000  1.0 -0.2975739147
C  C137  1  0.19300000  0.96870000  0.82250000  1.0 -0.0396140541
C  C138  1  0.14620000  0.37050000  0.17750000  1.0 -0.0396140541
C  C139  1  0.37050000  0.19300000  0.22430000  1.0 -0.0396140541
C  C140  1  0.96870000  0.14620000  0.77570000  1.0 -0.0396140541
C  C141  1  0.80700000  0.03130000  0.17750000  1.0 -0.0396140541
C  C142  1  0.85380000  0.62950000  0.82250000  1.0 -0.0396140541
C  C143  1  0.62950000  0.80700000  0.77570000  1.0 -0.0396140541
C  C144  1  0.03130000  0.85380000  0.22430000  1.0 -0.0396140541
C  C145  1  0.14780000  0.97000000  0.77600000  1.0 -0.0396140541
C  C146  1  0.19400000  0.37180000  0.22400000  1.0 -0.0396140541
C  C147  1  0.37180000  0.14780000  0.17780000  1.0 -0.0396140541
C  C148  1  0.97000000  0.19400000  0.82220000  1.0 -0.0396140541
C  C149  1  0.85220000  0.03000000  0.22400000  1.0 -0.0396140541
C  C150  1  0.80600000  0.62820000  0.77600000  1.0 -0.0396140541
C  C151  1  0.62820000  0.85220000  0.82220000  1.0 -0.0396140541
C  C152  1  0.03000000  0.80600000  0.17780000  1.0 -0.0396140541
C  C153  1  0.38700000  0.84150000  0.75570000  1.0 -0.04931241
C  C154  1  0.08580000  0.63130000  0.24430000  1.0 -0.04931241
C  C155  1  0.63130000  0.38700000  0.54550000  1.0 -0.04931241
C  C156  1  0.84150000  0.08580000  0.45450000  1.0 -0.04931241
C  C157  1  0.61300000  0.15850000  0.24430000  1.0 -0.04931241
C  C158  1  0.91420000  0.36870000  0.75570000  1.0 -0.04931241
C  C159  1  0.36870000  0.61300000  0.45450000  1.0 -0.04931241
C  C160  1  0.15850000  0.91420000  0.54550000  1.0 -0.04931241
C  C161  1  0.32310000  0.83060000  0.75330000  1.0 -0.04931241
C  C162  1  0.07730000  0.56980000  0.24670000  1.0 -0.04931241
C  C163  1  0.56980000  0.32310000  0.49250000  1.0 -0.04931241
C  C164  1  0.83060000  0.07730000  0.50750000  1.0 -0.04931241
C  C165  1  0.67690000  0.16940000  0.24670000  1.0 -0.04931241
C  C166  1  0.92270000  0.43020000  0.75330000  1.0 -0.04931241
C  C167  1  0.43020000  0.67690000  0.50750000  1.0 -0.04931241
C  C168  1  0.16940000  0.92270000  0.49250000  1.0 -0.04931241
N  N1  1  0.53910000  0.08320000  0.18910000  1.0 -0.3100670631
N  N2  1  0.89410000  0.35000000  0.81090000  1.0 -0.3100670631
N  N3  1  0.35000000  0.53910000  0.45590000  1.0 -0.3100670631
N  N4  1  0.08320000  0.89410000  0.54410000  1.0 -0.3100670631
N  N5  1  0.46090000  0.91680000  0.81090000  1.0 -0.3100670631
N  N6  1  0.10590000  0.65000000  0.18910000  1.0 -0.3100670631
N  N7  1  0.65000000  0.46090000  0.54410000  1.0 -0.3100670631
N  N8  1  0.91680000  0.10590000  0.45590000  1.0 -0.3100670631
N  N9  1  0.64930000  0.10540000  0.18890000  1.0 -0.3260800968
N  N10  1  0.91650000  0.46040000  0.81110000  1.0 -0.3260800968
N  N11  1  0.46040000  0.64930000  0.54390000  1.0 -0.3260800968
N  N12  1  0.10540000  0.91650000  0.45610000  1.0 -0.3260800968
N  N13  1  0.35070000  0.89460000  0.81110000  1.0 -0.3260800968
N  N14  1  0.08350000  0.53960000  0.18890000  1.0 -0.3260800968
N  N15  1  0.53960000  0.35070000  0.45610000  1.0 -0.3260800968
N  N16  1  0.89460000  0.08350000  0.54390000  1.0 -0.3260800968
N  N17  1  0.82620000  0.23220000  0.16940000  1.0 -0.3817246649
N  N18  1  0.06280000  0.65680000  0.83060000  1.0 -0.3817246649
N  N19  1  0.65680000  0.82620000  0.59400000  1.0 -0.3817246649
N  N20  1  0.23220000  0.06280000  0.40600000  1.0 -0.3817246649
N  N21  1  0.17380000  0.76780000  0.83060000  1.0 -0.3817246649
N  N22  1  0.93720000  0.34320000  0.16940000  1.0 -0.3817246649
N  N23  1  0.34320000  0.17380000  0.40600000  1.0 -0.3817246649
N  N24  1  0.76780000  0.93720000  0.59400000  1.0 -0.3817246649
N  N25  1  0.78770000  0.07050000  0.20780000  1.0 -0.2795776072
N  N26  1  0.86270000  0.57990000  0.79220000  1.0 -0.2795776072
N  N27  1  0.57990000  0.78770000  0.71720000  1.0 -0.2795776072
N  N28  1  0.07050000  0.86270000  0.28280000  1.0 -0.2795776072
N  N29  1  0.21230000  0.92950000  0.79220000  1.0 -0.2795776072
N  N30  1  0.13730000  0.42010000  0.20780000  1.0 -0.2795776072
N  N31  1  0.42010000  0.21230000  0.28280000  1.0 -0.2795776072
N  N32  1  0.92950000  0.13730000  0.71720000  1.0 -0.2795776072
N  N33  1  0.86430000  0.07070000  0.28360000  1.0 -0.2795776072
N  N34  1  0.78710000  0.58070000  0.71640000  1.0 -0.2795776072
N  N35  1  0.58070000  0.86430000  0.79360000  1.0 -0.2795776072
N  N36  1  0.07070000  0.78710000  0.20640000  1.0 -0.2795776072
N  N37  1  0.13570000  0.92930000  0.71640000  1.0 -0.2795776072
N  N38  1  0.21290000  0.41930000  0.28360000  1.0 -0.2795776072
N  N39  1  0.41930000  0.13570000  0.20640000  1.0 -0.2795776072
N  N40  1  0.92930000  0.21290000  0.79360000  1.0 -0.2795776072
N  N41  1  0.34280000  0.93680000  0.17000000  1.0 -0.3817246649
N  N42  1  0.76680000  0.17280000  0.83000000  1.0 -0.3817246649
N  N43  1  0.17280000  0.34280000  0.40600000  1.0 -0.3817246649
N  N44  1  0.93680000  0.76680000  0.59400000  1.0 -0.3817246649
N  N45  1  0.65720000  0.06320000  0.83000000  1.0 -0.3817246649
N  N46  1  0.23320000  0.82720000  0.17000000  1.0 -0.3817246649
N  N47  1  0.82720000  0.65720000  0.59400000  1.0 -0.3817246649
N  N48  1  0.06320000  0.23320000  0.40600000  1.0 -0.3817246649
N  N49  1  0.61890000  0.97180000  0.94670000  1.0 -0.3555852305
N  N50  1  0.02510000  0.67220000  0.05330000  1.0 -0.3555852305
N  N51  1  0.67220000  0.61890000  0.64710000  1.0 -0.3555852305
N  N52  1  0.97180000  0.02510000  0.35290000  1.0 -0.3555852305
N  N53  1  0.38110000  0.02820000  0.05330000  1.0 -0.3555852305
N  N54  1  0.97490000  0.32780000  0.94670000  1.0 -0.3555852305
N  N55  1  0.32780000  0.38110000  0.35290000  1.0 -0.3555852305
N  N56  1  0.02820000  0.97490000  0.64710000  1.0 -0.3555852305
N  N57  1  0.67220000  0.02500000  0.05340000  1.0 -0.3675621244
N  N58  1  0.97160000  0.61880000  0.94660000  1.0 -0.3675621244
N  N59  1  0.61880000  0.67220000  0.64720000  1.0 -0.3675621244
N  N60  1  0.02500000  0.97160000  0.35280000  1.0 -0.3675621244
N  N61  1  0.32780000  0.97500000  0.94660000  1.0 -0.3675621244
N  N62  1  0.02840000  0.38120000  0.05340000  1.0 -0.3675621244
N  N63  1  0.38120000  0.32780000  0.35280000  1.0 -0.3675621244
N  N64  1  0.97500000  0.02840000  0.64720000  1.0 -0.3675621244
