# DDEC6 charges by PACMAN v1.1 (https://github.com/mtap-research/PACMAN-charge/)
data_GURBON_ASR_pacman
_symmetry_space_group_name_H-M   'P 1'
_cell_length_a   16.90300000
_cell_length_b   17.63030000
_cell_length_c   31.07230000
_cell_angle_alpha   90.00000000
_cell_angle_beta   90.00000000
_cell_angle_gamma   90.00000000
_symmetry_Int_Tables_number   1
_chemical_formula_structural   Yb3H22C28S4O25
_chemical_formula_sum   'Yb24 H176 C224 S32 O200'
_cell_volume   9259.69954657
_cell_formula_units_Z   8
loop_
 _symmetry_equiv_pos_site_id
 _symmetry_equiv_pos_as_xyz
  1  'x, y, z'
loop_
 _atom_site_type_symbol
 _atom_site_label
 _atom_site_symmetry_multiplicity
 _atom_site_fract_x
 _atom_site_fract_y
 _atom_site_fract_z
 _atom_site_occupancy
 _atom_site_charge
Yb  Yb1  1  0.51278000  0.66980000  0.04724000  1.0 0.6475552022
Yb  Yb2  1  0.32070000  0.46870000  0.23620000  1.0 0.1056808782
Yb  Yb3  1  0.38620000  0.43899000  0.07703000  1.0 0.9282394528
Yb  Yb4  1  0.48722000  0.16980000  0.95276000  1.0 0.6475552022
Yb  Yb5  1  0.67930000  0.96870000  0.76380000  1.0 0.1056808782
Yb  Yb6  1  0.61380000  0.93899000  0.92297000  1.0 0.9234196344
Yb  Yb7  1  0.48722000  0.83020000  0.54724000  1.0 0.6475552022
Yb  Yb8  1  0.67930000  0.03130000  0.73620000  1.0 0.1056808782
Yb  Yb9  1  0.61380000  0.06101000  0.57703000  1.0 0.9234196344
Yb  Yb10  1  0.51278000  0.33020000  0.45276000  1.0 0.6475552022
Yb  Yb11  1  0.32070000  0.53130000  0.26380000  1.0 0.1056808782
Yb  Yb12  1  0.38620000  0.56101000  0.42297000  1.0 0.9282394528
Yb  Yb13  1  0.48722000  0.33020000  0.95276000  1.0 0.6475552022
Yb  Yb14  1  0.67930000  0.53130000  0.76380000  1.0 0.1056808782
Yb  Yb15  1  0.61380000  0.56101000  0.92297000  1.0 0.9234196344
Yb  Yb16  1  0.51278000  0.83020000  0.04724000  1.0 0.6475552022
Yb  Yb17  1  0.32070000  0.03130000  0.23620000  1.0 0.1056808782
Yb  Yb18  1  0.38620000  0.06101000  0.07703000  1.0 0.9282394528
Yb  Yb19  1  0.51278000  0.16980000  0.45276000  1.0 0.6475552022
Yb  Yb20  1  0.32070000  0.96870000  0.26380000  1.0 0.1056808782
Yb  Yb21  1  0.38620000  0.93899000  0.42297000  1.0 0.9282394528
Yb  Yb22  1  0.48722000  0.66980000  0.54724000  1.0 0.6475552022
Yb  Yb23  1  0.67930000  0.46870000  0.73620000  1.0 0.1056808782
Yb  Yb24  1  0.61380000  0.43899000  0.57703000  1.0 0.9282394528
H  H1  1  0.55241000  0.63579000  0.32787000  1.0 0.1309882611
H  H2  1  0.74062000  0.60602000  0.28705000  1.0 0.138283787
H  H3  1  0.65857000  0.56474000  0.29808000  1.0 0.138283787
H  H4  1  0.79450000  0.65061000  0.23532000  1.0 0.2376403836
H  H5  1  0.62311000  0.56464000  0.11475000  1.0 0.1224695048
H  H6  1  0.55072000  0.56552000  0.23879000  1.0 0.1309882611
H  H7  1  0.77042000  0.56585000  0.10123000  1.0 0.1472366104
H  H8  1  0.82421000  0.60663000  0.13644000  1.0 0.1309882611
H  H9  1  0.71905000  0.63702000  0.04271000  1.0 0.1472366104
H  H10  1  0.07109000  0.66982000  0.92341000  1.0 0.3221690058
H  H11  1  0.23615000  0.50729000  0.98197000  1.0 0.1472366104
H  H12  1  0.36583000  0.66561000  0.91918000  1.0 0.15770574
H  H13  1  0.05442000  0.55584000  0.93156000  1.0 0.1224695048
H  H14  1  0.09592000  0.49227000  0.96057000  1.0 0.1309882611
H  H15  1  0.96924000  0.67574000  0.09340000  1.0 0.1309882611
H  H16  1  0.10687000  0.51190000  0.04029000  1.0 0.138283787
H  H17  1  0.82128000  0.65084000  0.19368000  1.0 0.2257961668
H  H18  1  0.11438000  0.72574000  0.90378000  1.0 0.2376403836
H  H19  1  0.79394000  0.71007000  0.17263000  1.0 0.207775969
H  H20  1  0.74791000  0.78944000  0.24292000  1.0 0.2218496203
H  H21  1  0.44759000  0.13579000  0.67213000  1.0 0.1309882611
H  H22  1  0.25938000  0.10602000  0.71295000  1.0 0.138283787
H  H23  1  0.34143000  0.06474000  0.70192000  1.0 0.138283787
H  H24  1  0.20550000  0.15061000  0.76468000  1.0 0.2376403836
H  H25  1  0.37689000  0.06464000  0.88525000  1.0 0.1224695048
H  H26  1  0.44928000  0.06552000  0.76121000  1.0 0.1309882611
H  H27  1  0.22958000  0.06585000  0.89877000  1.0 0.1472366104
H  H28  1  0.17579000  0.10663000  0.86356000  1.0 0.1309882611
H  H29  1  0.28095000  0.13702000  0.95729000  1.0 0.1472366104
H  H30  1  0.92891000  0.16982000  0.07659000  1.0 0.3221690058
H  H31  1  0.76385000  0.00729000  0.01803000  1.0 0.1472366104
H  H32  1  0.63417000  0.16561000  0.08082000  1.0 0.15770574
H  H33  1  0.94558000  0.05584000  0.06844000  1.0 0.1224695048
H  H34  1  0.90408000  0.99227000  0.03943000  1.0 0.1309882611
H  H35  1  0.03076000  0.17574000  0.90660000  1.0 0.1309882611
H  H36  1  0.89313000  0.01190000  0.95971000  1.0 0.138283787
H  H37  1  0.17872000  0.15084000  0.80632000  1.0 0.2257961668
H  H38  1  0.88562000  0.22574000  0.09622000  1.0 0.2376403836
H  H39  1  0.20606000  0.21007000  0.82737000  1.0 0.207775969
H  H40  1  0.25209000  0.28944000  0.75708000  1.0 0.2218496203
H  H41  1  0.44759000  0.86421000  0.82787000  1.0 0.1309882611
H  H42  1  0.25938000  0.89398000  0.78705000  1.0 0.138283787
H  H43  1  0.34143000  0.93526000  0.79808000  1.0 0.138283787
H  H44  1  0.20550000  0.84939000  0.73532000  1.0 0.2376403836
H  H45  1  0.37689000  0.93536000  0.61475000  1.0 0.1224695048
H  H46  1  0.44928000  0.93448000  0.73879000  1.0 0.1309882611
H  H47  1  0.22958000  0.93415000  0.60123000  1.0 0.1472366104
H  H48  1  0.17579000  0.89337000  0.63644000  1.0 0.1309882611
H  H49  1  0.28095000  0.86298000  0.54271000  1.0 0.1472366104
H  H50  1  0.92891000  0.83018000  0.42341000  1.0 0.3221690058
H  H51  1  0.76385000  0.99271000  0.48197000  1.0 0.1472366104
H  H52  1  0.63417000  0.83439000  0.41918000  1.0 0.15770574
H  H53  1  0.94558000  0.94416000  0.43156000  1.0 0.1224695048
H  H54  1  0.90408000  0.00773000  0.46057000  1.0 0.1309882611
H  H55  1  0.03076000  0.82426000  0.59340000  1.0 0.1309882611
H  H56  1  0.89313000  0.98810000  0.54029000  1.0 0.138283787
H  H57  1  0.17872000  0.84916000  0.69368000  1.0 0.2257961668
H  H58  1  0.88562000  0.77426000  0.40378000  1.0 0.2376403836
H  H59  1  0.20606000  0.78993000  0.67263000  1.0 0.207775969
H  H60  1  0.25209000  0.71056000  0.74292000  1.0 0.2218496203
H  H61  1  0.55241000  0.36421000  0.17213000  1.0 0.1309882611
H  H62  1  0.74062000  0.39398000  0.21295000  1.0 0.138283787
H  H63  1  0.65857000  0.43526000  0.20192000  1.0 0.138283787
H  H64  1  0.79450000  0.34939000  0.26468000  1.0 0.2376403836
H  H65  1  0.62311000  0.43536000  0.38525000  1.0 0.1224695048
H  H66  1  0.55072000  0.43448000  0.26121000  1.0 0.1309882611
H  H67  1  0.77042000  0.43415000  0.39877000  1.0 0.1472366104
H  H68  1  0.82421000  0.39337000  0.36356000  1.0 0.1309882611
H  H69  1  0.71905000  0.36298000  0.45729000  1.0 0.1472366104
H  H70  1  0.07109000  0.33018000  0.57659000  1.0 0.3221690058
H  H71  1  0.23615000  0.49271000  0.51803000  1.0 0.1472366104
H  H72  1  0.36583000  0.33439000  0.58082000  1.0 0.15770574
H  H73  1  0.05442000  0.44416000  0.56844000  1.0 0.1224695048
H  H74  1  0.09592000  0.50773000  0.53943000  1.0 0.1309882611
H  H75  1  0.96924000  0.32426000  0.40660000  1.0 0.1309882611
H  H76  1  0.10687000  0.48810000  0.45971000  1.0 0.138283787
H  H77  1  0.82128000  0.34916000  0.30632000  1.0 0.2257961668
H  H78  1  0.11438000  0.27426000  0.59622000  1.0 0.2376403836
H  H79  1  0.79394000  0.28993000  0.32737000  1.0 0.207775969
H  H80  1  0.74791000  0.21056000  0.25708000  1.0 0.2218496203
H  H81  1  0.44759000  0.36421000  0.67213000  1.0 0.1309882611
H  H82  1  0.25938000  0.39398000  0.71295000  1.0 0.138283787
H  H83  1  0.34143000  0.43526000  0.70192000  1.0 0.138283787
H  H84  1  0.20550000  0.34939000  0.76468000  1.0 0.2376403836
H  H85  1  0.37689000  0.43536000  0.88525000  1.0 0.1224695048
H  H86  1  0.44928000  0.43448000  0.76121000  1.0 0.1309882611
H  H87  1  0.22958000  0.43415000  0.89877000  1.0 0.1472366104
H  H88  1  0.17579000  0.39337000  0.86356000  1.0 0.1309882611
H  H89  1  0.28095000  0.36298000  0.95729000  1.0 0.1472366104
H  H90  1  0.92891000  0.33018000  0.07659000  1.0 0.3221690058
H  H91  1  0.76385000  0.49271000  0.01803000  1.0 0.1472366104
H  H92  1  0.63417000  0.33439000  0.08082000  1.0 0.15770574
H  H93  1  0.94558000  0.44416000  0.06844000  1.0 0.1224695048
H  H94  1  0.90408000  0.50773000  0.03943000  1.0 0.1309882611
H  H95  1  0.03076000  0.32426000  0.90660000  1.0 0.1309882611
H  H96  1  0.89313000  0.48810000  0.95971000  1.0 0.138283787
H  H97  1  0.17872000  0.34916000  0.80632000  1.0 0.2257961668
H  H98  1  0.88562000  0.27426000  0.09622000  1.0 0.2376403836
H  H99  1  0.20606000  0.28993000  0.82737000  1.0 0.207775969
H  H100  1  0.25209000  0.21056000  0.75708000  1.0 0.2218496203
H  H101  1  0.55241000  0.86421000  0.32787000  1.0 0.1309882611
H  H102  1  0.74062000  0.89398000  0.28705000  1.0 0.138283787
H  H103  1  0.65857000  0.93526000  0.29808000  1.0 0.138283787
H  H104  1  0.79450000  0.84939000  0.23532000  1.0 0.2376403836
H  H105  1  0.62311000  0.93536000  0.11475000  1.0 0.1224695048
H  H106  1  0.55072000  0.93448000  0.23879000  1.0 0.1309882611
H  H107  1  0.77042000  0.93415000  0.10123000  1.0 0.1472366104
H  H108  1  0.82421000  0.89337000  0.13644000  1.0 0.1309882611
H  H109  1  0.71905000  0.86298000  0.04271000  1.0 0.1472366104
H  H110  1  0.07109000  0.83018000  0.92341000  1.0 0.3221690058
H  H111  1  0.23615000  0.99271000  0.98197000  1.0 0.1472366104
H  H112  1  0.36583000  0.83439000  0.91918000  1.0 0.15770574
H  H113  1  0.05442000  0.94416000  0.93156000  1.0 0.1224695048
H  H114  1  0.09592000  0.00773000  0.96057000  1.0 0.1309882611
H  H115  1  0.96924000  0.82426000  0.09340000  1.0 0.1309882611
H  H116  1  0.10687000  0.98810000  0.04029000  1.0 0.138283787
H  H117  1  0.82128000  0.84916000  0.19368000  1.0 0.2257961668
H  H118  1  0.11438000  0.77426000  0.90378000  1.0 0.2376403836
H  H119  1  0.79394000  0.78993000  0.17263000  1.0 0.207775969
H  H120  1  0.74791000  0.71056000  0.24292000  1.0 0.2218496203
H  H121  1  0.55241000  0.13579000  0.17213000  1.0 0.1309882611
H  H122  1  0.74062000  0.10602000  0.21295000  1.0 0.138283787
H  H123  1  0.65857000  0.06474000  0.20192000  1.0 0.138283787
H  H124  1  0.79450000  0.15061000  0.26468000  1.0 0.2376403836
H  H125  1  0.62311000  0.06464000  0.38525000  1.0 0.1224695048
H  H126  1  0.55072000  0.06552000  0.26121000  1.0 0.1309882611
H  H127  1  0.77042000  0.06585000  0.39877000  1.0 0.1472366104
H  H128  1  0.82421000  0.10663000  0.36356000  1.0 0.1309882611
H  H129  1  0.71905000  0.13702000  0.45729000  1.0 0.1472366104
H  H130  1  0.07109000  0.16982000  0.57659000  1.0 0.3221690058
H  H131  1  0.23615000  0.00729000  0.51803000  1.0 0.1472366104
H  H132  1  0.36583000  0.16561000  0.58082000  1.0 0.15770574
H  H133  1  0.05442000  0.05584000  0.56844000  1.0 0.1224695048
H  H134  1  0.09592000  0.99227000  0.53943000  1.0 0.1309882611
H  H135  1  0.96924000  0.17574000  0.40660000  1.0 0.1309882611
H  H136  1  0.10687000  0.01190000  0.45971000  1.0 0.138283787
H  H137  1  0.82128000  0.15084000  0.30632000  1.0 0.2257961668
H  H138  1  0.11438000  0.22574000  0.59622000  1.0 0.2376403836
H  H139  1  0.79394000  0.21007000  0.32737000  1.0 0.207775969
H  H140  1  0.74791000  0.28944000  0.25708000  1.0 0.2218496203
H  H141  1  0.44759000  0.63579000  0.82787000  1.0 0.1309882611
H  H142  1  0.25938000  0.60602000  0.78705000  1.0 0.138283787
H  H143  1  0.34143000  0.56474000  0.79808000  1.0 0.138283787
H  H144  1  0.20550000  0.65061000  0.73532000  1.0 0.2376403836
H  H145  1  0.37689000  0.56464000  0.61475000  1.0 0.1224695048
H  H146  1  0.44928000  0.56552000  0.73879000  1.0 0.1309882611
H  H147  1  0.22958000  0.56585000  0.60123000  1.0 0.1472366104
H  H148  1  0.17579000  0.60663000  0.63644000  1.0 0.1309882611
H  H149  1  0.28095000  0.63702000  0.54271000  1.0 0.1472366104
H  H150  1  0.92891000  0.66982000  0.42341000  1.0 0.3221690058
H  H151  1  0.76385000  0.50729000  0.48197000  1.0 0.1472366104
H  H152  1  0.63417000  0.66561000  0.41918000  1.0 0.15770574
H  H153  1  0.94558000  0.55584000  0.43156000  1.0 0.1224695048
H  H154  1  0.90408000  0.49227000  0.46057000  1.0 0.1309882611
H  H155  1  0.03076000  0.67574000  0.59340000  1.0 0.1309882611
H  H156  1  0.89313000  0.51190000  0.54029000  1.0 0.138283787
H  H157  1  0.17872000  0.65084000  0.69368000  1.0 0.2257961668
H  H158  1  0.88562000  0.72574000  0.40378000  1.0 0.2376403836
H  H159  1  0.20606000  0.71007000  0.67263000  1.0 0.207775969
H  H160  1  0.25209000  0.78944000  0.74292000  1.0 0.2218496203
H  H161  1  0.88759000  0.75000000  0.05296000  1.0 0.1224695048
H  H162  1  0.89329000  0.75000000  0.00163000  1.0 0.15770574
H  H163  1  0.30714000  0.75000000  0.86793000  1.0 0.1224695048
H  H164  1  0.21278000  0.75000000  0.86282000  1.0 0.1224695048
H  H165  1  0.11241000  0.25000000  0.94704000  1.0 0.1224695048
H  H166  1  0.10671000  0.25000000  0.99837000  1.0 0.15770574
H  H167  1  0.69286000  0.25000000  0.13207000  1.0 0.1224695048
H  H168  1  0.78722000  0.25000000  0.13718000  1.0 0.1224695048
H  H169  1  0.11241000  0.75000000  0.55296000  1.0 0.1224695048
H  H170  1  0.10671000  0.75000000  0.50163000  1.0 0.15770574
H  H171  1  0.69286000  0.75000000  0.36793000  1.0 0.1224695048
H  H172  1  0.78722000  0.75000000  0.36282000  1.0 0.1224695048
H  H173  1  0.88759000  0.25000000  0.44704000  1.0 0.1224695048
H  H174  1  0.89329000  0.25000000  0.49837000  1.0 0.15770574
H  H175  1  0.30714000  0.25000000  0.63207000  1.0 0.1224695048
H  H176  1  0.21278000  0.25000000  0.63718000  1.0 0.1224695048
C  C1  1  0.64930000  0.67930000  0.29510000  1.0 0.0101619507
C  C2  1  0.57790000  0.68190000  0.32030000  1.0 -0.1509058954
C  C3  1  0.68300000  0.60640000  0.28140000  1.0 -0.2956169397
C  C4  1  0.72460000  0.60310000  0.19860000  1.0 0.1224695048
C  C5  1  0.71020000  0.58850000  0.15740000  1.0 0.0382379504
C  C6  1  0.63520000  0.57160000  0.14430000  1.0 -0.1407830423
C  C7  1  0.57570000  0.56490000  0.17640000  1.0 -0.1509058954
C  C8  1  0.59120000  0.57320000  0.21800000  1.0 -0.1407830423
C  C9  1  0.66730000  0.59340000  0.23110000  1.0 0.0201465163
C  C10  1  0.77130000  0.60710000  0.12280000  1.0 -0.2911800743
C  C11  1  0.73010000  0.68320000  0.05730000  1.0 -0.1407830423
C  C12  1  0.76210000  0.68040000  0.09960000  1.0 0.0382379504
C  C13  1  0.17480000  0.64720000  0.92080000  1.0 0.1787725761
C  C14  1  0.17220000  0.58060000  0.94490000  1.0 0.0201465163
C  C15  1  0.23960000  0.54890000  0.96260000  1.0 -0.1407830423
C  C16  1  0.31170000  0.57950000  0.95160000  1.0 -0.0798089573
C  C17  1  0.31570000  0.64470000  0.92630000  1.0 -0.1169342253
C  C18  1  0.25130000  0.67730000  0.91250000  1.0 0.028223928
C  C19  1  0.09080000  0.54770000  0.95610000  1.0 -0.2630056143
C  C20  1  0.00110000  0.64550000  0.99080000  1.0 0.2819373607
C  C21  1  0.97320000  0.67830000  0.03000000  1.0 0.0382379504
C  C22  1  0.99170000  0.65220000  0.06880000  1.0 -0.1407830423
C  C23  1  0.04430000  0.59000000  0.07450000  1.0 -0.1169342253
C  C24  1  0.07370000  0.55520000  0.03780000  1.0 -0.1509058954
C  C25  1  0.05450000  0.58400000  0.99710000  1.0 0.0382379504
C  C26  1  0.35070000  0.17930000  0.70490000  1.0 0.0101619507
C  C27  1  0.42210000  0.18190000  0.67970000  1.0 -0.1509058954
C  C28  1  0.31700000  0.10640000  0.71860000  1.0 -0.2956169397
C  C29  1  0.27540000  0.10310000  0.80140000  1.0 0.1224695048
C  C30  1  0.28980000  0.08850000  0.84260000  1.0 0.0382379504
C  C31  1  0.36480000  0.07160000  0.85570000  1.0 -0.1407830423
C  C32  1  0.42430000  0.06490000  0.82360000  1.0 -0.1509058954
C  C33  1  0.40880000  0.07320000  0.78200000  1.0 -0.1407830423
C  C34  1  0.33270000  0.09340000  0.76890000  1.0 0.0201465163
C  C35  1  0.22870000  0.10710000  0.87720000  1.0 -0.2911800743
C  C36  1  0.26990000  0.18320000  0.94270000  1.0 -0.1407830423
C  C37  1  0.23790000  0.18040000  0.90040000  1.0 0.0382379504
C  C38  1  0.82520000  0.14720000  0.07920000  1.0 0.1787725761
C  C39  1  0.82780000  0.08060000  0.05510000  1.0 0.0201465163
C  C40  1  0.76040000  0.04890000  0.03740000  1.0 -0.1407830423
C  C41  1  0.68830000  0.07950000  0.04840000  1.0 -0.0798089573
C  C42  1  0.68430000  0.14470000  0.07370000  1.0 -0.1169342253
C  C43  1  0.74870000  0.17730000  0.08750000  1.0 0.028223928
C  C44  1  0.90920000  0.04770000  0.04390000  1.0 -0.2630056143
C  C45  1  0.99890000  0.14550000  0.00920000  1.0 0.2819373607
C  C46  1  0.02680000  0.17830000  0.97000000  1.0 0.0382379504
C  C47  1  0.00830000  0.15220000  0.93120000  1.0 -0.1407830423
C  C48  1  0.95570000  0.09000000  0.92550000  1.0 -0.1169342253
C  C49  1  0.92630000  0.05520000  0.96220000  1.0 -0.1509058954
C  C50  1  0.94550000  0.08400000  0.00290000  1.0 0.0382379504
C  C51  1  0.35070000  0.82070000  0.79510000  1.0 0.0101619507
C  C52  1  0.42210000  0.81810000  0.82030000  1.0 -0.1509058954
C  C53  1  0.31700000  0.89360000  0.78140000  1.0 -0.2956169397
C  C54  1  0.27540000  0.89690000  0.69860000  1.0 0.1224695048
C  C55  1  0.28980000  0.91150000  0.65740000  1.0 0.0382379504
C  C56  1  0.36480000  0.92840000  0.64430000  1.0 -0.1407830423
C  C57  1  0.42430000  0.93510000  0.67640000  1.0 -0.1509058954
C  C58  1  0.40880000  0.92680000  0.71800000  1.0 -0.1407830423
C  C59  1  0.33270000  0.90660000  0.73110000  1.0 0.0201465163
C  C60  1  0.22870000  0.89290000  0.62280000  1.0 -0.2911800743
C  C61  1  0.26990000  0.81680000  0.55730000  1.0 -0.1407830423
C  C62  1  0.23790000  0.81960000  0.59960000  1.0 0.0382379504
C  C63  1  0.82520000  0.85280000  0.42080000  1.0 0.1787725761
C  C64  1  0.82780000  0.91940000  0.44490000  1.0 0.0201465163
C  C65  1  0.76040000  0.95110000  0.46260000  1.0 -0.1407830423
C  C66  1  0.68830000  0.92050000  0.45160000  1.0 -0.0798089573
C  C67  1  0.68430000  0.85530000  0.42630000  1.0 -0.1169342253
C  C68  1  0.74870000  0.82270000  0.41250000  1.0 0.028223928
C  C69  1  0.90920000  0.95230000  0.45610000  1.0 -0.2630056143
C  C70  1  0.99890000  0.85450000  0.49080000  1.0 0.2819373607
C  C71  1  0.02680000  0.82170000  0.53000000  1.0 0.0382379504
C  C72  1  0.00830000  0.84780000  0.56880000  1.0 -0.1407830423
C  C73  1  0.95570000  0.91000000  0.57450000  1.0 -0.1169342253
C  C74  1  0.92630000  0.94480000  0.53780000  1.0 -0.1509058954
C  C75  1  0.94550000  0.91600000  0.49710000  1.0 0.0382379504
C  C76  1  0.64930000  0.32070000  0.20490000  1.0 0.0101619507
C  C77  1  0.57790000  0.31810000  0.17970000  1.0 -0.1509058954
C  C78  1  0.68300000  0.39360000  0.21860000  1.0 -0.2956169397
C  C79  1  0.72460000  0.39690000  0.30140000  1.0 0.1224695048
C  C80  1  0.71020000  0.41150000  0.34260000  1.0 0.0382379504
C  C81  1  0.63520000  0.42840000  0.35570000  1.0 -0.1407830423
C  C82  1  0.57570000  0.43510000  0.32360000  1.0 -0.1509058954
C  C83  1  0.59120000  0.42680000  0.28200000  1.0 -0.1407830423
C  C84  1  0.66730000  0.40660000  0.26890000  1.0 0.0201465163
C  C85  1  0.77130000  0.39290000  0.37720000  1.0 -0.2911800743
C  C86  1  0.73010000  0.31680000  0.44270000  1.0 -0.1407830423
C  C87  1  0.76210000  0.31960000  0.40040000  1.0 0.0382379504
C  C88  1  0.17480000  0.35280000  0.57920000  1.0 0.1787725761
C  C89  1  0.17220000  0.41940000  0.55510000  1.0 0.0201465163
C  C90  1  0.23960000  0.45110000  0.53740000  1.0 -0.1407830423
C  C91  1  0.31170000  0.42050000  0.54840000  1.0 -0.0798089573
C  C92  1  0.31570000  0.35530000  0.57370000  1.0 -0.1169342253
C  C93  1  0.25130000  0.32270000  0.58750000  1.0 0.028223928
C  C94  1  0.09080000  0.45230000  0.54390000  1.0 -0.2630056143
C  C95  1  0.00110000  0.35450000  0.50920000  1.0 0.2819373607
C  C96  1  0.97320000  0.32170000  0.47000000  1.0 0.0382379504
C  C97  1  0.99170000  0.34780000  0.43120000  1.0 -0.1407830423
C  C98  1  0.04430000  0.41000000  0.42550000  1.0 -0.1169342253
C  C99  1  0.07370000  0.44480000  0.46220000  1.0 -0.1509058954
C  C100  1  0.05450000  0.41600000  0.50290000  1.0 0.0382379504
C  C101  1  0.35070000  0.32070000  0.70490000  1.0 0.0101619507
C  C102  1  0.42210000  0.31810000  0.67970000  1.0 -0.1509058954
C  C103  1  0.31700000  0.39360000  0.71860000  1.0 -0.2956169397
C  C104  1  0.27540000  0.39690000  0.80140000  1.0 0.1224695048
C  C105  1  0.28980000  0.41150000  0.84260000  1.0 0.0382379504
C  C106  1  0.36480000  0.42840000  0.85570000  1.0 -0.1407830423
C  C107  1  0.42430000  0.43510000  0.82360000  1.0 -0.1509058954
C  C108  1  0.40880000  0.42680000  0.78200000  1.0 -0.1407830423
C  C109  1  0.33270000  0.40660000  0.76890000  1.0 0.0201465163
C  C110  1  0.22870000  0.39290000  0.87720000  1.0 -0.2911800743
C  C111  1  0.26990000  0.31680000  0.94270000  1.0 -0.1407830423
C  C112  1  0.23790000  0.31960000  0.90040000  1.0 0.0382379504
C  C113  1  0.82520000  0.35280000  0.07920000  1.0 0.1787725761
C  C114  1  0.82780000  0.41940000  0.05510000  1.0 0.0201465163
C  C115  1  0.76040000  0.45110000  0.03740000  1.0 -0.1407830423
C  C116  1  0.68830000  0.42050000  0.04840000  1.0 -0.0798089573
C  C117  1  0.68430000  0.35530000  0.07370000  1.0 -0.1169342253
C  C118  1  0.74870000  0.32270000  0.08750000  1.0 0.028223928
C  C119  1  0.90920000  0.45230000  0.04390000  1.0 -0.2630056143
C  C120  1  0.99890000  0.35450000  0.00920000  1.0 0.2819373607
C  C121  1  0.02680000  0.32170000  0.97000000  1.0 0.0382379504
C  C122  1  0.00830000  0.34780000  0.93120000  1.0 -0.1407830423
C  C123  1  0.95570000  0.41000000  0.92550000  1.0 -0.1169342253
C  C124  1  0.92630000  0.44480000  0.96220000  1.0 -0.1509058954
C  C125  1  0.94550000  0.41600000  0.00290000  1.0 0.0382379504
C  C126  1  0.64930000  0.82070000  0.29510000  1.0 0.0101619507
C  C127  1  0.57790000  0.81810000  0.32030000  1.0 -0.1509058954
C  C128  1  0.68300000  0.89360000  0.28140000  1.0 -0.2956169397
C  C129  1  0.72460000  0.89690000  0.19860000  1.0 0.1224695048
C  C130  1  0.71020000  0.91150000  0.15740000  1.0 0.0382379504
C  C131  1  0.63520000  0.92840000  0.14430000  1.0 -0.1407830423
C  C132  1  0.57570000  0.93510000  0.17640000  1.0 -0.1509058954
C  C133  1  0.59120000  0.92680000  0.21800000  1.0 -0.1407830423
C  C134  1  0.66730000  0.90660000  0.23110000  1.0 0.0201465163
C  C135  1  0.77130000  0.89290000  0.12280000  1.0 -0.2911800743
C  C136  1  0.73010000  0.81680000  0.05730000  1.0 -0.1407830423
C  C137  1  0.76210000  0.81960000  0.09960000  1.0 0.0382379504
C  C138  1  0.17480000  0.85280000  0.92080000  1.0 0.1787725761
C  C139  1  0.17220000  0.91940000  0.94490000  1.0 0.0201465163
C  C140  1  0.23960000  0.95110000  0.96260000  1.0 -0.1407830423
C  C141  1  0.31170000  0.92050000  0.95160000  1.0 -0.0798089573
C  C142  1  0.31570000  0.85530000  0.92630000  1.0 -0.1169342253
C  C143  1  0.25130000  0.82270000  0.91250000  1.0 0.028223928
C  C144  1  0.09080000  0.95230000  0.95610000  1.0 -0.2630056143
C  C145  1  0.00110000  0.85450000  0.99080000  1.0 0.2819373607
C  C146  1  0.97320000  0.82170000  0.03000000  1.0 0.0382379504
C  C147  1  0.99170000  0.84780000  0.06880000  1.0 -0.1407830423
C  C148  1  0.04430000  0.91000000  0.07450000  1.0 -0.1169342253
C  C149  1  0.07370000  0.94480000  0.03780000  1.0 -0.1509058954
C  C150  1  0.05450000  0.91600000  0.99710000  1.0 0.0382379504
C  C151  1  0.64930000  0.17930000  0.20490000  1.0 0.0101619507
C  C152  1  0.57790000  0.18190000  0.17970000  1.0 -0.1509058954
C  C153  1  0.68300000  0.10640000  0.21860000  1.0 -0.2956169397
C  C154  1  0.72460000  0.10310000  0.30140000  1.0 0.1224695048
C  C155  1  0.71020000  0.08850000  0.34260000  1.0 0.0382379504
C  C156  1  0.63520000  0.07160000  0.35570000  1.0 -0.1407830423
C  C157  1  0.57570000  0.06490000  0.32360000  1.0 -0.1509058954
C  C158  1  0.59120000  0.07320000  0.28200000  1.0 -0.1407830423
C  C159  1  0.66730000  0.09340000  0.26890000  1.0 0.0201465163
C  C160  1  0.77130000  0.10710000  0.37720000  1.0 -0.2911800743
C  C161  1  0.73010000  0.18320000  0.44270000  1.0 -0.1407830423
C  C162  1  0.76210000  0.18040000  0.40040000  1.0 0.0382379504
C  C163  1  0.17480000  0.14720000  0.57920000  1.0 0.1787725761
C  C164  1  0.17220000  0.08060000  0.55510000  1.0 0.0201465163
C  C165  1  0.23960000  0.04890000  0.53740000  1.0 -0.1407830423
C  C166  1  0.31170000  0.07950000  0.54840000  1.0 -0.0798089573
C  C167  1  0.31570000  0.14470000  0.57370000  1.0 -0.1169342253
C  C168  1  0.25130000  0.17730000  0.58750000  1.0 0.028223928
C  C169  1  0.09080000  0.04770000  0.54390000  1.0 -0.2630056143
C  C170  1  0.00110000  0.14550000  0.50920000  1.0 0.2819373607
C  C171  1  0.97320000  0.17830000  0.47000000  1.0 0.0382379504
C  C172  1  0.99170000  0.15220000  0.43120000  1.0 -0.1407830423
C  C173  1  0.04430000  0.09000000  0.42550000  1.0 -0.1169342253
C  C174  1  0.07370000  0.05520000  0.46220000  1.0 -0.1509058954
C  C175  1  0.05450000  0.08400000  0.50290000  1.0 0.0382379504
C  C176  1  0.35070000  0.67930000  0.79510000  1.0 0.0101619507
C  C177  1  0.42210000  0.68190000  0.82030000  1.0 -0.1509058954
C  C178  1  0.31700000  0.60640000  0.78140000  1.0 -0.2956169397
C  C179  1  0.27540000  0.60310000  0.69860000  1.0 0.1224695048
C  C180  1  0.28980000  0.58850000  0.65740000  1.0 0.0382379504
C  C181  1  0.36480000  0.57160000  0.64430000  1.0 -0.1407830423
C  C182  1  0.42430000  0.56490000  0.67640000  1.0 -0.1509058954
C  C183  1  0.40880000  0.57320000  0.71800000  1.0 -0.1407830423
C  C184  1  0.33270000  0.59340000  0.73110000  1.0 0.0201465163
C  C185  1  0.22870000  0.60710000  0.62280000  1.0 -0.2911800743
C  C186  1  0.26990000  0.68320000  0.55730000  1.0 -0.1407830423
C  C187  1  0.23790000  0.68040000  0.59960000  1.0 0.0382379504
C  C188  1  0.82520000  0.64720000  0.42080000  1.0 0.1787725761
C  C189  1  0.82780000  0.58060000  0.44490000  1.0 0.0201465163
C  C190  1  0.76040000  0.54890000  0.46260000  1.0 -0.1407830423
C  C191  1  0.68830000  0.57950000  0.45160000  1.0 -0.0798089573
C  C192  1  0.68430000  0.64470000  0.42630000  1.0 -0.1169342253
C  C193  1  0.74870000  0.67730000  0.41250000  1.0 0.028223928
C  C194  1  0.90920000  0.54770000  0.45610000  1.0 -0.2630056143
C  C195  1  0.99890000  0.64550000  0.49080000  1.0 0.2819373607
C  C196  1  0.02680000  0.67830000  0.53000000  1.0 0.0382379504
C  C197  1  0.00830000  0.65220000  0.56880000  1.0 -0.1407830423
C  C198  1  0.95570000  0.59000000  0.57450000  1.0 -0.1169342253
C  C199  1  0.92630000  0.55520000  0.53780000  1.0 -0.1509058954
C  C200  1  0.94550000  0.58400000  0.49710000  1.0 0.0382379504
C  C201  1  0.68220000  0.75000000  0.28350000  1.0 0.15770574
C  C202  1  0.54570000  0.75000000  0.33370000  1.0 -0.1314891577
C  C203  1  0.77370000  0.75000000  0.11890000  1.0 0.138283787
C  C204  1  0.71500000  0.75000000  0.03700000  1.0 -0.1314891577
C  C205  1  0.92500000  0.75000000  0.02840000  1.0 -0.2190786265
C  C206  1  0.25660000  0.75000000  0.88400000  1.0 -0.2750571371
C  C207  1  0.31780000  0.25000000  0.71650000  1.0 0.15770574
C  C208  1  0.45430000  0.25000000  0.66630000  1.0 -0.1314891577
C  C209  1  0.22630000  0.25000000  0.88110000  1.0 0.138283787
C  C210  1  0.28500000  0.25000000  0.96300000  1.0 -0.1314891577
C  C211  1  0.07500000  0.25000000  0.97160000  1.0 -0.2190786265
C  C212  1  0.74340000  0.25000000  0.11600000  1.0 -0.2750571371
C  C213  1  0.31780000  0.75000000  0.78350000  1.0 0.15770574
C  C214  1  0.45430000  0.75000000  0.83370000  1.0 -0.1314891577
C  C215  1  0.22630000  0.75000000  0.61890000  1.0 0.138283787
C  C216  1  0.28500000  0.75000000  0.53700000  1.0 -0.1314891577
C  C217  1  0.07500000  0.75000000  0.52840000  1.0 -0.2190786265
C  C218  1  0.74340000  0.75000000  0.38400000  1.0 -0.2750571371
C  C219  1  0.68220000  0.25000000  0.21650000  1.0 0.15770574
C  C220  1  0.54570000  0.25000000  0.16630000  1.0 -0.1314891577
C  C221  1  0.77370000  0.25000000  0.38110000  1.0 0.138283787
C  C222  1  0.71500000  0.25000000  0.46300000  1.0 -0.1314891577
C  C223  1  0.92500000  0.25000000  0.47160000  1.0 -0.2190786265
C  C224  1  0.25660000  0.25000000  0.61600000  1.0 -0.2750571371
S  S1  1  0.47600000  0.55050000  0.15903000  1.0 0.6318044513
S  S2  1  0.39830000  0.54280000  0.97727000  1.0 1.2112221121
S  S3  1  0.06970000  0.55740000  0.12490000  1.0 0.6125361919
S  S4  1  0.52400000  0.05050000  0.84097000  1.0 0.6318044513
S  S5  1  0.60170000  0.04280000  0.02273000  1.0 1.2112221121
S  S6  1  0.93030000  0.05740000  0.87510000  1.0 0.6125361919
S  S7  1  0.52400000  0.94950000  0.65903000  1.0 0.6318044513
S  S8  1  0.60170000  0.95720000  0.47727000  1.0 1.2112221121
S  S9  1  0.93030000  0.94260000  0.62490000  1.0 0.6125361919
S  S10  1  0.47600000  0.44950000  0.34097000  1.0 0.6318044513
S  S11  1  0.39830000  0.45720000  0.52273000  1.0 1.2112221121
S  S12  1  0.06970000  0.44260000  0.37510000  1.0 0.6125361919
S  S13  1  0.52400000  0.44950000  0.84097000  1.0 0.6318044513
S  S14  1  0.60170000  0.45720000  0.02273000  1.0 1.2112221121
S  S15  1  0.93030000  0.44260000  0.87510000  1.0 0.6125361919
S  S16  1  0.47600000  0.94950000  0.15903000  1.0 0.6318044513
S  S17  1  0.39830000  0.95720000  0.97727000  1.0 1.2112221121
S  S18  1  0.06970000  0.94260000  0.12490000  1.0 0.6125361919
S  S19  1  0.47600000  0.05050000  0.34097000  1.0 0.6318044513
S  S20  1  0.39830000  0.04280000  0.52273000  1.0 1.2112221121
S  S21  1  0.06970000  0.05740000  0.37510000  1.0 0.6125361919
S  S22  1  0.52400000  0.55050000  0.65903000  1.0 0.6318044513
S  S23  1  0.60170000  0.54280000  0.47727000  1.0 1.2112221121
S  S24  1  0.93030000  0.55740000  0.62490000  1.0 0.6125361919
S  S25  1  0.46220000  0.75000000  0.36620000  1.0 1.1973368823
S  S26  1  0.68360000  0.75000000  0.98380000  1.0 1.2323507666
S  S27  1  0.53780000  0.25000000  0.63380000  1.0 1.1973368823
S  S28  1  0.31640000  0.25000000  0.01620000  1.0 1.2323507666
S  S29  1  0.53780000  0.75000000  0.86620000  1.0 1.1973368823
S  S30  1  0.31640000  0.75000000  0.48380000  1.0 1.2323507666
S  S31  1  0.46220000  0.25000000  0.13380000  1.0 1.1973368823
S  S32  1  0.68360000  0.25000000  0.51620000  1.0 1.2323507666
O  O1  1  0.46520000  0.68370000  0.39010000  1.0 -0.5849062205
O  O2  1  0.79900000  0.62470000  0.21280000  1.0 -0.4041902163
O  O3  1  0.46270000  0.46910000  0.16090000  1.0 -0.0798089573
O  O4  1  0.42640000  0.59130000  0.18870000  1.0 -0.0170693086
O  O5  1  0.47150000  0.57870000  0.11550000  1.0 -0.0170693086
O  O6  1  0.63710000  0.68210000  0.97800000  1.0 -0.6419640408
O  O7  1  0.10810000  0.67860000  0.90610000  1.0 -0.3920018078
O  O8  1  0.46850000  0.57710000  0.95670000  1.0 -0.6264132857
O  O9  1  0.39590000  0.56410000  0.02130000  1.0 -0.6583882869
O  O10  1  0.39380000  0.46250000  0.97470000  1.0 -0.6218122244
O  O11  1  0.98120000  0.67220000  0.95430000  1.0 -0.4104201943
O  O12  1  0.15530000  0.55600000  0.12600000  1.0 -0.0962740649
O  O13  1  0.03700000  0.61340000  0.15490000  1.0 -0.1407830423
O  O14  1  0.02800000  0.48460000  0.12910000  1.0 -0.1109323829
O  O15  1  0.28900000  0.60700000  0.21160000  1.0 -0.6068219096
O  O16  1  0.44960000  0.48080000  0.17830000  1.0 -0.1109323829
O  O17  1  0.43240000  0.61610000  0.17400000  1.0 0.0502497428
O  O18  1  0.47890000  0.54700000  0.11250000  1.0 -0.0356698828
O  O19  1  0.99680000  0.54510000  0.14760000  1.0 -0.1169342253
O  O20  1  0.11480000  0.48820000  0.11770000  1.0 -0.1169342253
O  O21  1  0.11850000  0.61730000  0.14370000  1.0 -0.0696084432
O  O22  1  0.37200000  0.71300000  0.09500000  1.0 -0.1407830423
O  O23  1  0.53480000  0.18370000  0.60990000  1.0 -0.5849062205
O  O24  1  0.20100000  0.12470000  0.78720000  1.0 -0.4041902163
O  O25  1  0.53730000  0.96910000  0.83910000  1.0 -0.0798089573
O  O26  1  0.57360000  0.09130000  0.81130000  1.0 -0.0170693086
O  O27  1  0.52850000  0.07870000  0.88450000  1.0 -0.0170693086
O  O28  1  0.36290000  0.18210000  0.02200000  1.0 -0.6419640408
O  O29  1  0.89190000  0.17860000  0.09390000  1.0 -0.3920018078
O  O30  1  0.53150000  0.07710000  0.04330000  1.0 -0.6264132857
O  O31  1  0.60410000  0.06410000  0.97870000  1.0 -0.6583882869
O  O32  1  0.60620000  0.96250000  0.02530000  1.0 -0.6218122244
O  O33  1  0.01880000  0.17220000  0.04570000  1.0 -0.4104201943
O  O34  1  0.84470000  0.05600000  0.87400000  1.0 -0.0962740649
O  O35  1  0.96300000  0.11340000  0.84510000  1.0 -0.1407830423
O  O36  1  0.97200000  0.98460000  0.87090000  1.0 -0.1109323829
O  O37  1  0.71100000  0.10700000  0.78840000  1.0 -0.6068219096
O  O38  1  0.55040000  0.98080000  0.82170000  1.0 -0.1109323829
O  O39  1  0.56760000  0.11610000  0.82600000  1.0 0.0502497428
O  O40  1  0.52110000  0.04700000  0.88750000  1.0 -0.0356698828
O  O41  1  0.00320000  0.04510000  0.85240000  1.0 -0.1169342253
O  O42  1  0.88520000  0.98820000  0.88230000  1.0 -0.1169342253
O  O43  1  0.88150000  0.11730000  0.85630000  1.0 -0.0696084432
O  O44  1  0.62800000  0.21300000  0.90500000  1.0 -0.1407830423
O  O45  1  0.53480000  0.81630000  0.89010000  1.0 -0.5849062205
O  O46  1  0.20100000  0.87530000  0.71280000  1.0 -0.4041902163
O  O47  1  0.53730000  0.03090000  0.66090000  1.0 -0.0696084432
O  O48  1  0.57360000  0.90870000  0.68870000  1.0 -0.0170693086
O  O49  1  0.52850000  0.92130000  0.61550000  1.0 -0.0170693086
O  O50  1  0.36290000  0.81790000  0.47800000  1.0 -0.6419640408
O  O51  1  0.89190000  0.82140000  0.40610000  1.0 -0.3920018078
O  O52  1  0.53150000  0.92290000  0.45670000  1.0 -0.6264132857
O  O53  1  0.60410000  0.93590000  0.52130000  1.0 -0.6583882869
O  O54  1  0.60620000  0.03750000  0.47470000  1.0 -0.6218122244
O  O55  1  0.01880000  0.82780000  0.45430000  1.0 -0.4104201943
O  O56  1  0.84470000  0.94400000  0.62600000  1.0 -0.0962740649
O  O57  1  0.96300000  0.88660000  0.65490000  1.0 -0.1407830423
O  O58  1  0.97200000  0.01540000  0.62910000  1.0 -0.1109323829
O  O59  1  0.71100000  0.89300000  0.71160000  1.0 -0.6068219096
O  O60  1  0.55040000  0.01920000  0.67830000  1.0 -0.1109323829
O  O61  1  0.56760000  0.88390000  0.67400000  1.0 0.0502497428
O  O62  1  0.52110000  0.95300000  0.61250000  1.0 -0.0356698828
O  O63  1  0.00320000  0.95490000  0.64760000  1.0 -0.1169342253
O  O64  1  0.88520000  0.01180000  0.61770000  1.0 -0.1169342253
O  O65  1  0.88150000  0.88270000  0.64370000  1.0 -0.0696084432
O  O66  1  0.62800000  0.78700000  0.59500000  1.0 -0.1407830423
O  O67  1  0.46520000  0.31630000  0.10990000  1.0 -0.5849062205
O  O68  1  0.79900000  0.37530000  0.28720000  1.0 -0.4041902163
O  O69  1  0.46270000  0.53090000  0.33910000  1.0 -0.0696084432
O  O70  1  0.42640000  0.40870000  0.31130000  1.0 -0.0170693086
O  O71  1  0.47150000  0.42130000  0.38450000  1.0 -0.0170693086
O  O72  1  0.63710000  0.31790000  0.52200000  1.0 -0.6419640408
O  O73  1  0.10810000  0.32140000  0.59390000  1.0 -0.3920018078
O  O74  1  0.46850000  0.42290000  0.54330000  1.0 -0.6264132857
O  O75  1  0.39590000  0.43590000  0.47870000  1.0 -0.6583882869
O  O76  1  0.39380000  0.53750000  0.52530000  1.0 -0.6218122244
O  O77  1  0.98120000  0.32780000  0.54570000  1.0 -0.4104201943
O  O78  1  0.15530000  0.44400000  0.37400000  1.0 -0.0962740649
O  O79  1  0.03700000  0.38660000  0.34510000  1.0 -0.1407830423
O  O80  1  0.02800000  0.51540000  0.37090000  1.0 -0.1109323829
O  O81  1  0.28900000  0.39300000  0.28840000  1.0 -0.6068219096
O  O82  1  0.44960000  0.51920000  0.32170000  1.0 -0.1109323829
O  O83  1  0.43240000  0.38390000  0.32600000  1.0 0.0502497428
O  O84  1  0.47890000  0.45300000  0.38750000  1.0 -0.0356698828
O  O85  1  0.99680000  0.45490000  0.35240000  1.0 -0.1169342253
O  O86  1  0.11480000  0.51180000  0.38230000  1.0 -0.1169342253
O  O87  1  0.11850000  0.38270000  0.35630000  1.0 -0.0696084432
O  O88  1  0.37200000  0.28700000  0.40500000  1.0 -0.1407830423
O  O89  1  0.53480000  0.31630000  0.60990000  1.0 -0.5849062205
O  O90  1  0.20100000  0.37530000  0.78720000  1.0 -0.4041902163
O  O91  1  0.53730000  0.53090000  0.83910000  1.0 -0.0696084432
O  O92  1  0.57360000  0.40870000  0.81130000  1.0 -0.0170693086
O  O93  1  0.52850000  0.42130000  0.88450000  1.0 -0.0170693086
O  O94  1  0.36290000  0.31790000  0.02200000  1.0 -0.6419640408
O  O95  1  0.89190000  0.32140000  0.09390000  1.0 -0.3920018078
O  O96  1  0.53150000  0.42290000  0.04330000  1.0 -0.6264132857
O  O97  1  0.60410000  0.43590000  0.97870000  1.0 -0.6583882869
O  O98  1  0.60620000  0.53750000  0.02530000  1.0 -0.6218122244
O  O99  1  0.01880000  0.32780000  0.04570000  1.0 -0.4104201943
O  O100  1  0.84470000  0.44400000  0.87400000  1.0 -0.0962740649
O  O101  1  0.96300000  0.38660000  0.84510000  1.0 -0.1407830423
O  O102  1  0.97200000  0.51540000  0.87090000  1.0 -0.1109323829
O  O103  1  0.71100000  0.39300000  0.78840000  1.0 -0.6068219096
O  O104  1  0.55040000  0.51920000  0.82170000  1.0 -0.1109323829
O  O105  1  0.56760000  0.38390000  0.82600000  1.0 0.0502497428
O  O106  1  0.52110000  0.45300000  0.88750000  1.0 -0.0356698828
O  O107  1  0.00320000  0.45490000  0.85240000  1.0 -0.1169342253
O  O108  1  0.88520000  0.51180000  0.88230000  1.0 -0.1169342253
O  O109  1  0.88150000  0.38270000  0.85630000  1.0 -0.0696084432
O  O110  1  0.62800000  0.28700000  0.90500000  1.0 -0.1407830423
O  O111  1  0.46520000  0.81630000  0.39010000  1.0 -0.5849062205
O  O112  1  0.79900000  0.87530000  0.21280000  1.0 -0.4041902163
O  O113  1  0.46270000  0.03090000  0.16090000  1.0 -0.0798089573
O  O114  1  0.42640000  0.90870000  0.18870000  1.0 -0.0170693086
O  O115  1  0.47150000  0.92130000  0.11550000  1.0 -0.0170693086
O  O116  1  0.63710000  0.81790000  0.97800000  1.0 -0.6419640408
O  O117  1  0.10810000  0.82140000  0.90610000  1.0 -0.3920018078
O  O118  1  0.46850000  0.92290000  0.95670000  1.0 -0.6264132857
O  O119  1  0.39590000  0.93590000  0.02130000  1.0 -0.6583882869
O  O120  1  0.39380000  0.03750000  0.97470000  1.0 -0.6218122244
O  O121  1  0.98120000  0.82780000  0.95430000  1.0 -0.4104201943
O  O122  1  0.15530000  0.94400000  0.12600000  1.0 -0.0962740649
O  O123  1  0.03700000  0.88660000  0.15490000  1.0 -0.1407830423
O  O124  1  0.02800000  0.01540000  0.12910000  1.0 -0.1109323829
O  O125  1  0.28900000  0.89300000  0.21160000  1.0 -0.6068219096
O  O126  1  0.44960000  0.01920000  0.17830000  1.0 -0.1109323829
O  O127  1  0.43240000  0.88390000  0.17400000  1.0 0.0502497428
O  O128  1  0.47890000  0.95300000  0.11250000  1.0 -0.0356698828
O  O129  1  0.99680000  0.95490000  0.14760000  1.0 -0.1169342253
O  O130  1  0.11480000  0.01180000  0.11770000  1.0 -0.1109323829
O  O131  1  0.11850000  0.88270000  0.14370000  1.0 -0.0696084432
O  O132  1  0.37200000  0.78700000  0.09500000  1.0 -0.1407830423
O  O133  1  0.46520000  0.18370000  0.10990000  1.0 -0.5849062205
O  O134  1  0.79900000  0.12470000  0.28720000  1.0 -0.4041902163
O  O135  1  0.46270000  0.96910000  0.33910000  1.0 -0.0798089573
O  O136  1  0.42640000  0.09130000  0.31130000  1.0 -0.0170693086
O  O137  1  0.47150000  0.07870000  0.38450000  1.0 -0.0170693086
O  O138  1  0.63710000  0.18210000  0.52200000  1.0 -0.6419640408
O  O139  1  0.10810000  0.17860000  0.59390000  1.0 -0.3920018078
O  O140  1  0.46850000  0.07710000  0.54330000  1.0 -0.6264132857
O  O141  1  0.39590000  0.06410000  0.47870000  1.0 -0.6583882869
O  O142  1  0.39380000  0.96250000  0.52530000  1.0 -0.6218122244
O  O143  1  0.98120000  0.17220000  0.54570000  1.0 -0.4104201943
O  O144  1  0.15530000  0.05600000  0.37400000  1.0 -0.0962740649
O  O145  1  0.03700000  0.11340000  0.34510000  1.0 -0.1407830423
O  O146  1  0.02800000  0.98460000  0.37090000  1.0 -0.1109323829
O  O147  1  0.28900000  0.10700000  0.28840000  1.0 -0.6068219096
O  O148  1  0.44960000  0.98080000  0.32170000  1.0 -0.1109323829
O  O149  1  0.43240000  0.11610000  0.32600000  1.0 0.0502497428
O  O150  1  0.47890000  0.04700000  0.38750000  1.0 -0.0356698828
O  O151  1  0.99680000  0.04510000  0.35240000  1.0 -0.1109323829
O  O152  1  0.11480000  0.98820000  0.38230000  1.0 -0.1169342253
O  O153  1  0.11850000  0.11730000  0.35630000  1.0 -0.0696084432
O  O154  1  0.37200000  0.21300000  0.40500000  1.0 -0.1407830423
O  O155  1  0.53480000  0.68370000  0.89010000  1.0 -0.5849062205
O  O156  1  0.20100000  0.62470000  0.71280000  1.0 -0.4041902163
O  O157  1  0.53730000  0.46910000  0.66090000  1.0 -0.0798089573
O  O158  1  0.57360000  0.59130000  0.68870000  1.0 -0.0137753804
O  O159  1  0.52850000  0.57870000  0.61550000  1.0 -0.0170693086
O  O160  1  0.36290000  0.68210000  0.47800000  1.0 -0.6419640408
O  O161  1  0.89190000  0.67860000  0.40610000  1.0 -0.3920018078
O  O162  1  0.53150000  0.57710000  0.45670000  1.0 -0.6264132857
O  O163  1  0.60410000  0.56410000  0.52130000  1.0 -0.6583882869
O  O164  1  0.60620000  0.46250000  0.47470000  1.0 -0.6218122244
O  O165  1  0.01880000  0.67220000  0.45430000  1.0 -0.4104201943
O  O166  1  0.84470000  0.55600000  0.62600000  1.0 -0.0962740649
O  O167  1  0.96300000  0.61340000  0.65490000  1.0 -0.1407830423
O  O168  1  0.97200000  0.48460000  0.62910000  1.0 -0.1109323829
O  O169  1  0.71100000  0.60700000  0.71160000  1.0 -0.6068219096
O  O170  1  0.55040000  0.48080000  0.67830000  1.0 -0.1109323829
O  O171  1  0.56760000  0.61610000  0.67400000  1.0 0.0502497428
O  O172  1  0.52110000  0.54700000  0.61250000  1.0 -0.0356698828
O  O173  1  0.00320000  0.54510000  0.64760000  1.0 -0.1169342253
O  O174  1  0.88520000  0.48820000  0.61770000  1.0 -0.1169342253
O  O175  1  0.88150000  0.61730000  0.64370000  1.0 -0.0696084432
O  O176  1  0.62800000  0.71300000  0.59500000  1.0 -0.1407830423
O  O177  1  0.45880000  0.75000000  0.97520000  1.0 -0.2630056143
O  O178  1  0.74750000  0.75000000  0.25810000  1.0 -0.4104201943
O  O179  1  0.39790000  0.75000000  0.33710000  1.0 -0.5354771316
O  O180  1  0.80690000  0.75000000  0.15970000  1.0 -0.4298855066
O  O181  1  0.75380000  0.75000000  0.95690000  1.0 -0.5666361153
O  O182  1  0.56490000  0.75000000  0.12550000  1.0 -0.3920018078
O  O183  1  0.54120000  0.25000000  0.02480000  1.0 -0.2683737278
O  O184  1  0.25250000  0.25000000  0.74190000  1.0 -0.4104201943
O  O185  1  0.60210000  0.25000000  0.66290000  1.0 -0.5354771316
O  O186  1  0.19310000  0.25000000  0.84030000  1.0 -0.4298855066
O  O187  1  0.24620000  0.25000000  0.04310000  1.0 -0.5666361153
O  O188  1  0.43510000  0.25000000  0.87450000  1.0 -0.3920018078
O  O189  1  0.54120000  0.75000000  0.47520000  1.0 -0.2630056143
O  O190  1  0.25250000  0.75000000  0.75810000  1.0 -0.4104201943
O  O191  1  0.60210000  0.75000000  0.83710000  1.0 -0.5354771316
O  O192  1  0.19310000  0.75000000  0.65970000  1.0 -0.4298855066
O  O193  1  0.24620000  0.75000000  0.45690000  1.0 -0.5666361153
O  O194  1  0.43510000  0.75000000  0.62550000  1.0 -0.3920018078
O  O195  1  0.45880000  0.25000000  0.52480000  1.0 -0.2683737278
O  O196  1  0.74750000  0.25000000  0.24190000  1.0 -0.4104201943
O  O197  1  0.39790000  0.25000000  0.16290000  1.0 -0.5354771316
O  O198  1  0.80690000  0.25000000  0.34030000  1.0 -0.4298855066
O  O199  1  0.75380000  0.25000000  0.54310000  1.0 -0.5666361153
O  O200  1  0.56490000  0.25000000  0.37450000  1.0 -0.3920018078
