# DDEC6 charges by PACMAN v1.1 (https://github.com/mtap-research/PACMAN-charge/)
data_GURXUP_FSR_pacman
_symmetry_space_group_name_H-M   'P 1'
_cell_length_a   20.32640000
_cell_length_b   20.32640000
_cell_length_c   16.55500000
_cell_angle_alpha   76.29680000
_cell_angle_beta   103.70300000
_cell_angle_gamma   156.67100000
_symmetry_Int_Tables_number   1
_chemical_formula_structural   Mn3H42C44(NO7)4
_chemical_formula_sum   'Mn6 H84 C88 N8 O56'
_cell_volume   2628.23829481
_cell_formula_units_Z   2
loop_
 _symmetry_equiv_pos_site_id
 _symmetry_equiv_pos_as_xyz
  1  'x, y, z'
loop_
 _atom_site_type_symbol
 _atom_site_label
 _atom_site_symmetry_multiplicity
 _atom_site_fract_x
 _atom_site_fract_y
 _atom_site_fract_z
 _atom_site_occupancy
 _atom_site_charge
Mn  Mn1  1  0.51807000  0.51807000  0.25000000  1.0 0.930243118
Mn  Mn2  1  0.48193000  0.48193000  0.75000000  1.0 0.930243118
Mn  Mn3  1  0.10874000  0.88560000  0.56365000  1.0 0.9750884309
Mn  Mn4  1  0.11440000  0.89126000  0.06365000  1.0 0.9750884309
Mn  Mn5  1  0.88560000  0.10874000  0.93635000  1.0 0.9750884309
Mn  Mn6  1  0.89126000  0.11440000  0.43635000  1.0 0.9750884309
H  H1  1  0.20191000  0.18765000  0.29099000  1.0 0.3010649368
H  H2  1  0.48839000  0.52209000  0.08325000  1.0 0.2911945715
H  H3  1  0.49375000  0.45871000  0.10232000  1.0 0.3010649368
H  H4  1  0.84188000  0.80852000  0.26782000  1.0 0.2836512163
H  H5  1  0.20076000  0.83390000  0.00035000  1.0 0.2836512163
H  H6  1  0.29247000  0.41789000  0.12985000  1.0 0.0904294982
H  H7  1  0.20865000  0.45159000  0.09789000  1.0 0.1326639786
H  H8  1  0.54996000  0.79892000  0.26264000  1.0 0.1417932867
H  H9  1  0.61854000  0.74972000  0.29295000  1.0 0.1000613486
H  H10  1  0.31592000  0.67036000  0.20570000  1.0 0.1192572635
H  H11  1  0.19760000  0.54842000  0.13322000  1.0 0.1102182762
H  H12  1  0.53292000  0.89630000  0.11633000  1.0 0.1102182762
H  H13  1  0.42439000  0.77777000  0.04389000  1.0 0.1192572635
H  H14  1  0.38362000  0.97762000  0.10768000  1.0 0.1192572635
H  H15  1  0.48420000  0.96110000  0.15151000  1.0 0.1501686856
H  H16  1  0.19886000  0.64858000  0.97132000  1.0 0.1417932867
H  H17  1  0.10604000  0.67342000  0.93044000  1.0 0.1192572635
H  H18  1  0.18765000  0.20191000  0.20901000  1.0 0.3010649368
H  H19  1  0.52209000  0.48839000  0.41675000  1.0 0.2911945715
H  H20  1  0.45871000  0.49375000  0.39768000  1.0 0.3010649368
H  H21  1  0.80852000  0.84188000  0.23218000  1.0 0.2836512163
H  H22  1  0.83390000  0.20076000  0.49965000  1.0 0.2836512163
H  H23  1  0.41789000  0.29247000  0.37015000  1.0 0.0904294982
H  H24  1  0.45159000  0.20865000  0.40211000  1.0 0.1326639786
H  H25  1  0.79892000  0.54996000  0.23736000  1.0 0.1417932867
H  H26  1  0.74972000  0.61854000  0.20705000  1.0 0.1000613486
H  H27  1  0.67036000  0.31592000  0.29430000  1.0 0.1192572635
H  H28  1  0.54842000  0.19760000  0.36678000  1.0 0.1102182762
H  H29  1  0.89630000  0.53292000  0.38367000  1.0 0.1102182762
H  H30  1  0.77777000  0.42439000  0.45611000  1.0 0.1192572635
H  H31  1  0.97762000  0.38362000  0.39232000  1.0 0.1192572635
H  H32  1  0.96110000  0.48420000  0.34849000  1.0 0.1501686856
H  H33  1  0.64858000  0.19886000  0.52868000  1.0 0.1417932867
H  H34  1  0.67342000  0.10604000  0.56956000  1.0 0.1192572635
H  H35  1  0.79809000  0.81235000  0.70901000  1.0 0.3010649368
H  H36  1  0.51161000  0.47791000  0.91675000  1.0 0.2911945715
H  H37  1  0.50625000  0.54129000  0.89768000  1.0 0.3010649368
H  H38  1  0.15812000  0.19148000  0.73218000  1.0 0.2836512163
H  H39  1  0.79924000  0.16610000  0.99965000  1.0 0.2836512163
H  H40  1  0.70753000  0.58211000  0.87015000  1.0 0.0904294982
H  H41  1  0.79135000  0.54841000  0.90211000  1.0 0.1326639786
H  H42  1  0.45004000  0.20108000  0.73736000  1.0 0.1417932867
H  H43  1  0.38146000  0.25028000  0.70705000  1.0 0.1000613486
H  H44  1  0.68408000  0.32964000  0.79430000  1.0 0.1192572635
H  H45  1  0.80240000  0.45158000  0.86678000  1.0 0.1102182762
H  H46  1  0.46708000  0.10370000  0.88367000  1.0 0.1102182762
H  H47  1  0.57561000  0.22223000  0.95611000  1.0 0.1192572635
H  H48  1  0.61638000  0.02238000  0.89232000  1.0 0.1192572635
H  H49  1  0.51580000  0.03890000  0.84849000  1.0 0.1501686856
H  H50  1  0.80114000  0.35142000  0.02868000  1.0 0.1417932867
H  H51  1  0.89396000  0.32658000  0.06956000  1.0 0.1192572635
H  H52  1  0.81235000  0.79809000  0.79099000  1.0 0.3010649368
H  H53  1  0.47791000  0.51161000  0.58325000  1.0 0.2911945715
H  H54  1  0.54129000  0.50625000  0.60232000  1.0 0.3010649368
H  H55  1  0.19148000  0.15812000  0.76782000  1.0 0.2836512163
H  H56  1  0.16610000  0.79924000  0.50035000  1.0 0.2836512163
H  H57  1  0.58211000  0.70753000  0.62985000  1.0 0.0904294982
H  H58  1  0.54841000  0.79135000  0.59789000  1.0 0.1326639786
H  H59  1  0.20108000  0.45004000  0.76264000  1.0 0.1417932867
H  H60  1  0.25028000  0.38146000  0.79295000  1.0 0.1000613486
H  H61  1  0.32964000  0.68408000  0.70570000  1.0 0.1192572635
H  H62  1  0.45158000  0.80240000  0.63322000  1.0 0.1102182762
H  H63  1  0.10370000  0.46708000  0.61633000  1.0 0.1102182762
H  H64  1  0.22223000  0.57561000  0.54389000  1.0 0.1192572635
H  H65  1  0.02238000  0.61638000  0.60768000  1.0 0.1192572635
H  H66  1  0.03890000  0.51580000  0.65151000  1.0 0.1501686856
H  H67  1  0.35142000  0.80114000  0.47132000  1.0 0.1417932867
H  H68  1  0.32658000  0.89396000  0.43044000  1.0 0.1192572635
H  H69  1  0.34170000  0.01294000  0.62497000  1.0 0.3488696723
H  H70  1  0.21743000  0.88617000  0.68381000  1.0 0.3488696723
H  H71  1  0.00596000  0.88580000  0.44025000  1.0 0.2741889156
H  H72  1  0.88417000  0.76099000  0.49614000  1.0 0.2741889156
H  H73  1  0.98706000  0.65830000  0.12497000  1.0 0.3488696723
H  H74  1  0.11383000  0.78257000  0.18381000  1.0 0.3488696723
H  H75  1  0.11420000  0.99404000  0.94025000  1.0 0.2741889156
H  H76  1  0.23901000  0.11583000  0.99614000  1.0 0.2741889156
H  H77  1  0.01294000  0.34170000  0.87503000  1.0 0.3488696723
H  H78  1  0.88617000  0.21743000  0.81619000  1.0 0.3488696723
H  H79  1  0.88580000  0.00596000  0.05975000  1.0 0.2741889156
H  H80  1  0.76099000  0.88417000  0.00386000  1.0 0.2741889156
H  H81  1  0.65830000  0.98706000  0.37503000  1.0 0.3488696723
H  H82  1  0.78257000  0.11383000  0.31619000  1.0 0.3488696723
H  H83  1  0.99404000  0.11420000  0.55975000  1.0 0.2741889156
H  H84  1  0.11583000  0.23901000  0.50386000  1.0 0.2741889156
C  C1  1  0.34398000  0.49442000  0.15850000  1.0 0.032222577
C  C2  1  0.29371000  0.51529000  0.13830000  1.0 -0.2285889179
C  C3  1  0.36703000  0.62737000  0.17670000  1.0 0.1800617113
C  C4  1  0.49296000  0.71784000  0.23510000  1.0 -0.2214513983
C  C5  1  0.53392000  0.68788000  0.25270000  1.0 0.032222577
C  C6  1  0.31188000  0.64992000  0.15540000  1.0 -0.2214513983
C  C7  1  0.42048000  0.79312000  0.09230000  1.0 -0.2588393257
C  C8  1  0.34757000  0.91163000  0.08040000  1.0 0.0783476124
C  C9  1  0.40749000  0.90191000  0.10640000  1.0 -0.2052800224
C  C10  1  0.35471000  0.80469000  0.06590000  1.0 0.167525871
C  C11  1  0.23841000  0.71679000  0.99930000  1.0 -0.2214513983
C  C12  1  0.18268000  0.73092000  0.97540000  1.0 0.0612641446
C  C13  1  0.49442000  0.34398000  0.34150000  1.0 0.0354615993
C  C14  1  0.51529000  0.29371000  0.36170000  1.0 -0.2285889179
C  C15  1  0.62737000  0.36703000  0.32330000  1.0 0.1800617113
C  C16  1  0.71784000  0.49296000  0.26490000  1.0 -0.2214513983
C  C17  1  0.68788000  0.53392000  0.24730000  1.0 0.032222577
C  C18  1  0.64992000  0.31188000  0.34460000  1.0 -0.2214513983
C  C19  1  0.79312000  0.42048000  0.40770000  1.0 -0.2588393257
C  C20  1  0.91163000  0.34757000  0.41960000  1.0 0.0783476124
C  C21  1  0.90191000  0.40749000  0.39360000  1.0 -0.2052800224
C  C22  1  0.80469000  0.35471000  0.43410000  1.0 0.167525871
C  C23  1  0.71679000  0.23841000  0.50070000  1.0 -0.2214513983
C  C24  1  0.73092000  0.18268000  0.52460000  1.0 0.0612641446
C  C25  1  0.65602000  0.50558000  0.84150000  1.0 0.032222577
C  C26  1  0.70629000  0.48471000  0.86170000  1.0 -0.2285889179
C  C27  1  0.63297000  0.37263000  0.82330000  1.0 0.1800617113
C  C28  1  0.50704000  0.28216000  0.76490000  1.0 -0.2214513983
C  C29  1  0.46608000  0.31212000  0.74730000  1.0 0.032222577
C  C30  1  0.68812000  0.35008000  0.84460000  1.0 -0.2214513983
C  C31  1  0.57952000  0.20688000  0.90770000  1.0 -0.2588393257
C  C32  1  0.65243000  0.08837000  0.91960000  1.0 0.0783476124
C  C33  1  0.59251000  0.09809000  0.89360000  1.0 -0.2052800224
C  C34  1  0.64529000  0.19531000  0.93410000  1.0 0.167525871
C  C35  1  0.76159000  0.28321000  0.00070000  1.0 -0.2214513983
C  C36  1  0.81732000  0.26908000  0.02460000  1.0 0.0612641446
C  C37  1  0.50558000  0.65602000  0.65850000  1.0 0.032222577
C  C38  1  0.48471000  0.70629000  0.63830000  1.0 -0.2285889179
C  C39  1  0.37263000  0.63297000  0.67670000  1.0 0.1800617113
C  C40  1  0.28216000  0.50704000  0.73510000  1.0 -0.2214513983
C  C41  1  0.31212000  0.46608000  0.75270000  1.0 0.032222577
C  C42  1  0.35008000  0.68812000  0.65540000  1.0 -0.2214513983
C  C43  1  0.20688000  0.57952000  0.59230000  1.0 -0.2588393257
C  C44  1  0.08837000  0.65243000  0.58040000  1.0 0.0783476124
C  C45  1  0.09809000  0.59251000  0.60640000  1.0 -0.2052800224
C  C46  1  0.19531000  0.64529000  0.56590000  1.0 0.167525871
C  C47  1  0.28321000  0.76159000  0.49930000  1.0 -0.2214513983
C  C48  1  0.26908000  0.81732000  0.47540000  1.0 0.0612641446
C  C49  1  0.73894000  0.49486000  0.57230000  1.0 0.1000613486
C  C50  1  0.63450000  0.46070000  0.56750000  1.0 0.1596909057
C  C51  1  0.48554000  0.28126000  0.55500000  1.0 0.1000613486
C  C52  1  0.59076000  0.31724000  0.57990000  1.0 0.1192572635
C  C53  1  0.08753000  0.88207000  0.74980000  1.0 0.1102182762
C  C54  1  0.12938000  0.85482000  0.80530000  1.0 0.1192572635
C  C55  1  0.11354000  0.86866000  0.87670000  1.0 0.0735571052
C  C56  1  0.11360000  0.93820000  0.82270000  1.0 0.1501686856
C  C57  1  0.63240000  0.45760000  0.52730000  1.0 0.1501686856
C  C58  1  0.03880000  0.86380000  0.82210000  1.0 0.1596909057
C  C59  1  0.50514000  0.26106000  0.07230000  1.0 0.1000613486
C  C60  1  0.53930000  0.36550000  0.06750000  1.0 0.1596909057
C  C61  1  0.71874000  0.51446000  0.05500000  1.0 0.1000613486
C  C62  1  0.68276000  0.40924000  0.07990000  1.0 0.1192572635
C  C63  1  0.11793000  0.91247000  0.24980000  1.0 0.1102182762
C  C64  1  0.14518000  0.87062000  0.30530000  1.0 0.1192572635
C  C65  1  0.13134000  0.88646000  0.37670000  1.0 0.0735571052
C  C66  1  0.06180000  0.88640000  0.32270000  1.0 0.1501686856
C  C67  1  0.54240000  0.36760000  0.02730000  1.0 0.1501686856
C  C68  1  0.13620000  0.96120000  0.32210000  1.0 0.1596909057
C  C69  1  0.49486000  0.73894000  0.92770000  1.0 0.1000613486
C  C70  1  0.46070000  0.63450000  0.93250000  1.0 0.1596909057
C  C71  1  0.28126000  0.48554000  0.94500000  1.0 0.1000613486
C  C72  1  0.31724000  0.59076000  0.92010000  1.0 0.1192572635
C  C73  1  0.88207000  0.08753000  0.75020000  1.0 0.1102182762
C  C74  1  0.85482000  0.12938000  0.69470000  1.0 0.1192572635
C  C75  1  0.86866000  0.11354000  0.62330000  1.0 0.0735571052
C  C76  1  0.93820000  0.11360000  0.67730000  1.0 0.1501686856
C  C77  1  0.45760000  0.63240000  0.97270000  1.0 0.1501686856
C  C78  1  0.86380000  0.03880000  0.67790000  1.0 0.1596909057
C  C79  1  0.26106000  0.50514000  0.42770000  1.0 0.1000613486
C  C80  1  0.36550000  0.53930000  0.43250000  1.0 0.1596909057
C  C81  1  0.51446000  0.71874000  0.44500000  1.0 0.1000613486
C  C82  1  0.40924000  0.68276000  0.42010000  1.0 0.1192572635
C  C83  1  0.91247000  0.11793000  0.25020000  1.0 0.1102182762
C  C84  1  0.87062000  0.14518000  0.19470000  1.0 0.1192572635
C  C85  1  0.88646000  0.13134000  0.12330000  1.0 0.0735571052
C  C86  1  0.88640000  0.06180000  0.17730000  1.0 0.1501686856
C  C87  1  0.36760000  0.54240000  0.47270000  1.0 0.1501686856
C  C88  1  0.96120000  0.13620000  0.17790000  1.0 0.1596909057
N  N1  1  0.46000000  0.57620000  0.21572000  1.0 -0.2804913685
N  N2  1  0.23754000  0.82666000  0.01608000  1.0 -0.1252349631
N  N3  1  0.57620000  0.46000000  0.28428000  1.0 -0.2804913685
N  N4  1  0.82666000  0.23754000  0.48392000  1.0 -0.1252349631
N  N5  1  0.54000000  0.42380000  0.78428000  1.0 -0.2804913685
N  N6  1  0.76246000  0.17334000  0.98392000  1.0 -0.1252349631
N  N7  1  0.42380000  0.54000000  0.71572000  1.0 -0.2804913685
N  N8  1  0.17334000  0.76246000  0.51608000  1.0 -0.1252349631
O  O1  1  0.51583000  0.51317000  0.11939000  1.0 -0.6681513653
O  O2  1  0.51317000  0.51583000  0.38061000  1.0 -0.6681513653
O  O3  1  0.25200000  0.25200000  0.25000000  1.0 -0.6681513653
O  O4  1  0.78180000  0.78180000  0.25000000  1.0 -0.5886655913
O  O5  1  0.48417000  0.48683000  0.88061000  1.0 -0.6681513653
O  O6  1  0.48683000  0.48417000  0.61939000  1.0 -0.6681513653
O  O7  1  0.74800000  0.74800000  0.75000000  1.0 -0.6681513653
O  O8  1  0.21820000  0.21820000  0.75000000  1.0 -0.5886655913
O  O9  1  0.89078000  0.62142000  0.58321000  1.0 -0.4701306984
O  O10  1  0.65921000  0.54479000  0.55720000  1.0 -0.0338987091
O  O11  1  0.33228000  0.15272000  0.54302000  1.0 -0.5010121927
O  O12  1  0.56377000  0.23023000  0.59851000  1.0 -0.4387416818
O  O13  1  0.06985000  0.88995000  0.67336000  1.0 -0.4835750924
O  O14  1  0.16726000  0.83234000  0.79541000  1.0 -0.4387416818
O  O15  1  0.12344000  0.85296000  0.95482000  1.0 -0.5161565409
O  O16  1  0.09921000  0.98379000  0.83310000  1.0 -0.0665834627
O  O17  1  0.24511000  0.92249000  0.63420000  1.0 -0.6785434947
O  O18  1  0.97712000  0.85168000  0.49055000  1.0 -0.5982680485
O  O19  1  0.65798000  0.54302000  0.49920000  1.0 -0.0513924199
O  O20  1  0.99550000  0.87970000  0.83290000  1.0 -0.0595231128
O  O21  1  0.37858000  0.10922000  0.08321000  1.0 -0.4701306984
O  O22  1  0.45521000  0.34079000  0.05720000  1.0 -0.0338987091
O  O23  1  0.84728000  0.66772000  0.04302000  1.0 -0.5010121927
O  O24  1  0.76977000  0.43623000  0.09851000  1.0 -0.4387416818
O  O25  1  0.11005000  0.93015000  0.17336000  1.0 -0.4835750924
O  O26  1  0.16766000  0.83274000  0.29541000  1.0 -0.4387416818
O  O27  1  0.14704000  0.87656000  0.45482000  1.0 -0.5161565409
O  O28  1  0.01621000  0.90079000  0.33310000  1.0 -0.0665834627
O  O29  1  0.07751000  0.75489000  0.13420000  1.0 -0.6785434947
O  O30  1  0.14832000  0.02288000  0.99055000  1.0 -0.5982680485
O  O31  1  0.45698000  0.34202000  0.99920000  1.0 -0.0513924199
O  O32  1  0.12030000  0.00450000  0.33290000  1.0 -0.0595231128
O  O33  1  0.62142000  0.89078000  0.91679000  1.0 -0.4701306984
O  O34  1  0.54479000  0.65921000  0.94280000  1.0 -0.0338987091
O  O35  1  0.15272000  0.33228000  0.95698000  1.0 -0.5010121927
O  O36  1  0.23023000  0.56377000  0.90149000  1.0 -0.4387416818
O  O37  1  0.88995000  0.06985000  0.82664000  1.0 -0.4835750924
O  O38  1  0.83234000  0.16726000  0.70459000  1.0 -0.4387416818
O  O39  1  0.85296000  0.12344000  0.54518000  1.0 -0.5161565409
O  O40  1  0.98379000  0.09921000  0.66690000  1.0 -0.0665834627
O  O41  1  0.92249000  0.24511000  0.86580000  1.0 -0.6785434947
O  O42  1  0.85168000  0.97712000  0.00945000  1.0 -0.5982680485
O  O43  1  0.54302000  0.65798000  0.00080000  1.0 -0.0513924199
O  O44  1  0.87970000  0.99550000  0.66710000  1.0 -0.0595231128
O  O45  1  0.10922000  0.37858000  0.41679000  1.0 -0.4701306984
O  O46  1  0.34079000  0.45521000  0.44280000  1.0 -0.0338987091
O  O47  1  0.66772000  0.84728000  0.45698000  1.0 -0.5010121927
O  O48  1  0.43623000  0.76977000  0.40149000  1.0 -0.4387416818
O  O49  1  0.93015000  0.11005000  0.32664000  1.0 -0.4835750924
O  O50  1  0.83274000  0.16766000  0.20459000  1.0 -0.4387416818
O  O51  1  0.87656000  0.14704000  0.04518000  1.0 -0.5161565409
O  O52  1  0.90079000  0.01621000  0.16690000  1.0 -0.0665834627
O  O53  1  0.75489000  0.07751000  0.36580000  1.0 -0.6785434947
O  O54  1  0.02288000  0.14832000  0.50945000  1.0 -0.5982680485
O  O55  1  0.34202000  0.45698000  0.50080000  1.0 -0.0513924199
O  O56  1  0.00450000  0.12030000  0.16710000  1.0 -0.0595231128
