# DDEC6 charges by PACMAN v1.1 (https://github.com/mtap-research/PACMAN-charge/)
data_GURZID01_ASR_pacman
_symmetry_space_group_name_H-M   'P 1'
_cell_length_a   6.62240000
_cell_length_b   13.04070000
_cell_length_c   13.97720000
_cell_angle_alpha   90.00000000
_cell_angle_beta   90.00000000
_cell_angle_gamma   90.00000000
_symmetry_Int_Tables_number   1
_chemical_formula_structural   CdCuH4(C3O4)2
_chemical_formula_sum   'Cd4 Cu4 H16 C24 O32'
_cell_volume   1207.08121884
_cell_formula_units_Z   4
loop_
 _symmetry_equiv_pos_site_id
 _symmetry_equiv_pos_as_xyz
  1  'x, y, z'
loop_
 _atom_site_type_symbol
 _atom_site_label
 _atom_site_symmetry_multiplicity
 _atom_site_fract_x
 _atom_site_fract_y
 _atom_site_fract_z
 _atom_site_occupancy
 _atom_site_charge
Cd  Cd1  1  0.00000000  0.25000000  0.22594000  1.0 1.0380043022
Cd  Cd2  1  0.50000000  0.75000000  0.27406000  1.0 1.0380043022
Cd  Cd3  1  0.00000000  0.75000000  0.77406000  1.0 1.0380043022
Cd  Cd4  1  0.50000000  0.25000000  0.72594000  1.0 1.0380043022
Cu  Cu1  1  0.00000000  0.50000000  0.00000000  1.0 0.947268822
Cu  Cu2  1  0.50000000  0.00000000  0.50000000  1.0 0.947268822
Cu  Cu3  1  0.50000000  0.50000000  0.50000000  1.0 0.947268822
Cu  Cu4  1  0.00000000  0.00000000  0.00000000  1.0 0.947268822
H  H1  1  0.85520000  0.60220000  0.27090000  1.0 0.1657039307
H  H2  1  0.64480000  0.10220000  0.22910000  1.0 0.1657039307
H  H3  1  0.35520000  0.39780000  0.22910000  1.0 0.1657039307
H  H4  1  0.14480000  0.89780000  0.27090000  1.0 0.1657039307
H  H5  1  0.14480000  0.39780000  0.72910000  1.0 0.1657039307
H  H6  1  0.35520000  0.89780000  0.77090000  1.0 0.1657039307
H  H7  1  0.64480000  0.60220000  0.77090000  1.0 0.1657039307
H  H8  1  0.85520000  0.10220000  0.72910000  1.0 0.1657039307
H  H9  1  0.06590000  0.61850000  0.22330000  1.0 0.1796022736
H  H10  1  0.43410000  0.11850000  0.27670000  1.0 0.1796022736
H  H11  1  0.56590000  0.38150000  0.27670000  1.0 0.1796022736
H  H12  1  0.93410000  0.88150000  0.22330000  1.0 0.1796022736
H  H13  1  0.93410000  0.38150000  0.77670000  1.0 0.1796022736
H  H14  1  0.56590000  0.88150000  0.72330000  1.0 0.1796022736
H  H15  1  0.43410000  0.61850000  0.72330000  1.0 0.1796022736
H  H16  1  0.06590000  0.11850000  0.77670000  1.0 0.1796022736
C  C1  1  0.95620000  0.47548000  0.20252000  1.0 0.6620795436
C  C2  1  0.54380000  0.97548000  0.29748000  1.0 0.6620795436
C  C3  1  0.45620000  0.52452000  0.29748000  1.0 0.6620795436
C  C4  1  0.04380000  0.02452000  0.20252000  1.0 0.6620795436
C  C5  1  0.04380000  0.52452000  0.79748000  1.0 0.6620795436
C  C6  1  0.45620000  0.02452000  0.70252000  1.0 0.6620795436
C  C7  1  0.54380000  0.47548000  0.70252000  1.0 0.6620795436
C  C8  1  0.95620000  0.97548000  0.79748000  1.0 0.6620795436
C  C9  1  0.93260000  0.58971000  0.21312000  1.0 -0.5307417355
C  C10  1  0.56740000  0.08971000  0.28688000  1.0 -0.5307417355
C  C11  1  0.43260000  0.41029000  0.28688000  1.0 -0.5307417355
C  C12  1  0.06740000  0.91029000  0.21312000  1.0 -0.5307417355
C  C13  1  0.06740000  0.41029000  0.78688000  1.0 -0.5307417355
C  C14  1  0.43260000  0.91029000  0.71312000  1.0 -0.5307417355
C  C15  1  0.56740000  0.58971000  0.71312000  1.0 -0.5307417355
C  C16  1  0.93260000  0.08971000  0.78688000  1.0 -0.5307417355
C  C17  1  0.83390000  0.64932000  0.13281000  1.0 0.6862858318
C  C18  1  0.66610000  0.14932000  0.36719000  1.0 0.6862858318
C  C19  1  0.33390000  0.35068000  0.36719000  1.0 0.6862858318
C  C20  1  0.16610000  0.85068000  0.13281000  1.0 0.6862858318
C  C21  1  0.16610000  0.35068000  0.86719000  1.0 0.6862858318
C  C22  1  0.33390000  0.85068000  0.63281000  1.0 0.6862858318
C  C23  1  0.66610000  0.64932000  0.63281000  1.0 0.6862858318
C  C24  1  0.83390000  0.14932000  0.86719000  1.0 0.6862858318
O  O1  1  0.00670000  0.43677000  0.12303000  1.0 -0.5842926569
O  O2  1  0.49330000  0.93677000  0.37697000  1.0 -0.5842926569
O  O3  1  0.50670000  0.56323000  0.37697000  1.0 -0.5842926569
O  O4  1  0.99330000  0.06323000  0.12303000  1.0 -0.5842926569
O  O5  1  0.99330000  0.56323000  0.87697000  1.0 -0.5842926569
O  O6  1  0.50670000  0.06323000  0.62303000  1.0 -0.5842926569
O  O7  1  0.49330000  0.43677000  0.62303000  1.0 -0.5842926569
O  O8  1  0.00670000  0.93677000  0.87697000  1.0 -0.5842926569
O  O9  1  0.93390000  0.41975000  0.27370000  1.0 -0.499901823
O  O10  1  0.56610000  0.91975000  0.22630000  1.0 -0.499901823
O  O11  1  0.43390000  0.58025000  0.22630000  1.0 -0.499901823
O  O12  1  0.06610000  0.08025000  0.27370000  1.0 -0.499901823
O  O13  1  0.06610000  0.58025000  0.72630000  1.0 -0.499901823
O  O14  1  0.43390000  0.08025000  0.77370000  1.0 -0.499901823
O  O15  1  0.56610000  0.41975000  0.77370000  1.0 -0.499901823
O  O16  1  0.93390000  0.91975000  0.72630000  1.0 -0.499901823
O  O17  1  0.73660000  0.72783000  0.15330000  1.0 -0.5200093754
O  O18  1  0.76340000  0.22783000  0.34670000  1.0 -0.5200093754
O  O19  1  0.23660000  0.27217000  0.34670000  1.0 -0.5200093754
O  O20  1  0.26340000  0.77217000  0.15330000  1.0 -0.5200093754
O  O21  1  0.26340000  0.27217000  0.84670000  1.0 -0.5200093754
O  O22  1  0.23660000  0.77217000  0.65330000  1.0 -0.5200093754
O  O23  1  0.76340000  0.72783000  0.65330000  1.0 -0.5200093754
O  O24  1  0.73660000  0.22783000  0.84670000  1.0 -0.5200093754
O  O25  1  0.86200000  0.62176000  0.04664000  1.0 -0.551362551
O  O26  1  0.63800000  0.12176000  0.45336000  1.0 -0.551362551
O  O27  1  0.36200000  0.37824000  0.45336000  1.0 -0.551362551
O  O28  1  0.13800000  0.87824000  0.04664000  1.0 -0.551362551
O  O29  1  0.13800000  0.37824000  0.95336000  1.0 -0.551362551
O  O30  1  0.36200000  0.87824000  0.54664000  1.0 -0.551362551
O  O31  1  0.63800000  0.62176000  0.54664000  1.0 -0.551362551
O  O32  1  0.86200000  0.12176000  0.95336000  1.0 -0.551362551
