# DDEC6 charges by PACMAN v1.1 (https://github.com/mtap-research/PACMAN-charge/)
data_GUSMAJ_ASR_pacman
_symmetry_space_group_name_H-M   'P 1'
_cell_length_a   23.83300000
_cell_length_b   23.83300000
_cell_length_c   23.83300000
_cell_angle_alpha   109.47100000
_cell_angle_beta   109.47100000
_cell_angle_gamma   109.47100000
_symmetry_Int_Tables_number   1
_chemical_formula_structural   Eu4H144C159(NO3)24
_chemical_formula_sum   'Eu8 H288 C318 N48 O144'
_cell_volume   10421.20156019
_cell_formula_units_Z   2
loop_
 _symmetry_equiv_pos_site_id
 _symmetry_equiv_pos_as_xyz
  1  'x, y, z'
loop_
 _atom_site_type_symbol
 _atom_site_label
 _atom_site_symmetry_multiplicity
 _atom_site_fract_x
 _atom_site_fract_y
 _atom_site_fract_z
 _atom_site_occupancy
 _atom_site_charge
Eu  Eu1  1  0.54766000  0.50000000  0.00000000  1.0 1.9253056998
Eu  Eu2  1  0.00000000  0.54766000  0.50000000  1.0 1.9211849923
Eu  Eu3  1  0.50000000  0.00000000  0.54766000  1.0 1.9211849923
Eu  Eu4  1  0.95234000  0.95234000  0.95234000  1.0 1.9253056998
Eu  Eu5  1  0.00000000  0.04766000  0.50000000  1.0 1.9211849923
Eu  Eu6  1  0.04766000  0.50000000  0.00000000  1.0 1.9253056998
Eu  Eu7  1  0.50000000  0.00000000  0.04766000  1.0 1.9211849923
Eu  Eu8  1  0.45234000  0.45234000  0.45234000  1.0 1.9211849923
H  H1  1  0.35400000  0.53480000  0.85480000  1.0 0.2842777997
H  H2  1  0.18000000  0.49920000  0.64520000  1.0 0.2842777997
H  H3  1  0.32000000  0.96520000  0.31920000  1.0 0.2842777997
H  H4  1  0.14600000  0.00080000  0.18080000  1.0 0.2842777997
H  H5  1  0.85480000  0.35400000  0.53480000  1.0 0.2842777997
H  H6  1  0.64520000  0.18000000  0.49920000  1.0 0.2842777997
H  H7  1  0.31920000  0.32000000  0.96520000  1.0 0.2842777997
H  H8  1  0.18080000  0.14600000  0.00080000  1.0 0.2842777997
H  H9  1  0.53480000  0.85480000  0.35400000  1.0 0.2842777997
H  H10  1  0.49920000  0.64520000  0.18000000  1.0 0.2842777997
H  H11  1  0.96520000  0.31920000  0.32000000  1.0 0.2842777997
H  H12  1  0.00080000  0.18080000  0.14600000  1.0 0.2842777997
H  H13  1  0.03480000  0.85400000  0.35480000  1.0 0.2842777997
H  H14  1  0.99920000  0.68000000  0.14520000  1.0 0.2842777997
H  H15  1  0.46520000  0.82000000  0.81920000  1.0 0.2842777997
H  H16  1  0.50080000  0.64600000  0.68080000  1.0 0.2842777997
H  H17  1  0.85400000  0.35480000  0.03480000  1.0 0.2842777997
H  H18  1  0.68000000  0.14520000  0.99920000  1.0 0.2842777997
H  H19  1  0.82000000  0.81920000  0.46520000  1.0 0.2842777997
H  H20  1  0.64600000  0.68080000  0.50080000  1.0 0.2842777997
H  H21  1  0.35480000  0.03480000  0.85400000  1.0 0.2842777997
H  H22  1  0.14520000  0.99920000  0.68000000  1.0 0.2842777997
H  H23  1  0.81920000  0.46520000  0.82000000  1.0 0.2842777997
H  H24  1  0.68080000  0.50080000  0.64600000  1.0 0.2842777997
H  H25  1  0.29880000  0.52020000  0.67940000  1.0 0.0933608309
H  H26  1  0.34080000  0.61940000  0.82060000  1.0 0.0933608309
H  H27  1  0.15920000  0.97980000  0.27860000  1.0 0.0933608309
H  H28  1  0.20120000  0.88060000  0.22140000  1.0 0.0933608309
H  H29  1  0.67940000  0.29880000  0.52020000  1.0 0.0933608309
H  H30  1  0.82060000  0.34080000  0.61940000  1.0 0.0933608309
H  H31  1  0.27860000  0.15920000  0.97980000  1.0 0.0933608309
H  H32  1  0.22140000  0.20120000  0.88060000  1.0 0.0933608309
H  H33  1  0.52020000  0.67940000  0.29880000  1.0 0.0933608309
H  H34  1  0.61940000  0.82060000  0.34080000  1.0 0.0933608309
H  H35  1  0.97980000  0.27860000  0.15920000  1.0 0.0933608309
H  H36  1  0.88060000  0.22140000  0.20120000  1.0 0.0933608309
H  H37  1  0.02020000  0.79880000  0.17940000  1.0 0.0933608309
H  H38  1  0.11940000  0.84080000  0.32060000  1.0 0.0933608309
H  H39  1  0.47980000  0.65920000  0.77860000  1.0 0.0933608309
H  H40  1  0.38060000  0.70120000  0.72140000  1.0 0.0933608309
H  H41  1  0.79880000  0.17940000  0.02020000  1.0 0.0933608309
H  H42  1  0.84080000  0.32060000  0.11940000  1.0 0.0933608309
H  H43  1  0.65920000  0.77860000  0.47980000  1.0 0.0933608309
H  H44  1  0.70120000  0.72140000  0.38060000  1.0 0.0933608309
H  H45  1  0.17940000  0.02020000  0.79880000  1.0 0.0933608309
H  H46  1  0.32060000  0.11940000  0.84080000  1.0 0.0933608309
H  H47  1  0.77860000  0.47980000  0.65920000  1.0 0.0933608309
H  H48  1  0.72140000  0.38060000  0.70120000  1.0 0.0933608309
H  H49  1  0.36980000  0.53630000  0.68230000  1.0 0.0933608309
H  H50  1  0.35400000  0.68750000  0.81770000  1.0 0.0933608309
H  H51  1  0.14600000  0.96370000  0.33350000  1.0 0.0933608309
H  H52  1  0.13020000  0.81250000  0.16650000  1.0 0.0933608309
H  H53  1  0.68230000  0.36980000  0.53630000  1.0 0.0933608309
H  H54  1  0.81770000  0.35400000  0.68750000  1.0 0.0933608309
H  H55  1  0.33350000  0.14600000  0.96370000  1.0 0.0933608309
H  H56  1  0.16650000  0.13020000  0.81250000  1.0 0.0933608309
H  H57  1  0.53630000  0.68230000  0.36980000  1.0 0.0933608309
H  H58  1  0.68750000  0.81770000  0.35400000  1.0 0.0933608309
H  H59  1  0.96370000  0.33350000  0.14600000  1.0 0.0933608309
H  H60  1  0.81250000  0.16650000  0.13020000  1.0 0.0933608309
H  H61  1  0.03630000  0.86980000  0.18230000  1.0 0.0933608309
H  H62  1  0.18750000  0.85400000  0.31770000  1.0 0.0933608309
H  H63  1  0.46370000  0.64600000  0.83350000  1.0 0.0933608309
H  H64  1  0.31250000  0.63020000  0.66650000  1.0 0.0933608309
H  H65  1  0.86980000  0.18230000  0.03630000  1.0 0.0933608309
H  H66  1  0.85400000  0.31770000  0.18750000  1.0 0.0933608309
H  H67  1  0.64600000  0.83350000  0.46370000  1.0 0.0933608309
H  H68  1  0.63020000  0.66650000  0.31250000  1.0 0.0933608309
H  H69  1  0.18230000  0.03630000  0.86980000  1.0 0.0933608309
H  H70  1  0.31770000  0.18750000  0.85400000  1.0 0.0933608309
H  H71  1  0.83350000  0.46370000  0.64600000  1.0 0.0933608309
H  H72  1  0.66650000  0.31250000  0.63020000  1.0 0.0933608309
H  H73  1  0.32620000  0.43070000  0.64110000  1.0 0.1196616078
H  H74  1  0.28960000  0.68510000  0.85890000  1.0 0.1196616078
H  H75  1  0.21040000  0.06930000  0.39550000  1.0 0.1196616078
H  H76  1  0.17380000  0.81490000  0.10450000  1.0 0.1196616078
H  H77  1  0.64110000  0.32620000  0.43070000  1.0 0.1196616078
H  H78  1  0.85890000  0.28960000  0.68510000  1.0 0.1196616078
H  H79  1  0.39550000  0.21040000  0.06930000  1.0 0.1196616078
H  H80  1  0.10450000  0.17380000  0.81490000  1.0 0.1196616078
H  H81  1  0.43070000  0.64110000  0.32620000  1.0 0.1196616078
H  H82  1  0.68510000  0.85890000  0.28960000  1.0 0.1196616078
H  H83  1  0.06930000  0.39550000  0.21040000  1.0 0.1196616078
H  H84  1  0.81490000  0.10450000  0.17380000  1.0 0.1196616078
H  H85  1  0.93070000  0.82620000  0.14110000  1.0 0.1196616078
H  H86  1  0.18510000  0.78960000  0.35890000  1.0 0.1196616078
H  H87  1  0.56930000  0.71040000  0.89550000  1.0 0.1196616078
H  H88  1  0.31490000  0.67380000  0.60450000  1.0 0.1196616078
H  H89  1  0.82620000  0.14110000  0.93070000  1.0 0.1196616078
H  H90  1  0.78960000  0.35890000  0.18510000  1.0 0.1196616078
H  H91  1  0.71040000  0.89550000  0.56930000  1.0 0.1196616078
H  H92  1  0.67380000  0.60450000  0.31490000  1.0 0.1196616078
H  H93  1  0.14110000  0.93070000  0.82620000  1.0 0.1196616078
H  H94  1  0.35890000  0.18510000  0.78960000  1.0 0.1196616078
H  H95  1  0.89550000  0.56930000  0.71040000  1.0 0.1196616078
H  H96  1  0.60450000  0.31490000  0.67380000  1.0 0.1196616078
H  H97  1  0.30910000  0.31820000  0.61330000  1.0 0.128307063
H  H98  1  0.20490000  0.69580000  0.88670000  1.0 0.128307063
H  H99  1  0.29510000  0.18180000  0.49090000  1.0 0.128307063
H  H100  1  0.19090000  0.80420000  0.00910000  1.0 0.128307063
H  H101  1  0.61330000  0.30910000  0.31820000  1.0 0.128307063
H  H102  1  0.88670000  0.20490000  0.69580000  1.0 0.128307063
H  H103  1  0.49090000  0.29510000  0.18180000  1.0 0.128307063
H  H104  1  0.00910000  0.19090000  0.80420000  1.0 0.128307063
H  H105  1  0.31820000  0.61330000  0.30910000  1.0 0.128307063
H  H106  1  0.69580000  0.88670000  0.20490000  1.0 0.128307063
H  H107  1  0.18180000  0.49090000  0.29510000  1.0 0.128307063
H  H108  1  0.80420000  0.00910000  0.19090000  1.0 0.128307063
H  H109  1  0.81820000  0.80910000  0.11330000  1.0 0.128307063
H  H110  1  0.19580000  0.70490000  0.38670000  1.0 0.128307063
H  H111  1  0.68180000  0.79510000  0.99090000  1.0 0.128307063
H  H112  1  0.30420000  0.69090000  0.50910000  1.0 0.128307063
H  H113  1  0.80910000  0.11330000  0.81820000  1.0 0.128307063
H  H114  1  0.70490000  0.38670000  0.19580000  1.0 0.128307063
H  H115  1  0.79510000  0.99090000  0.68180000  1.0 0.128307063
H  H116  1  0.69090000  0.50910000  0.30420000  1.0 0.128307063
H  H117  1  0.11330000  0.81820000  0.80910000  1.0 0.128307063
H  H118  1  0.38670000  0.19580000  0.70490000  1.0 0.128307063
H  H119  1  0.99090000  0.68180000  0.79510000  1.0 0.128307063
H  H120  1  0.50910000  0.30420000  0.69090000  1.0 0.128307063
H  H121  1  0.34070000  0.29360000  0.69710000  1.0 0.1196616078
H  H122  1  0.09650000  0.64360000  0.80290000  1.0 0.1196616078
H  H123  1  0.40350000  0.20640000  0.54710000  1.0 0.1196616078
H  H124  1  0.15930000  0.85640000  0.95290000  1.0 0.1196616078
H  H125  1  0.69710000  0.34070000  0.29360000  1.0 0.1196616078
H  H126  1  0.80290000  0.09650000  0.64360000  1.0 0.1196616078
H  H127  1  0.54710000  0.40350000  0.20640000  1.0 0.1196616078
H  H128  1  0.95290000  0.15930000  0.85640000  1.0 0.1196616078
H  H129  1  0.29360000  0.69710000  0.34070000  1.0 0.1196616078
H  H130  1  0.64360000  0.80290000  0.09650000  1.0 0.1196616078
H  H131  1  0.20640000  0.54710000  0.40350000  1.0 0.1196616078
H  H132  1  0.85640000  0.95290000  0.15930000  1.0 0.1196616078
H  H133  1  0.79360000  0.84070000  0.19710000  1.0 0.1196616078
H  H134  1  0.14360000  0.59650000  0.30290000  1.0 0.1196616078
H  H135  1  0.70640000  0.90350000  0.04710000  1.0 0.1196616078
H  H136  1  0.35640000  0.65930000  0.45290000  1.0 0.1196616078
H  H137  1  0.84070000  0.19710000  0.79360000  1.0 0.1196616078
H  H138  1  0.59650000  0.30290000  0.14360000  1.0 0.1196616078
H  H139  1  0.90350000  0.04710000  0.70640000  1.0 0.1196616078
H  H140  1  0.65930000  0.45290000  0.35640000  1.0 0.1196616078
H  H141  1  0.19710000  0.79360000  0.84070000  1.0 0.1196616078
H  H142  1  0.30290000  0.14360000  0.59650000  1.0 0.1196616078
H  H143  1  0.04710000  0.70640000  0.90350000  1.0 0.1196616078
H  H144  1  0.45290000  0.35640000  0.65930000  1.0 0.1196616078
H  H145  1  0.39290000  0.37610000  0.80740000  1.0 0.1196616078
H  H146  1  0.06870000  0.58550000  0.69260000  1.0 0.1196616078
H  H147  1  0.43130000  0.12390000  0.51680000  1.0 0.1196616078
H  H148  1  0.10710000  0.91450000  0.98320000  1.0 0.1196616078
H  H149  1  0.80740000  0.39290000  0.37610000  1.0 0.1196616078
H  H150  1  0.69260000  0.06870000  0.58550000  1.0 0.1196616078
H  H151  1  0.51680000  0.43130000  0.12390000  1.0 0.1196616078
H  H152  1  0.98320000  0.10710000  0.91450000  1.0 0.1196616078
H  H153  1  0.37610000  0.80740000  0.39290000  1.0 0.1196616078
H  H154  1  0.58550000  0.69260000  0.06870000  1.0 0.1196616078
H  H155  1  0.12390000  0.51680000  0.43130000  1.0 0.1196616078
H  H156  1  0.91450000  0.98320000  0.10710000  1.0 0.1196616078
H  H157  1  0.87610000  0.89290000  0.30740000  1.0 0.1196616078
H  H158  1  0.08550000  0.56870000  0.19260000  1.0 0.1196616078
H  H159  1  0.62390000  0.93130000  0.01680000  1.0 0.1196616078
H  H160  1  0.41450000  0.60710000  0.48320000  1.0 0.1196616078
H  H161  1  0.89290000  0.30740000  0.87610000  1.0 0.1196616078
H  H162  1  0.56870000  0.19260000  0.08550000  1.0 0.1196616078
H  H163  1  0.93130000  0.01680000  0.62390000  1.0 0.1196616078
H  H164  1  0.60710000  0.48320000  0.41450000  1.0 0.1196616078
H  H165  1  0.30740000  0.87610000  0.89290000  1.0 0.1196616078
H  H166  1  0.19260000  0.08550000  0.56870000  1.0 0.1196616078
H  H167  1  0.01680000  0.62390000  0.93130000  1.0 0.1196616078
H  H168  1  0.48320000  0.41450000  0.60710000  1.0 0.1196616078
H  H169  1  0.38150000  0.55690000  0.97620000  1.0 0.128307063
H  H170  1  0.08070000  0.40530000  0.52380000  1.0 0.128307063
H  H171  1  0.41930000  0.94310000  0.32460000  1.0 0.128307063
H  H172  1  0.11850000  0.09470000  0.17540000  1.0 0.128307063
H  H173  1  0.97620000  0.38150000  0.55690000  1.0 0.128307063
H  H174  1  0.52380000  0.08070000  0.40530000  1.0 0.128307063
H  H175  1  0.32460000  0.41930000  0.94310000  1.0 0.128307063
H  H176  1  0.17540000  0.11850000  0.09470000  1.0 0.128307063
H  H177  1  0.55690000  0.97620000  0.38150000  1.0 0.128307063
H  H178  1  0.40530000  0.52380000  0.08070000  1.0 0.128307063
H  H179  1  0.94310000  0.32460000  0.41930000  1.0 0.128307063
H  H180  1  0.09470000  0.17540000  0.11850000  1.0 0.128307063
H  H181  1  0.05690000  0.88150000  0.47620000  1.0 0.128307063
H  H182  1  0.90530000  0.58070000  0.02380000  1.0 0.128307063
H  H183  1  0.44310000  0.91930000  0.82460000  1.0 0.128307063
H  H184  1  0.59470000  0.61850000  0.67540000  1.0 0.128307063
H  H185  1  0.88150000  0.47620000  0.05690000  1.0 0.128307063
H  H186  1  0.58070000  0.02380000  0.90530000  1.0 0.128307063
H  H187  1  0.91930000  0.82460000  0.44310000  1.0 0.128307063
H  H188  1  0.61850000  0.67540000  0.59470000  1.0 0.128307063
H  H189  1  0.47620000  0.05690000  0.88150000  1.0 0.128307063
H  H190  1  0.02380000  0.90530000  0.58070000  1.0 0.128307063
H  H191  1  0.82460000  0.44310000  0.91930000  1.0 0.128307063
H  H192  1  0.67540000  0.59470000  0.61850000  1.0 0.128307063
H  H193  1  0.45720000  0.59300000  0.99000000  1.0 0.128307063
H  H194  1  0.10300000  0.46720000  0.51000000  1.0 0.128307063
H  H195  1  0.39700000  0.90700000  0.36420000  1.0 0.128307063
H  H196  1  0.04280000  0.03280000  0.13580000  1.0 0.128307063
H  H197  1  0.99000000  0.45720000  0.59300000  1.0 0.128307063
H  H198  1  0.51000000  0.10300000  0.46720000  1.0 0.128307063
H  H199  1  0.36420000  0.39700000  0.90700000  1.0 0.128307063
H  H200  1  0.13580000  0.04280000  0.03280000  1.0 0.128307063
H  H201  1  0.59300000  0.99000000  0.45720000  1.0 0.128307063
H  H202  1  0.46720000  0.51000000  0.10300000  1.0 0.128307063
H  H203  1  0.90700000  0.36420000  0.39700000  1.0 0.128307063
H  H204  1  0.03280000  0.13580000  0.04280000  1.0 0.128307063
H  H205  1  0.09300000  0.95720000  0.49000000  1.0 0.128307063
H  H206  1  0.96720000  0.60300000  0.01000000  1.0 0.128307063
H  H207  1  0.40700000  0.89700000  0.86420000  1.0 0.128307063
H  H208  1  0.53280000  0.54280000  0.63580000  1.0 0.128307063
H  H209  1  0.95720000  0.49000000  0.09300000  1.0 0.128307063
H  H210  1  0.60300000  0.01000000  0.96720000  1.0 0.128307063
H  H211  1  0.89700000  0.86420000  0.40700000  1.0 0.128307063
H  H212  1  0.54280000  0.63580000  0.53280000  1.0 0.128307063
H  H213  1  0.49000000  0.09300000  0.95720000  1.0 0.128307063
H  H214  1  0.01000000  0.96720000  0.60300000  1.0 0.128307063
H  H215  1  0.86420000  0.40700000  0.89700000  1.0 0.128307063
H  H216  1  0.63580000  0.53280000  0.54280000  1.0 0.128307063
H  H217  1  0.48080000  0.69270000  0.94850000  1.0 0.128307063
H  H218  1  0.24420000  0.53230000  0.55150000  1.0 0.128307063
H  H219  1  0.25580000  0.80730000  0.28810000  1.0 0.128307063
H  H220  1  0.01920000  0.96770000  0.21190000  1.0 0.128307063
H  H221  1  0.94850000  0.48080000  0.69270000  1.0 0.128307063
H  H222  1  0.55150000  0.24420000  0.53230000  1.0 0.128307063
H  H223  1  0.28810000  0.25580000  0.80730000  1.0 0.128307063
H  H224  1  0.21190000  0.01920000  0.96770000  1.0 0.128307063
H  H225  1  0.69270000  0.94850000  0.48080000  1.0 0.128307063
H  H226  1  0.53230000  0.55150000  0.24420000  1.0 0.128307063
H  H227  1  0.80730000  0.28810000  0.25580000  1.0 0.128307063
H  H228  1  0.96770000  0.21190000  0.01920000  1.0 0.128307063
H  H229  1  0.19270000  0.98080000  0.44850000  1.0 0.128307063
H  H230  1  0.03230000  0.74420000  0.05150000  1.0 0.128307063
H  H231  1  0.30730000  0.75580000  0.78810000  1.0 0.128307063
H  H232  1  0.46770000  0.51920000  0.71190000  1.0 0.128307063
H  H233  1  0.98080000  0.44850000  0.19270000  1.0 0.128307063
H  H234  1  0.74420000  0.05150000  0.03230000  1.0 0.128307063
H  H235  1  0.75580000  0.78810000  0.30730000  1.0 0.128307063
H  H236  1  0.51920000  0.71190000  0.46770000  1.0 0.128307063
H  H237  1  0.44850000  0.19270000  0.98080000  1.0 0.128307063
H  H238  1  0.05150000  0.03230000  0.74420000  1.0 0.128307063
H  H239  1  0.78810000  0.30730000  0.75580000  1.0 0.128307063
H  H240  1  0.71190000  0.46770000  0.51920000  1.0 0.128307063
H  H241  1  0.45300000  0.78750000  0.98310000  1.0 0.1360735948
H  H242  1  0.30440000  0.46990000  0.51690000  1.0 0.1360735948
H  H243  1  0.19560000  0.71250000  0.16550000  1.0 0.1360735948
H  H244  1  0.04700000  0.03010000  0.33450000  1.0 0.1360735948
H  H245  1  0.98310000  0.45300000  0.78750000  1.0 0.1360735948
H  H246  1  0.51690000  0.30440000  0.46990000  1.0 0.1360735948
H  H247  1  0.16550000  0.19560000  0.71250000  1.0 0.1360735948
H  H248  1  0.33450000  0.04700000  0.03010000  1.0 0.1360735948
H  H249  1  0.78750000  0.98310000  0.45300000  1.0 0.1360735948
H  H250  1  0.46990000  0.51690000  0.30440000  1.0 0.1360735948
H  H251  1  0.71250000  0.16550000  0.19560000  1.0 0.1360735948
H  H252  1  0.03010000  0.33450000  0.04700000  1.0 0.1360735948
H  H253  1  0.28750000  0.95300000  0.48310000  1.0 0.1360735948
H  H254  1  0.96990000  0.80440000  0.01690000  1.0 0.1360735948
H  H255  1  0.21250000  0.69560000  0.66550000  1.0 0.1360735948
H  H256  1  0.53010000  0.54700000  0.83450000  1.0 0.1360735948
H  H257  1  0.95300000  0.48310000  0.28750000  1.0 0.1360735948
H  H258  1  0.80440000  0.01690000  0.96990000  1.0 0.1360735948
H  H259  1  0.69560000  0.66550000  0.21250000  1.0 0.1360735948
H  H260  1  0.54700000  0.83450000  0.53010000  1.0 0.1360735948
H  H261  1  0.48310000  0.28750000  0.95300000  1.0 0.1360735948
H  H262  1  0.01690000  0.96990000  0.80440000  1.0 0.1360735948
H  H263  1  0.66550000  0.21250000  0.69560000  1.0 0.1360735948
H  H264  1  0.83450000  0.53010000  0.54700000  1.0 0.1360735948
H  H265  1  0.34950000  0.74230000  0.99820000  1.0 0.1196616078
H  H266  1  0.24410000  0.35130000  0.50180000  1.0 0.1196616078
H  H267  1  0.25590000  0.75770000  0.10720000  1.0 0.1196616078
H  H268  1  0.15050000  0.14870000  0.39280000  1.0 0.1196616078
H  H269  1  0.99820000  0.34950000  0.74230000  1.0 0.1196616078
H  H270  1  0.50180000  0.24410000  0.35130000  1.0 0.1196616078
H  H271  1  0.10720000  0.25590000  0.75770000  1.0 0.1196616078
H  H272  1  0.39280000  0.15050000  0.14870000  1.0 0.1196616078
H  H273  1  0.74230000  0.99820000  0.34950000  1.0 0.1196616078
H  H274  1  0.35130000  0.50180000  0.24410000  1.0 0.1196616078
H  H275  1  0.75770000  0.10720000  0.25590000  1.0 0.1196616078
H  H276  1  0.14870000  0.39280000  0.15050000  1.0 0.1196616078
H  H277  1  0.24230000  0.84950000  0.49820000  1.0 0.1196616078
H  H278  1  0.85130000  0.74410000  0.00180000  1.0 0.1196616078
H  H279  1  0.25770000  0.75590000  0.60720000  1.0 0.1196616078
H  H280  1  0.64870000  0.65050000  0.89280000  1.0 0.1196616078
H  H281  1  0.84950000  0.49820000  0.24230000  1.0 0.1196616078
H  H282  1  0.74410000  0.00180000  0.85130000  1.0 0.1196616078
H  H283  1  0.75590000  0.60720000  0.25770000  1.0 0.1196616078
H  H284  1  0.65050000  0.89280000  0.64870000  1.0 0.1196616078
H  H285  1  0.49820000  0.24230000  0.84950000  1.0 0.1196616078
H  H286  1  0.00180000  0.85130000  0.74410000  1.0 0.1196616078
H  H287  1  0.60720000  0.25770000  0.75590000  1.0 0.1196616078
H  H288  1  0.89280000  0.64870000  0.65050000  1.0 0.1196616078
C  C1  1  0.37500000  0.62500000  0.75000000  1.0 0.1113047654
C  C2  1  0.12500000  0.87500000  0.25000000  1.0 0.1113047654
C  C3  1  0.75000000  0.37500000  0.62500000  1.0 0.1113047654
C  C4  1  0.25000000  0.12500000  0.87500000  1.0 0.1113047654
C  C5  1  0.62500000  0.75000000  0.37500000  1.0 0.1113047654
C  C6  1  0.87500000  0.25000000  0.12500000  1.0 0.1113047654
C  C7  1  0.34820000  0.54570000  0.70950000  1.0 -0.091942115
C  C8  1  0.33620000  0.63870000  0.79050000  1.0 -0.091942115
C  C9  1  0.16380000  0.95430000  0.30250000  1.0 -0.091942115
C  C10  1  0.15180000  0.86130000  0.19750000  1.0 -0.091942115
C  C11  1  0.70950000  0.34820000  0.54570000  1.0 -0.091942115
C  C12  1  0.79050000  0.33620000  0.63870000  1.0 -0.091942115
C  C13  1  0.30250000  0.16380000  0.95430000  1.0 -0.091942115
C  C14  1  0.19750000  0.15180000  0.86130000  1.0 -0.091942115
C  C15  1  0.54570000  0.70950000  0.34820000  1.0 -0.091942115
C  C16  1  0.63870000  0.79050000  0.33620000  1.0 -0.091942115
C  C17  1  0.95430000  0.30250000  0.16380000  1.0 -0.091942115
C  C18  1  0.86130000  0.19750000  0.15180000  1.0 -0.091942115
C  C19  1  0.04570000  0.84820000  0.20950000  1.0 -0.091942115
C  C20  1  0.13870000  0.83620000  0.29050000  1.0 -0.091942115
C  C21  1  0.45430000  0.66380000  0.80250000  1.0 -0.091942115
C  C22  1  0.36130000  0.65180000  0.69750000  1.0 -0.091942115
C  C23  1  0.84820000  0.20950000  0.04570000  1.0 -0.091942115
C  C24  1  0.83620000  0.29050000  0.13870000  1.0 -0.091942115
C  C25  1  0.66380000  0.80250000  0.45430000  1.0 -0.091942115
C  C26  1  0.65180000  0.69750000  0.36130000  1.0 -0.091942115
C  C27  1  0.20950000  0.04570000  0.84820000  1.0 -0.091942115
C  C28  1  0.29050000  0.13870000  0.83620000  1.0 -0.091942115
C  C29  1  0.80250000  0.45430000  0.66380000  1.0 -0.091942115
C  C30  1  0.69750000  0.36130000  0.65180000  1.0 -0.091942115
C  C31  1  0.35720000  0.46220000  0.74180000  1.0 0.2081622013
C  C32  1  0.22040000  0.61540000  0.75820000  1.0 0.2081622013
C  C33  1  0.27960000  0.03780000  0.39500000  1.0 0.2081622013
C  C34  1  0.14280000  0.88460000  0.10500000  1.0 0.2081622013
C  C35  1  0.74180000  0.35720000  0.46220000  1.0 0.2081622013
C  C36  1  0.75820000  0.22040000  0.61540000  1.0 0.2081622013
C  C37  1  0.39500000  0.27960000  0.03780000  1.0 0.2081622013
C  C38  1  0.10500000  0.14280000  0.88460000  1.0 0.2081622013
C  C39  1  0.46220000  0.74180000  0.35720000  1.0 0.2081622013
C  C40  1  0.61540000  0.75820000  0.22040000  1.0 0.2081622013
C  C41  1  0.03780000  0.39500000  0.27960000  1.0 0.2081622013
C  C42  1  0.88460000  0.10500000  0.14280000  1.0 0.2081622013
C  C43  1  0.96220000  0.85720000  0.24180000  1.0 0.2081622013
C  C44  1  0.11540000  0.72040000  0.25820000  1.0 0.2081622013
C  C45  1  0.53780000  0.77960000  0.89500000  1.0 0.2081622013
C  C46  1  0.38460000  0.64280000  0.60500000  1.0 0.2081622013
C  C47  1  0.85720000  0.24180000  0.96220000  1.0 0.2081622013
C  C48  1  0.72040000  0.25820000  0.11540000  1.0 0.2081622013
C  C49  1  0.77960000  0.89500000  0.53780000  1.0 0.2081622013
C  C50  1  0.64280000  0.60500000  0.38460000  1.0 0.2081622013
C  C51  1  0.24180000  0.96220000  0.85720000  1.0 0.2081622013
C  C52  1  0.25820000  0.11540000  0.72040000  1.0 0.2081622013
C  C53  1  0.89500000  0.53780000  0.77960000  1.0 0.2081622013
C  C54  1  0.60500000  0.38460000  0.64280000  1.0 0.2081622013
C  C55  1  0.33550000  0.41800000  0.67450000  1.0 -0.2453164106
C  C56  1  0.24350000  0.66100000  0.82550000  1.0 -0.2453164106
C  C57  1  0.25650000  0.08200000  0.41750000  1.0 -0.2448930388
C  C58  1  0.16450000  0.83900000  0.08250000  1.0 -0.2453164106
C  C59  1  0.67450000  0.33550000  0.41800000  1.0 -0.2448930388
C  C60  1  0.82550000  0.24350000  0.66100000  1.0 -0.2448930388
C  C61  1  0.41750000  0.25650000  0.08200000  1.0 -0.2448930388
C  C62  1  0.08250000  0.16450000  0.83900000  1.0 -0.2453164106
C  C63  1  0.41800000  0.67450000  0.33550000  1.0 -0.2453164106
C  C64  1  0.66100000  0.82550000  0.24350000  1.0 -0.2453164106
C  C65  1  0.08200000  0.41750000  0.25650000  1.0 -0.2448930388
C  C66  1  0.83900000  0.08250000  0.16450000  1.0 -0.2448930388
C  C67  1  0.91800000  0.83550000  0.17450000  1.0 -0.2448930388
C  C68  1  0.16100000  0.74350000  0.32550000  1.0 -0.2453164106
C  C69  1  0.58200000  0.75650000  0.91750000  1.0 -0.2448930388
C  C70  1  0.33900000  0.66450000  0.58250000  1.0 -0.2448930388
C  C71  1  0.83550000  0.17450000  0.91800000  1.0 -0.2453164106
C  C72  1  0.74350000  0.32550000  0.16100000  1.0 -0.2448930388
C  C73  1  0.75650000  0.91750000  0.58200000  1.0 -0.2448930388
C  C74  1  0.66450000  0.58250000  0.33900000  1.0 -0.2453164106
C  C75  1  0.17450000  0.91800000  0.83550000  1.0 -0.2448930388
C  C76  1  0.32550000  0.16100000  0.74350000  1.0 -0.2448930388
C  C77  1  0.91750000  0.58200000  0.75650000  1.0 -0.2453164106
C  C78  1  0.58250000  0.33900000  0.66450000  1.0 -0.2453164106
C  C79  1  0.32790000  0.35130000  0.65860000  1.0 -0.0581588787
C  C80  1  0.19270000  0.66930000  0.84140000  1.0 -0.0581588787
C  C81  1  0.30730000  0.14870000  0.47660000  1.0 -0.0581588787
C  C82  1  0.17210000  0.83070000  0.02340000  1.0 -0.0581588787
C  C83  1  0.65860000  0.32790000  0.35130000  1.0 -0.0581588787
C  C84  1  0.84140000  0.19270000  0.66930000  1.0 -0.0581588787
C  C85  1  0.47660000  0.30730000  0.14870000  1.0 -0.0581588787
C  C86  1  0.02340000  0.17210000  0.83070000  1.0 -0.0581588787
C  C87  1  0.35130000  0.65860000  0.32790000  1.0 -0.0581588787
C  C88  1  0.66930000  0.84140000  0.19270000  1.0 -0.0581588787
C  C89  1  0.14870000  0.47660000  0.30730000  1.0 -0.0581588787
C  C90  1  0.83070000  0.02340000  0.17210000  1.0 -0.0581588787
C  C91  1  0.85130000  0.82790000  0.15860000  1.0 -0.0581588787
C  C92  1  0.16930000  0.69270000  0.34140000  1.0 -0.0581588787
C  C93  1  0.64870000  0.80730000  0.97660000  1.0 -0.0581588787
C  C94  1  0.33070000  0.67210000  0.52340000  1.0 -0.0581588787
C  C95  1  0.82790000  0.15860000  0.85130000  1.0 -0.0581588787
C  C96  1  0.69270000  0.34140000  0.16930000  1.0 -0.0581588787
C  C97  1  0.80730000  0.97660000  0.64870000  1.0 -0.0581588787
C  C98  1  0.67210000  0.52340000  0.33070000  1.0 -0.0581588787
C  C99  1  0.15860000  0.85130000  0.82790000  1.0 -0.0581588787
C  C100  1  0.34140000  0.16930000  0.69270000  1.0 -0.0581588787
C  C101  1  0.97660000  0.64870000  0.80730000  1.0 -0.0581588787
C  C102  1  0.52340000  0.33070000  0.67210000  1.0 -0.0581588787
C  C103  1  0.34710000  0.33720000  0.70730000  1.0 -0.1133907529
C  C104  1  0.12990000  0.63980000  0.79270000  1.0 -0.1133907529
C  C105  1  0.37010000  0.16280000  0.50990000  1.0 -0.1133907529
C  C106  1  0.15290000  0.86020000  0.99010000  1.0 -0.1133907529
C  C107  1  0.70730000  0.34710000  0.33720000  1.0 -0.1133907529
C  C108  1  0.79270000  0.12990000  0.63980000  1.0 -0.1133907529
C  C109  1  0.50990000  0.37010000  0.16280000  1.0 -0.1133907529
C  C110  1  0.99010000  0.15290000  0.86020000  1.0 -0.1133907529
C  C111  1  0.33720000  0.70730000  0.34710000  1.0 -0.1133907529
C  C112  1  0.63980000  0.79270000  0.12990000  1.0 -0.1133907529
C  C113  1  0.16280000  0.50990000  0.37010000  1.0 -0.1133907529
C  C114  1  0.86020000  0.99010000  0.15290000  1.0 -0.1133907529
C  C115  1  0.83720000  0.84710000  0.20730000  1.0 -0.1133907529
C  C116  1  0.13980000  0.62990000  0.29270000  1.0 -0.1133907529
C  C117  1  0.66280000  0.87010000  0.00990000  1.0 -0.1133907529
C  C118  1  0.36020000  0.65290000  0.49010000  1.0 -0.1133907529
C  C119  1  0.84710000  0.20730000  0.83720000  1.0 -0.1133907529
C  C120  1  0.62990000  0.29270000  0.13980000  1.0 -0.1133907529
C  C121  1  0.87010000  0.00990000  0.66280000  1.0 -0.1133907529
C  C122  1  0.65290000  0.49010000  0.36020000  1.0 -0.1133907529
C  C123  1  0.20730000  0.83720000  0.84710000  1.0 -0.1133907529
C  C124  1  0.29270000  0.13980000  0.62990000  1.0 -0.1133907529
C  C125  1  0.00990000  0.66280000  0.87010000  1.0 -0.1133907529
C  C126  1  0.49010000  0.36020000  0.65290000  1.0 -0.1133907529
C  C127  1  0.37710000  0.38730000  0.77380000  1.0 -0.091942115
C  C128  1  0.11350000  0.60330000  0.72620000  1.0 -0.091942115
C  C129  1  0.38650000  0.11270000  0.48980000  1.0 -0.091942115
C  C130  1  0.12290000  0.89670000  0.01020000  1.0 -0.091942115
C  C131  1  0.77380000  0.37710000  0.38730000  1.0 -0.0952217823
C  C132  1  0.72620000  0.11350000  0.60330000  1.0 -0.0952217823
C  C133  1  0.48980000  0.38650000  0.11270000  1.0 -0.0952217823
C  C134  1  0.01020000  0.12290000  0.89670000  1.0 -0.091942115
C  C135  1  0.38730000  0.77380000  0.37710000  1.0 -0.091942115
C  C136  1  0.60330000  0.72620000  0.11350000  1.0 -0.091942115
C  C137  1  0.11270000  0.48980000  0.38650000  1.0 -0.091942115
C  C138  1  0.89670000  0.01020000  0.12290000  1.0 -0.091942115
C  C139  1  0.88730000  0.87710000  0.27380000  1.0 -0.091942115
C  C140  1  0.10330000  0.61350000  0.22620000  1.0 -0.091942115
C  C141  1  0.61270000  0.88650000  0.98980000  1.0 -0.0952217823
C  C142  1  0.39670000  0.62290000  0.51020000  1.0 -0.091942115
C  C143  1  0.87710000  0.27380000  0.88730000  1.0 -0.091942115
C  C144  1  0.61350000  0.22620000  0.10330000  1.0 -0.091942115
C  C145  1  0.88650000  0.98980000  0.61270000  1.0 -0.091942115
C  C146  1  0.62290000  0.51020000  0.39670000  1.0 -0.091942115
C  C147  1  0.27380000  0.88730000  0.87710000  1.0 -0.091942115
C  C148  1  0.22620000  0.10330000  0.61350000  1.0 -0.091942115
C  C149  1  0.98980000  0.61270000  0.88650000  1.0 -0.0952217823
C  C150  1  0.51020000  0.39670000  0.62290000  1.0 -0.091942115
C  C151  1  0.38630000  0.45110000  0.79620000  1.0 -0.1172818962
C  C152  1  0.15490000  0.59010000  0.70380000  1.0 -0.1172818962
C  C153  1  0.34510000  0.04890000  0.43520000  1.0 -0.1172818962
C  C154  1  0.11370000  0.90990000  0.06480000  1.0 -0.1172818962
C  C155  1  0.79620000  0.38630000  0.45110000  1.0 -0.1172818962
C  C156  1  0.70380000  0.15490000  0.59010000  1.0 -0.1172818962
C  C157  1  0.43520000  0.34510000  0.04890000  1.0 -0.1172818962
C  C158  1  0.06480000  0.11370000  0.90990000  1.0 -0.1172818962
C  C159  1  0.45110000  0.79620000  0.38630000  1.0 -0.1172818962
C  C160  1  0.59010000  0.70380000  0.15490000  1.0 -0.1172818962
C  C161  1  0.04890000  0.43520000  0.34510000  1.0 -0.1172818962
C  C162  1  0.90990000  0.06480000  0.11370000  1.0 -0.1172818962
C  C163  1  0.95110000  0.88630000  0.29620000  1.0 -0.1172818962
C  C164  1  0.09010000  0.65490000  0.20380000  1.0 -0.1172818962
C  C165  1  0.54890000  0.84510000  0.93520000  1.0 -0.1172818962
C  C166  1  0.40990000  0.61370000  0.56480000  1.0 -0.1172818962
C  C167  1  0.88630000  0.29620000  0.95110000  1.0 -0.1172818962
C  C168  1  0.65490000  0.20380000  0.09010000  1.0 -0.1172818962
C  C169  1  0.84510000  0.93520000  0.54890000  1.0 -0.1172818962
C  C170  1  0.61370000  0.56480000  0.40990000  1.0 -0.1172818962
C  C171  1  0.29620000  0.95110000  0.88630000  1.0 -0.1172818962
C  C172  1  0.20380000  0.09010000  0.65490000  1.0 -0.1172818962
C  C173  1  0.93520000  0.54890000  0.84510000  1.0 -0.1172818962
C  C174  1  0.56480000  0.40990000  0.61370000  1.0 -0.1172818962
C  C175  1  0.41300000  0.49850000  0.87310000  1.0 0.4897413693
C  C176  1  0.12540000  0.53990000  0.62690000  1.0 0.4897413693
C  C177  1  0.37460000  0.00150000  0.41450000  1.0 0.4897413693
C  C178  1  0.08700000  0.96010000  0.08550000  1.0 0.4897413693
C  C179  1  0.87310000  0.41300000  0.49850000  1.0 0.4897413693
C  C180  1  0.62690000  0.12540000  0.53990000  1.0 0.4897413693
C  C181  1  0.41450000  0.37460000  0.00150000  1.0 0.4897413693
C  C182  1  0.08550000  0.08700000  0.96010000  1.0 0.4897413693
C  C183  1  0.49850000  0.87310000  0.41300000  1.0 0.4897413693
C  C184  1  0.53990000  0.62690000  0.12540000  1.0 0.4897413693
C  C185  1  0.00150000  0.41450000  0.37460000  1.0 0.4897413693
C  C186  1  0.96010000  0.08550000  0.08700000  1.0 0.4897413693
C  C187  1  0.99850000  0.91300000  0.37310000  1.0 0.4897413693
C  C188  1  0.03990000  0.62540000  0.12690000  1.0 0.4897413693
C  C189  1  0.50150000  0.87460000  0.91450000  1.0 0.4897413693
C  C190  1  0.46010000  0.58700000  0.58550000  1.0 0.4897413693
C  C191  1  0.91300000  0.37310000  0.99850000  1.0 0.4897413693
C  C192  1  0.62540000  0.12690000  0.03990000  1.0 0.4897413693
C  C193  1  0.87460000  0.91450000  0.50150000  1.0 0.4897413693
C  C194  1  0.58700000  0.58550000  0.46010000  1.0 0.4897413693
C  C195  1  0.37310000  0.99850000  0.91300000  1.0 0.4897413693
C  C196  1  0.12690000  0.03990000  0.62540000  1.0 0.4897413693
C  C197  1  0.91450000  0.50150000  0.87460000  1.0 0.4897413693
C  C198  1  0.58550000  0.46010000  0.58700000  1.0 0.4897413693
C  C199  1  0.41030000  0.58070000  0.96160000  1.0 -0.1594015899
C  C200  1  0.11910000  0.44870000  0.53840000  1.0 -0.1594015899
C  C201  1  0.38090000  0.91930000  0.32960000  1.0 -0.1594015899
C  C202  1  0.08970000  0.05130000  0.17040000  1.0 -0.1594015899
C  C203  1  0.96160000  0.41030000  0.58070000  1.0 -0.1594015899
C  C204  1  0.53840000  0.11910000  0.44870000  1.0 -0.1594015899
C  C205  1  0.32960000  0.38090000  0.91930000  1.0 -0.1594015899
C  C206  1  0.17040000  0.08970000  0.05130000  1.0 -0.1594015899
C  C207  1  0.58070000  0.96160000  0.41030000  1.0 -0.1594015899
C  C208  1  0.44870000  0.53840000  0.11910000  1.0 -0.1594015899
C  C209  1  0.91930000  0.32960000  0.38090000  1.0 -0.1594015899
C  C210  1  0.05130000  0.17040000  0.08970000  1.0 -0.1594015899
C  C211  1  0.08070000  0.91030000  0.46160000  1.0 -0.1594015899
C  C212  1  0.94870000  0.61910000  0.03840000  1.0 -0.1594015899
C  C213  1  0.41930000  0.88090000  0.82960000  1.0 -0.1594015899
C  C214  1  0.55130000  0.58970000  0.67040000  1.0 -0.1594015899
C  C215  1  0.91030000  0.46160000  0.08070000  1.0 -0.1594015899
C  C216  1  0.61910000  0.03840000  0.94870000  1.0 -0.1594015899
C  C217  1  0.88090000  0.82960000  0.41930000  1.0 -0.1594015899
C  C218  1  0.58970000  0.67040000  0.55130000  1.0 -0.1594015899
C  C219  1  0.46160000  0.08070000  0.91030000  1.0 -0.1594015899
C  C220  1  0.03840000  0.94870000  0.61910000  1.0 -0.1594015899
C  C221  1  0.82960000  0.41930000  0.88090000  1.0 -0.1594015899
C  C222  1  0.67040000  0.55130000  0.58970000  1.0 -0.1594015899
C  C223  1  0.40630000  0.63740000  0.96710000  1.0 0.1686273197
C  C224  1  0.17030000  0.43920000  0.53290000  1.0 0.1686273197
C  C225  1  0.32970000  0.86260000  0.26890000  1.0 0.1686273197
C  C226  1  0.09370000  0.06080000  0.23110000  1.0 0.1686273197
C  C227  1  0.96710000  0.40630000  0.63740000  1.0 0.1686273197
C  C228  1  0.53290000  0.17030000  0.43920000  1.0 0.1686273197
C  C229  1  0.26890000  0.32970000  0.86260000  1.0 0.1686273197
C  C230  1  0.23110000  0.09370000  0.06080000  1.0 0.1686273197
C  C231  1  0.63740000  0.96710000  0.40630000  1.0 0.1686273197
C  C232  1  0.43920000  0.53290000  0.17030000  1.0 0.1686273197
C  C233  1  0.86260000  0.26890000  0.32970000  1.0 0.1686273197
C  C234  1  0.06080000  0.23110000  0.09370000  1.0 0.1686273197
C  C235  1  0.13740000  0.90630000  0.46710000  1.0 0.1686273197
C  C236  1  0.93920000  0.67030000  0.03290000  1.0 0.1686273197
C  C237  1  0.36260000  0.82970000  0.76890000  1.0 0.1686273197
C  C238  1  0.56080000  0.59370000  0.73110000  1.0 0.1686273197
C  C239  1  0.90630000  0.46710000  0.13740000  1.0 0.1686273197
C  C240  1  0.67030000  0.03290000  0.93920000  1.0 0.1686273197
C  C241  1  0.82970000  0.76890000  0.36260000  1.0 0.1686273197
C  C242  1  0.59370000  0.73110000  0.56080000  1.0 0.1686273197
C  C243  1  0.46710000  0.13740000  0.90630000  1.0 0.1686273197
C  C244  1  0.03290000  0.93920000  0.67030000  1.0 0.1686273197
C  C245  1  0.76890000  0.36260000  0.82970000  1.0 0.1686273197
C  C246  1  0.73110000  0.56080000  0.59370000  1.0 0.1686273197
C  C247  1  0.44790000  0.69180000  0.96150000  1.0 -0.2315930266
C  C248  1  0.23030000  0.48640000  0.53850000  1.0 -0.2315930266
C  C249  1  0.26970000  0.80820000  0.25610000  1.0 -0.2315930266
C  C250  1  0.05210000  0.01360000  0.24390000  1.0 -0.2315930266
C  C251  1  0.96150000  0.44790000  0.69180000  1.0 -0.2315930266
C  C252  1  0.53850000  0.23030000  0.48640000  1.0 -0.2315930266
C  C253  1  0.25610000  0.26970000  0.80820000  1.0 -0.2315930266
C  C254  1  0.24390000  0.05210000  0.01360000  1.0 -0.2315930266
C  C255  1  0.69180000  0.96150000  0.44790000  1.0 -0.2315930266
C  C256  1  0.48640000  0.53850000  0.23030000  1.0 -0.2315930266
C  C257  1  0.80820000  0.25610000  0.26970000  1.0 -0.2315930266
C  C258  1  0.01360000  0.24390000  0.05210000  1.0 -0.2315930266
C  C259  1  0.19180000  0.94790000  0.46150000  1.0 -0.2315930266
C  C260  1  0.98640000  0.73030000  0.03850000  1.0 -0.2315930266
C  C261  1  0.30820000  0.76970000  0.75610000  1.0 -0.2315930266
C  C262  1  0.51360000  0.55210000  0.74390000  1.0 -0.2315930266
C  C263  1  0.94790000  0.46150000  0.19180000  1.0 -0.2315930266
C  C264  1  0.73030000  0.03850000  0.98640000  1.0 -0.2315930266
C  C265  1  0.76970000  0.75610000  0.30820000  1.0 -0.2315930266
C  C266  1  0.55210000  0.74390000  0.51360000  1.0 -0.2315930266
C  C267  1  0.46150000  0.19180000  0.94790000  1.0 -0.2315930266
C  C268  1  0.03850000  0.98640000  0.73030000  1.0 -0.2315930266
C  C269  1  0.75610000  0.30820000  0.76970000  1.0 -0.2315930266
C  C270  1  0.74390000  0.51360000  0.55210000  1.0 -0.2315930266
C  C271  1  0.43100000  0.74480000  0.97900000  1.0 -0.1594015899
C  C272  1  0.26580000  0.45200000  0.52100000  1.0 -0.1594015899
C  C273  1  0.23420000  0.75520000  0.18620000  1.0 -0.1594015899
C  C274  1  0.06900000  0.04800000  0.31380000  1.0 -0.1594015899
C  C275  1  0.97900000  0.43100000  0.74480000  1.0 -0.1594015899
C  C276  1  0.52100000  0.26580000  0.45200000  1.0 -0.1594015899
C  C277  1  0.18620000  0.23420000  0.75520000  1.0 -0.1594015899
C  C278  1  0.31380000  0.06900000  0.04800000  1.0 -0.1594015899
C  C279  1  0.74480000  0.97900000  0.43100000  1.0 -0.1594015899
C  C280  1  0.45200000  0.52100000  0.26580000  1.0 -0.1594015899
C  C281  1  0.75520000  0.18620000  0.23420000  1.0 -0.1594015899
C  C282  1  0.04800000  0.31380000  0.06900000  1.0 -0.1594015899
C  C283  1  0.24480000  0.93100000  0.47900000  1.0 -0.1594015899
C  C284  1  0.95200000  0.76580000  0.02100000  1.0 -0.1594015899
C  C285  1  0.25520000  0.73420000  0.68620000  1.0 -0.1594015899
C  C286  1  0.54800000  0.56900000  0.81380000  1.0 -0.1594015899
C  C287  1  0.93100000  0.47900000  0.24480000  1.0 -0.1594015899
C  C288  1  0.76580000  0.02100000  0.95200000  1.0 -0.1594015899
C  C289  1  0.73420000  0.68620000  0.25520000  1.0 -0.1594015899
C  C290  1  0.56900000  0.81380000  0.54800000  1.0 -0.1594015899
C  C291  1  0.47900000  0.24480000  0.93100000  1.0 -0.1594015899
C  C292  1  0.02100000  0.95200000  0.76580000  1.0 -0.1594015899
C  C293  1  0.68620000  0.25520000  0.73420000  1.0 -0.1594015899
C  C294  1  0.81380000  0.54800000  0.56900000  1.0 -0.1594015899
C  C295  1  0.37330000  0.71970000  0.98920000  1.0 0.0644078588
C  C296  1  0.23050000  0.38410000  0.51080000  1.0 0.0654444264
C  C297  1  0.26950000  0.78030000  0.15360000  1.0 0.0644078588
C  C298  1  0.12670000  0.11590000  0.34640000  1.0 0.0654444264
C  C299  1  0.98920000  0.37330000  0.71970000  1.0 0.0654444264
C  C300  1  0.51080000  0.23050000  0.38410000  1.0 0.0654444264
C  C301  1  0.15360000  0.26950000  0.78030000  1.0 0.0654444264
C  C302  1  0.34640000  0.12670000  0.11590000  1.0 0.0654444264
C  C303  1  0.71970000  0.98920000  0.37330000  1.0 0.0654444264
C  C304  1  0.38410000  0.51080000  0.23050000  1.0 0.0644078588
C  C305  1  0.78030000  0.15360000  0.26950000  1.0 0.0654444264
C  C306  1  0.11590000  0.34640000  0.12670000  1.0 0.0654444264
C  C307  1  0.21970000  0.87330000  0.48920000  1.0 0.0644078588
C  C308  1  0.88410000  0.73050000  0.01080000  1.0 0.0654444264
C  C309  1  0.28030000  0.76950000  0.65360000  1.0 0.0644078588
C  C310  1  0.61590000  0.62670000  0.84640000  1.0 0.0654444264
C  C311  1  0.87330000  0.48920000  0.21970000  1.0 0.0654444264
C  C312  1  0.73050000  0.01080000  0.88410000  1.0 0.0654444264
C  C313  1  0.76950000  0.65360000  0.28030000  1.0 0.0654444264
C  C314  1  0.62670000  0.84640000  0.61590000  1.0 0.0644078588
C  C315  1  0.48920000  0.21970000  0.87330000  1.0 0.0654444264
C  C316  1  0.01080000  0.88410000  0.73050000  1.0 0.0644078588
C  C317  1  0.65360000  0.28030000  0.76950000  1.0 0.0654444264
C  C318  1  0.84640000  0.61590000  0.62670000  1.0 0.0644078588
N  N1  1  0.38530000  0.53570000  0.88700000  1.0 -0.3002515629
N  N2  1  0.14870000  0.49830000  0.61300000  1.0 -0.3002515629
N  N3  1  0.35130000  0.96430000  0.34960000  1.0 -0.3002515629
N  N4  1  0.11470000  0.00170000  0.15040000  1.0 -0.3002515629
N  N5  1  0.88700000  0.38530000  0.53570000  1.0 -0.3002515629
N  N6  1  0.61300000  0.14870000  0.49830000  1.0 -0.3002515629
N  N7  1  0.34960000  0.35130000  0.96430000  1.0 -0.3002515629
N  N8  1  0.15040000  0.11470000  0.00170000  1.0 -0.3002515629
N  N9  1  0.53570000  0.88700000  0.38530000  1.0 -0.3002515629
N  N10  1  0.49830000  0.61300000  0.14870000  1.0 -0.3002515629
N  N11  1  0.96430000  0.34960000  0.35130000  1.0 -0.3002515629
N  N12  1  0.00170000  0.15040000  0.11470000  1.0 -0.3002515629
N  N13  1  0.03570000  0.88530000  0.38700000  1.0 -0.3002515629
N  N14  1  0.99830000  0.64870000  0.11300000  1.0 -0.3002515629
N  N15  1  0.46430000  0.85130000  0.84960000  1.0 -0.3002515629
N  N16  1  0.50170000  0.61470000  0.65040000  1.0 -0.3002515629
N  N17  1  0.88530000  0.38700000  0.03570000  1.0 -0.3002515629
N  N18  1  0.64870000  0.11300000  0.99830000  1.0 -0.3002515629
N  N19  1  0.85130000  0.84960000  0.46430000  1.0 -0.3002515629
N  N20  1  0.61470000  0.65040000  0.50170000  1.0 -0.3002515629
N  N21  1  0.38700000  0.03570000  0.88530000  1.0 -0.3002515629
N  N22  1  0.11300000  0.99830000  0.64870000  1.0 -0.3002515629
N  N23  1  0.84960000  0.46430000  0.85130000  1.0 -0.3002515629
N  N24  1  0.65040000  0.50170000  0.61470000  1.0 -0.3002515629
N  N25  1  0.65260000  0.61670000  0.01430000  1.0 0.7233867848
N  N26  1  0.10240000  0.63830000  0.48570000  1.0 0.7233867848
N  N27  1  0.39760000  0.88330000  0.53590000  1.0 0.7233867848
N  N28  1  0.84740000  0.86170000  0.96410000  1.0 0.7233867848
N  N29  1  0.01430000  0.65260000  0.61670000  1.0 0.7233867848
N  N30  1  0.48570000  0.10240000  0.63830000  1.0 0.7233867848
N  N31  1  0.53590000  0.39760000  0.88330000  1.0 0.7233867848
N  N32  1  0.96410000  0.84740000  0.86170000  1.0 0.7233867848
N  N33  1  0.61670000  0.01430000  0.65260000  1.0 0.7233867848
N  N34  1  0.63830000  0.48570000  0.10240000  1.0 0.7233867848
N  N35  1  0.88330000  0.53590000  0.39760000  1.0 0.7233867848
N  N36  1  0.86170000  0.96410000  0.84740000  1.0 0.7233867848
N  N37  1  0.11670000  0.15260000  0.51430000  1.0 0.7233867848
N  N38  1  0.13830000  0.60240000  0.98570000  1.0 0.7233867848
N  N39  1  0.38330000  0.89760000  0.03590000  1.0 0.7233867848
N  N40  1  0.36170000  0.34740000  0.46410000  1.0 0.7233867848
N  N41  1  0.15260000  0.51430000  0.11670000  1.0 0.7233867848
N  N42  1  0.60240000  0.98570000  0.13830000  1.0 0.7233867848
N  N43  1  0.89760000  0.03590000  0.38330000  1.0 0.7233867848
N  N44  1  0.34740000  0.46410000  0.36170000  1.0 0.7233867848
N  N45  1  0.51430000  0.11670000  0.15260000  1.0 0.7233867848
N  N46  1  0.98570000  0.13830000  0.60240000  1.0 0.7233867848
N  N47  1  0.03590000  0.38330000  0.89760000  1.0 0.7233867848
N  N48  1  0.46410000  0.36170000  0.34740000  1.0 0.7233867848
O  O1  1  0.45460000  0.49520000  0.91720000  1.0 -0.5904155618
O  O2  1  0.07800000  0.53740000  0.58280000  1.0 -0.5904155618
O  O3  1  0.42200000  0.00480000  0.45940000  1.0 -0.5904155618
O  O4  1  0.04540000  0.96260000  0.04060000  1.0 -0.5904155618
O  O5  1  0.91720000  0.45460000  0.49520000  1.0 -0.5904155618
O  O6  1  0.58280000  0.07800000  0.53740000  1.0 -0.5904155618
O  O7  1  0.45940000  0.42200000  0.00480000  1.0 -0.5904155618
O  O8  1  0.04060000  0.04540000  0.96260000  1.0 -0.5904155618
O  O9  1  0.49520000  0.91720000  0.45460000  1.0 -0.5904155618
O  O10  1  0.53740000  0.58280000  0.07800000  1.0 -0.5904155618
O  O11  1  0.00480000  0.45940000  0.42200000  1.0 -0.5904155618
O  O12  1  0.96260000  0.04060000  0.04540000  1.0 -0.5904155618
O  O13  1  0.99520000  0.95460000  0.41720000  1.0 -0.5904155618
O  O14  1  0.03740000  0.57800000  0.08280000  1.0 -0.5904155618
O  O15  1  0.50480000  0.92200000  0.95940000  1.0 -0.5904155618
O  O16  1  0.46260000  0.54540000  0.54060000  1.0 -0.5904155618
O  O17  1  0.95460000  0.41720000  0.99520000  1.0 -0.5904155618
O  O18  1  0.57800000  0.08280000  0.03740000  1.0 -0.5904155618
O  O19  1  0.92200000  0.95940000  0.50480000  1.0 -0.5904155618
O  O20  1  0.54540000  0.54060000  0.46260000  1.0 -0.5904155618
O  O21  1  0.41720000  0.99520000  0.95460000  1.0 -0.5904155618
O  O22  1  0.08280000  0.03740000  0.57800000  1.0 -0.5904155618
O  O23  1  0.95940000  0.50480000  0.92200000  1.0 -0.5904155618
O  O24  1  0.54060000  0.46260000  0.54540000  1.0 -0.5904155618
O  O25  1  0.35930000  0.65440000  0.98330000  1.0 -0.1343603304
O  O26  1  0.17110000  0.37600000  0.51670000  1.0 -0.1343603304
O  O27  1  0.32890000  0.84560000  0.20490000  1.0 -0.1343603304
O  O28  1  0.14070000  0.12400000  0.29510000  1.0 -0.1343603304
O  O29  1  0.98330000  0.35930000  0.65440000  1.0 -0.1343603304
O  O30  1  0.51670000  0.17110000  0.37600000  1.0 -0.1343603304
O  O31  1  0.20490000  0.32890000  0.84560000  1.0 -0.1343603304
O  O32  1  0.29510000  0.14070000  0.12400000  1.0 -0.1343603304
O  O33  1  0.65440000  0.98330000  0.35930000  1.0 -0.1343603304
O  O34  1  0.37600000  0.51670000  0.17110000  1.0 -0.1343603304
O  O35  1  0.84560000  0.20490000  0.32890000  1.0 -0.1343603304
O  O36  1  0.12400000  0.29510000  0.14070000  1.0 -0.1343603304
O  O37  1  0.15440000  0.85930000  0.48330000  1.0 -0.1343603304
O  O38  1  0.87600000  0.67110000  0.01670000  1.0 -0.1343603304
O  O39  1  0.34560000  0.82890000  0.70490000  1.0 -0.1343603304
O  O40  1  0.62400000  0.64070000  0.79510000  1.0 -0.1343603304
O  O41  1  0.85930000  0.48330000  0.15440000  1.0 -0.1343603304
O  O42  1  0.67110000  0.01670000  0.87600000  1.0 -0.1343603304
O  O43  1  0.82890000  0.70490000  0.34560000  1.0 -0.1343603304
O  O44  1  0.64070000  0.79510000  0.62400000  1.0 -0.1343603304
O  O45  1  0.48330000  0.15440000  0.85930000  1.0 -0.1343603304
O  O46  1  0.01670000  0.87600000  0.67110000  1.0 -0.1343603304
O  O47  1  0.70490000  0.34560000  0.82890000  1.0 -0.1343603304
O  O48  1  0.79510000  0.62400000  0.64070000  1.0 -0.1343603304
O  O49  1  0.36770000  0.52800000  0.76350000  1.0 -0.2315930266
O  O50  1  0.26450000  0.60420000  0.73650000  1.0 -0.2315930266
O  O51  1  0.23550000  0.97200000  0.33970000  1.0 -0.2315930266
O  O52  1  0.13230000  0.89580000  0.16030000  1.0 -0.2315930266
O  O53  1  0.76350000  0.36770000  0.52800000  1.0 -0.2315930266
O  O54  1  0.73650000  0.26450000  0.60420000  1.0 -0.2315930266
O  O55  1  0.33970000  0.23550000  0.97200000  1.0 -0.2315930266
O  O56  1  0.16030000  0.13230000  0.89580000  1.0 -0.2315930266
O  O57  1  0.52800000  0.76350000  0.36770000  1.0 -0.2315930266
O  O58  1  0.60420000  0.73650000  0.26450000  1.0 -0.2315930266
O  O59  1  0.97200000  0.33970000  0.23550000  1.0 -0.2315930266
O  O60  1  0.89580000  0.16030000  0.13230000  1.0 -0.2315930266
O  O61  1  0.02800000  0.86770000  0.26350000  1.0 -0.2315930266
O  O62  1  0.10420000  0.76450000  0.23650000  1.0 -0.2315930266
O  O63  1  0.47200000  0.73550000  0.83970000  1.0 -0.2315930266
O  O64  1  0.39580000  0.63230000  0.66030000  1.0 -0.2315930266
O  O65  1  0.86770000  0.26350000  0.02800000  1.0 -0.2315930266
O  O66  1  0.76450000  0.23650000  0.10420000  1.0 -0.2315930266
O  O67  1  0.73550000  0.83970000  0.47200000  1.0 -0.2315930266
O  O68  1  0.63230000  0.66030000  0.39580000  1.0 -0.2315930266
O  O69  1  0.26350000  0.02800000  0.86770000  1.0 -0.2315930266
O  O70  1  0.23650000  0.10420000  0.76450000  1.0 -0.2315930266
O  O71  1  0.83970000  0.47200000  0.73550000  1.0 -0.2315930266
O  O72  1  0.66030000  0.39580000  0.63230000  1.0 -0.2315930266
O  O73  1  0.59130000  0.59730000  0.97800000  1.0 -0.4904483751
O  O74  1  0.11930000  0.61330000  0.52200000  1.0 -0.4904483751
O  O75  1  0.38070000  0.90270000  0.49400000  1.0 -0.4904483751
O  O76  1  0.90870000  0.88670000  0.00600000  1.0 -0.4904483751
O  O77  1  0.97800000  0.59130000  0.59730000  1.0 -0.4904483751
O  O78  1  0.52200000  0.11930000  0.61330000  1.0 -0.4904483751
O  O79  1  0.49400000  0.38070000  0.90270000  1.0 -0.4904483751
O  O80  1  0.00600000  0.90870000  0.88670000  1.0 -0.4904483751
O  O81  1  0.59730000  0.97800000  0.59130000  1.0 -0.4904483751
O  O82  1  0.61330000  0.52200000  0.11930000  1.0 -0.4904483751
O  O83  1  0.90270000  0.49400000  0.38070000  1.0 -0.4904483751
O  O84  1  0.88670000  0.00600000  0.90870000  1.0 -0.4904483751
O  O85  1  0.09730000  0.09130000  0.47800000  1.0 -0.4904483751
O  O86  1  0.11330000  0.61930000  0.02200000  1.0 -0.4904483751
O  O87  1  0.40270000  0.88070000  0.99400000  1.0 -0.4904483751
O  O88  1  0.38670000  0.40870000  0.50600000  1.0 -0.4904483751
O  O89  1  0.09130000  0.47800000  0.09730000  1.0 -0.4904483751
O  O90  1  0.61930000  0.02200000  0.11330000  1.0 -0.4904483751
O  O91  1  0.88070000  0.99400000  0.40270000  1.0 -0.4904483751
O  O92  1  0.40870000  0.50600000  0.38670000  1.0 -0.4904483751
O  O93  1  0.47800000  0.09730000  0.09130000  1.0 -0.4904483751
O  O94  1  0.02200000  0.11330000  0.61930000  1.0 -0.4904483751
O  O95  1  0.99400000  0.40270000  0.88070000  1.0 -0.4904483751
O  O96  1  0.50600000  0.38670000  0.40870000  1.0 -0.4904483751
O  O97  1  0.66750000  0.59090000  0.05040000  1.0 -0.4904483751
O  O98  1  0.04050000  0.61710000  0.44960000  1.0 -0.4904483751
O  O99  1  0.45950000  0.90910000  0.57660000  1.0 -0.4904483751
O  O100  1  0.83250000  0.88290000  0.92340000  1.0 -0.4904483751
O  O101  1  0.05040000  0.66750000  0.59090000  1.0 -0.4904483751
O  O102  1  0.44960000  0.04050000  0.61710000  1.0 -0.4904483751
O  O103  1  0.57660000  0.45950000  0.90910000  1.0 -0.4904483751
O  O104  1  0.92340000  0.83250000  0.88290000  1.0 -0.4904483751
O  O105  1  0.59090000  0.05040000  0.66750000  1.0 -0.4904483751
O  O106  1  0.61710000  0.44960000  0.04050000  1.0 -0.4904483751
O  O107  1  0.90910000  0.57660000  0.45950000  1.0 -0.4904483751
O  O108  1  0.88290000  0.92340000  0.83250000  1.0 -0.4904483751
O  O109  1  0.09090000  0.16750000  0.55040000  1.0 -0.4904483751
O  O110  1  0.11710000  0.54050000  0.94960000  1.0 -0.4904483751
O  O111  1  0.40910000  0.95950000  0.07660000  1.0 -0.4904483751
O  O112  1  0.38290000  0.33250000  0.42340000  1.0 -0.4904483751
O  O113  1  0.16750000  0.55040000  0.09090000  1.0 -0.4904483751
O  O114  1  0.54050000  0.94960000  0.11710000  1.0 -0.4904483751
O  O115  1  0.95950000  0.07660000  0.40910000  1.0 -0.4904483751
O  O116  1  0.33250000  0.42340000  0.38290000  1.0 -0.4904483751
O  O117  1  0.55040000  0.09090000  0.16750000  1.0 -0.4904483751
O  O118  1  0.94960000  0.11710000  0.54050000  1.0 -0.4904483751
O  O119  1  0.07660000  0.40910000  0.95950000  1.0 -0.4904483751
O  O120  1  0.42340000  0.38290000  0.33250000  1.0 -0.4904483751
O  O121  1  0.69890000  0.66820000  0.02070000  1.0 -0.4163010513
O  O122  1  0.14750000  0.67820000  0.47930000  1.0 -0.4163010513
O  O123  1  0.35250000  0.83180000  0.53070000  1.0 -0.4163010513
O  O124  1  0.80110000  0.82180000  0.96930000  1.0 -0.4163010513
O  O125  1  0.02070000  0.69890000  0.66820000  1.0 -0.4163010513
O  O126  1  0.47930000  0.14750000  0.67820000  1.0 -0.4163010513
O  O127  1  0.53070000  0.35250000  0.83180000  1.0 -0.4163010513
O  O128  1  0.96930000  0.80110000  0.82180000  1.0 -0.4163010513
O  O129  1  0.66820000  0.02070000  0.69890000  1.0 -0.4163010513
O  O130  1  0.67820000  0.47930000  0.14750000  1.0 -0.4163010513
O  O131  1  0.83180000  0.53070000  0.35250000  1.0 -0.4163010513
O  O132  1  0.82180000  0.96930000  0.80110000  1.0 -0.4163010513
O  O133  1  0.16820000  0.19890000  0.52070000  1.0 -0.4163010513
O  O134  1  0.17820000  0.64750000  0.97930000  1.0 -0.4163010513
O  O135  1  0.33180000  0.85250000  0.03070000  1.0 -0.4163010513
O  O136  1  0.32180000  0.30110000  0.46930000  1.0 -0.4163010513
O  O137  1  0.19890000  0.52070000  0.16820000  1.0 -0.4163010513
O  O138  1  0.64750000  0.97930000  0.17820000  1.0 -0.4163010513
O  O139  1  0.85250000  0.03070000  0.33180000  1.0 -0.4163010513
O  O140  1  0.30110000  0.46930000  0.32180000  1.0 -0.4163010513
O  O141  1  0.52070000  0.16820000  0.19890000  1.0 -0.4163010513
O  O142  1  0.97930000  0.17820000  0.64750000  1.0 -0.4163010513
O  O143  1  0.03070000  0.33180000  0.85250000  1.0 -0.4163010513
O  O144  1  0.46930000  0.32180000  0.30110000  1.0 -0.4163010513
