# DDEC6 charges by PACMAN v1.1 (https://github.com/mtap-research/PACMAN-charge/)
data_GUXJUF_ASR_pacman
_symmetry_space_group_name_H-M   'P 1'
_cell_length_a   18.53430000
_cell_length_b   13.84740000
_cell_length_c   34.26030000
_cell_angle_alpha   90.00000000
_cell_angle_beta   110.80400000
_cell_angle_gamma   90.00000000
_symmetry_Int_Tables_number   1
_chemical_formula_structural   Cu3H24C32(NO2)6
_chemical_formula_sum   'Cu24 H192 C256 N48 O96'
_cell_volume   8219.67604384
_cell_formula_units_Z   8
loop_
 _symmetry_equiv_pos_site_id
 _symmetry_equiv_pos_as_xyz
  1  'x, y, z'
loop_
 _atom_site_type_symbol
 _atom_site_label
 _atom_site_symmetry_multiplicity
 _atom_site_fract_x
 _atom_site_fract_y
 _atom_site_fract_z
 _atom_site_occupancy
 _atom_site_charge
Cu  Cu1  1  0.00000000  0.00000000  0.50000000  1.0 0.8515412009
Cu  Cu2  1  0.00000000  0.50000000  0.00000000  1.0 0.8515412009
Cu  Cu3  1  0.60093000  0.33685000  0.29191000  1.0 0.7599439319
Cu  Cu4  1  0.39907000  0.83685000  0.20809000  1.0 0.7599439319
Cu  Cu5  1  0.39907000  0.66315000  0.70809000  1.0 0.7599439319
Cu  Cu6  1  0.60093000  0.16315000  0.79191000  1.0 0.7599439319
Cu  Cu7  1  0.85864000  0.67492000  0.29605000  1.0 0.7599439319
Cu  Cu8  1  0.14136000  0.17492000  0.20395000  1.0 0.7599439319
Cu  Cu9  1  0.14136000  0.32508000  0.70395000  1.0 0.7599439319
Cu  Cu10  1  0.85864000  0.82508000  0.79605000  1.0 0.7599439319
Cu  Cu11  1  0.26043000  0.00351000  0.50669000  1.0 0.8515412009
Cu  Cu12  1  0.73957000  0.50351000  0.99331000  1.0 0.8515412009
Cu  Cu13  1  0.73957000  0.99649000  0.49331000  1.0 0.8515412009
Cu  Cu14  1  0.26043000  0.49649000  0.00669000  1.0 0.8515412009
Cu  Cu15  1  0.69149000  0.17105000  0.19879000  1.0 0.701068252
Cu  Cu16  1  0.30851000  0.67105000  0.30121000  1.0 0.701068252
Cu  Cu17  1  0.30851000  0.82895000  0.80121000  1.0 0.701068252
Cu  Cu18  1  0.69149000  0.32895000  0.69879000  1.0 0.701068252
Cu  Cu19  1  0.93027000  0.82442000  0.19271000  1.0 0.701068252
Cu  Cu20  1  0.06973000  0.32442000  0.30729000  1.0 0.701068252
Cu  Cu21  1  0.06973000  0.17558000  0.80729000  1.0 0.701068252
Cu  Cu22  1  0.93027000  0.67558000  0.69271000  1.0 0.701068252
Cu  Cu23  1  0.50000000  0.50000000  0.00000000  1.0 0.8568236824
Cu  Cu24  1  0.50000000  0.00000000  0.50000000  1.0 0.8568236824
H  H1  1  0.79830000  0.91260000  0.40140000  1.0 0.1797381636
H  H2  1  0.20170000  0.41260000  0.09860000  1.0 0.1797381636
H  H3  1  0.20170000  0.08740000  0.59860000  1.0 0.1797381636
H  H4  1  0.79830000  0.58740000  0.90140000  1.0 0.1797381636
H  H5  1  0.74140000  0.99260000  0.40670000  1.0 0.1492952389
H  H6  1  0.25860000  0.49260000  0.09330000  1.0 0.1492952389
H  H7  1  0.25860000  0.00740000  0.59330000  1.0 0.1492952389
H  H8  1  0.74140000  0.50740000  0.90670000  1.0 0.1492952389
H  H9  1  0.78250000  0.00730000  0.37370000  1.0 0.159713261
H  H10  1  0.21750000  0.50730000  0.12630000  1.0 0.159713261
H  H11  1  0.21750000  0.99270000  0.62630000  1.0 0.159713261
H  H12  1  0.78250000  0.49270000  0.87370000  1.0 0.159713261
H  H13  1  0.96360000  0.30910000  0.45050000  1.0 0.159713261
H  H14  1  0.03640000  0.80910000  0.04950000  1.0 0.159713261
H  H15  1  0.03640000  0.69090000  0.54950000  1.0 0.159713261
H  H16  1  0.96360000  0.19090000  0.95050000  1.0 0.159713261
H  H17  1  0.88280000  0.31490000  0.45650000  1.0 0.1407964651
H  H18  1  0.11720000  0.81490000  0.04350000  1.0 0.1407964651
H  H19  1  0.11720000  0.68510000  0.54350000  1.0 0.1407964651
H  H20  1  0.88280000  0.18510000  0.95650000  1.0 0.1407964651
H  H21  1  0.95980000  0.30600000  0.49590000  1.0 0.159713261
H  H22  1  0.04020000  0.80600000  0.00410000  1.0 0.159713261
H  H23  1  0.04020000  0.69400000  0.50410000  1.0 0.159713261
H  H24  1  0.95980000  0.19400000  0.99590000  1.0 0.159713261
H  H25  1  0.86430000  0.24310000  0.37310000  1.0 0.1407964651
H  H26  1  0.13570000  0.74310000  0.12690000  1.0 0.1407964651
H  H27  1  0.13570000  0.75690000  0.62690000  1.0 0.1407964651
H  H28  1  0.86430000  0.25690000  0.87310000  1.0 0.1407964651
H  H29  1  0.71550000  0.16850000  0.42890000  1.0 0.1407964651
H  H30  1  0.28450000  0.66850000  0.07110000  1.0 0.1407964651
H  H31  1  0.28450000  0.83150000  0.57110000  1.0 0.1407964651
H  H32  1  0.71550000  0.33150000  0.92890000  1.0 0.1407964651
H  H33  1  0.61990000  0.25030000  0.37660000  1.0 0.119908604
H  H34  1  0.38010000  0.75030000  0.12340000  1.0 0.119908604
H  H35  1  0.38010000  0.74970000  0.62340000  1.0 0.119908604
H  H36  1  0.61990000  0.24970000  0.87660000  1.0 0.119908604
H  H37  1  0.76680000  0.32330000  0.32290000  1.0 0.119908604
H  H38  1  0.23320000  0.82330000  0.17710000  1.0 0.119908604
H  H39  1  0.23320000  0.67670000  0.67710000  1.0 0.119908604
H  H40  1  0.76680000  0.17670000  0.82290000  1.0 0.119908604
H  H41  1  0.44120000  0.28710000  0.22300000  1.0 0.1407964651
H  H42  1  0.55880000  0.78710000  0.27700000  1.0 0.1407964651
H  H43  1  0.55880000  0.71290000  0.77700000  1.0 0.1407964651
H  H44  1  0.44120000  0.21290000  0.72300000  1.0 0.1407964651
H  H45  1  0.34760000  0.37820000  0.17390000  1.0 0.1299766776
H  H46  1  0.65240000  0.87820000  0.32610000  1.0 0.1299766776
H  H47  1  0.65240000  0.62180000  0.82610000  1.0 0.1299766776
H  H48  1  0.34760000  0.12180000  0.67390000  1.0 0.1299766776
H  H49  1  0.60890000  0.63030000  0.17600000  1.0 0.119908604
H  H50  1  0.39110000  0.13030000  0.32400000  1.0 0.119908604
H  H51  1  0.39110000  0.36970000  0.82400000  1.0 0.119908604
H  H52  1  0.60890000  0.86970000  0.67600000  1.0 0.119908604
H  H53  1  0.70300000  0.72410000  0.22320000  1.0 0.1407964651
H  H54  1  0.29700000  0.22410000  0.27680000  1.0 0.1407964651
H  H55  1  0.29700000  0.27590000  0.77680000  1.0 0.1407964651
H  H56  1  0.70300000  0.77590000  0.72320000  1.0 0.1407964651
H  H57  1  0.02560000  0.69140000  0.32430000  1.0 0.119908604
H  H58  1  0.97440000  0.19140000  0.17570000  1.0 0.119908604
H  H59  1  0.97440000  0.30860000  0.67570000  1.0 0.119908604
H  H60  1  0.02560000  0.80860000  0.82430000  1.0 0.119908604
H  H61  1  0.88270000  0.75470000  0.38130000  1.0 0.119908604
H  H62  1  0.11730000  0.25470000  0.11870000  1.0 0.119908604
H  H63  1  0.11730000  0.24530000  0.61870000  1.0 0.119908604
H  H64  1  0.88270000  0.74530000  0.88130000  1.0 0.119908604
H  H65  1  0.97940000  0.83320000  0.43440000  1.0 0.1407964651
H  H66  1  0.02060000  0.33320000  0.06560000  1.0 0.1407964651
H  H67  1  0.02060000  0.16680000  0.56560000  1.0 0.1407964651
H  H68  1  0.97940000  0.66680000  0.93440000  1.0 0.1407964651
H  H69  1  0.12630000  0.76320000  0.37610000  1.0 0.1407964651
H  H70  1  0.87370000  0.26320000  0.12390000  1.0 0.1407964651
H  H71  1  0.87370000  0.23680000  0.62390000  1.0 0.1407964651
H  H72  1  0.12630000  0.73680000  0.87610000  1.0 0.1407964651
H  H73  1  0.23110000  0.69670000  0.49680000  1.0 0.159713261
H  H74  1  0.76890000  0.19670000  0.00320000  1.0 0.159713261
H  H75  1  0.76890000  0.30330000  0.50320000  1.0 0.159713261
H  H76  1  0.23110000  0.80330000  0.99680000  1.0 0.159713261
H  H77  1  0.14750000  0.68840000  0.46230000  1.0 0.1492952389
H  H78  1  0.85250000  0.18840000  0.03770000  1.0 0.1492952389
H  H79  1  0.85250000  0.31160000  0.53770000  1.0 0.1492952389
H  H80  1  0.14750000  0.81160000  0.96230000  1.0 0.1492952389
H  H81  1  0.22060000  0.69820000  0.44880000  1.0 0.159713261
H  H82  1  0.77940000  0.19820000  0.05120000  1.0 0.159713261
H  H83  1  0.77940000  0.30180000  0.55120000  1.0 0.159713261
H  H84  1  0.22060000  0.80180000  0.94880000  1.0 0.159713261
H  H85  1  0.05760000  0.09340000  0.40900000  1.0 0.1690878977
H  H86  1  0.94240000  0.59340000  0.09100000  1.0 0.1690878977
H  H87  1  0.94240000  0.90660000  0.59100000  1.0 0.1690878977
H  H88  1  0.05760000  0.40660000  0.90900000  1.0 0.1690878977
H  H89  1  0.04730000  0.00370000  0.37880000  1.0 0.159713261
H  H90  1  0.95270000  0.50370000  0.12120000  1.0 0.159713261
H  H91  1  0.95270000  0.99630000  0.62120000  1.0 0.159713261
H  H92  1  0.04730000  0.49630000  0.87880000  1.0 0.159713261
H  H93  1  0.00190000  0.00750000  0.41020000  1.0 0.159713261
H  H94  1  0.99810000  0.50750000  0.08980000  1.0 0.159713261
H  H95  1  0.99810000  0.99250000  0.58980000  1.0 0.159713261
H  H96  1  0.00190000  0.49250000  0.91020000  1.0 0.159713261
H  H97  1  0.84120000  0.22280000  0.27470000  1.0 0.1299766776
H  H98  1  0.15880000  0.72280000  0.22530000  1.0 0.1299766776
H  H99  1  0.15880000  0.77720000  0.72530000  1.0 0.1299766776
H  H100  1  0.84120000  0.27720000  0.77470000  1.0 0.1299766776
H  H101  1  0.92570000  0.13550000  0.32940000  1.0 0.119908604
H  H102  1  0.07430000  0.63550000  0.17060000  1.0 0.119908604
H  H103  1  0.07430000  0.86450000  0.67060000  1.0 0.119908604
H  H104  1  0.92570000  0.36450000  0.82940000  1.0 0.119908604
H  H105  1  0.52440000  0.17760000  0.18380000  1.0 0.1299766776
H  H106  1  0.47560000  0.67760000  0.31620000  1.0 0.1299766776
H  H107  1  0.47560000  0.82240000  0.81620000  1.0 0.1299766776
H  H108  1  0.52440000  0.32240000  0.68380000  1.0 0.1299766776
H  H109  1  0.64490000  0.26250000  0.11640000  1.0 0.119908604
H  H110  1  0.35510000  0.76250000  0.38360000  1.0 0.119908604
H  H111  1  0.35510000  0.73750000  0.88360000  1.0 0.119908604
H  H112  1  0.64490000  0.23750000  0.61640000  1.0 0.119908604
H  H113  1  0.41440000  0.24900000  0.13740000  1.0 0.1407964651
H  H114  1  0.58560000  0.74900000  0.36260000  1.0 0.1407964651
H  H115  1  0.58560000  0.75100000  0.86260000  1.0 0.1407964651
H  H116  1  0.41440000  0.25100000  0.63740000  1.0 0.1407964651
H  H117  1  0.53680000  0.33760000  0.06900000  1.0 0.1492952389
H  H118  1  0.46320000  0.83760000  0.43100000  1.0 0.1492952389
H  H119  1  0.46320000  0.66240000  0.93100000  1.0 0.1492952389
H  H120  1  0.53680000  0.16240000  0.56900000  1.0 0.1492952389
H  H121  1  0.28690000  0.18970000  0.01790000  1.0 0.159713261
H  H122  1  0.71310000  0.68970000  0.48210000  1.0 0.159713261
H  H123  1  0.71310000  0.81030000  0.98210000  1.0 0.159713261
H  H124  1  0.28690000  0.31030000  0.51790000  1.0 0.159713261
H  H125  1  0.37450000  0.18140000  0.04730000  1.0 0.1407964651
H  H126  1  0.62550000  0.68140000  0.45270000  1.0 0.1407964651
H  H127  1  0.62550000  0.81860000  0.95270000  1.0 0.1407964651
H  H128  1  0.37450000  0.31860000  0.54730000  1.0 0.1407964651
H  H129  1  0.30930000  0.18970000  0.06700000  1.0 0.159713261
H  H130  1  0.69070000  0.68970000  0.43300000  1.0 0.159713261
H  H131  1  0.69070000  0.81030000  0.93300000  1.0 0.159713261
H  H132  1  0.30930000  0.31030000  0.56700000  1.0 0.159713261
H  H133  1  0.45530000  0.57530000  0.11460000  1.0 0.1690878977
H  H134  1  0.54470000  0.07530000  0.38540000  1.0 0.1690878977
H  H135  1  0.54470000  0.42470000  0.88540000  1.0 0.1690878977
H  H136  1  0.45530000  0.92470000  0.61460000  1.0 0.1690878977
H  H137  1  0.49830000  0.47510000  0.12790000  1.0 0.1492952389
H  H138  1  0.50170000  0.97510000  0.37210000  1.0 0.1492952389
H  H139  1  0.50170000  0.52490000  0.87210000  1.0 0.1492952389
H  H140  1  0.49830000  0.02490000  0.62790000  1.0 0.1492952389
H  H141  1  0.51010000  0.53660000  0.09160000  1.0 0.1492952389
H  H142  1  0.48990000  0.03660000  0.40840000  1.0 0.1492952389
H  H143  1  0.48990000  0.46340000  0.90840000  1.0 0.1492952389
H  H144  1  0.51010000  0.96340000  0.59160000  1.0 0.1492952389
H  H145  1  0.92320000  0.27590000  0.22780000  1.0 0.1299766776
H  H146  1  0.07680000  0.77590000  0.27220000  1.0 0.1299766776
H  H147  1  0.07680000  0.72410000  0.77220000  1.0 0.1299766776
H  H148  1  0.92320000  0.22410000  0.72780000  1.0 0.1299766776
H  H149  1  0.83410000  0.36950000  0.17700000  1.0 0.119908604
H  H150  1  0.16590000  0.86950000  0.32300000  1.0 0.119908604
H  H151  1  0.16590000  0.63050000  0.82300000  1.0 0.119908604
H  H152  1  0.83410000  0.13050000  0.67700000  1.0 0.119908604
H  H153  1  0.76210000  0.82250000  0.17560000  1.0 0.1299766776
H  H154  1  0.23790000  0.32250000  0.32440000  1.0 0.1299766776
H  H155  1  0.23790000  0.17750000  0.82440000  1.0 0.1299766776
H  H156  1  0.76210000  0.67750000  0.67560000  1.0 0.1299766776
H  H157  1  0.65290000  0.75010000  0.12960000  1.0 0.1492952389
H  H158  1  0.34710000  0.25010000  0.37040000  1.0 0.1407964651
H  H159  1  0.34710000  0.24990000  0.87040000  1.0 0.1492952389
H  H160  1  0.65290000  0.74990000  0.62960000  1.0 0.1492952389
H  H161  1  0.88490000  0.73290000  0.11100000  1.0 0.119908604
H  H162  1  0.11510000  0.23290000  0.38900000  1.0 0.119908604
H  H163  1  0.11510000  0.26710000  0.88900000  1.0 0.119908604
H  H164  1  0.88490000  0.76710000  0.61100000  1.0 0.119908604
H  H165  1  0.77780000  0.65980000  0.06280000  1.0 0.1492952389
H  H166  1  0.22220000  0.15980000  0.43720000  1.0 0.1492952389
H  H167  1  0.22220000  0.34020000  0.93720000  1.0 0.1492952389
H  H168  1  0.77780000  0.84020000  0.56280000  1.0 0.1492952389
H  H169  1  0.54930000  0.80990000  0.05490000  1.0 0.159713261
H  H170  1  0.45070000  0.30990000  0.44510000  1.0 0.159713261
H  H171  1  0.45070000  0.19010000  0.94510000  1.0 0.159713261
H  H172  1  0.54930000  0.69010000  0.55490000  1.0 0.159713261
H  H173  1  0.61780000  0.81400000  0.03750000  1.0 0.1407964651
H  H174  1  0.38220000  0.31400000  0.46250000  1.0 0.1407964651
H  H175  1  0.38220000  0.18600000  0.96250000  1.0 0.1407964651
H  H176  1  0.61780000  0.68600000  0.53750000  1.0 0.1407964651
H  H177  1  0.53140000  0.80590000  0.00610000  1.0 0.159713261
H  H178  1  0.46860000  0.30590000  0.49390000  1.0 0.159713261
H  H179  1  0.46860000  0.19410000  0.99390000  1.0 0.159713261
H  H180  1  0.53140000  0.69410000  0.50610000  1.0 0.159713261
H  H181  1  0.75480000  0.47570000  0.09050000  1.0 0.1492952389
H  H182  1  0.24520000  0.97570000  0.40950000  1.0 0.1492952389
H  H183  1  0.24520000  0.52430000  0.90950000  1.0 0.1492952389
H  H184  1  0.75480000  0.02430000  0.59050000  1.0 0.1492952389
H  H185  1  0.72620000  0.51890000  0.12530000  1.0 0.159713261
H  H186  1  0.27380000  0.01890000  0.37470000  1.0 0.159713261
H  H187  1  0.27380000  0.48110000  0.87470000  1.0 0.159713261
H  H188  1  0.72620000  0.98110000  0.62530000  1.0 0.159713261
H  H189  1  0.69520000  0.41730000  0.10500000  1.0 0.159713261
H  H190  1  0.30480000  0.91730000  0.39500000  1.0 0.159713261
H  H191  1  0.30480000  0.58270000  0.89500000  1.0 0.159713261
H  H192  1  0.69520000  0.08270000  0.60500000  1.0 0.159713261
C  C1  1  0.78839000  0.98140000  0.40099000  1.0 -0.5590327236
C  C2  1  0.21161000  0.48140000  0.09901000  1.0 -0.5590327236
C  C3  1  0.21161000  0.01860000  0.59901000  1.0 -0.5590327236
C  C4  1  0.78839000  0.51860000  0.90099000  1.0 -0.5590327236
C  C5  1  0.85478000  0.03070000  0.43378000  1.0 0.4472590197
C  C6  1  0.14522000  0.53070000  0.06622000  1.0 0.4472590197
C  C7  1  0.14522000  0.96930000  0.56622000  1.0 0.4472590197
C  C8  1  0.85478000  0.46930000  0.93378000  1.0 0.4472590197
C  C9  1  0.86254000  0.13250000  0.43654000  1.0 -0.3176896389
C  C10  1  0.13746000  0.63250000  0.06346000  1.0 -0.3176896389
C  C11  1  0.13746000  0.86750000  0.56346000  1.0 -0.3176896389
C  C12  1  0.86254000  0.36750000  0.93654000  1.0 -0.3176896389
C  C13  1  0.92775000  0.17930000  0.46455000  1.0 0.4342325965
C  C14  1  0.07225000  0.67930000  0.03545000  1.0 0.4342325965
C  C15  1  0.07225000  0.82070000  0.53545000  1.0 0.4342325965
C  C16  1  0.92775000  0.32070000  0.96455000  1.0 0.4342325965
C  C17  1  0.93410000  0.28670000  0.46710000  1.0 -0.5005898228
C  C18  1  0.06590000  0.78670000  0.03290000  1.0 -0.5005898228
C  C19  1  0.06590000  0.71330000  0.53290000  1.0 -0.5005898228
C  C20  1  0.93410000  0.21330000  0.96710000  1.0 -0.5005898228
C  C21  1  0.80030000  0.19270000  0.40590000  1.0 0.1690878977
C  C22  1  0.19970000  0.69270000  0.09410000  1.0 0.1690878977
C  C23  1  0.19970000  0.80730000  0.59410000  1.0 0.1690878977
C  C24  1  0.80030000  0.30730000  0.90590000  1.0 0.1690878977
C  C25  1  0.81427000  0.24210000  0.37407000  1.0 -0.1891446713
C  C26  1  0.18573000  0.74210000  0.12593000  1.0 -0.1891446713
C  C27  1  0.18573000  0.75790000  0.62593000  1.0 -0.1891446713
C  C28  1  0.81427000  0.25790000  0.87407000  1.0 -0.1891446713
C  C29  1  0.72691000  0.19790000  0.40701000  1.0 -0.1699346605
C  C30  1  0.27309000  0.69790000  0.09299000  1.0 -0.1699346605
C  C31  1  0.27309000  0.80210000  0.59299000  1.0 -0.1699346605
C  C32  1  0.72691000  0.30210000  0.90701000  1.0 -0.1699346605
C  C33  1  0.66982000  0.24690000  0.37552000  1.0 0.0893345334
C  C34  1  0.33018000  0.74690000  0.12448000  1.0 0.0893345334
C  C35  1  0.33018000  0.75310000  0.62448000  1.0 0.0893345334
C  C36  1  0.66982000  0.25310000  0.87552000  1.0 0.0893345334
C  C37  1  0.75565000  0.28970000  0.34395000  1.0 0.1004161254
C  C38  1  0.24435000  0.78970000  0.15605000  1.0 0.1004161254
C  C39  1  0.24435000  0.71030000  0.65605000  1.0 0.1004161254
C  C40  1  0.75565000  0.21030000  0.84395000  1.0 0.1004161254
C  C41  1  0.58575000  0.53450000  0.28175000  1.0 0.5310178545
C  C42  1  0.41425000  0.03450000  0.21825000  1.0 0.5310178545
C  C43  1  0.41425000  0.46550000  0.71825000  1.0 0.5310178545
C  C44  1  0.58575000  0.96550000  0.78175000  1.0 0.5310178545
C  C45  1  0.51572000  0.49360000  0.24802000  1.0 0.048167491
C  C46  1  0.48428000  0.99360000  0.25198000  1.0 0.048167491
C  C47  1  0.48428000  0.50640000  0.75198000  1.0 0.048167491
C  C48  1  0.51572000  0.00640000  0.74802000  1.0 0.048167491
C  C49  1  0.44683000  0.35450000  0.22223000  1.0 0.0570565563
C  C50  1  0.55317000  0.85450000  0.27777000  1.0 0.0570565563
C  C51  1  0.55317000  0.64550000  0.77777000  1.0 0.0570565563
C  C52  1  0.44683000  0.14550000  0.72223000  1.0 0.0570565563
C  C53  1  0.39137000  0.40950000  0.19247000  1.0 0.048167491
C  C54  1  0.60863000  0.90950000  0.30753000  1.0 0.048167491
C  C55  1  0.60863000  0.59050000  0.80753000  1.0 0.048167491
C  C56  1  0.39137000  0.09050000  0.69247000  1.0 0.048167491
C  C57  1  0.46008000  0.54680000  0.21688000  1.0 0.0893345334
C  C58  1  0.53992000  0.04680000  0.28312000  1.0 0.0893345334
C  C59  1  0.53992000  0.45320000  0.78312000  1.0 0.0893345334
C  C60  1  0.46008000  0.95320000  0.71688000  1.0 0.0893345334
C  C61  1  0.46423000  0.65360000  0.20993000  1.0 0.5310178545
C  C62  1  0.53577000  0.15360000  0.29007000  1.0 0.5310178545
C  C63  1  0.53577000  0.34640000  0.79007000  1.0 0.5310178545
C  C64  1  0.46423000  0.84640000  0.70993000  1.0 0.5310178545
C  C65  1  0.70612000  0.35350000  0.22852000  1.0 0.551742166
C  C66  1  0.29388000  0.85350000  0.27148000  1.0 0.551742166
C  C67  1  0.29388000  0.64650000  0.77148000  1.0 0.551742166
C  C68  1  0.70612000  0.14650000  0.72852000  1.0 0.551742166
C  C69  1  0.71189000  0.46150000  0.22689000  1.0 0.0696561016
C  C70  1  0.28811000  0.96150000  0.27311000  1.0 0.0696561016
C  C71  1  0.28811000  0.53850000  0.77311000  1.0 0.0696561016
C  C72  1  0.71189000  0.03850000  0.72689000  1.0 0.0696561016
C  C73  1  0.76943000  0.51710000  0.25543000  1.0 0.048167491
C  C74  1  0.23057000  0.01710000  0.24457000  1.0 0.048167491
C  C75  1  0.23057000  0.48290000  0.74457000  1.0 0.048167491
C  C76  1  0.76943000  0.98290000  0.75543000  1.0 0.048167491
C  C77  1  0.65080000  0.59940000  0.19620000  1.0 0.0570565563
C  C78  1  0.34920000  0.09940000  0.30380000  1.0 0.0570565563
C  C79  1  0.34920000  0.40060000  0.80380000  1.0 0.0570565563
C  C80  1  0.65080000  0.90060000  0.69620000  1.0 0.0570565563
C  C81  1  0.70648000  0.65640000  0.22458000  1.0 0.0570565563
C  C82  1  0.29352000  0.15640000  0.27542000  1.0 0.0570565563
C  C83  1  0.29352000  0.34360000  0.77542000  1.0 0.0570565563
C  C84  1  0.70648000  0.84360000  0.72458000  1.0 0.0570565563
C  C85  1  0.83964000  0.47740000  0.28964000  1.0 0.5310178545
C  C86  1  0.16036000  0.97740000  0.21036000  1.0 0.5310178545
C  C87  1  0.16036000  0.52260000  0.71036000  1.0 0.5310178545
C  C88  1  0.83964000  0.02260000  0.78964000  1.0 0.5310178545
C  C89  1  0.01587000  0.72190000  0.34647000  1.0 0.1004161254
C  C90  1  0.98413000  0.22190000  0.15353000  1.0 0.1004161254
C  C91  1  0.98413000  0.27810000  0.65353000  1.0 0.1004161254
C  C92  1  0.01587000  0.77810000  0.84647000  1.0 0.1004161254
C  C93  1  0.93215000  0.75960000  0.37975000  1.0 0.0893345334
C  C94  1  0.06785000  0.25960000  0.12025000  1.0 0.0893345334
C  C95  1  0.06785000  0.24040000  0.62025000  1.0 0.0893345334
C  C96  1  0.93215000  0.74040000  0.87975000  1.0 0.0893345334
C  C97  1  0.98979000  0.80660000  0.41169000  1.0 -0.1699346605
C  C98  1  0.01021000  0.30660000  0.08831000  1.0 -0.1699346605
C  C99  1  0.01021000  0.19340000  0.58831000  1.0 -0.1699346605
C  C100  1  0.98979000  0.69340000  0.91169000  1.0 -0.1699346605
C  C101  1  0.07627000  0.76570000  0.37707000  1.0 -0.1992149729
C  C102  1  0.92373000  0.26570000  0.12293000  1.0 -0.1992149729
C  C103  1  0.92373000  0.23430000  0.62293000  1.0 -0.1992149729
C  C104  1  0.07627000  0.73430000  0.87707000  1.0 -0.1992149729
C  C105  1  0.06297000  0.81370000  0.40937000  1.0 0.1690878977
C  C106  1  0.93703000  0.31370000  0.09063000  1.0 0.1690878977
C  C107  1  0.93703000  0.18630000  0.59063000  1.0 0.1690878977
C  C108  1  0.06297000  0.68630000  0.90937000  1.0 0.1690878977
C  C109  1  0.19810000  0.71770000  0.46920000  1.0 -0.510751817
C  C110  1  0.80190000  0.21770000  0.03080000  1.0 -0.510751817
C  C111  1  0.80190000  0.28230000  0.53080000  1.0 -0.510751817
C  C112  1  0.19810000  0.78230000  0.96920000  1.0 -0.510751817
C  C113  1  0.19043000  0.82550000  0.46873000  1.0 0.4425936189
C  C114  1  0.80957000  0.32550000  0.03127000  1.0 0.4425936189
C  C115  1  0.80957000  0.17450000  0.53127000  1.0 0.4425936189
C  C116  1  0.19043000  0.67450000  0.96873000  1.0 0.4425936189
C  C117  1  0.12452000  0.87240000  0.44072000  1.0 -0.3176896389
C  C118  1  0.87548000  0.37240000  0.05928000  1.0 -0.3176896389
C  C119  1  0.87548000  0.12760000  0.55928000  1.0 -0.3176896389
C  C120  1  0.12452000  0.62760000  0.94072000  1.0 -0.3176896389
C  C121  1  0.11626000  0.97360000  0.43916000  1.0 0.4342325965
C  C122  1  0.88374000  0.47360000  0.06084000  1.0 0.4342325965
C  C123  1  0.88374000  0.02640000  0.56084000  1.0 0.4342325965
C  C124  1  0.11626000  0.52640000  0.93916000  1.0 0.4342325965
C  C125  1  0.04988000  0.02410000  0.40638000  1.0 -0.5590327236
C  C126  1  0.95012000  0.52410000  0.09362000  1.0 -0.5590327236
C  C127  1  0.95012000  0.97590000  0.59362000  1.0 -0.5590327236
C  C128  1  0.04988000  0.47590000  0.90638000  1.0 -0.5590327236
C  C129  1  0.68672000  0.98000000  0.22202000  1.0 0.5361615267
C  C130  1  0.31328000  0.48000000  0.27798000  1.0 0.5361615267
C  C131  1  0.31328000  0.02000000  0.77798000  1.0 0.5361615267
C  C132  1  0.68672000  0.52000000  0.72202000  1.0 0.5361615267
C  C133  1  0.75826000  0.02120000  0.25446000  1.0 0.048167491
C  C134  1  0.24174000  0.52120000  0.24554000  1.0 0.048167491
C  C135  1  0.24174000  0.97880000  0.74554000  1.0 0.048167491
C  C136  1  0.75826000  0.47880000  0.75446000  1.0 0.048167491
C  C137  1  0.83200000  0.15690000  0.27740000  1.0 0.0570565563
C  C138  1  0.16800000  0.65690000  0.22260000  1.0 0.0570565563
C  C139  1  0.16800000  0.84310000  0.72260000  1.0 0.0570565563
C  C140  1  0.83200000  0.34310000  0.77740000  1.0 0.0570565563
C  C141  1  0.88290000  0.10400000  0.31010000  1.0 0.048167491
C  C142  1  0.11710000  0.60400000  0.18990000  1.0 0.048167491
C  C143  1  0.11710000  0.89600000  0.68990000  1.0 0.048167491
C  C144  1  0.88290000  0.39600000  0.81010000  1.0 0.048167491
C  C145  1  0.80983000  0.96820000  0.28693000  1.0 0.0812975816
C  C146  1  0.19017000  0.46820000  0.21307000  1.0 0.0812975816
C  C147  1  0.19017000  0.03180000  0.71307000  1.0 0.0812975816
C  C148  1  0.80983000  0.53180000  0.78693000  1.0 0.0812975816
C  C149  1  0.80199000  0.86220000  0.29489000  1.0 0.5361615267
C  C150  1  0.19801000  0.36220000  0.20511000  1.0 0.5361615267
C  C151  1  0.19801000  0.13780000  0.70511000  1.0 0.5361615267
C  C152  1  0.80199000  0.63780000  0.79489000  1.0 0.5361615267
C  C153  1  0.52742000  0.21150000  0.16062000  1.0 0.1004161254
C  C154  1  0.47258000  0.71150000  0.33938000  1.0 0.1004161254
C  C155  1  0.47258000  0.78850000  0.83938000  1.0 0.1004161254
C  C156  1  0.52742000  0.28850000  0.66062000  1.0 0.1004161254
C  C157  1  0.59810000  0.26140000  0.12130000  1.0 0.0893345334
C  C158  1  0.40190000  0.76140000  0.37870000  1.0 0.0893345334
C  C159  1  0.40190000  0.73860000  0.87870000  1.0 0.0893345334
C  C160  1  0.59810000  0.23860000  0.62130000  1.0 0.0893345334
C  C161  1  0.46146000  0.25490000  0.13306000  1.0 -0.1771849099
C  C162  1  0.53854000  0.75490000  0.36694000  1.0 -0.1771849099
C  C163  1  0.53854000  0.74510000  0.86694000  1.0 -0.1771849099
C  C164  1  0.46146000  0.24510000  0.63306000  1.0 -0.1771849099
C  C165  1  0.53312000  0.30700000  0.09272000  1.0 -0.1699346605
C  C166  1  0.46688000  0.80700000  0.40728000  1.0 -0.1699346605
C  C167  1  0.46688000  0.69300000  0.90728000  1.0 -0.1699346605
C  C168  1  0.53312000  0.19300000  0.59272000  1.0 -0.1699346605
C  C169  1  0.46482000  0.30680000  0.09932000  1.0 0.159713261
C  C170  1  0.53518000  0.80680000  0.40068000  1.0 0.159713261
C  C171  1  0.53518000  0.69320000  0.90068000  1.0 0.159713261
C  C172  1  0.46482000  0.19320000  0.59932000  1.0 0.159713261
C  C173  1  0.32510000  0.21020000  0.04420000  1.0 -0.5005898228
C  C174  1  0.67490000  0.71020000  0.45580000  1.0 -0.5005898228
C  C175  1  0.67490000  0.78980000  0.95580000  1.0 -0.5005898228
C  C176  1  0.32510000  0.28980000  0.54420000  1.0 -0.5005898228
C  C177  1  0.33214000  0.31800000  0.04464000  1.0 0.4342325965
C  C178  1  0.66786000  0.81800000  0.45536000  1.0 0.4342325965
C  C179  1  0.66786000  0.68200000  0.95536000  1.0 0.4342325965
C  C180  1  0.33214000  0.18200000  0.54464000  1.0 0.4342325965
C  C181  1  0.39856000  0.36540000  0.07106000  1.0 -0.3108628172
C  C182  1  0.60144000  0.86540000  0.42894000  1.0 -0.3108628172
C  C183  1  0.60144000  0.63460000  0.92894000  1.0 -0.3108628172
C  C184  1  0.39856000  0.13460000  0.57106000  1.0 -0.3108628172
C  C185  1  0.40599000  0.46710000  0.07309000  1.0 0.4425936189
C  C186  1  0.59401000  0.96710000  0.42691000  1.0 0.4425936189
C  C187  1  0.59401000  0.53290000  0.92691000  1.0 0.4425936189
C  C188  1  0.40599000  0.03290000  0.57309000  1.0 0.4425936189
C  C189  1  0.47342000  0.51810000  0.10462000  1.0 -0.5478759195
C  C190  1  0.52658000  0.01810000  0.39538000  1.0 -0.5478759195
C  C191  1  0.52658000  0.48190000  0.89538000  1.0 -0.5478759195
C  C192  1  0.47342000  0.98190000  0.60462000  1.0 -0.5478759195
C  C193  1  0.94686000  0.64450000  0.22556000  1.0 0.551742166
C  C194  1  0.05314000  0.14450000  0.27444000  1.0 0.551742166
C  C195  1  0.05314000  0.35550000  0.77444000  1.0 0.551742166
C  C196  1  0.94686000  0.85550000  0.72556000  1.0 0.551742166
C  C197  1  0.07430000  0.51730000  0.28690000  1.0 0.5310178545
C  C198  1  0.92570000  0.01730000  0.21310000  1.0 0.5310178545
C  C199  1  0.92570000  0.48270000  0.71310000  1.0 0.5310178545
C  C200  1  0.07430000  0.98270000  0.78690000  1.0 0.5310178545
C  C201  1  0.00124000  0.47890000  0.25474000  1.0 0.048167491
C  C202  1  0.99876000  0.97890000  0.24526000  1.0 0.048167491
C  C203  1  0.99876000  0.52110000  0.74526000  1.0 0.048167491
C  C204  1  0.00124000  0.02110000  0.75474000  1.0 0.048167491
C  C205  1  0.94691000  0.53550000  0.22461000  1.0 0.0812975816
C  C206  1  0.05309000  0.03550000  0.27539000  1.0 0.0812975816
C  C207  1  0.05309000  0.46450000  0.77539000  1.0 0.0812975816
C  C208  1  0.94691000  0.96450000  0.72461000  1.0 0.0812975816
C  C209  1  0.93031000  0.34310000  0.22751000  1.0 0.0570565563
C  C210  1  0.06969000  0.84310000  0.27249000  1.0 0.0570565563
C  C211  1  0.06969000  0.65690000  0.77249000  1.0 0.0570565563
C  C212  1  0.93031000  0.15690000  0.72751000  1.0 0.0570565563
C  C213  1  0.87691000  0.39960000  0.19691000  1.0 0.048167491
C  C214  1  0.12309000  0.89960000  0.30309000  1.0 0.048167491
C  C215  1  0.12309000  0.60040000  0.80309000  1.0 0.048167491
C  C216  1  0.87691000  0.10040000  0.69691000  1.0 0.048167491
C  C217  1  0.76595000  0.78710000  0.15305000  1.0 0.1004161254
C  C218  1  0.23405000  0.28710000  0.34695000  1.0 0.1004161254
C  C219  1  0.23405000  0.21290000  0.84695000  1.0 0.1004161254
C  C220  1  0.76595000  0.71290000  0.65305000  1.0 0.1004161254
C  C221  1  0.70018000  0.74380000  0.12548000  1.0 -0.1891446713
C  C222  1  0.29982000  0.24380000  0.37452000  1.0 -0.1891446713
C  C223  1  0.29982000  0.25620000  0.87452000  1.0 -0.1891446713
C  C224  1  0.70018000  0.75620000  0.62548000  1.0 -0.1891446713
C  C225  1  0.83755000  0.73500000  0.11525000  1.0 0.0893345334
C  C226  1  0.16245000  0.23500000  0.38475000  1.0 0.0893345334
C  C227  1  0.16245000  0.26500000  0.88475000  1.0 0.0893345334
C  C228  1  0.83755000  0.76500000  0.61525000  1.0 0.0893345334
C  C229  1  0.77337000  0.69050000  0.08627000  1.0 -0.1699346605
C  C230  1  0.22663000  0.19050000  0.41373000  1.0 -0.1699346605
C  C231  1  0.22663000  0.30950000  0.91373000  1.0 -0.1699346605
C  C232  1  0.77337000  0.80950000  0.58627000  1.0 -0.1699346605
C  C233  1  0.70425000  0.69140000  0.09185000  1.0 0.159713261
C  C234  1  0.29575000  0.19140000  0.40815000  1.0 0.159713261
C  C235  1  0.29575000  0.30860000  0.90815000  1.0 0.159713261
C  C236  1  0.70425000  0.80860000  0.59185000  1.0 0.159713261
C  C237  1  0.56750000  0.78660000  0.03330000  1.0 -0.5005898228
C  C238  1  0.43250000  0.28660000  0.46670000  1.0 -0.5005898228
C  C239  1  0.43250000  0.21340000  0.96670000  1.0 -0.5005898228
C  C240  1  0.56750000  0.71340000  0.53330000  1.0 -0.5005898228
C  C241  1  0.57321000  0.67890000  0.03531000  1.0 0.4472590197
C  C242  1  0.42679000  0.17890000  0.46469000  1.0 0.4472590197
C  C243  1  0.42679000  0.32110000  0.96469000  1.0 0.4472590197
C  C244  1  0.57321000  0.82110000  0.53531000  1.0 0.4472590197
C  C245  1  0.63896000  0.63210000  0.06356000  1.0 -0.3108628172
C  C246  1  0.36104000  0.13210000  0.43644000  1.0 -0.3108628172
C  C247  1  0.36104000  0.36790000  0.93644000  1.0 -0.3108628172
C  C248  1  0.63896000  0.86790000  0.56356000  1.0 -0.3108628172
C  C249  1  0.64546000  0.53040000  0.06656000  1.0 0.4342325965
C  C250  1  0.35454000  0.03040000  0.43344000  1.0 0.4342325965
C  C251  1  0.35454000  0.46960000  0.93344000  1.0 0.4425936189
C  C252  1  0.64546000  0.96960000  0.56656000  1.0 0.4425936189
C  C253  1  0.71129000  0.48120000  0.09979000  1.0 -0.5478759195
C  C254  1  0.28871000  0.98120000  0.40021000  1.0 -0.5478759195
C  C255  1  0.28871000  0.51880000  0.90021000  1.0 -0.5478759195
C  C256  1  0.71129000  0.01880000  0.59979000  1.0 -0.5478759195
N  N1  1  0.68352000  0.28980000  0.34342000  1.0 -0.2179558308
N  N2  1  0.31648000  0.78980000  0.15658000  1.0 -0.2179558308
N  N3  1  0.31648000  0.71020000  0.65658000  1.0 -0.2179558308
N  N4  1  0.68352000  0.21020000  0.84342000  1.0 -0.2179558308
N  N5  1  0.50784000  0.39770000  0.24954000  1.0 -0.2076433628
N  N6  1  0.49216000  0.89770000  0.25046000  1.0 -0.2076433628
N  N7  1  0.49216000  0.60230000  0.75046000  1.0 -0.2076433628
N  N8  1  0.50784000  0.10230000  0.74954000  1.0 -0.2076433628
N  N9  1  0.39770000  0.50410000  0.18920000  1.0 -0.2294955009
N  N10  1  0.60230000  0.00410000  0.31080000  1.0 -0.2294955009
N  N11  1  0.60230000  0.49590000  0.81080000  1.0 -0.2294955009
N  N12  1  0.39770000  0.99590000  0.68920000  1.0 -0.2294955009
N  N13  1  0.65329000  0.50430000  0.19599000  1.0 -0.2294955009
N  N14  1  0.34671000  0.00430000  0.30401000  1.0 -0.2294955009
N  N15  1  0.34671000  0.49570000  0.80401000  1.0 -0.2294955009
N  N16  1  0.65329000  0.99570000  0.69599000  1.0 -0.2294955009
N  N17  1  0.76508000  0.61300000  0.25388000  1.0 -0.1992149729
N  N18  1  0.23492000  0.11300000  0.24612000  1.0 -0.1992149729
N  N19  1  0.23492000  0.38700000  0.74612000  1.0 -0.1992149729
N  N20  1  0.76508000  0.88700000  0.75388000  1.0 -0.1992149729
N  N21  1  0.94447000  0.72060000  0.34667000  1.0 -0.2179558308
N  N22  1  0.05553000  0.22060000  0.15333000  1.0 -0.2179558308
N  N23  1  0.05553000  0.27940000  0.65333000  1.0 -0.2179558308
N  N24  1  0.94447000  0.77940000  0.84667000  1.0 -0.2179558308
N  N25  1  0.77045000  0.11490000  0.25005000  1.0 -0.2076433628
N  N26  1  0.22955000  0.61490000  0.24995000  1.0 -0.2076433628
N  N27  1  0.22955000  0.88510000  0.74995000  1.0 -0.2076433628
N  N28  1  0.77045000  0.38510000  0.75005000  1.0 -0.2076433628
N  N29  1  0.87319000  0.01060000  0.31499000  1.0 -0.2294955009
N  N30  1  0.12681000  0.51060000  0.18501000  1.0 -0.2294955009
N  N31  1  0.12681000  0.98940000  0.68501000  1.0 -0.2294955009
N  N32  1  0.87319000  0.48940000  0.81499000  1.0 -0.2294955009
N  N33  1  0.59549000  0.21690000  0.15499000  1.0 -0.2179558308
N  N34  1  0.40451000  0.71690000  0.34501000  1.0 -0.2179558308
N  N35  1  0.40451000  0.78310000  0.84501000  1.0 -0.2179558308
N  N36  1  0.59549000  0.28310000  0.65499000  1.0 -0.2179558308
N  N37  1  0.99109000  0.38380000  0.25629000  1.0 -0.2076433628
N  N38  1  0.00891000  0.88380000  0.24371000  1.0 -0.2076433628
N  N39  1  0.00891000  0.61620000  0.74371000  1.0 -0.2076433628
N  N40  1  0.99109000  0.11620000  0.75629000  1.0 -0.2076433628
N  N41  1  0.88498000  0.49460000  0.19508000  1.0 -0.2350012813
N  N42  1  0.11502000  0.99460000  0.30492000  1.0 -0.2350012813
N  N43  1  0.11502000  0.50540000  0.80492000  1.0 -0.2350012813
N  N44  1  0.88498000  0.00540000  0.69508000  1.0 -0.2350012813
N  N45  1  0.83390000  0.78040000  0.14880000  1.0 -0.2179558308
N  N46  1  0.16610000  0.28040000  0.35120000  1.0 -0.2179558308
N  N47  1  0.16610000  0.21960000  0.85120000  1.0 -0.2179558308
N  N48  1  0.83390000  0.71960000  0.64880000  1.0 -0.2179558308
O  O1  1  0.98655000  0.13470000  0.49015000  1.0 -0.4900276977
O  O2  1  0.01345000  0.63470000  0.00985000  1.0 -0.4900276977
O  O3  1  0.01345000  0.86530000  0.50985000  1.0 -0.4900276977
O  O4  1  0.98655000  0.36530000  0.99015000  1.0 -0.4900276977
O  O5  1  0.90473000  0.97170000  0.45733000  1.0 -0.4900276977
O  O6  1  0.09527000  0.47170000  0.04267000  1.0 -0.4900276977
O  O7  1  0.09527000  0.02830000  0.54267000  1.0 -0.4900276977
O  O8  1  0.90473000  0.52830000  0.95733000  1.0 -0.4900276977
O  O9  1  0.62949000  0.47190000  0.30609000  1.0 -0.5186114265
O  O10  1  0.37051000  0.97190000  0.19391000  1.0 -0.5186114265
O  O11  1  0.37051000  0.52810000  0.69391000  1.0 -0.5186114265
O  O12  1  0.62949000  0.02810000  0.80609000  1.0 -0.5186114265
O  O13  1  0.59551000  0.62260000  0.28421000  1.0 -0.4900276977
O  O14  1  0.40449000  0.12260000  0.21579000  1.0 -0.4900276977
O  O15  1  0.40449000  0.37740000  0.71579000  1.0 -0.4900276977
O  O16  1  0.59551000  0.87740000  0.78421000  1.0 -0.4900276977
O  O17  1  0.42905000  0.70530000  0.22785000  1.0 -0.510751817
O  O18  1  0.57095000  0.20530000  0.27215000  1.0 -0.510751817
O  O19  1  0.57095000  0.29470000  0.77215000  1.0 -0.510751817
O  O20  1  0.42905000  0.79470000  0.72785000  1.0 -0.510751817
O  O21  1  0.49475000  0.68190000  0.18545000  1.0 -0.5306674643
O  O22  1  0.50525000  0.18190000  0.31455000  1.0 -0.5306674643
O  O23  1  0.50525000  0.31810000  0.81455000  1.0 -0.5306674643
O  O24  1  0.49475000  0.81810000  0.68545000  1.0 -0.5306674643
O  O25  1  0.67060000  0.31820000  0.24941000  1.0 -0.5478759195
O  O26  1  0.32940000  0.81820000  0.25059000  1.0 -0.5478759195
O  O27  1  0.32940000  0.68180000  0.75059000  1.0 -0.5478759195
O  O28  1  0.67060000  0.18180000  0.74941000  1.0 -0.5416693095
O  O29  1  0.73316000  0.30480000  0.20538000  1.0 -0.5306674643
O  O30  1  0.26684000  0.80480000  0.29462000  1.0 -0.5306674643
O  O31  1  0.26684000  0.69520000  0.79462000  1.0 -0.5306674643
O  O32  1  0.73316000  0.19520000  0.70538000  1.0 -0.5306674643
O  O33  1  0.84943000  0.38920000  0.29315000  1.0 -0.5005898228
O  O34  1  0.15057000  0.88920000  0.20685000  1.0 -0.5005898228
O  O35  1  0.15057000  0.61080000  0.70685000  1.0 -0.5005898228
O  O36  1  0.84943000  0.11080000  0.79315000  1.0 -0.5005898228
O  O37  1  0.88537000  0.54060000  0.31237000  1.0 -0.5186114265
O  O38  1  0.11463000  0.04060000  0.18763000  1.0 -0.5186114265
O  O39  1  0.11463000  0.45940000  0.68763000  1.0 -0.5186114265
O  O40  1  0.88537000  0.95940000  0.81237000  1.0 -0.5186114265
O  O41  1  0.16429000  0.03220000  0.46459000  1.0 -0.5005898228
O  O42  1  0.83571000  0.53220000  0.03541000  1.0 -0.5005898228
O  O43  1  0.83571000  0.96780000  0.53541000  1.0 -0.5005898228
O  O44  1  0.16429000  0.46780000  0.96459000  1.0 -0.5005898228
O  O45  1  0.24753000  0.86960000  0.49503000  1.0 -0.4826426807
O  O46  1  0.75247000  0.36960000  0.00497000  1.0 -0.4826426807
O  O47  1  0.75247000  0.13040000  0.50497000  1.0 -0.4826426807
O  O48  1  0.24753000  0.63040000  0.99503000  1.0 -0.4826426807
O  O49  1  0.64682000  0.04110000  0.19542000  1.0 -0.510751817
O  O50  1  0.35318000  0.54110000  0.30458000  1.0 -0.510751817
O  O51  1  0.35318000  0.95890000  0.80458000  1.0 -0.510751817
O  O52  1  0.64682000  0.45890000  0.69542000  1.0 -0.510751817
O  O53  1  0.67126000  0.89390000  0.22296000  1.0 -0.4826426807
O  O54  1  0.32874000  0.39390000  0.27704000  1.0 -0.4826426807
O  O55  1  0.32874000  0.10610000  0.77704000  1.0 -0.4826426807
O  O56  1  0.67126000  0.60610000  0.72296000  1.0 -0.4826426807
O  O57  1  0.83199000  0.80700000  0.27589000  1.0 -0.510751817
O  O58  1  0.16801000  0.30700000  0.22411000  1.0 -0.510751817
O  O59  1  0.16801000  0.19300000  0.72411000  1.0 -0.510751817
O  O60  1  0.83199000  0.69300000  0.77589000  1.0 -0.510751817
O  O61  1  0.77288000  0.83850000  0.32088000  1.0 -0.5306674643
O  O62  1  0.22712000  0.33850000  0.17912000  1.0 -0.5306674643
O  O63  1  0.22712000  0.16150000  0.67912000  1.0 -0.5306674643
O  O64  1  0.77288000  0.66150000  0.82088000  1.0 -0.5306674643
O  O65  1  0.27293000  0.36180000  0.01883000  1.0 -0.4900276977
O  O66  1  0.72707000  0.86180000  0.48117000  1.0 -0.4900276977
O  O67  1  0.72707000  0.63820000  0.98117000  1.0 -0.4900276977
O  O68  1  0.27293000  0.13820000  0.51883000  1.0 -0.4900276977
O  O69  1  0.35578000  0.52560000  0.04908000  1.0 -0.5005898228
O  O70  1  0.64422000  0.02560000  0.45092000  1.0 -0.5005898228
O  O71  1  0.64422000  0.47440000  0.95092000  1.0 -0.5005898228
O  O72  1  0.35578000  0.97440000  0.54908000  1.0 -0.5005898228
O  O73  1  0.92184000  0.68420000  0.25004000  1.0 -0.5416693095
O  O74  1  0.07816000  0.18420000  0.24996000  1.0 -0.5416693095
O  O75  1  0.07816000  0.31580000  0.74996000  1.0 -0.5416693095
O  O76  1  0.92184000  0.81580000  0.75004000  1.0 -0.5416693095
O  O77  1  0.96838000  0.68840000  0.19928000  1.0 -0.5186114265
O  O78  1  0.03162000  0.18840000  0.30072000  1.0 -0.5186114265
O  O79  1  0.03162000  0.31160000  0.80072000  1.0 -0.5186114265
O  O80  1  0.96838000  0.81160000  0.69928000  1.0 -0.5186114265
O  O81  1  0.09026000  0.60370000  0.28658000  1.0 -0.5005898228
O  O82  1  0.90974000  0.10370000  0.21342000  1.0 -0.5005898228
O  O83  1  0.90974000  0.39630000  0.71342000  1.0 -0.5005898228
O  O84  1  0.09026000  0.89630000  0.78658000  1.0 -0.5005898228
O  O85  1  0.11443000  0.45490000  0.31263000  1.0 -0.510751817
O  O86  1  0.88557000  0.95490000  0.18737000  1.0 -0.510751817
O  O87  1  0.88557000  0.54510000  0.68737000  1.0 -0.510751817
O  O88  1  0.11443000  0.04510000  0.81263000  1.0 -0.510751817
O  O89  1  0.51489000  0.63520000  0.00959000  1.0 -0.4900276977
O  O90  1  0.48511000  0.13520000  0.49041000  1.0 -0.4900276977
O  O91  1  0.48511000  0.36480000  0.99041000  1.0 -0.4900276977
O  O92  1  0.51489000  0.86480000  0.50959000  1.0 -0.4900276977
O  O93  1  0.59487000  0.47190000  0.04267000  1.0 -0.5005898228
O  O94  1  0.40513000  0.97190000  0.45733000  1.0 -0.5005898228
O  O95  1  0.40513000  0.52810000  0.95733000  1.0 -0.5005898228
O  O96  1  0.59487000  0.02810000  0.54267000  1.0 -0.5005898228
