# DDEC6 charges by PACMAN v1.1 (https://github.com/mtap-research/PACMAN-charge/)
data_GUXPOF_ASR_pacman
_symmetry_space_group_name_H-M   'P 1'
_cell_length_a   9.53840000
_cell_length_b   12.17590000
_cell_length_c   19.31300000
_cell_angle_alpha   101.15200000
_cell_angle_beta   100.35100000
_cell_angle_gamma   105.30400000
_symmetry_Int_Tables_number   1
_chemical_formula_structural   Co2H41C37S(NO4)2
_chemical_formula_sum   'Co4 H82 C74 S2 N4 O16'
_cell_volume   2058.53966573
_cell_formula_units_Z   2
loop_
 _symmetry_equiv_pos_site_id
 _symmetry_equiv_pos_as_xyz
  1  'x, y, z'
loop_
 _atom_site_type_symbol
 _atom_site_label
 _atom_site_symmetry_multiplicity
 _atom_site_fract_x
 _atom_site_fract_y
 _atom_site_fract_z
 _atom_site_occupancy
 _atom_site_charge
Co  Co1  1  0.00406000  0.57730000  0.35339000  1.0 0.8346286344
Co  Co2  1  0.99594000  0.42270000  0.64661000  1.0 0.8346286344
Co  Co3  1  0.00000000  0.50000000  0.50000000  1.0 1.0129617977
Co  Co4  1  0.50000000  0.00000000  0.00000000  1.0 0.806494348
H  H1  1  0.84710000  0.74250000  0.75280000  1.0 0.0809261796
H  H2  1  0.15290000  0.25750000  0.24720000  1.0 0.0809261796
H  H3  1  0.87050000  0.68240000  0.67810000  1.0 0.0809261796
H  H4  1  0.12950000  0.31760000  0.32190000  1.0 0.0809261796
H  H5  1  0.71980000  0.63360000  0.69980000  1.0 0.0610792185
H  H6  1  0.28020000  0.36640000  0.30020000  1.0 0.0610792185
H  H7  1  0.82670000  0.95440000  0.65580000  1.0 0.0809261796
H  H8  1  0.17330000  0.04560000  0.34420000  1.0 0.0809261796
H  H9  1  0.93270000  0.87630000  0.64760000  1.0 0.088954151
H  H10  1  0.06730000  0.12370000  0.35240000  1.0 0.088954151
H  H11  1  0.91450000  0.92970000  0.72490000  1.0 0.0610792185
H  H12  1  0.08550000  0.07030000  0.27510000  1.0 0.0610792185
H  H13  1  0.67000000  0.85870000  0.75500000  1.0 0.0809261796
H  H14  1  0.33000000  0.14130000  0.24500000  1.0 0.0809261796
H  H15  1  0.54270000  0.74890000  0.70290000  1.0 0.0610792185
H  H16  1  0.45730000  0.25110000  0.29710000  1.0 0.0610792185
H  H17  1  0.57780000  0.87010000  0.68230000  1.0 0.0610792185
H  H18  1  0.42220000  0.12990000  0.31770000  1.0 0.0610792185
H  H19  1  0.50520000  0.58360000  0.38550000  1.0 0.1317983956
H  H20  1  0.49480000  0.41640000  0.61450000  1.0 0.1317983956
H  H21  1  0.44870000  0.70200000  0.58430000  1.0 0.1208535262
H  H22  1  0.55130000  0.29800000  0.41570000  1.0 0.1208535262
H  H23  1  0.86000000  0.71850000  0.55850000  1.0 0.1208535262
H  H24  1  0.14000000  0.28150000  0.44150000  1.0 0.1208535262
H  H25  1  0.29800000  0.79290000  0.79490000  1.0 0.138972756
H  H26  1  0.70200000  0.20710000  0.20510000  1.0 0.138972756
H  H27  1  0.41060000  0.08540000  0.72390000  1.0 0.1208535262
H  H28  1  0.58940000  0.91460000  0.27610000  1.0 0.1208535262
H  H29  1  0.16080000  0.77970000  0.58340000  1.0 0.1317983956
H  H30  1  0.83920000  0.22030000  0.41660000  1.0 0.1317983956
H  H31  1  0.21560000  0.13810000  0.63520000  1.0 0.1317983956
H  H32  1  0.78440000  0.86190000  0.36480000  1.0 0.1317983956
H  H33  1  0.17110000  0.11840000  0.55050000  1.0 0.138972756
H  H34  1  0.82890000  0.88160000  0.44950000  1.0 0.138972756
H  H35  1  0.07970000  0.03020000  0.58760000  1.0 0.138972756
H  H36  1  0.92030000  0.96980000  0.41240000  1.0 0.138972756
H  H37  1  0.50840000  0.04310000  0.58660000  1.0 0.138972756
H  H38  1  0.49160000  0.95690000  0.41340000  1.0 0.138972756
H  H39  1  0.43560000  0.12090000  0.54530000  1.0 0.138972756
H  H40  1  0.56440000  0.87910000  0.45470000  1.0 0.138972756
H  H41  1  0.46980000  0.14910000  0.63040000  1.0 0.1317983956
H  H42  1  0.53020000  0.85090000  0.36960000  1.0 0.1317983956
H  H43  1  0.12580000  0.86990000  0.49990000  1.0 0.138972756
H  H44  1  0.87420000  0.13010000  0.50010000  1.0 0.1317983956
H  H45  1  0.22910000  0.96080000  0.46870000  1.0 0.138972756
H  H46  1  0.77090000  0.03920000  0.53130000  1.0 0.138972756
H  H47  1  0.29030000  0.86910000  0.50090000  1.0 0.1317983956
H  H48  1  0.70970000  0.13090000  0.49910000  1.0 0.1317983956
H  H49  1  0.84210000  0.70200000  0.25870000  1.0 0.1208535262
H  H50  1  0.15790000  0.29800000  0.74130000  1.0 0.1208535262
H  H51  1  0.87660000  0.80000000  0.17020000  1.0 0.138972756
H  H52  1  0.12340000  0.20000000  0.82980000  1.0 0.138972756
H  H53  1  0.30010000  0.79350000  0.20710000  1.0 0.1460984725
H  H54  1  0.69990000  0.20650000  0.79290000  1.0 0.1460984725
H  H55  1  0.25560000  0.69900000  0.29530000  1.0 0.1208535262
H  H56  1  0.74440000  0.30100000  0.70470000  1.0 0.1208535262
H  H57  1  0.86040000  0.75460000  0.00170000  1.0 0.138972756
H  H58  1  0.13960000  0.24540000  0.99830000  1.0 0.138972756
H  H59  1  0.65130000  0.80580000  0.96050000  1.0 0.1208535262
H  H60  1  0.34870000  0.19420000  0.03950000  1.0 0.1208535262
H  H61  1  0.82310000  0.11620000  0.09170000  1.0 0.1102640855
H  H62  1  0.17690000  0.88380000  0.90830000  1.0 0.1102640855
H  H63  1  0.03780000  0.07530000  0.13510000  1.0 0.138972756
H  H64  1  0.96220000  0.92470000  0.86490000  1.0 0.138972756
H  H65  1  0.69570000  0.74030000  0.76080000  1.0 0.088954151
H  H66  1  0.30430000  0.25970000  0.23920000  1.0 0.088954151
H  H67  1  0.65770000  0.63000000  0.69530000  1.0 0.0719584472
H  H68  1  0.34230000  0.37000000  0.30470000  1.0 0.0719584472
H  H69  1  0.54670000  0.70420000  0.70010000  1.0 0.0719584472
H  H70  1  0.45330000  0.29580000  0.29990000  1.0 0.0719584472
H  H71  1  0.92650000  0.86260000  0.74410000  1.0 0.0719584472
H  H72  1  0.07350000  0.13740000  0.25590000  1.0 0.0719584472
H  H73  1  0.94870000  0.86100000  0.66540000  1.0 0.0809261796
H  H74  1  0.05130000  0.13900000  0.33460000  1.0 0.0809261796
H  H75  1  0.92420000  0.74550000  0.69230000  1.0 0.0508019511
H  H76  1  0.07580000  0.25450000  0.30770000  1.0 0.0508019511
H  H77  1  0.58040000  0.88090000  0.65860000  1.0 0.0809261796
H  H78  1  0.41960000  0.11910000  0.34140000  1.0 0.0809261796
H  H79  1  0.74090000  0.95510000  0.65700000  1.0 0.0809261796
H  H80  1  0.25910000  0.04490000  0.34300000  1.0 0.0809261796
H  H81  1  0.70730000  0.93400000  0.73080000  1.0 0.0508019511
H  H82  1  0.29270000  0.06600000  0.26920000  1.0 0.0508019511
C  C1  1  0.79860000  0.70340000  0.70270000  1.0 -0.1832895798
C  C2  1  0.20140000  0.29660000  0.29730000  1.0 -0.1832895798
C  C3  1  0.86390000  0.89710000  0.67440000  1.0 -0.1984426401
C  C4  1  0.13610000  0.10290000  0.32560000  1.0 -0.1984426401
C  C5  1  0.62060000  0.81900000  0.70510000  1.0 -0.1901457996
C  C6  1  0.37940000  0.18100000  0.29490000  1.0 -0.1901457996
C  C7  1  0.69830000  0.64630000  0.46540000  1.0 0.0040519501
C  C8  1  0.30170000  0.35370000  0.53460000  1.0 0.0040519501
C  C9  1  0.54450000  0.61630000  0.43517000  1.0 -0.1052747739
C  C10  1  0.45550000  0.38370000  0.56483000  1.0 -0.1052747739
C  C11  1  0.45150000  0.63620000  0.48044000  1.0 0.0040519501
C  C12  1  0.54850000  0.36380000  0.51956000  1.0 0.0040519501
C  C13  1  0.51260000  0.68970000  0.55453000  1.0 -0.2133416456
C  C14  1  0.48740000  0.31030000  0.44547000  1.0 -0.2133416456
C  C15  1  0.66630000  0.72530000  0.58521000  1.0 0.010994105
C  C16  1  0.33370000  0.27470000  0.41479000  1.0 0.010994105
C  C17  1  0.75750000  0.69950000  0.53921000  1.0 -0.2197892216
C  C18  1  0.24250000  0.30050000  0.46079000  1.0 -0.2197892216
C  C19  1  0.80090000  0.62300000  0.41777000  1.0 0.5503136742
C  C20  1  0.19910000  0.37700000  0.58223000  1.0 0.5503136742
C  C21  1  0.28400000  0.60060000  0.45416000  1.0 0.5684519041
C  C22  1  0.71600000  0.39940000  0.54584000  1.0 0.5684519041
C  C23  1  0.73210000  0.78670000  0.66610000  1.0 0.2057811323
C  C24  1  0.26790000  0.21330000  0.33390000  1.0 0.2057811323
C  C25  1  0.21320000  0.76790000  0.68725000  1.0 -0.0069072544
C  C26  1  0.78680000  0.23210000  0.31275000  1.0 -0.0069072544
C  C27  1  0.29430000  0.83040000  0.75729000  1.0 -0.1365890649
C  C28  1  0.70570000  0.16960000  0.24271000  1.0 -0.1365890649
C  C29  1  0.36990000  0.94970000  0.77067000  1.0 -0.0069072544
C  C30  1  0.63010000  0.05030000  0.22933000  1.0 -0.0069072544
C  C31  1  0.36320000  0.00490000  0.71408000  1.0 -0.1654820365
C  C32  1  0.63680000  0.99510000  0.28592000  1.0 -0.1642651779
C  C33  1  0.28670000  0.94210000  0.64267000  1.0 0.0508019511
C  C34  1  0.71330000  0.05790000  0.35733000  1.0 0.0508019511
C  C35  1  0.21240000  0.82340000  0.63046000  1.0 -0.1654820365
C  C36  1  0.78760000  0.17660000  0.36954000  1.0 -0.1654820365
C  C37  1  0.12350000  0.64200000  0.67149000  1.0 0.5310711789
C  C38  1  0.87650000  0.35800000  0.32851000  1.0 0.5310711789
C  C39  1  0.45880000  0.01820000  0.84669000  1.0 0.5310711789
C  C40  1  0.54120000  0.98180000  0.15331000  1.0 0.5310711789
C  C41  1  0.28260000  0.00570000  0.58129000  1.0 0.292614572
C  C42  1  0.71740000  0.99430000  0.41871000  1.0 0.292614572
C  C43  1  0.17750000  0.08000000  0.58940000  1.0 -0.4844352377
C  C44  1  0.82250000  0.92000000  0.41060000  1.0 -0.4844352377
C  C45  1  0.43860000  0.08730000  0.58640000  1.0 -0.4897129831
C  C46  1  0.56140000  0.91270000  0.41360000  1.0 -0.4897129831
C  C47  1  0.22670000  0.91810000  0.50556000  1.0 -0.4897129831
C  C48  1  0.77330000  0.08190000  0.49444000  1.0 -0.4897129831
C  C49  1  0.93540000  0.72030000  0.24800000  1.0 0.088954151
C  C50  1  0.06460000  0.27970000  0.75200000  1.0 0.088954151
C  C51  1  0.95490000  0.77890000  0.19440000  1.0 -0.1984426401
C  C52  1  0.04510000  0.22110000  0.80560000  1.0 -0.1984426401
C  C53  1  0.09230000  0.80580000  0.17702000  1.0 0.1102640855
C  C54  1  0.90770000  0.19420000  0.82298000  1.0 0.1102640855
C  C55  1  0.20550000  0.77520000  0.21650000  1.0 -0.1832895798
C  C56  1  0.79450000  0.22480000  0.78350000  1.0 -0.1832895798
C  C57  1  0.17770000  0.71820000  0.26916000  1.0 0.0719584472
C  C58  1  0.82230000  0.28180000  0.73084000  1.0 0.0719584472
C  C59  1  0.97140000  0.90900000  0.07549000  1.0 0.088954151
C  C60  1  0.02860000  0.09100000  0.92451000  1.0 0.088954151
C  C61  1  0.85490000  0.82880000  0.02150000  1.0 -0.1901457996
C  C62  1  0.14510000  0.17120000  0.97850000  1.0 -0.1901457996
C  C63  1  0.72940000  0.86060000  0.99710000  1.0 0.088954151
C  C64  1  0.27060000  0.13940000  0.00290000  1.0 0.088954151
C  C65  1  0.82990000  0.04180000  0.07340000  1.0 0.0610792185
C  C66  1  0.17010000  0.95820000  0.92660000  1.0 0.0610792185
C  C67  1  0.95930000  0.01770000  0.10030000  1.0 -0.2197892216
C  C68  1  0.04070000  0.98230000  0.89970000  1.0 -0.2197892216
C  C69  1  0.65030000  0.70780000  0.70970000  1.0 -0.1984426401
C  C70  1  0.34970000  0.29220000  0.29030000  1.0 -0.1984426401
C  C71  1  0.89770000  0.81660000  0.69450000  1.0 -0.1901457996
C  C72  1  0.10230000  0.18340000  0.30550000  1.0 -0.1901457996
C  C73  1  0.68580000  0.89990000  0.67940000  1.0 -0.1901457996
C  C74  1  0.31420000  0.10010000  0.32060000  1.0 -0.1901457996
S  S1  1  0.13855000  0.87699000  0.10920000  1.0 -0.0028913867
S  S2  1  0.86145000  0.12301000  0.89080000  1.0 -0.0028913867
N  N1  1  0.04300000  0.68830000  0.28540000  1.0 -0.2534174953
N  N2  1  0.95700000  0.31170000  0.71460000  1.0 -0.2534174953
N  N3  1  0.71430000  0.96430000  0.02276000  1.0 -0.2534174953
N  N4  1  0.28570000  0.03570000  0.97724000  1.0 -0.2534174953
O  O1  1  0.93775000  0.63118000  0.44838000  1.0 -0.605089612
O  O2  1  0.06225000  0.36882000  0.55162000  1.0 -0.605089612
O  O3  1  0.76020000  0.59800000  0.35074000  1.0 -0.5158840191
O  O4  1  0.23980000  0.40200000  0.64926000  1.0 -0.5158840191
O  O5  1  0.22590000  0.59804000  0.38929000  1.0 -0.5647983027
O  O6  1  0.77410000  0.40196000  0.61071000  1.0 -0.5647983027
O  O7  1  0.21250000  0.57840000  0.50110000  1.0 -0.5482837629
O  O8  1  0.78750000  0.42160000  0.49890000  1.0 -0.5482837629
O  O9  1  0.12230000  0.58604000  0.72034000  1.0 -0.4966810417
O  O10  1  0.87770000  0.41396000  0.27966000  1.0 -0.4966810417
O  O11  1  0.04260000  0.59004000  0.60804000  1.0 -0.5415006948
O  O12  1  0.95740000  0.40996000  0.39196000  1.0 -0.5415006948
O  O13  1  0.47720000  0.95646000  0.89135000  1.0 -0.5809751225
O  O14  1  0.52280000  0.04354000  0.10865000  1.0 -0.5809751225
O  O15  1  0.50760000  0.12700000  0.86072000  1.0 -0.5482837629
O  O16  1  0.49240000  0.87300000  0.13928000  1.0 -0.5482837629
