# DDEC6 charges by PACMAN v1.1 (https://github.com/mtap-research/PACMAN-charge/)
data_GUZVOO_ASR_pacman
_symmetry_space_group_name_H-M   'P 1'
_cell_length_a   22.96730000
_cell_length_b   22.96730000
_cell_length_c   22.96730000
_cell_angle_alpha   134.60100000
_cell_angle_beta   134.60100000
_cell_angle_gamma   66.15060000
_symmetry_Int_Tables_number   1
_chemical_formula_structural   Co3C12N4(O2F3)4
_chemical_formula_sum   'Co24 C96 N32 O64 F96'
_cell_volume   6047.21024166
_cell_formula_units_Z   8
loop_
 _symmetry_equiv_pos_site_id
 _symmetry_equiv_pos_as_xyz
  1  'x, y, z'
loop_
 _atom_site_type_symbol
 _atom_site_label
 _atom_site_symmetry_multiplicity
 _atom_site_fract_x
 _atom_site_fract_y
 _atom_site_fract_z
 _atom_site_occupancy
 _atom_site_charge
Co  Co1  1  0.87171000  0.73916000  0.50097000  1.0 0.6987767269
Co  Co2  1  0.23819000  0.37074000  0.49903000  1.0 0.6987767269
Co  Co3  1  0.12074000  0.12171000  0.63255000  1.0 0.6987767269
Co  Co4  1  0.48916000  0.48819000  0.36745000  1.0 0.6936413756
Co  Co5  1  0.23819000  0.73916000  0.86745000  1.0 0.6987767269
Co  Co6  1  0.87171000  0.37074000  0.13255000  1.0 0.6987767269
Co  Co7  1  0.48916000  0.12171000  0.00097000  1.0 0.6987767269
Co  Co8  1  0.12074000  0.48819000  0.99903000  1.0 0.6987767269
Co  Co9  1  0.69598000  0.42743000  0.26855000  1.0 1.0305980505
Co  Co10  1  0.15888000  0.42743000  0.73145000  1.0 1.0305980505
Co  Co11  1  0.17743000  0.94598000  0.76855000  1.0 1.0305980505
Co  Co12  1  0.17743000  0.40888000  0.23145000  1.0 1.0305980505
Co  Co13  1  0.51181000  0.51084000  0.63255000  1.0 0.6987767269
Co  Co14  1  0.87829000  0.87926000  0.36745000  1.0 0.6987767269
Co  Co15  1  0.26084000  0.12829000  0.49903000  1.0 0.6987767269
Co  Co16  1  0.62926000  0.76181000  0.50097000  1.0 0.6936413756
Co  Co17  1  0.87829000  0.51084000  0.99903000  1.0 0.6987767269
Co  Co18  1  0.51181000  0.87926000  0.00097000  1.0 0.6987767269
Co  Co19  1  0.62926000  0.12829000  0.86745000  1.0 0.6987767269
Co  Co20  1  0.26084000  0.76181000  0.13255000  1.0 0.6936413756
Co  Co21  1  0.59112000  0.82257000  0.76855000  1.0 1.0305980505
Co  Co22  1  0.05402000  0.82257000  0.23145000  1.0 1.0305980505
Co  Co23  1  0.57257000  0.30402000  0.73145000  1.0 1.0305980505
Co  Co24  1  0.57257000  0.84112000  0.26855000  1.0 1.0305980505
C  C1  1  0.01550000  0.85360000  0.64310000  1.0 0.566600958
C  C2  1  0.21050000  0.37240000  0.35690000  1.0 0.566600958
C  C3  1  0.12240000  0.26550000  0.66190000  1.0 0.566600958
C  C4  1  0.60360000  0.46050000  0.33810000  1.0 0.566600958
C  C5  1  0.21050000  0.85360000  0.83810000  1.0 0.566600958
C  C6  1  0.01550000  0.37240000  0.16190000  1.0 0.566600958
C  C7  1  0.60360000  0.26550000  0.14310000  1.0 0.566600958
C  C8  1  0.12240000  0.46050000  0.85690000  1.0 0.566600958
C  C9  1  0.04745000  0.81075000  0.68490000  1.0 -0.0290901239
C  C10  1  0.12585000  0.36255000  0.31510000  1.0 -0.0290901239
C  C11  1  0.11255000  0.29745000  0.73670000  1.0 -0.0290901239
C  C12  1  0.56075000  0.37585000  0.26330000  1.0 -0.0290901239
C  C13  1  0.12585000  0.81075000  0.76330000  1.0 -0.0290901239
C  C14  1  0.04745000  0.36255000  0.23670000  1.0 -0.0290901239
C  C15  1  0.56075000  0.29745000  0.18490000  1.0 -0.0290901239
C  C16  1  0.11255000  0.37585000  0.81510000  1.0 -0.0290901239
C  C17  1  0.03759000  0.72299000  0.68540000  1.0 0.0082258206
C  C18  1  0.03759000  0.35219000  0.31460000  1.0 0.0082258206
C  C19  1  0.10219000  0.28759000  0.81460000  1.0 0.0082258206
C  C20  1  0.47299000  0.28759000  0.18540000  1.0 0.0082258206
C  C21  1  0.00090000  0.65860000  0.65770000  1.0 0.3577535462
C  C22  1  0.00090000  0.34320000  0.34230000  1.0 0.3541974933
C  C23  1  0.09320000  0.25090000  0.84230000  1.0 0.3577535462
C  C24  1  0.40860000  0.25090000  0.15770000  1.0 0.3577535462
C  C25  1  0.77308000  0.59248000  0.37920000  1.0 0.566600958
C  C26  1  0.21328000  0.39388000  0.62080000  1.0 0.566600958
C  C27  1  0.14388000  0.02308000  0.68060000  1.0 0.566600958
C  C28  1  0.34248000  0.46328000  0.31940000  1.0 0.566600958
C  C29  1  0.21328000  0.59248000  0.81940000  1.0 0.566600958
C  C30  1  0.77308000  0.39388000  0.18060000  1.0 0.566600958
C  C31  1  0.34248000  0.02308000  0.87920000  1.0 0.566600958
C  C32  1  0.14388000  0.46328000  0.12080000  1.0 0.566600958
C  C33  1  0.81788000  0.55788000  0.33820000  1.0 -0.0290901239
C  C34  1  0.21968000  0.47968000  0.66180000  1.0 -0.0290901239
C  C35  1  0.22968000  0.06788000  0.76000000  1.0 -0.0290901239
C  C36  1  0.30788000  0.46968000  0.24000000  1.0 -0.0290901239
C  C37  1  0.21968000  0.55788000  0.74000000  1.0 -0.0290901239
C  C38  1  0.81788000  0.47968000  0.26000000  1.0 -0.0290901239
C  C39  1  0.30788000  0.06788000  0.83820000  1.0 -0.0290901239
C  C40  1  0.22968000  0.46968000  0.16180000  1.0 -0.0290901239
C  C41  1  0.90420000  0.56830000  0.33590000  1.0 -0.0916283498
C  C42  1  0.23240000  0.56830000  0.66410000  1.0 -0.0961526683
C  C43  1  0.31830000  0.15420000  0.83590000  1.0 -0.0916283498
C  C44  1  0.31830000  0.48240000  0.16410000  1.0 -0.0916283498
C  C45  1  0.97010000  0.60460000  0.36550000  1.0 0.3803506145
C  C46  1  0.23910000  0.60460000  0.63450000  1.0 0.3803506145
C  C47  1  0.35460000  0.22010000  0.86550000  1.0 0.3803506145
C  C48  1  0.35460000  0.48910000  0.13450000  1.0 0.3803506145
C  C49  1  0.53950000  0.39640000  0.66190000  1.0 0.566600958
C  C50  1  0.73450000  0.87760000  0.33810000  1.0 0.566600958
C  C51  1  0.14640000  0.98450000  0.35690000  1.0 0.566600958
C  C52  1  0.62760000  0.78950000  0.64310000  1.0 0.566600958
C  C53  1  0.73450000  0.39640000  0.85690000  1.0 0.566600958
C  C54  1  0.53950000  0.87760000  0.14310000  1.0 0.566600958
C  C55  1  0.62760000  0.98450000  0.83810000  1.0 0.566600958
C  C56  1  0.14640000  0.78950000  0.16190000  1.0 0.566600958
C  C57  1  0.62415000  0.43925000  0.73670000  1.0 -0.0290901239
C  C58  1  0.70255000  0.88745000  0.26330000  1.0 -0.0290901239
C  C59  1  0.18925000  0.95255000  0.31510000  1.0 -0.0290901239
C  C60  1  0.63745000  0.87415000  0.68490000  1.0 -0.0290901239
C  C61  1  0.70255000  0.43925000  0.81510000  1.0 -0.0290901239
C  C62  1  0.62415000  0.88745000  0.18490000  1.0 -0.0290901239
C  C63  1  0.63745000  0.95255000  0.76330000  1.0 -0.0290901239
C  C64  1  0.18925000  0.87415000  0.23670000  1.0 -0.0290901239
C  C65  1  0.71241000  0.52701000  0.81460000  1.0 0.0082258206
C  C66  1  0.71241000  0.89781000  0.18540000  1.0 0.0082258206
C  C67  1  0.27701000  0.96241000  0.31460000  1.0 0.0082258206
C  C68  1  0.64781000  0.96241000  0.68540000  1.0 0.0082258206
C  C69  1  0.74910000  0.59140000  0.84230000  1.0 0.3577535462
C  C70  1  0.74910000  0.90680000  0.15770000  1.0 0.3577535462
C  C71  1  0.34140000  0.99910000  0.34230000  1.0 0.3541974933
C  C72  1  0.65680000  0.99910000  0.65770000  1.0 0.3577535462
C  C73  1  0.53672000  0.65752000  0.68060000  1.0 0.566600958
C  C74  1  0.97692000  0.85612000  0.31940000  1.0 0.566600958
C  C75  1  0.40752000  0.22692000  0.62080000  1.0 0.566600958
C  C76  1  0.60612000  0.78672000  0.37920000  1.0 0.566600958
C  C77  1  0.97692000  0.65752000  0.12080000  1.0 0.5640658052
C  C78  1  0.53672000  0.85612000  0.87920000  1.0 0.566600958
C  C79  1  0.60612000  0.22692000  0.81940000  1.0 0.566600958
C  C80  1  0.40752000  0.78672000  0.18060000  1.0 0.566600958
C  C81  1  0.53032000  0.69212000  0.76000000  1.0 -0.0290901239
C  C82  1  0.93212000  0.77032000  0.24000000  1.0 -0.0290901239
C  C83  1  0.44212000  0.18212000  0.66180000  1.0 -0.0290901239
C  C84  1  0.52032000  0.78032000  0.33820000  1.0 -0.0290901239
C  C85  1  0.93212000  0.69212000  0.16180000  1.0 -0.0290901239
C  C86  1  0.53032000  0.77032000  0.83820000  1.0 -0.0290901239
C  C87  1  0.52032000  0.18212000  0.74000000  1.0 -0.0290901239
C  C88  1  0.44212000  0.78032000  0.26000000  1.0 -0.0290901239
C  C89  1  0.51760000  0.68170000  0.83590000  1.0 -0.0961526683
C  C90  1  0.84580000  0.68170000  0.16410000  1.0 -0.0916283498
C  C91  1  0.43170000  0.09580000  0.66410000  1.0 -0.0961526683
C  C92  1  0.43170000  0.76760000  0.33590000  1.0 -0.0961526683
C  C93  1  0.51090000  0.64540000  0.86550000  1.0 0.3803506145
C  C94  1  0.77990000  0.64540000  0.13450000  1.0 0.3803506145
C  C95  1  0.39540000  0.02990000  0.63450000  1.0 0.3803506145
C  C96  1  0.39540000  0.76090000  0.36550000  1.0 0.3803506145
N  N1  1  0.99151000  0.75441000  0.63530000  1.0 -0.3971292047
N  N2  1  0.11911000  0.35621000  0.36470000  1.0 -0.3971292047
N  N3  1  0.10621000  0.24151000  0.73710000  1.0 -0.3971292047
N  N4  1  0.50441000  0.36911000  0.26290000  1.0 -0.3971292047
N  N5  1  0.11911000  0.75441000  0.76290000  1.0 -0.3971292047
N  N6  1  0.99151000  0.35621000  0.23710000  1.0 -0.3971292047
N  N7  1  0.50441000  0.24151000  0.13530000  1.0 -0.3971292047
N  N8  1  0.10621000  0.36911000  0.86470000  1.0 -0.3971292047
N  N9  1  0.87309000  0.61389000  0.38580000  1.0 -0.4274687458
N  N10  1  0.22809000  0.48729000  0.61420000  1.0 -0.4274687458
N  N11  1  0.23729000  0.12309000  0.75920000  1.0 -0.4274687458
N  N12  1  0.36389000  0.47809000  0.24080000  1.0 -0.4274687458
N  N13  1  0.22809000  0.61389000  0.74080000  1.0 -0.4274687458
N  N14  1  0.87309000  0.48729000  0.25920000  1.0 -0.4274687458
N  N15  1  0.36389000  0.12309000  0.88580000  1.0 -0.4274687458
N  N16  1  0.23729000  0.47809000  0.11420000  1.0 -0.4274687458
N  N17  1  0.63089000  0.49559000  0.73710000  1.0 -0.3971292047
N  N18  1  0.75849000  0.89379000  0.26290000  1.0 -0.3971292047
N  N19  1  0.24559000  0.00849000  0.36470000  1.0 -0.3971292047
N  N20  1  0.64379000  0.88089000  0.63530000  1.0 -0.3941780119
N  N21  1  0.75849000  0.49559000  0.86470000  1.0 -0.3971292047
N  N22  1  0.63089000  0.89379000  0.13530000  1.0 -0.3971292047
N  N23  1  0.64379000  0.00849000  0.76290000  1.0 -0.3971292047
N  N24  1  0.24559000  0.88089000  0.23710000  1.0 -0.3971292047
N  N25  1  0.52191000  0.63611000  0.75920000  1.0 -0.4274687458
N  N26  1  0.87691000  0.76271000  0.24080000  1.0 -0.4274687458
N  N27  1  0.38611000  0.12691000  0.61420000  1.0 -0.4274687458
N  N28  1  0.51271000  0.77191000  0.38580000  1.0 -0.4274687458
N  N29  1  0.87691000  0.63611000  0.11420000  1.0 -0.4274687458
N  N30  1  0.52191000  0.76271000  0.88580000  1.0 -0.4274687458
N  N31  1  0.51271000  0.12691000  0.74080000  1.0 -0.4274687458
N  N32  1  0.38611000  0.77191000  0.25920000  1.0 -0.4247325449
O  O1  1  0.94170000  0.82567000  0.55603000  1.0 -0.5143751925
O  O2  1  0.26964000  0.38567000  0.44397000  1.0 -0.5143751925
O  O3  1  0.13567000  0.19170000  0.61603000  1.0 -0.5143751925
O  O4  1  0.57567000  0.51964000  0.38397000  1.0 -0.5143751925
O  O5  1  0.26964000  0.82567000  0.88397000  1.0 -0.5143751925
O  O6  1  0.94170000  0.38567000  0.11603000  1.0 -0.5143751925
O  O7  1  0.57567000  0.19170000  0.05603000  1.0 -0.5143751925
O  O8  1  0.13567000  0.51964000  0.94397000  1.0 -0.5143751925
O  O9  1  0.05817000  0.91597000  0.69240000  1.0 -0.5503508648
O  O10  1  0.22357000  0.36577000  0.30760000  1.0 -0.5503508648
O  O11  1  0.11577000  0.30817000  0.64220000  1.0 -0.5503508648
O  O12  1  0.66597000  0.47357000  0.35780000  1.0 -0.5503508648
O  O13  1  0.22357000  0.91597000  0.85780000  1.0 -0.5503508648
O  O14  1  0.05817000  0.36577000  0.14220000  1.0 -0.5503508648
O  O15  1  0.66597000  0.30817000  0.19240000  1.0 -0.5503508648
O  O16  1  0.11577000  0.47357000  0.80760000  1.0 -0.5503508648
O  O17  1  0.79023000  0.66984000  0.45201000  1.0 -0.5023109926
O  O18  1  0.21783000  0.33822000  0.54799000  1.0 -0.5023109926
O  O19  1  0.08822000  0.04023000  0.62039000  1.0 -0.5023109926
O  O20  1  0.41984000  0.46783000  0.37961000  1.0 -0.5023109926
O  O21  1  0.21783000  0.66984000  0.87961000  1.0 -0.5023109926
O  O22  1  0.79023000  0.33822000  0.12039000  1.0 -0.5023109926
O  O23  1  0.41984000  0.04023000  0.95201000  1.0 -0.5023109926
O  O24  1  0.08822000  0.46783000  0.04799000  1.0 -0.5023109926
O  O25  1  0.72137000  0.54757000  0.34300000  1.0 -0.5552569343
O  O26  1  0.20457000  0.37837000  0.65700000  1.0 -0.5552569343
O  O27  1  0.12837000  0.97137000  0.67380000  1.0 -0.5552569343
O  O28  1  0.29757000  0.45457000  0.32620000  1.0 -0.5552569343
O  O29  1  0.20457000  0.54757000  0.82620000  1.0 -0.5552569343
O  O30  1  0.72137000  0.37837000  0.17380000  1.0 -0.5552569343
O  O31  1  0.29757000  0.97137000  0.84300000  1.0 -0.5552569343
O  O32  1  0.12837000  0.45457000  0.15700000  1.0 -0.5552569343
O  O33  1  0.48036000  0.42433000  0.61603000  1.0 -0.5143751925
O  O34  1  0.80830000  0.86433000  0.38397000  1.0 -0.5143751925
O  O35  1  0.17433000  0.05830000  0.44397000  1.0 -0.5143751925
O  O36  1  0.61433000  0.73036000  0.55603000  1.0 -0.5143751925
O  O37  1  0.80830000  0.42433000  0.94397000  1.0 -0.5143751925
O  O38  1  0.48036000  0.86433000  0.05603000  1.0 -0.5143751925
O  O39  1  0.61433000  0.05830000  0.88397000  1.0 -0.5143751925
O  O40  1  0.17433000  0.73036000  0.11603000  1.0 -0.5143751925
O  O41  1  0.52643000  0.33403000  0.64220000  1.0 -0.5503508648
O  O42  1  0.69183000  0.88423000  0.35780000  1.0 -0.5503508648
O  O43  1  0.08403000  0.94183000  0.30760000  1.0 -0.5503508648
O  O44  1  0.63423000  0.77643000  0.69240000  1.0 -0.5503508648
O  O45  1  0.69183000  0.33403000  0.80760000  1.0 -0.5503508648
O  O46  1  0.52643000  0.88423000  0.19240000  1.0 -0.5503508648
O  O47  1  0.63423000  0.94183000  0.85780000  1.0 -0.5503508648
O  O48  1  0.08403000  0.77643000  0.14220000  1.0 -0.5503508648
O  O49  1  0.53217000  0.58016000  0.62039000  1.0 -0.5023109926
O  O50  1  0.95977000  0.91178000  0.37961000  1.0 -0.5023109926
O  O51  1  0.33016000  0.20977000  0.54799000  1.0 -0.5023109926
O  O52  1  0.66178000  0.78217000  0.45201000  1.0 -0.5023109926
O  O53  1  0.95977000  0.58016000  0.04799000  1.0 -0.5023109926
O  O54  1  0.53217000  0.91178000  0.95201000  1.0 -0.5023109926
O  O55  1  0.66178000  0.20977000  0.87961000  1.0 -0.5023109926
O  O56  1  0.33016000  0.78217000  0.12039000  1.0 -0.5023109926
O  O57  1  0.54543000  0.70243000  0.67380000  1.0 -0.5552569343
O  O58  1  0.02863000  0.87163000  0.32620000  1.0 -0.5552569343
O  O59  1  0.45243000  0.27863000  0.65700000  1.0 -0.5552569343
O  O60  1  0.62163000  0.79543000  0.34300000  1.0 -0.5552569343
O  O61  1  0.02863000  0.70243000  0.15700000  1.0 -0.5552569343
O  O62  1  0.54543000  0.87163000  0.84300000  1.0 -0.5552569343
O  O63  1  0.62163000  0.27863000  0.82620000  1.0 -0.5552569343
O  O64  1  0.45243000  0.79543000  0.17380000  1.0 -0.5552569343
F  F1  1  0.92300000  0.63870000  0.58910000  1.0 0.099945668
F  F2  1  0.04960000  0.33390000  0.41090000  1.0 0.099945668
F  F3  1  0.08390000  0.17300000  0.78430000  1.0 0.099945668
F  F4  1  0.38870000  0.29960000  0.21570000  1.0 0.099945668
F  F5  1  0.04960000  0.63870000  0.71570000  1.0 0.099945668
F  F6  1  0.92300000  0.33390000  0.28430000  1.0 0.099945668
F  F7  1  0.38870000  0.17300000  0.08910000  1.0 0.099945668
F  F8  1  0.08390000  0.29960000  0.91090000  1.0 0.099945668
F  F9  1  0.02870000  0.68220000  0.74710000  1.0 0.1053395809
F  F10  1  0.93510000  0.28160000  0.25290000  1.0 0.099945668
F  F11  1  0.03160000  0.27870000  0.84650000  1.0 0.1053395809
F  F12  1  0.43220000  0.18510000  0.15350000  1.0 0.1053395809
F  F13  1  0.93510000  0.68220000  0.65350000  1.0 0.099945668
F  F14  1  0.02870000  0.28160000  0.34650000  1.0 0.099945668
F  F15  1  0.43220000  0.27870000  0.24710000  1.0 0.099945668
F  F16  1  0.03160000  0.18510000  0.75290000  1.0 0.1053395809
F  F17  1  0.02940000  0.58810000  0.62170000  1.0 -0.0095205212
F  F18  1  0.96640000  0.40770000  0.37830000  1.0 -0.0095205212
F  F19  1  0.15770000  0.27940000  0.94130000  1.0 -0.0095205212
F  F20  1  0.33810000  0.21640000  0.05870000  1.0 -0.0095205212
F  F21  1  0.96640000  0.58810000  0.55870000  1.0 -0.0095205212
F  F22  1  0.02940000  0.40770000  0.44130000  1.0 -0.0095205212
F  F23  1  0.33810000  0.27940000  0.12170000  1.0 -0.0095205212
F  F24  1  0.15770000  0.21640000  0.87830000  1.0 -0.0095205212
F  F25  1  0.99660000  0.55710000  0.31810000  1.0 0.1517241808
F  F26  1  0.23900000  0.67850000  0.68190000  1.0 0.1517241808
F  F27  1  0.42850000  0.24660000  0.93950000  1.0 0.1517241808
F  F28  1  0.30710000  0.48900000  0.06050000  1.0 0.1517241808
F  F29  1  0.23900000  0.55710000  0.56050000  1.0 0.1517241808
F  F30  1  0.99660000  0.67850000  0.43950000  1.0 0.1517241808
F  F31  1  0.30710000  0.24660000  0.81810000  1.0 0.1517241808
F  F32  1  0.42850000  0.48900000  0.18190000  1.0 0.1517241808
F  F33  1  0.94720000  0.66790000  0.36410000  1.0 0.0281321987
F  F34  1  0.30380000  0.58310000  0.63590000  1.0 0.0281321987
F  F35  1  0.33310000  0.19720000  0.77930000  1.0 0.0281321987
F  F36  1  0.41790000  0.55380000  0.22070000  1.0 0.0281321987
F  F37  1  0.30380000  0.66790000  0.72070000  1.0 0.0281321987
F  F38  1  0.94720000  0.58310000  0.27930000  1.0 0.0281321987
F  F39  1  0.41790000  0.19720000  0.86410000  1.0 0.0281321987
F  F40  1  0.33310000  0.55380000  0.13590000  1.0 0.0281321987
F  F41  1  0.03510000  0.65020000  0.47210000  1.0 -0.039127644
F  F42  1  0.17810000  0.56300000  0.52790000  1.0 -0.039127644
F  F43  1  0.31300000  0.28510000  0.88490000  1.0 -0.039127644
F  F44  1  0.40020000  0.42810000  0.11510000  1.0 -0.039127644
F  F45  1  0.17810000  0.65020000  0.61510000  1.0 -0.039127644
F  F46  1  0.03510000  0.56300000  0.38490000  1.0 -0.039127644
F  F47  1  0.40020000  0.28510000  0.97210000  1.0 -0.039127644
F  F48  1  0.31300000  0.42810000  0.02790000  1.0 -0.039127644
F  F49  1  0.70040000  0.61130000  0.78430000  1.0 0.099945668
F  F50  1  0.82700000  0.91610000  0.21570000  1.0 0.099945668
F  F51  1  0.36130000  0.07700000  0.41090000  1.0 0.099945668
F  F52  1  0.66610000  0.95040000  0.58910000  1.0 0.099945668
F  F53  1  0.82700000  0.61130000  0.91090000  1.0 0.099945668
F  F54  1  0.70040000  0.91610000  0.08910000  1.0 0.099945668
F  F55  1  0.66610000  0.07700000  0.71570000  1.0 0.099945668
F  F56  1  0.36130000  0.95040000  0.28430000  1.0 0.099945668
F  F57  1  0.81490000  0.56780000  0.84650000  1.0 0.099945668
F  F58  1  0.72130000  0.96840000  0.15350000  1.0 0.099945668
F  F59  1  0.31780000  0.97130000  0.25290000  1.0 0.099945668
F  F60  1  0.71840000  0.06490000  0.74710000  1.0 0.099945668
F  F61  1  0.72130000  0.56780000  0.75290000  1.0 0.099945668
F  F62  1  0.81490000  0.96840000  0.24710000  1.0 0.099945668
F  F63  1  0.71840000  0.97130000  0.65350000  1.0 0.1053395809
F  F64  1  0.31780000  0.06490000  0.34650000  1.0 0.099945668
F  F65  1  0.78360000  0.66190000  0.94130000  1.0 -0.0095205212
F  F66  1  0.72060000  0.84230000  0.05870000  1.0 -0.0095205212
F  F67  1  0.41190000  0.97060000  0.37830000  1.0 -0.0095205212
F  F68  1  0.59230000  0.03360000  0.62170000  1.0 -0.0095205212
F  F69  1  0.72060000  0.66190000  0.87830000  1.0 -0.0095205212
F  F70  1  0.78360000  0.84230000  0.12170000  1.0 -0.0095205212
F  F71  1  0.59230000  0.97060000  0.55870000  1.0 -0.0095205212
F  F72  1  0.41190000  0.03360000  0.44130000  1.0 -0.0095205212
F  F73  1  0.51100000  0.69290000  0.93950000  1.0 0.1517241808
F  F74  1  0.75340000  0.57150000  0.06050000  1.0 0.1517241808
F  F75  1  0.44290000  0.00340000  0.68190000  1.0 0.1517241808
F  F76  1  0.32150000  0.76100000  0.31810000  1.0 0.1517241808
F  F77  1  0.75340000  0.69290000  0.18190000  1.0 0.1517241808
F  F78  1  0.51100000  0.57150000  0.81810000  1.0 0.1517241808
F  F79  1  0.32150000  0.00340000  0.56050000  1.0 0.1517241808
F  F80  1  0.44290000  0.76100000  0.43950000  1.0 0.1517241808
F  F81  1  0.44620000  0.58210000  0.77930000  1.0 0.0281321987
F  F82  1  0.80280000  0.66690000  0.22070000  1.0 0.0281321987
F  F83  1  0.33210000  0.05280000  0.63590000  1.0 0.0281321987
F  F84  1  0.41690000  0.69620000  0.36410000  1.0 0.0281321987
F  F85  1  0.80280000  0.58210000  0.13590000  1.0 0.0281321987
F  F86  1  0.44620000  0.66690000  0.86410000  1.0 0.0281321987
F  F87  1  0.41690000  0.05280000  0.72070000  1.0 0.0281321987
F  F88  1  0.33210000  0.69620000  0.27930000  1.0 0.0281321987
F  F89  1  0.57190000  0.59980000  0.88490000  1.0 -0.039127644
F  F90  1  0.71490000  0.68700000  0.11510000  1.0 -0.039127644
F  F91  1  0.34980000  0.96490000  0.52790000  1.0 -0.039127644
F  F92  1  0.43700000  0.82190000  0.47210000  1.0 -0.039127644
F  F93  1  0.71490000  0.59980000  0.02790000  1.0 -0.039127644
F  F94  1  0.57190000  0.68700000  0.97210000  1.0 -0.039127644
F  F95  1  0.43700000  0.96490000  0.61510000  1.0 -0.039127644
F  F96  1  0.34980000  0.82190000  0.38490000  1.0 -0.039127644
