# DDEC6 charges by PACMAN v1.1 (https://github.com/mtap-research/PACMAN-charge/)
data_GUZVOO_FSR_pacman
_symmetry_space_group_name_H-M   'P 1'
_cell_length_a   22.96730000
_cell_length_b   22.96730000
_cell_length_c   22.96730000
_cell_angle_alpha   134.60100000
_cell_angle_beta   134.60100000
_cell_angle_gamma   66.15060000
_symmetry_Int_Tables_number   1
_chemical_formula_structural   Co3H12C12N4(O7F6)2
_chemical_formula_sum   'Co24 H96 C96 N32 O112 F96'
_cell_volume   6047.21024166
_cell_formula_units_Z   8
loop_
 _symmetry_equiv_pos_site_id
 _symmetry_equiv_pos_as_xyz
  1  'x, y, z'
loop_
 _atom_site_type_symbol
 _atom_site_label
 _atom_site_symmetry_multiplicity
 _atom_site_fract_x
 _atom_site_fract_y
 _atom_site_fract_z
 _atom_site_occupancy
 _atom_site_charge
Co  Co1  1  0.87171000  0.73916000  0.50097000  1.0 0.86828919
Co  Co2  1  0.23819000  0.37074000  0.49903000  1.0 0.86828919
Co  Co3  1  0.12074000  0.12171000  0.63255000  1.0 0.86828919
Co  Co4  1  0.48916000  0.48819000  0.36745000  1.0 0.86828919
Co  Co5  1  0.23819000  0.73916000  0.86745000  1.0 0.86828919
Co  Co6  1  0.87171000  0.37074000  0.13255000  1.0 0.86828919
Co  Co7  1  0.48916000  0.12171000  0.00097000  1.0 0.86828919
Co  Co8  1  0.12074000  0.48819000  0.99903000  1.0 0.86828919
Co  Co9  1  0.69598000  0.42743000  0.26855000  1.0 1.0458911571
Co  Co10  1  0.15888000  0.42743000  0.73145000  1.0 1.0458911571
Co  Co11  1  0.17743000  0.94598000  0.76855000  1.0 1.0458911571
Co  Co12  1  0.17743000  0.40888000  0.23145000  1.0 1.0458911571
Co  Co13  1  0.51181000  0.51084000  0.63255000  1.0 0.86828919
Co  Co14  1  0.87829000  0.87926000  0.36745000  1.0 0.86828919
Co  Co15  1  0.26084000  0.12829000  0.49903000  1.0 0.86828919
Co  Co16  1  0.62926000  0.76181000  0.50097000  1.0 0.86828919
Co  Co17  1  0.87829000  0.51084000  0.99903000  1.0 0.86828919
Co  Co18  1  0.51181000  0.87926000  0.00097000  1.0 0.86828919
Co  Co19  1  0.62926000  0.12829000  0.86745000  1.0 0.86828919
Co  Co20  1  0.26084000  0.76181000  0.13255000  1.0 0.86828919
Co  Co21  1  0.59112000  0.82257000  0.76855000  1.0 1.0458911571
Co  Co22  1  0.05402000  0.82257000  0.23145000  1.0 1.0458911571
Co  Co23  1  0.57257000  0.30402000  0.73145000  1.0 1.0458911571
Co  Co24  1  0.57257000  0.84112000  0.26855000  1.0 1.0458911571
H  H1  1  0.72120000  0.73370000  0.33810000  1.0 0.3414342149
H  H2  1  0.39560000  0.38310000  0.66190000  1.0 0.3414342149
H  H3  1  0.13310000  0.97120000  0.48750000  1.0 0.3414342149
H  H4  1  0.48370000  0.64560000  0.51250000  1.0 0.3414342149
H  H5  1  0.39560000  0.73370000  0.01250000  1.0 0.3414342149
H  H6  1  0.72120000  0.38310000  0.98750000  1.0 0.3414342149
H  H7  1  0.48370000  0.97120000  0.83810000  1.0 0.3414342149
H  H8  1  0.13310000  0.64560000  0.16190000  1.0 0.3414342149
H  H9  1  0.77910000  0.75430000  0.35000000  1.0 0.3414342149
H  H10  1  0.40430000  0.42910000  0.65000000  1.0 0.3414342149
H  H11  1  0.17910000  0.02910000  0.52480000  1.0 0.3414342149
H  H12  1  0.50430000  0.65430000  0.47520000  1.0 0.3414342149
H  H13  1  0.40430000  0.75430000  0.97520000  1.0 0.3414342149
H  H14  1  0.77910000  0.42910000  0.02480000  1.0 0.3414342149
H  H15  1  0.50430000  0.02910000  0.85000000  1.0 0.3414342149
H  H16  1  0.17910000  0.65430000  0.15000000  1.0 0.3414342149
H  H17  1  0.78880000  0.83050000  0.56890000  1.0 0.3271048728
H  H18  1  0.26160000  0.21990000  0.43110000  1.0 0.3271048728
H  H19  1  0.96990000  0.03880000  0.45830000  1.0 0.3271048728
H  H20  1  0.58050000  0.51160000  0.54170000  1.0 0.3271048728
H  H21  1  0.26160000  0.83050000  0.04170000  1.0 0.3271048728
H  H22  1  0.78880000  0.21990000  0.95830000  1.0 0.3271048728
H  H23  1  0.58050000  0.03880000  0.06890000  1.0 0.3271048728
H  H24  1  0.96990000  0.51160000  0.93110000  1.0 0.3271048728
H  H25  1  0.83060000  0.88510000  0.60070000  1.0 0.3156257036
H  H26  1  0.28440000  0.22990000  0.39930000  1.0 0.3156257036
H  H27  1  0.97990000  0.08060000  0.44550000  1.0 0.3156257036
H  H28  1  0.63510000  0.53440000  0.55450000  1.0 0.3149401012
H  H29  1  0.28440000  0.88510000  0.05450000  1.0 0.3156257036
H  H30  1  0.83060000  0.22990000  0.94550000  1.0 0.3156257036
H  H31  1  0.63510000  0.08060000  0.10070000  1.0 0.3149401012
H  H32  1  0.97990000  0.53440000  0.89930000  1.0 0.3156257036
H  H33  1  0.83280000  0.38720000  0.36640000  1.0 0.3156257036
H  H34  1  0.02080000  0.46640000  0.63360000  1.0 0.3149401012
H  H35  1  0.21640000  0.08280000  0.94560000  1.0 0.3156257036
H  H36  1  0.13720000  0.27080000  0.05440000  1.0 0.3149401012
H  H37  1  0.02080000  0.38720000  0.55440000  1.0 0.3149401012
H  H38  1  0.83280000  0.46640000  0.44560000  1.0 0.3156257036
H  H39  1  0.13720000  0.08280000  0.86640000  1.0 0.3149401012
H  H40  1  0.21640000  0.27080000  0.13360000  1.0 0.3156257036
H  H41  1  0.56090000  0.46720000  0.16450000  1.0 0.2482625998
H  H42  1  0.30270000  0.39640000  0.83550000  1.0 0.2482625998
H  H43  1  0.14640000  0.81090000  0.59370000  1.0 0.2482625998
H  H44  1  0.21720000  0.55270000  0.40630000  1.0 0.2482625998
H  H45  1  0.30270000  0.46720000  0.90630000  1.0 0.2482625998
H  H46  1  0.56090000  0.39640000  0.09370000  1.0 0.2482625998
H  H47  1  0.21720000  0.81090000  0.66450000  1.0 0.2482625998
H  H48  1  0.14640000  0.55270000  0.33550000  1.0 0.2482625998
H  H49  1  0.35440000  0.51630000  0.48750000  1.0 0.3414342149
H  H50  1  0.02880000  0.86690000  0.51250000  1.0 0.3414342149
H  H51  1  0.26630000  0.27880000  0.66190000  1.0 0.3414342149
H  H52  1  0.61690000  0.60440000  0.33810000  1.0 0.3414342149
H  H53  1  0.02880000  0.51630000  0.16190000  1.0 0.3414342149
H  H54  1  0.35440000  0.86690000  0.83810000  1.0 0.3414342149
H  H55  1  0.61690000  0.27880000  0.01250000  1.0 0.3414342149
H  H56  1  0.26630000  0.60440000  0.98750000  1.0 0.3414342149
H  H57  1  0.34570000  0.49570000  0.52480000  1.0 0.3414342149
H  H58  1  0.97090000  0.82090000  0.47520000  1.0 0.3414342149
H  H59  1  0.24570000  0.22090000  0.65000000  1.0 0.3414342149
H  H60  1  0.57090000  0.59570000  0.35000000  1.0 0.3414342149
H  H61  1  0.97090000  0.49570000  0.15000000  1.0 0.3414342149
H  H62  1  0.34570000  0.82090000  0.85000000  1.0 0.3414342149
H  H63  1  0.57090000  0.22090000  0.97520000  1.0 0.3414342149
H  H64  1  0.24570000  0.59570000  0.02480000  1.0 0.3414342149
H  H65  1  0.48840000  0.41950000  0.45830000  1.0 0.3271048728
H  H66  1  0.96120000  0.03010000  0.54170000  1.0 0.3271048728
H  H67  1  0.16950000  0.21120000  0.43110000  1.0 0.3271048728
H  H68  1  0.78010000  0.73840000  0.56890000  1.0 0.3271048728
H  H69  1  0.96120000  0.41950000  0.93110000  1.0 0.3271048728
H  H70  1  0.48840000  0.03010000  0.06890000  1.0 0.3271048728
H  H71  1  0.78010000  0.21120000  0.04170000  1.0 0.3271048728
H  H72  1  0.16950000  0.73840000  0.95830000  1.0 0.3271048728
H  H73  1  0.46560000  0.36490000  0.44550000  1.0 0.3156257036
H  H74  1  0.91940000  0.02010000  0.55450000  1.0 0.3149401012
H  H75  1  0.11490000  0.16940000  0.39930000  1.0 0.3156257036
H  H76  1  0.77010000  0.71560000  0.60070000  1.0 0.3156257036
H  H77  1  0.91940000  0.36490000  0.89930000  1.0 0.3156257036
H  H78  1  0.46560000  0.02010000  0.10070000  1.0 0.3149401012
H  H79  1  0.77010000  0.16940000  0.05450000  1.0 0.3149401012
H  H80  1  0.11490000  0.71560000  0.94550000  1.0 0.3156257036
H  H81  1  0.72920000  0.86280000  0.94560000  1.0 0.3156257036
H  H82  1  0.91720000  0.78360000  0.05440000  1.0 0.3156257036
H  H83  1  0.61280000  0.16720000  0.63360000  1.0 0.3149401012
H  H84  1  0.53360000  0.97920000  0.36640000  1.0 0.3156257036
H  H85  1  0.91720000  0.86280000  0.13360000  1.0 0.3156257036
H  H86  1  0.72920000  0.78360000  0.86640000  1.0 0.3156257036
H  H87  1  0.53360000  0.16720000  0.55440000  1.0 0.3149401012
H  H88  1  0.61280000  0.97920000  0.44560000  1.0 0.3156257036
H  H89  1  0.44730000  0.78280000  0.59370000  1.0 0.2482625998
H  H90  1  0.18910000  0.85360000  0.40630000  1.0 0.2482625998
H  H91  1  0.53280000  0.43910000  0.83550000  1.0 0.2482625998
H  H92  1  0.60360000  0.69730000  0.16450000  1.0 0.2482625998
H  H93  1  0.18910000  0.78280000  0.33550000  1.0 0.2482625998
H  H94  1  0.44730000  0.85360000  0.66450000  1.0 0.2482625998
H  H95  1  0.60360000  0.43910000  0.90630000  1.0 0.2482625998
H  H96  1  0.53280000  0.69730000  0.09370000  1.0 0.2482625998
C  C1  1  0.01550000  0.85360000  0.64310000  1.0 0.5731899466
C  C2  1  0.21050000  0.37240000  0.35690000  1.0 0.5731899466
C  C3  1  0.12240000  0.26550000  0.66190000  1.0 0.5731899466
C  C4  1  0.60360000  0.46050000  0.33810000  1.0 0.5731899466
C  C5  1  0.21050000  0.85360000  0.83810000  1.0 0.5731899466
C  C6  1  0.01550000  0.37240000  0.16190000  1.0 0.5731899466
C  C7  1  0.60360000  0.26550000  0.14310000  1.0 0.5731899466
C  C8  1  0.12240000  0.46050000  0.85690000  1.0 0.5731899466
C  C9  1  0.04745000  0.81075000  0.68490000  1.0 -0.003922622
C  C10  1  0.12585000  0.36255000  0.31510000  1.0 -0.003922622
C  C11  1  0.11255000  0.29745000  0.73670000  1.0 -0.003922622
C  C12  1  0.56075000  0.37585000  0.26330000  1.0 -0.003922622
C  C13  1  0.12585000  0.81075000  0.76330000  1.0 -0.003922622
C  C14  1  0.04745000  0.36255000  0.23670000  1.0 -0.003922622
C  C15  1  0.56075000  0.29745000  0.18490000  1.0 -0.003922622
C  C16  1  0.11255000  0.37585000  0.81510000  1.0 -0.003922622
C  C17  1  0.03759000  0.72299000  0.68540000  1.0 -0.0463907041
C  C18  1  0.03759000  0.35219000  0.31460000  1.0 -0.0463907041
C  C19  1  0.10219000  0.28759000  0.81460000  1.0 -0.0463907041
C  C20  1  0.47299000  0.28759000  0.18540000  1.0 -0.0463907041
C  C21  1  0.00090000  0.65860000  0.65770000  1.0 0.4069828826
C  C22  1  0.00090000  0.34320000  0.34230000  1.0 0.4069828826
C  C23  1  0.09320000  0.25090000  0.84230000  1.0 0.4069828826
C  C24  1  0.40860000  0.25090000  0.15770000  1.0 0.4069828826
C  C25  1  0.77308000  0.59248000  0.37920000  1.0 0.5753108475
C  C26  1  0.21328000  0.39388000  0.62080000  1.0 0.5753108475
C  C27  1  0.14388000  0.02308000  0.68060000  1.0 0.5753108475
C  C28  1  0.34248000  0.46328000  0.31940000  1.0 0.5753108475
C  C29  1  0.21328000  0.59248000  0.81940000  1.0 0.5753108475
C  C30  1  0.77308000  0.39388000  0.18060000  1.0 0.5753108475
C  C31  1  0.34248000  0.02308000  0.87920000  1.0 0.5753108475
C  C32  1  0.14388000  0.46328000  0.12080000  1.0 0.5753108475
C  C33  1  0.81788000  0.55788000  0.33820000  1.0 -0.0105120351
C  C34  1  0.21968000  0.47968000  0.66180000  1.0 -0.0105120351
C  C35  1  0.22968000  0.06788000  0.76000000  1.0 -0.0105120351
C  C36  1  0.30788000  0.46968000  0.24000000  1.0 -0.0105120351
C  C37  1  0.21968000  0.55788000  0.74000000  1.0 -0.0105120351
C  C38  1  0.81788000  0.47968000  0.26000000  1.0 -0.0105120351
C  C39  1  0.30788000  0.06788000  0.83820000  1.0 -0.0105120351
C  C40  1  0.22968000  0.46968000  0.16180000  1.0 -0.0105120351
C  C41  1  0.90420000  0.56830000  0.33590000  1.0 -0.1338357928
C  C42  1  0.23240000  0.56830000  0.66410000  1.0 -0.1338357928
C  C43  1  0.31830000  0.15420000  0.83590000  1.0 -0.1338357928
C  C44  1  0.31830000  0.48240000  0.16410000  1.0 -0.1338357928
C  C45  1  0.97010000  0.60460000  0.36550000  1.0 0.3956823747
C  C46  1  0.23910000  0.60460000  0.63450000  1.0 0.3956823747
C  C47  1  0.35460000  0.22010000  0.86550000  1.0 0.3956823747
C  C48  1  0.35460000  0.48910000  0.13450000  1.0 0.3956823747
C  C49  1  0.53950000  0.39640000  0.66190000  1.0 0.5731899466
C  C50  1  0.73450000  0.87760000  0.33810000  1.0 0.5731899466
C  C51  1  0.14640000  0.98450000  0.35690000  1.0 0.5731899466
C  C52  1  0.62760000  0.78950000  0.64310000  1.0 0.5731899466
C  C53  1  0.73450000  0.39640000  0.85690000  1.0 0.5731899466
C  C54  1  0.53950000  0.87760000  0.14310000  1.0 0.5731899466
C  C55  1  0.62760000  0.98450000  0.83810000  1.0 0.5731899466
C  C56  1  0.14640000  0.78950000  0.16190000  1.0 0.5731899466
C  C57  1  0.62415000  0.43925000  0.73670000  1.0 -0.003922622
C  C58  1  0.70255000  0.88745000  0.26330000  1.0 -0.003922622
C  C59  1  0.18925000  0.95255000  0.31510000  1.0 -0.003922622
C  C60  1  0.63745000  0.87415000  0.68490000  1.0 -0.003922622
C  C61  1  0.70255000  0.43925000  0.81510000  1.0 -0.003922622
C  C62  1  0.62415000  0.88745000  0.18490000  1.0 -0.003922622
C  C63  1  0.63745000  0.95255000  0.76330000  1.0 -0.003922622
C  C64  1  0.18925000  0.87415000  0.23670000  1.0 -0.003922622
C  C65  1  0.71241000  0.52701000  0.81460000  1.0 -0.0463907041
C  C66  1  0.71241000  0.89781000  0.18540000  1.0 -0.0463907041
C  C67  1  0.27701000  0.96241000  0.31460000  1.0 -0.0463907041
C  C68  1  0.64781000  0.96241000  0.68540000  1.0 -0.0463907041
C  C69  1  0.74910000  0.59140000  0.84230000  1.0 0.4069828826
C  C70  1  0.74910000  0.90680000  0.15770000  1.0 0.4069828826
C  C71  1  0.34140000  0.99910000  0.34230000  1.0 0.4069828826
C  C72  1  0.65680000  0.99910000  0.65770000  1.0 0.4069828826
C  C73  1  0.53672000  0.65752000  0.68060000  1.0 0.5753108475
C  C74  1  0.97692000  0.85612000  0.31940000  1.0 0.5753108475
C  C75  1  0.40752000  0.22692000  0.62080000  1.0 0.5753108475
C  C76  1  0.60612000  0.78672000  0.37920000  1.0 0.5753108475
C  C77  1  0.97692000  0.65752000  0.12080000  1.0 0.5753108475
C  C78  1  0.53672000  0.85612000  0.87920000  1.0 0.5753108475
C  C79  1  0.60612000  0.22692000  0.81940000  1.0 0.5753108475
C  C80  1  0.40752000  0.78672000  0.18060000  1.0 0.5753108475
C  C81  1  0.53032000  0.69212000  0.76000000  1.0 -0.0105120351
C  C82  1  0.93212000  0.77032000  0.24000000  1.0 -0.0105120351
C  C83  1  0.44212000  0.18212000  0.66180000  1.0 -0.0105120351
C  C84  1  0.52032000  0.78032000  0.33820000  1.0 -0.0105120351
C  C85  1  0.93212000  0.69212000  0.16180000  1.0 -0.0105120351
C  C86  1  0.53032000  0.77032000  0.83820000  1.0 -0.0105120351
C  C87  1  0.52032000  0.18212000  0.74000000  1.0 -0.0105120351
C  C88  1  0.44212000  0.78032000  0.26000000  1.0 -0.0105120351
C  C89  1  0.51760000  0.68170000  0.83590000  1.0 -0.1338357928
C  C90  1  0.84580000  0.68170000  0.16410000  1.0 -0.1338357928
C  C91  1  0.43170000  0.09580000  0.66410000  1.0 -0.1338357928
C  C92  1  0.43170000  0.76760000  0.33590000  1.0 -0.1338357928
C  C93  1  0.51090000  0.64540000  0.86550000  1.0 0.3956823747
C  C94  1  0.77990000  0.64540000  0.13450000  1.0 0.3956823747
C  C95  1  0.39540000  0.02990000  0.63450000  1.0 0.3956823747
C  C96  1  0.39540000  0.76090000  0.36550000  1.0 0.3956823747
N  N1  1  0.99151000  0.75441000  0.63530000  1.0 -0.3856504157
N  N2  1  0.11911000  0.35621000  0.36470000  1.0 -0.3856504157
N  N3  1  0.10621000  0.24151000  0.73710000  1.0 -0.3856504157
N  N4  1  0.50441000  0.36911000  0.26290000  1.0 -0.3856504157
N  N5  1  0.11911000  0.75441000  0.76290000  1.0 -0.3856504157
N  N6  1  0.99151000  0.35621000  0.23710000  1.0 -0.3856504157
N  N7  1  0.50441000  0.24151000  0.13530000  1.0 -0.3856504157
N  N8  1  0.10621000  0.36911000  0.86470000  1.0 -0.3856504157
N  N9  1  0.87309000  0.61389000  0.38580000  1.0 -0.4397191082
N  N10  1  0.22809000  0.48729000  0.61420000  1.0 -0.4397191082
N  N11  1  0.23729000  0.12309000  0.75920000  1.0 -0.4397191082
N  N12  1  0.36389000  0.47809000  0.24080000  1.0 -0.4397191082
N  N13  1  0.22809000  0.61389000  0.74080000  1.0 -0.4397191082
N  N14  1  0.87309000  0.48729000  0.25920000  1.0 -0.4397191082
N  N15  1  0.36389000  0.12309000  0.88580000  1.0 -0.4397191082
N  N16  1  0.23729000  0.47809000  0.11420000  1.0 -0.4397191082
N  N17  1  0.63089000  0.49559000  0.73710000  1.0 -0.3856504157
N  N18  1  0.75849000  0.89379000  0.26290000  1.0 -0.3842260775
N  N19  1  0.24559000  0.00849000  0.36470000  1.0 -0.3856504157
N  N20  1  0.64379000  0.88089000  0.63530000  1.0 -0.3856504157
N  N21  1  0.75849000  0.49559000  0.86470000  1.0 -0.3856504157
N  N22  1  0.63089000  0.89379000  0.13530000  1.0 -0.3842260775
N  N23  1  0.64379000  0.00849000  0.76290000  1.0 -0.3856504157
N  N24  1  0.24559000  0.88089000  0.23710000  1.0 -0.3856504157
N  N25  1  0.52191000  0.63611000  0.75920000  1.0 -0.4397191082
N  N26  1  0.87691000  0.76271000  0.24080000  1.0 -0.4397191082
N  N27  1  0.38611000  0.12691000  0.61420000  1.0 -0.4397191082
N  N28  1  0.51271000  0.77191000  0.38580000  1.0 -0.4397191082
N  N29  1  0.87691000  0.63611000  0.11420000  1.0 -0.4397191082
N  N30  1  0.52191000  0.76271000  0.88580000  1.0 -0.4397191082
N  N31  1  0.51271000  0.12691000  0.74080000  1.0 -0.4397191082
N  N32  1  0.38611000  0.77191000  0.25920000  1.0 -0.4397191082
O  O1  1  0.94170000  0.82567000  0.55603000  1.0 -0.5457150762
O  O2  1  0.26964000  0.38567000  0.44397000  1.0 -0.5457150762
O  O3  1  0.13567000  0.19170000  0.61603000  1.0 -0.5457150762
O  O4  1  0.57567000  0.51964000  0.38397000  1.0 -0.5457150762
O  O5  1  0.26964000  0.82567000  0.88397000  1.0 -0.5457150762
O  O6  1  0.94170000  0.38567000  0.11603000  1.0 -0.5457150762
O  O7  1  0.57567000  0.19170000  0.05603000  1.0 -0.5457150762
O  O8  1  0.13567000  0.51964000  0.94397000  1.0 -0.5457150762
O  O9  1  0.05817000  0.91597000  0.69240000  1.0 -0.5680408899
O  O10  1  0.22357000  0.36577000  0.30760000  1.0 -0.5680408899
O  O11  1  0.11577000  0.30817000  0.64220000  1.0 -0.5680408899
O  O12  1  0.66597000  0.47357000  0.35780000  1.0 -0.5680408899
O  O13  1  0.22357000  0.91597000  0.85780000  1.0 -0.5680408899
O  O14  1  0.05817000  0.36577000  0.14220000  1.0 -0.5680408899
O  O15  1  0.66597000  0.30817000  0.19240000  1.0 -0.5680408899
O  O16  1  0.11577000  0.47357000  0.80760000  1.0 -0.5680408899
O  O17  1  0.79023000  0.66984000  0.45201000  1.0 -0.5335727867
O  O18  1  0.21783000  0.33822000  0.54799000  1.0 -0.5335727867
O  O19  1  0.08822000  0.04023000  0.62039000  1.0 -0.5335727867
O  O20  1  0.41984000  0.46783000  0.37961000  1.0 -0.5335727867
O  O21  1  0.21783000  0.66984000  0.87961000  1.0 -0.5335727867
O  O22  1  0.79023000  0.33822000  0.12039000  1.0 -0.5335727867
O  O23  1  0.41984000  0.04023000  0.95201000  1.0 -0.5335727867
O  O24  1  0.08822000  0.46783000  0.04799000  1.0 -0.5335727867
O  O25  1  0.72137000  0.54757000  0.34300000  1.0 -0.5680408899
O  O26  1  0.20457000  0.37837000  0.65700000  1.0 -0.5680408899
O  O27  1  0.12837000  0.97137000  0.67380000  1.0 -0.5680408899
O  O28  1  0.29757000  0.45457000  0.32620000  1.0 -0.5680408899
O  O29  1  0.20457000  0.54757000  0.82620000  1.0 -0.5680408899
O  O30  1  0.72137000  0.37837000  0.17380000  1.0 -0.5680408899
O  O31  1  0.29757000  0.97137000  0.84300000  1.0 -0.5680408899
O  O32  1  0.12837000  0.45457000  0.15700000  1.0 -0.5680408899
O  O33  1  0.77289000  0.74819000  0.37790000  1.0 -0.6977033552
O  O34  1  0.37029000  0.39499000  0.62210000  1.0 -0.6977033552
O  O35  1  0.14499000  0.02289000  0.52470000  1.0 -0.6977033552
O  O36  1  0.49819000  0.62029000  0.47530000  1.0 -0.6977033552
O  O37  1  0.37029000  0.74819000  0.97530000  1.0 -0.6977033552
O  O38  1  0.77289000  0.39499000  0.02470000  1.0 -0.6977033552
O  O39  1  0.49819000  0.02289000  0.87790000  1.0 -0.6977033552
O  O40  1  0.14499000  0.62029000  0.12210000  1.0 -0.6977033552
O  O41  1  0.83360000  0.84210000  0.59110000  1.0 -0.6583179173
O  O42  1  0.25100000  0.24250000  0.40890000  1.0 -0.6583179173
O  O43  1  0.99250000  0.08360000  0.49150000  1.0 -0.6583179173
O  O44  1  0.59210000  0.50100000  0.50850000  1.0 -0.6583179173
O  O45  1  0.25100000  0.84210000  0.00850000  1.0 -0.6583179173
O  O46  1  0.83360000  0.24250000  0.99150000  1.0 -0.6583179173
O  O47  1  0.59210000  0.08360000  0.09110000  1.0 -0.6583179173
O  O48  1  0.99250000  0.50100000  0.90890000  1.0 -0.6583179173
O  O49  1  0.82268000  0.43428000  0.38840000  1.0 -0.6583179173
O  O50  1  0.04588000  0.43428000  0.61160000  1.0 -0.6583179173
O  O51  1  0.18428000  0.07268000  0.88840000  1.0 -0.6583179173
O  O52  1  0.18428000  0.29588000  0.11160000  1.0 -0.6583179173
O  O53  1  0.56837000  0.42097000  0.14740000  1.0 -0.6583179173
O  O54  1  0.27357000  0.42097000  0.85260000  1.0 -0.6583179173
O  O55  1  0.17097000  0.81837000  0.64740000  1.0 -0.6583179173
O  O56  1  0.17097000  0.52357000  0.35260000  1.0 -0.6583179173
O  O57  1  0.48036000  0.42433000  0.61603000  1.0 -0.5457150762
O  O58  1  0.80830000  0.86433000  0.38397000  1.0 -0.5457150762
O  O59  1  0.17433000  0.05830000  0.44397000  1.0 -0.5457150762
O  O60  1  0.61433000  0.73036000  0.55603000  1.0 -0.5457150762
O  O61  1  0.80830000  0.42433000  0.94397000  1.0 -0.5457150762
O  O62  1  0.48036000  0.86433000  0.05603000  1.0 -0.5457150762
O  O63  1  0.61433000  0.05830000  0.88397000  1.0 -0.5457150762
O  O64  1  0.17433000  0.73036000  0.11603000  1.0 -0.5457150762
O  O65  1  0.52643000  0.33403000  0.64220000  1.0 -0.5680408899
O  O66  1  0.69183000  0.88423000  0.35780000  1.0 -0.5680408899
O  O67  1  0.08403000  0.94183000  0.30760000  1.0 -0.5680408899
O  O68  1  0.63423000  0.77643000  0.69240000  1.0 -0.5680408899
O  O69  1  0.69183000  0.33403000  0.80760000  1.0 -0.5680408899
O  O70  1  0.52643000  0.88423000  0.19240000  1.0 -0.5680408899
O  O71  1  0.63423000  0.94183000  0.85780000  1.0 -0.5680408899
O  O72  1  0.08403000  0.77643000  0.14220000  1.0 -0.5680408899
O  O73  1  0.53217000  0.58016000  0.62039000  1.0 -0.5335727867
O  O74  1  0.95977000  0.91178000  0.37961000  1.0 -0.5335727867
O  O75  1  0.33016000  0.20977000  0.54799000  1.0 -0.5335727867
O  O76  1  0.66178000  0.78217000  0.45201000  1.0 -0.5335727867
O  O77  1  0.95977000  0.58016000  0.04799000  1.0 -0.5335727867
O  O78  1  0.53217000  0.91178000  0.95201000  1.0 -0.5335727867
O  O79  1  0.66178000  0.20977000  0.87961000  1.0 -0.5335727867
O  O80  1  0.33016000  0.78217000  0.12039000  1.0 -0.5335727867
O  O81  1  0.54543000  0.70243000  0.67380000  1.0 -0.5680408899
O  O82  1  0.02863000  0.87163000  0.32620000  1.0 -0.5680408899
O  O83  1  0.45243000  0.27863000  0.65700000  1.0 -0.5680408899
O  O84  1  0.62163000  0.79543000  0.34300000  1.0 -0.5680408899
O  O85  1  0.02863000  0.70243000  0.15700000  1.0 -0.5680408899
O  O86  1  0.54543000  0.87163000  0.84300000  1.0 -0.5680408899
O  O87  1  0.62163000  0.27863000  0.82620000  1.0 -0.5680408899
O  O88  1  0.45243000  0.79543000  0.17380000  1.0 -0.5680408899
O  O89  1  0.37971000  0.50181000  0.52470000  1.0 -0.6977033552
O  O90  1  0.97711000  0.85501000  0.47530000  1.0 -0.6977033552
O  O91  1  0.25181000  0.22711000  0.62210000  1.0 -0.6977033552
O  O92  1  0.60501000  0.62971000  0.37790000  1.0 -0.6977033552
O  O93  1  0.97711000  0.50181000  0.12210000  1.0 -0.6977033552
O  O94  1  0.37971000  0.85501000  0.87790000  1.0 -0.6977033552
O  O95  1  0.60501000  0.22711000  0.97530000  1.0 -0.6977033552
O  O96  1  0.25181000  0.62971000  0.02470000  1.0 -0.6977033552
O  O97  1  0.49900000  0.40790000  0.49150000  1.0 -0.6583179173
O  O98  1  0.91640000  0.00750000  0.50850000  1.0 -0.6583179173
O  O99  1  0.15790000  0.16640000  0.40890000  1.0 -0.6583179173
O  O100  1  0.75750000  0.74900000  0.59110000  1.0 -0.6583179173
O  O101  1  0.91640000  0.40790000  0.90890000  1.0 -0.6583179173
O  O102  1  0.49900000  0.00750000  0.09110000  1.0 -0.6583179173
O  O103  1  0.75750000  0.16640000  0.00850000  1.0 -0.6583179173
O  O104  1  0.15790000  0.74900000  0.99150000  1.0 -0.6583179173
O  O105  1  0.70412000  0.81572000  0.88840000  1.0 -0.6583179173
O  O106  1  0.92732000  0.81572000  0.11160000  1.0 -0.6583179173
O  O107  1  0.56572000  0.17732000  0.61160000  1.0 -0.6583179173
O  O108  1  0.56572000  0.95412000  0.38840000  1.0 -0.6583179173
O  O109  1  0.47643000  0.82903000  0.64740000  1.0 -0.6583179173
O  O110  1  0.18163000  0.82903000  0.35260000  1.0 -0.6583179173
O  O111  1  0.57903000  0.43163000  0.85260000  1.0 -0.6583179173
O  O112  1  0.57903000  0.72643000  0.14740000  1.0 -0.6583179173
F  F1  1  0.92300000  0.63870000  0.58910000  1.0 0.0996594109
F  F2  1  0.04960000  0.33390000  0.41090000  1.0 0.0996594109
F  F3  1  0.08390000  0.17300000  0.78430000  1.0 0.0996594109
F  F4  1  0.38870000  0.29960000  0.21570000  1.0 0.0996594109
F  F5  1  0.04960000  0.63870000  0.71570000  1.0 0.0996594109
F  F6  1  0.92300000  0.33390000  0.28430000  1.0 0.0996594109
F  F7  1  0.38870000  0.17300000  0.08910000  1.0 0.0996594109
F  F8  1  0.08390000  0.29960000  0.91090000  1.0 0.0996594109
F  F9  1  0.02870000  0.68220000  0.74710000  1.0 0.0701701326
F  F10  1  0.93510000  0.28160000  0.25290000  1.0 0.0701701326
F  F11  1  0.03160000  0.27870000  0.84650000  1.0 0.0701701326
F  F12  1  0.43220000  0.18510000  0.15350000  1.0 0.0701701326
F  F13  1  0.93510000  0.68220000  0.65350000  1.0 0.0701701326
F  F14  1  0.02870000  0.28160000  0.34650000  1.0 0.0701701326
F  F15  1  0.43220000  0.27870000  0.24710000  1.0 0.0701701326
F  F16  1  0.03160000  0.18510000  0.75290000  1.0 0.0701701326
F  F17  1  0.02940000  0.58810000  0.62170000  1.0 0.0117741396
F  F18  1  0.96640000  0.40770000  0.37830000  1.0 0.0117741396
F  F19  1  0.15770000  0.27940000  0.94130000  1.0 0.0117741396
F  F20  1  0.33810000  0.21640000  0.05870000  1.0 0.0117741396
F  F21  1  0.96640000  0.58810000  0.55870000  1.0 0.0117741396
F  F22  1  0.02940000  0.40770000  0.44130000  1.0 0.0117741396
F  F23  1  0.33810000  0.27940000  0.12170000  1.0 0.0117741396
F  F24  1  0.15770000  0.21640000  0.87830000  1.0 0.0117741396
F  F25  1  0.99660000  0.55710000  0.31810000  1.0 0.1333344371
F  F26  1  0.23900000  0.67850000  0.68190000  1.0 0.1333344371
F  F27  1  0.42850000  0.24660000  0.93950000  1.0 0.1333344371
F  F28  1  0.30710000  0.48900000  0.06050000  1.0 0.1333344371
F  F29  1  0.23900000  0.55710000  0.56050000  1.0 0.1333344371
F  F30  1  0.99660000  0.67850000  0.43950000  1.0 0.1333344371
F  F31  1  0.30710000  0.24660000  0.81810000  1.0 0.1333344371
F  F32  1  0.42850000  0.48900000  0.18190000  1.0 0.1333344371
F  F33  1  0.94720000  0.66790000  0.36410000  1.0 0.0159397821
F  F34  1  0.30380000  0.58310000  0.63590000  1.0 0.0117741396
F  F35  1  0.33310000  0.19720000  0.77930000  1.0 0.0159397821
F  F36  1  0.41790000  0.55380000  0.22070000  1.0 0.0117741396
F  F37  1  0.30380000  0.66790000  0.72070000  1.0 0.0117741396
F  F38  1  0.94720000  0.58310000  0.27930000  1.0 0.0159397821
F  F39  1  0.41790000  0.19720000  0.86410000  1.0 0.0159397821
F  F40  1  0.33310000  0.55380000  0.13590000  1.0 0.0117741396
F  F41  1  0.03510000  0.65020000  0.47210000  1.0 0.0008684301
F  F42  1  0.17810000  0.56300000  0.52790000  1.0 0.0008684301
F  F43  1  0.31300000  0.28510000  0.88490000  1.0 0.0008684301
F  F44  1  0.40020000  0.42810000  0.11510000  1.0 0.0008684301
F  F45  1  0.17810000  0.65020000  0.61510000  1.0 0.0008684301
F  F46  1  0.03510000  0.56300000  0.38490000  1.0 0.0008684301
F  F47  1  0.40020000  0.28510000  0.97210000  1.0 0.0008684301
F  F48  1  0.31300000  0.42810000  0.02790000  1.0 0.0008684301
F  F49  1  0.70040000  0.61130000  0.78430000  1.0 0.0996594109
F  F50  1  0.82700000  0.91610000  0.21570000  1.0 0.0996594109
F  F51  1  0.36130000  0.07700000  0.41090000  1.0 0.0996594109
F  F52  1  0.66610000  0.95040000  0.58910000  1.0 0.0996594109
F  F53  1  0.82700000  0.61130000  0.91090000  1.0 0.0996594109
F  F54  1  0.70040000  0.91610000  0.08910000  1.0 0.0996594109
F  F55  1  0.66610000  0.07700000  0.71570000  1.0 0.0996594109
F  F56  1  0.36130000  0.95040000  0.28430000  1.0 0.0996594109
F  F57  1  0.81490000  0.56780000  0.84650000  1.0 0.0701701326
F  F58  1  0.72130000  0.96840000  0.15350000  1.0 0.0701701326
F  F59  1  0.31780000  0.97130000  0.25290000  1.0 0.0701701326
F  F60  1  0.71840000  0.06490000  0.74710000  1.0 0.0701701326
F  F61  1  0.72130000  0.56780000  0.75290000  1.0 0.0701701326
F  F62  1  0.81490000  0.96840000  0.24710000  1.0 0.0701701326
F  F63  1  0.71840000  0.97130000  0.65350000  1.0 0.0701701326
F  F64  1  0.31780000  0.06490000  0.34650000  1.0 0.0701701326
F  F65  1  0.78360000  0.66190000  0.94130000  1.0 0.0117741396
F  F66  1  0.72060000  0.84230000  0.05870000  1.0 0.0117741396
F  F67  1  0.41190000  0.97060000  0.37830000  1.0 0.0117741396
F  F68  1  0.59230000  0.03360000  0.62170000  1.0 0.0117741396
F  F69  1  0.72060000  0.66190000  0.87830000  1.0 0.0117741396
F  F70  1  0.78360000  0.84230000  0.12170000  1.0 0.0117741396
F  F71  1  0.59230000  0.97060000  0.55870000  1.0 0.0117741396
F  F72  1  0.41190000  0.03360000  0.44130000  1.0 0.0117741396
F  F73  1  0.51100000  0.69290000  0.93950000  1.0 0.1333344371
F  F74  1  0.75340000  0.57150000  0.06050000  1.0 0.1333344371
F  F75  1  0.44290000  0.00340000  0.68190000  1.0 0.1333344371
F  F76  1  0.32150000  0.76100000  0.31810000  1.0 0.1333344371
F  F77  1  0.75340000  0.69290000  0.18190000  1.0 0.1333344371
F  F78  1  0.51100000  0.57150000  0.81810000  1.0 0.1333344371
F  F79  1  0.32150000  0.00340000  0.56050000  1.0 0.1333344371
F  F80  1  0.44290000  0.76100000  0.43950000  1.0 0.1333344371
F  F81  1  0.44620000  0.58210000  0.77930000  1.0 0.0117741396
F  F82  1  0.80280000  0.66690000  0.22070000  1.0 0.0159397821
F  F83  1  0.33210000  0.05280000  0.63590000  1.0 0.0159397821
F  F84  1  0.41690000  0.69620000  0.36410000  1.0 0.0117741396
F  F85  1  0.80280000  0.58210000  0.13590000  1.0 0.0159397821
F  F86  1  0.44620000  0.66690000  0.86410000  1.0 0.0117741396
F  F87  1  0.41690000  0.05280000  0.72070000  1.0 0.0159397821
F  F88  1  0.33210000  0.69620000  0.27930000  1.0 0.0117741396
F  F89  1  0.57190000  0.59980000  0.88490000  1.0 0.0008684301
F  F90  1  0.71490000  0.68700000  0.11510000  1.0 0.0008684301
F  F91  1  0.34980000  0.96490000  0.52790000  1.0 0.0008684301
F  F92  1  0.43700000  0.82190000  0.47210000  1.0 -0.003922622
F  F93  1  0.71490000  0.59980000  0.02790000  1.0 0.0008684301
F  F94  1  0.57190000  0.68700000  0.97210000  1.0 0.0008684301
F  F95  1  0.43700000  0.96490000  0.61510000  1.0 0.0008684301
F  F96  1  0.34980000  0.82190000  0.38490000  1.0 0.0008684301
