# DDEC6 charges by PACMAN v1.1 (https://github.com/mtap-research/PACMAN-charge/)
data_HABCEV_ASR_pacman
_symmetry_space_group_name_H-M   'P 1'
_cell_length_a   21.10490000
_cell_length_b   21.10490000
_cell_length_c   21.10490000
_cell_angle_alpha   143.73600000
_cell_angle_beta   98.21980000
_cell_angle_gamma   92.90770000
_symmetry_Int_Tables_number   1
_chemical_formula_structural   NaGdZnH10C26(NO6)2
_chemical_formula_sum   'Na4 Gd4 Zn4 H40 C104 N8 O48'
_cell_volume   5277.43498793
_cell_formula_units_Z   4
loop_
 _symmetry_equiv_pos_site_id
 _symmetry_equiv_pos_as_xyz
  1  'x, y, z'
loop_
 _atom_site_type_symbol
 _atom_site_label
 _atom_site_symmetry_multiplicity
 _atom_site_fract_x
 _atom_site_fract_y
 _atom_site_fract_z
 _atom_site_occupancy
 _atom_site_charge
Na  Na1  1  0.20819000  0.20819000  0.50000000  1.0 0.8402019111
Na  Na2  1  0.29181000  0.79181000  0.00000000  1.0 0.8402019111
Na  Na3  1  0.79181000  0.79181000  0.50000000  1.0 0.8402019111
Na  Na4  1  0.70819000  0.20819000  0.00000000  1.0 0.8402019111
Gd  Gd1  1  0.32260000  0.00000000  0.32260000  1.0 1.3082445828
Gd  Gd2  1  0.17740000  0.50000000  0.67740000  1.0 1.3082445828
Gd  Gd3  1  0.67740000  0.00000000  0.67740000  1.0 1.3082445828
Gd  Gd4  1  0.82260000  0.50000000  0.32260000  1.0 1.3082445828
Zn  Zn1  1  0.75000000  0.67900000  0.92900000  1.0 0.369506207
Zn  Zn2  1  0.25000000  0.32100000  0.07100000  1.0 0.369506207
Zn  Zn3  1  0.75000000  0.61590000  0.86590000  1.0 0.3568346916
Zn  Zn4  1  0.25000000  0.38410000  0.13410000  1.0 0.3568346916
H  H1  1  0.01700000  0.89880000  0.18620000  1.0 0.1109987392
H  H2  1  0.48300000  0.66920000  0.88180000  1.0 0.1109987392
H  H3  1  0.21260000  0.33080000  0.81380000  1.0 0.1109987392
H  H4  1  0.28740000  0.10120000  0.11820000  1.0 0.1109987392
H  H5  1  0.98300000  0.10120000  0.81380000  1.0 0.1109987392
H  H6  1  0.51700000  0.33080000  0.11820000  1.0 0.1109987392
H  H7  1  0.78740000  0.66920000  0.18620000  1.0 0.1109987392
H  H8  1  0.71260000  0.89880000  0.88180000  1.0 0.1109987392
H  H9  1  0.97320000  0.68600000  0.07420000  1.0 0.1109987392
H  H10  1  0.52680000  0.60100000  0.71280000  1.0 0.1109987392
H  H11  1  0.11180000  0.39900000  0.92580000  1.0 0.1109987392
H  H12  1  0.38820000  0.31400000  0.28720000  1.0 0.1109987392
H  H13  1  0.02680000  0.31400000  0.92580000  1.0 0.1109987392
H  H14  1  0.47320000  0.39900000  0.28720000  1.0 0.1109987392
H  H15  1  0.88820000  0.60100000  0.07420000  1.0 0.1109987392
H  H16  1  0.61180000  0.68600000  0.71280000  1.0 0.1109987392
H  H17  1  0.99750000  0.62900000  0.85290000  1.0 0.1109987392
H  H18  1  0.50250000  0.35540000  0.63150000  1.0 0.1109987392
H  H19  1  0.27610000  0.64460000  0.14710000  1.0 0.1109987392
H  H20  1  0.22390000  0.37100000  0.36850000  1.0 0.1109987392
H  H21  1  0.00250000  0.37100000  0.14710000  1.0 0.1109987392
H  H22  1  0.49750000  0.64460000  0.36850000  1.0 0.1109987392
H  H23  1  0.72390000  0.35540000  0.85290000  1.0 0.1109987392
H  H24  1  0.77610000  0.62900000  0.63150000  1.0 0.1109987392
H  H25  1  0.96530000  0.81650000  0.93860000  1.0 0.1109987392
H  H26  1  0.53470000  0.47330000  0.85120000  1.0 0.1109987392
H  H27  1  0.37790000  0.52670000  0.06140000  1.0 0.1109987392
H  H28  1  0.12210000  0.18350000  0.14880000  1.0 0.1109987392
H  H29  1  0.03470000  0.18350000  0.06140000  1.0 0.1109987392
H  H30  1  0.46530000  0.52670000  0.14880000  1.0 0.1109987392
H  H31  1  0.62210000  0.47330000  0.93860000  1.0 0.1109987392
H  H32  1  0.87790000  0.81650000  0.85120000  1.0 0.1109987392
H  H33  1  0.18040000  0.82000000  0.08160000  1.0 0.0850990532
H  H34  1  0.31960000  0.40120000  0.63960000  1.0 0.0850990532
H  H35  1  0.23840000  0.59880000  0.91840000  1.0 0.0850990532
H  H36  1  0.26160000  0.18000000  0.36040000  1.0 0.0850990532
H  H37  1  0.81960000  0.18000000  0.91840000  1.0 0.0850990532
H  H38  1  0.68040000  0.59880000  0.36040000  1.0 0.0850990532
H  H39  1  0.76160000  0.40120000  0.08160000  1.0 0.0850990532
H  H40  1  0.73840000  0.82000000  0.63960000  1.0 0.0850990532
C  C1  1  0.89050000  0.69090000  0.00560000  1.0 0.1527028946
C  C2  1  0.60950000  0.61510000  0.80040000  1.0 0.1527028946
C  C3  1  0.18530000  0.38490000  0.99440000  1.0 0.1527028946
C  C4  1  0.31470000  0.30910000  0.19960000  1.0 0.1527028946
C  C5  1  0.10950000  0.30910000  0.99440000  1.0 0.1527028946
C  C6  1  0.39050000  0.38490000  0.19960000  1.0 0.1527028946
C  C7  1  0.81470000  0.61510000  0.00560000  1.0 0.1527028946
C  C8  1  0.68530000  0.69090000  0.80040000  1.0 0.1527028946
C  C9  1  0.09300000  0.71520000  0.95180000  1.0 -0.0602465043
C  C10  1  0.40700000  0.35880000  0.62220000  1.0 -0.0602465043
C  C11  1  0.26340000  0.64120000  0.04820000  1.0 -0.0602465043
C  C12  1  0.23660000  0.28480000  0.37780000  1.0 -0.0602465043
C  C13  1  0.90700000  0.28480000  0.04820000  1.0 -0.0602465043
C  C14  1  0.59300000  0.64120000  0.37780000  1.0 -0.0602465043
C  C15  1  0.73660000  0.35880000  0.95180000  1.0 -0.0602465043
C  C16  1  0.76340000  0.71520000  0.62220000  1.0 -0.0602465043
C  C17  1  0.03630000  0.85110000  0.12680000  1.0 -0.1782110909
C  C18  1  0.46370000  0.59050000  0.81480000  1.0 -0.1782110909
C  C19  1  0.22430000  0.40950000  0.87320000  1.0 -0.1782110909
C  C20  1  0.27570000  0.14890000  0.18520000  1.0 -0.1782110909
C  C21  1  0.96370000  0.14890000  0.87320000  1.0 -0.1782110909
C  C22  1  0.53630000  0.40950000  0.18520000  1.0 -0.1782110909
C  C23  1  0.77570000  0.59050000  0.12680000  1.0 -0.1782110909
C  C24  1  0.72430000  0.85110000  0.81480000  1.0 -0.1782110909
C  C25  1  0.99620000  0.75640000  0.01280000  1.0 0.0655543512
C  C26  1  0.50380000  0.51660000  0.76020000  1.0 0.0655543512
C  C27  1  0.24360000  0.48340000  0.98720000  1.0 0.0655543512
C  C28  1  0.25640000  0.24360000  0.23980000  1.0 0.0655543512
C  C29  1  0.00380000  0.24360000  0.98720000  1.0 0.0655543512
C  C30  1  0.49620000  0.48340000  0.23980000  1.0 0.0655543512
C  C31  1  0.75640000  0.51660000  0.01280000  1.0 0.0655543512
C  C32  1  0.74360000  0.75640000  0.76020000  1.0 0.0655543512
C  C33  1  0.92610000  0.67000000  0.04990000  1.0 -0.201809659
C  C34  1  0.57390000  0.62380000  0.74390000  1.0 -0.201809659
C  C35  1  0.12010000  0.37620000  0.95010000  1.0 -0.201809659
C  C36  1  0.37990000  0.33000000  0.25610000  1.0 -0.201809659
C  C37  1  0.07390000  0.33000000  0.95010000  1.0 -0.201809659
C  C38  1  0.42610000  0.37620000  0.25610000  1.0 -0.201809659
C  C39  1  0.87990000  0.62380000  0.04990000  1.0 -0.201809659
C  C40  1  0.62010000  0.67000000  0.74390000  1.0 -0.201809659
C  C41  1  0.92080000  0.73050000  0.98450000  1.0 -0.1109012765
C  C42  1  0.57920000  0.56370000  0.80970000  1.0 -0.1109012765
C  C43  1  0.24600000  0.43630000  0.01550000  1.0 -0.1109012765
C  C44  1  0.25400000  0.26950000  0.19030000  1.0 -0.1109012765
C  C45  1  0.07920000  0.26950000  0.01550000  1.0 -0.1109012765
C  C46  1  0.42080000  0.43630000  0.19030000  1.0 -0.1109012765
C  C47  1  0.75400000  0.56370000  0.98450000  1.0 -0.1109012765
C  C48  1  0.74600000  0.73050000  0.80970000  1.0 -0.1109012765
C  C49  1  0.12380000  0.64270000  0.86070000  1.0 0.4793098836
C  C50  1  0.37620000  0.23690000  0.51890000  1.0 0.4793098836
C  C51  1  0.28200000  0.76310000  0.13930000  1.0 0.4793098836
C  C52  1  0.21800000  0.35730000  0.48110000  1.0 0.4793098836
C  C53  1  0.87620000  0.35730000  0.13930000  1.0 0.4793098836
C  C54  1  0.62380000  0.76310000  0.48110000  1.0 0.4793098836
C  C55  1  0.71800000  0.23690000  0.86070000  1.0 0.4793098836
C  C56  1  0.78200000  0.64270000  0.51890000  1.0 0.4793098836
C  C57  1  0.02520000  0.69190000  0.92910000  1.0 -0.1709065402
C  C58  1  0.47480000  0.40390000  0.66666667  1.0 -0.1709065402
C  C59  1  0.26280000  0.59610000  0.07090000  1.0 -0.1709065402
C  C60  1  0.23720000  0.30810000  0.33333333  1.0 -0.1709065402
C  C61  1  0.97480000  0.30810000  0.07090000  1.0 -0.1709065402
C  C62  1  0.52520000  0.59610000  0.33333333  1.0 -0.1709065402
C  C63  1  0.73720000  0.40390000  0.92910000  1.0 -0.1709065402
C  C64  1  0.76280000  0.69190000  0.66666667  1.0 -0.1709065402
C  C65  1  0.15040000  0.97460000  0.27020000  1.0 0.4991368843
C  C66  1  0.34960000  0.61980000  0.82420000  1.0 0.4991368843
C  C67  1  0.20440000  0.38020000  0.72980000  1.0 0.4991368843
C  C68  1  0.29560000  0.02540000  0.17580000  1.0 0.4991368843
C  C69  1  0.84960000  0.02540000  0.72980000  1.0 0.4991368843
C  C70  1  0.65040000  0.38020000  0.17580000  1.0 0.4991368843
C  C71  1  0.79560000  0.61980000  0.27020000  1.0 0.4991368843
C  C72  1  0.70440000  0.97460000  0.82420000  1.0 0.4991368843
C  C73  1  0.88750000  0.74240000  0.93570000  1.0 0.1344529061
C  C74  1  0.61250000  0.54820000  0.85490000  1.0 0.1344529061
C  C75  1  0.30670000  0.45180000  0.06430000  1.0 0.1344529061
C  C76  1  0.19330000  0.25760000  0.14510000  1.0 0.1344529061
C  C77  1  0.11250000  0.25760000  0.06430000  1.0 0.1344529061
C  C78  1  0.38750000  0.45180000  0.14510000  1.0 0.1344529061
C  C79  1  0.69330000  0.54820000  0.93570000  1.0 0.1344529061
C  C80  1  0.80670000  0.74240000  0.85490000  1.0 0.1344529061
C  C81  1  0.91880000  0.79030000  0.91870000  1.0 -0.1782110909
C  C82  1  0.58120000  0.49990000  0.87150000  1.0 -0.1782110909
C  C83  1  0.37160000  0.50010000  0.08130000  1.0 -0.1782110909
C  C84  1  0.12840000  0.20970000  0.12850000  1.0 -0.1782110909
C  C85  1  0.08120000  0.20970000  0.08130000  1.0 -0.1782110909
C  C86  1  0.41880000  0.50010000  0.12850000  1.0 -0.1782110909
C  C87  1  0.62840000  0.49990000  0.91870000  1.0 -0.1782110909
C  C88  1  0.87160000  0.79030000  0.87150000  1.0 -0.1782110909
C  C89  1  0.13330000  0.80550000  0.06440000  1.0 -0.1782110909
C  C90  1  0.36670000  0.43110000  0.67220000  1.0 -0.1782110909
C  C91  1  0.24110000  0.56890000  0.93560000  1.0 -0.1782110909
C  C92  1  0.25890000  0.19450000  0.32780000  1.0 -0.1782110909
C  C93  1  0.86670000  0.19450000  0.93560000  1.0 -0.1709065402
C  C94  1  0.63330000  0.56890000  0.32780000  1.0 -0.1782110909
C  C95  1  0.75890000  0.43110000  0.06440000  1.0 -0.1782110909
C  C96  1  0.74110000  0.80550000  0.67220000  1.0 -0.1782110909
C  C97  1  0.10600000  0.87210000  0.14910000  1.0 -0.0489659205
C  C98  1  0.39400000  0.54310000  0.76610000  1.0 -0.0489659205
C  C99  1  0.22300000  0.45690000  0.85090000  1.0 -0.0489659205
C  C100  1  0.27700000  0.12790000  0.23390000  1.0 -0.0489659205
C  C101  1  0.89400000  0.12790000  0.85090000  1.0 -0.0489659205
C  C102  1  0.60600000  0.45690000  0.23390000  1.0 -0.0489659205
C  C103  1  0.77700000  0.54310000  0.14910000  1.0 -0.0489659205
C  C104  1  0.72300000  0.87210000  0.76610000  1.0 -0.0489659205
N  N1  1  0.82380000  0.65600000  0.97980000  1.0 -0.3127477051
N  N2  1  0.67620000  0.65600000  0.83220000  1.0 -0.3127477051
N  N3  1  0.17620000  0.34400000  0.02020000  1.0 -0.3127477051
N  N4  1  0.32380000  0.34400000  0.16780000  1.0 -0.3127477051
N  N5  1  0.81910000  0.71990000  0.90080000  1.0 -0.3127477051
N  N6  1  0.68090000  0.58170000  0.90080000  1.0 -0.3127477051
N  N7  1  0.31910000  0.41830000  0.09920000  1.0 -0.3127477051
N  N8  1  0.18090000  0.28010000  0.09920000  1.0 -0.3127477051
O  O1  1  0.18422000  0.67031000  0.88031000  1.0 -0.6483769746
O  O2  1  0.31578000  0.19609000  0.48609000  1.0 -0.6483769746
O  O3  1  0.29000000  0.80391000  0.11969000  1.0 -0.6483769746
O  O4  1  0.21000000  0.32969000  0.51391000  1.0 -0.6483769746
O  O5  1  0.81578000  0.32969000  0.11969000  1.0 -0.6483769746
O  O6  1  0.68422000  0.80391000  0.51391000  1.0 -0.6483769746
O  O7  1  0.71000000  0.19609000  0.88031000  1.0 -0.6483769746
O  O8  1  0.79000000  0.67031000  0.48609000  1.0 -0.6483769746
O  O9  1  0.21270000  0.97010000  0.29300000  1.0 -0.2072681853
O  O10  1  0.28730000  0.58030000  0.75740000  1.0 -0.2072681853
O  O11  1  0.17710000  0.41970000  0.70700000  1.0 -0.2072681853
O  O12  1  0.32290000  0.02990000  0.24260000  1.0 -0.2072681853
O  O13  1  0.78730000  0.02990000  0.70700000  1.0 -0.2072681853
O  O14  1  0.71270000  0.41970000  0.24260000  1.0 -0.2072681853
O  O15  1  0.82290000  0.58030000  0.29300000  1.0 -0.2072681853
O  O16  1  0.67710000  0.97010000  0.75740000  1.0 -0.2072681853
O  O17  1  0.12560000  0.04960000  0.34620000  1.0 -0.5255932243
O  O18  1  0.37440000  0.72060000  0.92400000  1.0 -0.5255932243
O  O19  1  0.20340000  0.27940000  0.65380000  1.0 -0.5255932243
O  O20  1  0.29660000  0.95040000  0.07600000  1.0 -0.5255932243
O  O21  1  0.87440000  0.95040000  0.65380000  1.0 -0.5255932243
O  O22  1  0.62560000  0.27940000  0.07600000  1.0 -0.5255932243
O  O23  1  0.79660000  0.72060000  0.34620000  1.0 -0.5255932243
O  O24  1  0.70340000  0.04960000  0.92400000  1.0 -0.5255932243
O  O25  1  0.08500000  0.56390000  0.75950000  1.0 -0.1109012765
O  O26  1  0.41500000  0.17450000  0.47890000  1.0 -0.1109012765
O  O27  1  0.30440000  0.82550000  0.24050000  1.0 -0.1109012765
O  O28  1  0.19560000  0.43610000  0.52110000  1.0 -0.1109012765
O  O29  1  0.91500000  0.43610000  0.24050000  1.0 -0.1109012765
O  O30  1  0.58500000  0.82550000  0.52110000  1.0 -0.1109012765
O  O31  1  0.69560000  0.17450000  0.75950000  1.0 -0.1109012765
O  O32  1  0.80440000  0.56390000  0.47890000  1.0 -0.1109012765
O  O33  1  0.20770000  0.99460000  0.28950000  1.0 -0.0977101674
O  O34  1  0.29230000  0.58180000  0.78690000  1.0 -0.0977101674
O  O35  1  0.20510000  0.41820000  0.71050000  1.0 -0.0977101674
O  O36  1  0.29490000  0.00540000  0.21310000  1.0 -0.0977101674
O  O37  1  0.79230000  0.00540000  0.71050000  1.0 -0.0977101674
O  O38  1  0.70770000  0.41820000  0.21310000  1.0 -0.0977101674
O  O39  1  0.79490000  0.58180000  0.28950000  1.0 -0.0977101674
O  O40  1  0.70510000  0.99460000  0.78690000  1.0 -0.0977101674
O  O41  1  0.08670000  0.53510000  0.76020000  1.0 -0.0869117634
O  O42  1  0.41330000  0.17350000  0.44840000  1.0 -0.0869117634
O  O43  1  0.27490000  0.82650000  0.23980000  1.0 -0.0869117634
O  O44  1  0.22510000  0.46490000  0.55160000  1.0 -0.0869117634
O  O45  1  0.91330000  0.46490000  0.23980000  1.0 -0.0869117634
O  O46  1  0.58670000  0.82650000  0.55160000  1.0 -0.0869117634
O  O47  1  0.72510000  0.17350000  0.76020000  1.0 -0.0869117634
O  O48  1  0.77490000  0.53510000  0.44840000  1.0 -0.0869117634
