# DDEC6 charges by PACMAN v1.1 (https://github.com/mtap-research/PACMAN-charge/)
data_HAFDUQ_ASR_pacman
_symmetry_space_group_name_H-M   'P 1'
_cell_length_a   19.31440000
_cell_length_b   19.31440000
_cell_length_c   19.31440000
_cell_angle_alpha   56.01330000
_cell_angle_beta   56.01330000
_cell_angle_gamma   56.01330000
_symmetry_Int_Tables_number   1
_chemical_formula_structural   CuH15C23N3O5
_chemical_formula_sum   'Cu6 H90 C138 N18 O30'
_cell_volume   4624.28811178
_cell_formula_units_Z   6
loop_
 _symmetry_equiv_pos_site_id
 _symmetry_equiv_pos_as_xyz
  1  'x, y, z'
loop_
 _atom_site_type_symbol
 _atom_site_label
 _atom_site_symmetry_multiplicity
 _atom_site_fract_x
 _atom_site_fract_y
 _atom_site_fract_z
 _atom_site_occupancy
 _atom_site_charge
Cu  Cu1  1  0.45780000  0.02730000  0.07490000  1.0 0.8390123528
Cu  Cu2  1  0.07490000  0.45780000  0.02730000  1.0 0.8390123528
Cu  Cu3  1  0.02730000  0.07490000  0.45780000  1.0 0.8390123528
Cu  Cu4  1  0.54220000  0.92510000  0.97270000  1.0 0.8390123528
Cu  Cu5  1  0.97270000  0.54220000  0.92510000  1.0 0.8390123528
Cu  Cu6  1  0.92510000  0.97270000  0.54220000  1.0 0.8390123528
H  H1  1  0.15430000  0.33690000  0.78710000  1.0 0.1396461943
H  H2  1  0.78710000  0.15430000  0.33690000  1.0 0.1396461943
H  H3  1  0.33690000  0.78710000  0.15430000  1.0 0.1396461943
H  H4  1  0.84570000  0.21290000  0.66310000  1.0 0.1396461943
H  H5  1  0.66310000  0.84570000  0.21290000  1.0 0.1396461943
H  H6  1  0.21290000  0.66310000  0.84570000  1.0 0.1396461943
H  H7  1  0.27180000  0.24820000  0.95300000  1.0 0.129387511
H  H8  1  0.95300000  0.27180000  0.24820000  1.0 0.129387511
H  H9  1  0.24820000  0.95300000  0.27180000  1.0 0.129387511
H  H10  1  0.72820000  0.04700000  0.75180000  1.0 0.129387511
H  H11  1  0.75180000  0.72820000  0.04700000  1.0 0.129387511
H  H12  1  0.04700000  0.75180000  0.72820000  1.0 0.129387511
H  H13  1  0.36780000  0.11060000  0.80320000  1.0 0.1396461943
H  H14  1  0.80320000  0.36780000  0.11060000  1.0 0.1396461943
H  H15  1  0.11060000  0.80320000  0.36780000  1.0 0.1396461943
H  H16  1  0.63220000  0.19680000  0.88940000  1.0 0.1396461943
H  H17  1  0.88940000  0.63220000  0.19680000  1.0 0.1396461943
H  H18  1  0.19680000  0.88940000  0.63220000  1.0 0.1396461943
H  H19  1  0.19830000  0.28590000  0.69360000  1.0 0.2820895892
H  H20  1  0.69360000  0.19830000  0.28590000  1.0 0.2820895892
H  H21  1  0.28590000  0.69360000  0.19830000  1.0 0.2820895892
H  H22  1  0.80170000  0.30640000  0.71410000  1.0 0.2820895892
H  H23  1  0.71410000  0.80170000  0.30640000  1.0 0.2820895892
H  H24  1  0.30640000  0.71410000  0.80170000  1.0 0.2820895892
H  H25  1  0.32610000  0.06030000  0.61470000  1.0 0.0601340144
H  H26  1  0.61470000  0.32610000  0.06030000  1.0 0.0601340144
H  H27  1  0.06030000  0.61470000  0.32610000  1.0 0.0601340144
H  H28  1  0.67390000  0.38530000  0.93970000  1.0 0.0601340144
H  H29  1  0.93970000  0.67390000  0.38530000  1.0 0.0601340144
H  H30  1  0.38530000  0.93970000  0.67390000  1.0 0.0601340144
H  H31  1  0.27570000  0.07470000  0.52170000  1.0 0.072541399
H  H32  1  0.52170000  0.27570000  0.07470000  1.0 0.072541399
H  H33  1  0.07470000  0.52170000  0.27570000  1.0 0.072541399
H  H34  1  0.72430000  0.47830000  0.92530000  1.0 0.072541399
H  H35  1  0.92530000  0.72430000  0.47830000  1.0 0.072541399
H  H36  1  0.47830000  0.92530000  0.72430000  1.0 0.072541399
H  H37  1  0.10790000  0.32270000  0.51680000  1.0 0.0601340144
H  H38  1  0.51680000  0.10790000  0.32270000  1.0 0.0601340144
H  H39  1  0.32270000  0.51680000  0.10790000  1.0 0.0601340144
H  H40  1  0.89210000  0.48320000  0.67730000  1.0 0.0601340144
H  H41  1  0.67730000  0.89210000  0.48320000  1.0 0.0601340144
H  H42  1  0.48320000  0.67730000  0.89210000  1.0 0.0601340144
H  H43  1  0.15780000  0.30880000  0.60980000  1.0 0.0601340144
H  H44  1  0.60980000  0.15780000  0.30880000  1.0 0.0601340144
H  H45  1  0.30880000  0.60980000  0.15780000  1.0 0.0601340144
H  H46  1  0.84220000  0.39020000  0.69120000  1.0 0.0601340144
H  H47  1  0.69120000  0.84220000  0.39020000  1.0 0.0601340144
H  H48  1  0.39020000  0.69120000  0.84220000  1.0 0.0601340144
H  H49  1  0.16830000  0.32590000  0.35240000  1.0 0.0963524562
H  H50  1  0.35240000  0.16830000  0.32590000  1.0 0.0963524562
H  H51  1  0.32590000  0.35240000  0.16830000  1.0 0.0963524562
H  H52  1  0.83170000  0.64760000  0.67410000  1.0 0.0963524562
H  H53  1  0.67410000  0.83170000  0.64760000  1.0 0.0963524562
H  H54  1  0.64760000  0.67410000  0.83170000  1.0 0.0963524562
H  H55  1  0.06430000  0.23510000  0.30390000  1.0 0.1088681625
H  H56  1  0.30390000  0.06430000  0.23510000  1.0 0.1088681625
H  H57  1  0.23510000  0.30390000  0.06430000  1.0 0.1088681625
H  H58  1  0.93570000  0.69610000  0.76490000  1.0 0.1088681625
H  H59  1  0.76490000  0.93570000  0.69610000  1.0 0.1088681625
H  H60  1  0.69610000  0.76490000  0.93570000  1.0 0.1088681625
H  H61  1  0.12320000  0.09500000  0.52130000  1.0 0.1088681625
H  H62  1  0.52130000  0.12320000  0.09500000  1.0 0.1088681625
H  H63  1  0.09500000  0.52130000  0.12320000  1.0 0.1088681625
H  H64  1  0.87680000  0.47870000  0.90500000  1.0 0.1088681625
H  H65  1  0.90500000  0.87680000  0.47870000  1.0 0.1088681625
H  H66  1  0.47870000  0.90500000  0.87680000  1.0 0.1088681625
H  H67  1  0.26540000  0.05340000  0.66940000  1.0 0.072541399
H  H68  1  0.66940000  0.26540000  0.05340000  1.0 0.072541399
H  H69  1  0.05340000  0.66940000  0.26540000  1.0 0.072541399
H  H70  1  0.73460000  0.33060000  0.94660000  1.0 0.072541399
H  H71  1  0.94660000  0.73460000  0.33060000  1.0 0.072541399
H  H72  1  0.33060000  0.94660000  0.73460000  1.0 0.072541399
H  H73  1  0.21530000  0.06730000  0.57630000  1.0 0.0811180305
H  H74  1  0.57630000  0.21530000  0.06730000  1.0 0.0811180305
H  H75  1  0.06730000  0.57630000  0.21530000  1.0 0.0811180305
H  H76  1  0.78470000  0.42370000  0.93270000  1.0 0.0811180305
H  H77  1  0.93270000  0.78470000  0.42370000  1.0 0.0811180305
H  H78  1  0.42370000  0.93270000  0.78470000  1.0 0.0811180305
H  H79  1  0.16860000  0.32980000  0.46220000  1.0 0.0601340144
H  H80  1  0.46220000  0.16860000  0.32980000  1.0 0.0601340144
H  H81  1  0.32980000  0.46220000  0.16860000  1.0 0.0601340144
H  H82  1  0.83140000  0.53780000  0.67020000  1.0 0.0601340144
H  H83  1  0.67020000  0.83140000  0.53780000  1.0 0.0601340144
H  H84  1  0.53780000  0.67020000  0.83140000  1.0 0.0601340144
H  H85  1  0.21850000  0.31590000  0.55520000  1.0 0.0601340144
H  H86  1  0.55520000  0.21850000  0.31590000  1.0 0.0601340144
H  H87  1  0.31590000  0.55520000  0.21850000  1.0 0.0601340144
H  H88  1  0.78150000  0.44480000  0.68410000  1.0 0.0601340144
H  H89  1  0.68410000  0.78150000  0.44480000  1.0 0.0601340144
H  H90  1  0.44480000  0.68410000  0.78150000  1.0 0.0601340144
C  C1  1  0.39740000  0.09730000  0.92640000  1.0 0.5893781564
C  C2  1  0.92640000  0.39740000  0.09730000  1.0 0.5893781564
C  C3  1  0.09730000  0.92640000  0.39740000  1.0 0.5893781564
C  C4  1  0.60260000  0.07360000  0.90270000  1.0 0.5893781564
C  C5  1  0.90270000  0.60260000  0.07360000  1.0 0.5893781564
C  C6  1  0.07360000  0.90270000  0.60260000  1.0 0.5893781564
C  C7  1  0.26020000  0.22210000  0.78460000  1.0 0.2215760481
C  C8  1  0.78460000  0.26020000  0.22210000  1.0 0.2215760481
C  C9  1  0.22210000  0.78460000  0.26020000  1.0 0.2215760481
C  C10  1  0.73980000  0.21540000  0.77790000  1.0 0.2215760481
C  C11  1  0.77790000  0.73980000  0.21540000  1.0 0.2215760481
C  C12  1  0.21540000  0.77790000  0.73980000  1.0 0.2215760481
C  C13  1  0.19770000  0.29510000  0.81190000  1.0 -0.2299577823
C  C14  1  0.81190000  0.19770000  0.29510000  1.0 -0.2299577823
C  C15  1  0.29510000  0.81190000  0.19770000  1.0 -0.2299577823
C  C16  1  0.80230000  0.18810000  0.70490000  1.0 -0.2299577823
C  C17  1  0.70490000  0.80230000  0.18810000  1.0 -0.2299577823
C  C18  1  0.18810000  0.70490000  0.80230000  1.0 -0.2299577823
C  C19  1  0.20250000  0.30490000  0.87470000  1.0 0.0105300825
C  C20  1  0.87470000  0.20250000  0.30490000  1.0 0.0105300825
C  C21  1  0.30490000  0.87470000  0.20250000  1.0 0.0105300825
C  C22  1  0.79750000  0.12530000  0.69510000  1.0 0.0105300825
C  C23  1  0.69510000  0.79750000  0.12530000  1.0 0.0105300825
C  C24  1  0.12530000  0.69510000  0.79750000  1.0 0.0105300825
C  C25  1  0.26810000  0.24170000  0.91190000  1.0 -0.1251064706
C  C26  1  0.91190000  0.26810000  0.24170000  1.0 -0.1251064706
C  C27  1  0.24170000  0.91190000  0.26810000  1.0 -0.1251064706
C  C28  1  0.73190000  0.08810000  0.75830000  1.0 -0.118579861
C  C29  1  0.75830000  0.73190000  0.08810000  1.0 -0.1251064706
C  C30  1  0.08810000  0.75830000  0.73190000  1.0 -0.1251064706
C  C31  1  0.33086000  0.16876000  0.88446000  1.0 -0.0378738495
C  C32  1  0.88446000  0.33086000  0.16876000  1.0 -0.0378738495
C  C33  1  0.16876000  0.88446000  0.33086000  1.0 -0.0378738495
C  C34  1  0.66914000  0.11554000  0.83124000  1.0 -0.0378738495
C  C35  1  0.83124000  0.66914000  0.11554000  1.0 -0.0378738495
C  C36  1  0.11554000  0.83124000  0.66914000  1.0 -0.0313793833
C  C37  1  0.32660000  0.15890000  0.82100000  1.0 -0.1704328525
C  C38  1  0.82100000  0.32660000  0.15890000  1.0 -0.1704328525
C  C39  1  0.15890000  0.82100000  0.32660000  1.0 -0.1704328525
C  C40  1  0.67340000  0.17900000  0.84110000  1.0 -0.1704328525
C  C41  1  0.84110000  0.67340000  0.17900000  1.0 -0.1704328525
C  C42  1  0.17900000  0.84110000  0.67340000  1.0 -0.1704328525
C  C43  1  0.13720000  0.37390000  0.91960000  1.0 0.5842824957
C  C44  1  0.91960000  0.13720000  0.37390000  1.0 0.5842824957
C  C45  1  0.37390000  0.91960000  0.13720000  1.0 0.5842824957
C  C46  1  0.86280000  0.08040000  0.62610000  1.0 0.5842824957
C  C47  1  0.62610000  0.86280000  0.08040000  1.0 0.5842824957
C  C48  1  0.08040000  0.62610000  0.86280000  1.0 0.5842824957
C  C49  1  0.28030000  0.17430000  0.68330000  1.0 0.4190496486
C  C50  1  0.68330000  0.28030000  0.17430000  1.0 0.4190496486
C  C51  1  0.17430000  0.68330000  0.28030000  1.0 0.4190496486
C  C52  1  0.71970000  0.31670000  0.82570000  1.0 0.4190496486
C  C53  1  0.82570000  0.71970000  0.31670000  1.0 0.4190496486
C  C54  1  0.31670000  0.82570000  0.71970000  1.0 0.4190496486
C  C55  1  0.24725000  0.18315000  0.62155000  1.0 -0.0552066322
C  C56  1  0.62155000  0.24725000  0.18315000  1.0 -0.0529981048
C  C57  1  0.18315000  0.62155000  0.24725000  1.0 -0.0552066322
C  C58  1  0.75275000  0.37845000  0.81685000  1.0 -0.0552066322
C  C59  1  0.81685000  0.75275000  0.37845000  1.0 -0.0552066322
C  C60  1  0.37845000  0.81685000  0.75275000  1.0 -0.0529981048
C  C61  1  0.28280000  0.11250000  0.59500000  1.0 -0.0378738495
C  C62  1  0.59500000  0.28280000  0.11250000  1.0 -0.0378738495
C  C63  1  0.11250000  0.59500000  0.28280000  1.0 -0.0378738495
C  C64  1  0.71720000  0.40500000  0.88750000  1.0 -0.0378738495
C  C65  1  0.88750000  0.71720000  0.40500000  1.0 -0.0378738495
C  C66  1  0.40500000  0.88750000  0.71720000  1.0 -0.0378738495
C  C67  1  0.25260000  0.12100000  0.53930000  1.0 -0.0529981048
C  C68  1  0.53930000  0.25260000  0.12100000  1.0 -0.0529981048
C  C69  1  0.12100000  0.53930000  0.25260000  1.0 -0.0529981048
C  C70  1  0.74740000  0.46070000  0.87900000  1.0 -0.0529981048
C  C71  1  0.87900000  0.74740000  0.46070000  1.0 -0.0529981048
C  C72  1  0.46070000  0.87900000  0.74740000  1.0 -0.0529981048
C  C73  1  0.18690000  0.19990000  0.50990000  1.0 0.0311677152
C  C74  1  0.50990000  0.18690000  0.19990000  1.0 0.0311677152
C  C75  1  0.19990000  0.50990000  0.18690000  1.0 0.0311677152
C  C76  1  0.81310000  0.49010000  0.80010000  1.0 0.0311677152
C  C77  1  0.80010000  0.81310000  0.49010000  1.0 0.0311677152
C  C78  1  0.49010000  0.80010000  0.81310000  1.0 0.0311677152
C  C79  1  0.15140000  0.27050000  0.53630000  1.0 -0.0378738495
C  C80  1  0.53630000  0.15140000  0.27050000  1.0 -0.0378738495
C  C81  1  0.27050000  0.53630000  0.15140000  1.0 -0.0378738495
C  C82  1  0.84860000  0.46370000  0.72950000  1.0 -0.0378738495
C  C83  1  0.72950000  0.84860000  0.46370000  1.0 -0.0378738495
C  C84  1  0.46370000  0.72950000  0.84860000  1.0 -0.0378738495
C  C85  1  0.18160000  0.26220000  0.59210000  1.0 -0.0378738495
C  C86  1  0.59210000  0.18160000  0.26220000  1.0 -0.0378738495
C  C87  1  0.26220000  0.59210000  0.18160000  1.0 -0.0378738495
C  C88  1  0.81840000  0.40790000  0.73780000  1.0 -0.0378738495
C  C89  1  0.73780000  0.81840000  0.40790000  1.0 -0.0378738495
C  C90  1  0.40790000  0.73780000  0.81840000  1.0 -0.0378738495
C  C91  1  0.15535000  0.20865000  0.45155000  1.0 -0.118579861
C  C92  1  0.45155000  0.15535000  0.20865000  1.0 -0.118579861
C  C93  1  0.20865000  0.45155000  0.15535000  1.0 -0.118579861
C  C94  1  0.84465000  0.54845000  0.79135000  1.0 -0.118579861
C  C95  1  0.79135000  0.84465000  0.54845000  1.0 -0.118579861
C  C96  1  0.54845000  0.79135000  0.84465000  1.0 -0.118579861
C  C97  1  0.12280000  0.14560000  0.47050000  1.0 0.0899100633
C  C98  1  0.47050000  0.12280000  0.14560000  1.0 0.0899100633
C  C99  1  0.14560000  0.47050000  0.12280000  1.0 0.0899100633
C  C100  1  0.87720000  0.52950000  0.85440000  1.0 0.0899100633
C  C101  1  0.85440000  0.87720000  0.52950000  1.0 0.0899100633
C  C102  1  0.52950000  0.85440000  0.87720000  1.0 0.0899100633
C  C103  1  0.08690000  0.22910000  0.33920000  1.0 0.1817392838
C  C104  1  0.33920000  0.08690000  0.22910000  1.0 0.1817392838
C  C105  1  0.22910000  0.33920000  0.08690000  1.0 0.1817392838
C  C106  1  0.91310000  0.66080000  0.77090000  1.0 0.1817392838
C  C107  1  0.77090000  0.91310000  0.66080000  1.0 0.1817392838
C  C108  1  0.66080000  0.77090000  0.91310000  1.0 0.1817392838
C  C109  1  0.14880000  0.28330000  0.36830000  1.0 0.0105300825
C  C110  1  0.36830000  0.14880000  0.28330000  1.0 0.0105300825
C  C111  1  0.28330000  0.36830000  0.14880000  1.0 0.0105300825
C  C112  1  0.85120000  0.63170000  0.71670000  1.0 0.0105300825
C  C113  1  0.71670000  0.85120000  0.63170000  1.0 0.0105300825
C  C114  1  0.63170000  0.71670000  0.85120000  1.0 0.0105300825
C  C115  1  0.24610000  0.10830000  0.62810000  1.0 -0.015467111
C  C116  1  0.62810000  0.24610000  0.10830000  1.0 -0.015467111
C  C117  1  0.10830000  0.62810000  0.24610000  1.0 -0.015467111
C  C118  1  0.75390000  0.37190000  0.89170000  1.0 -0.015467111
C  C119  1  0.89170000  0.75390000  0.37190000  1.0 -0.015467111
C  C120  1  0.37190000  0.89170000  0.75390000  1.0 -0.015467111
C  C121  1  0.21550000  0.11670000  0.57260000  1.0 -0.0313793833
C  C122  1  0.57260000  0.21550000  0.11670000  1.0 -0.0313793833
C  C123  1  0.11670000  0.57260000  0.21550000  1.0 -0.0313793833
C  C124  1  0.78450000  0.42740000  0.88330000  1.0 -0.0313793833
C  C125  1  0.88330000  0.78450000  0.42740000  1.0 -0.0313793833
C  C126  1  0.42740000  0.88330000  0.78450000  1.0 -0.0313793833
C  C127  1  0.18800000  0.27470000  0.50330000  1.0 -0.0529981048
C  C128  1  0.50330000  0.18800000  0.27470000  1.0 -0.0529981048
C  C129  1  0.27470000  0.50330000  0.18800000  1.0 -0.0529981048
C  C130  1  0.81200000  0.49670000  0.72530000  1.0 -0.0529981048
C  C131  1  0.72530000  0.81200000  0.49670000  1.0 -0.0529981048
C  C132  1  0.49670000  0.72530000  0.81200000  1.0 -0.0529981048
C  C133  1  0.21820000  0.26640000  0.55910000  1.0 -0.0378738495
C  C134  1  0.55910000  0.21820000  0.26640000  1.0 -0.0378738495
C  C135  1  0.26640000  0.55910000  0.21820000  1.0 -0.0378738495
C  C136  1  0.78180000  0.44090000  0.73360000  1.0 -0.0378738495
C  C137  1  0.73360000  0.78180000  0.44090000  1.0 -0.0378738495
C  C138  1  0.44090000  0.73360000  0.78180000  1.0 -0.0378738495
N  N1  1  0.23650000  0.23730000  0.71750000  1.0 -0.3496476032
N  N2  1  0.71750000  0.23650000  0.23730000  1.0 -0.3496476032
N  N3  1  0.23730000  0.71750000  0.23650000  1.0 -0.3496476032
N  N4  1  0.76350000  0.28250000  0.76270000  1.0 -0.3496476032
N  N5  1  0.76270000  0.76350000  0.28250000  1.0 -0.3496476032
N  N6  1  0.28250000  0.76270000  0.76350000  1.0 -0.3496476032
N  N7  1  0.09100000  0.15510000  0.41840000  1.0 -0.2419621069
N  N8  1  0.41840000  0.09100000  0.15510000  1.0 -0.2419621069
N  N9  1  0.15510000  0.41840000  0.09100000  1.0 -0.2419621069
N  N10  1  0.90900000  0.58160000  0.84490000  1.0 -0.2419621069
N  N11  1  0.84490000  0.90900000  0.58160000  1.0 -0.2419621069
N  N12  1  0.58160000  0.84490000  0.90900000  1.0 -0.2419621069
N  N13  1  0.11700000  0.29280000  0.31620000  1.0 -0.2299577823
N  N14  1  0.31620000  0.11700000  0.29280000  1.0 -0.2299577823
N  N15  1  0.29280000  0.31620000  0.11700000  1.0 -0.2299577823
N  N16  1  0.88300000  0.68380000  0.70720000  1.0 -0.2299577823
N  N17  1  0.70720000  0.88300000  0.68380000  1.0 -0.2299577823
N  N18  1  0.68380000  0.70720000  0.88300000  1.0 -0.2299577823
O  O1  1  0.40360000  0.10420000  0.98530000  1.0 -0.5580982584
O  O2  1  0.98530000  0.40360000  0.10420000  1.0 -0.5580982584
O  O3  1  0.10420000  0.98530000  0.40360000  1.0 -0.5580982584
O  O4  1  0.59640000  0.01470000  0.89580000  1.0 -0.5580982584
O  O5  1  0.89580000  0.59640000  0.01470000  1.0 -0.5580982584
O  O6  1  0.01470000  0.89580000  0.59640000  1.0 -0.5580982584
O  O7  1  0.45210000  0.02890000  0.90200000  1.0 -0.5663666147
O  O8  1  0.90200000  0.45210000  0.02890000  1.0 -0.5663666147
O  O9  1  0.02890000  0.90200000  0.45210000  1.0 -0.5663666147
O  O10  1  0.54790000  0.09800000  0.97110000  1.0 -0.5663666147
O  O11  1  0.97110000  0.54790000  0.09800000  1.0 -0.5663666147
O  O12  1  0.09800000  0.97110000  0.54790000  1.0 -0.5663666147
O  O13  1  0.15740000  0.37720000  0.97080000  1.0 -0.5211053211
O  O14  1  0.97080000  0.15740000  0.37720000  1.0 -0.5211053211
O  O15  1  0.37720000  0.97080000  0.15740000  1.0 -0.5211053211
O  O16  1  0.84260000  0.02920000  0.62280000  1.0 -0.5211053211
O  O17  1  0.62280000  0.84260000  0.02920000  1.0 -0.5211053211
O  O18  1  0.02920000  0.62280000  0.84260000  1.0 -0.5211053211
O  O19  1  0.07260000  0.43900000  0.89180000  1.0 -0.5580982584
O  O20  1  0.89180000  0.07260000  0.43900000  1.0 -0.5580982584
O  O21  1  0.43900000  0.89180000  0.07260000  1.0 -0.5580982584
O  O22  1  0.92740000  0.10820000  0.56100000  1.0 -0.5580982584
O  O23  1  0.56100000  0.92740000  0.10820000  1.0 -0.5580982584
O  O24  1  0.10820000  0.56100000  0.92740000  1.0 -0.5580982584
O  O25  1  0.33310000  0.10110000  0.71210000  1.0 -0.445129754
O  O26  1  0.71210000  0.33310000  0.10110000  1.0 -0.4448309857
O  O27  1  0.10110000  0.71210000  0.33310000  1.0 -0.445129754
O  O28  1  0.66690000  0.28790000  0.89890000  1.0 -0.445129754
O  O29  1  0.89890000  0.66690000  0.28790000  1.0 -0.445129754
O  O30  1  0.28790000  0.89890000  0.66690000  1.0 -0.445129754
