# DDEC6 charges by PACMAN v1.1 (https://github.com/mtap-research/PACMAN-charge/)
data_HAFVOB_ASR_pacman
_symmetry_space_group_name_H-M   'P 1'
_cell_length_a   9.50540000
_cell_length_b   23.47600000
_cell_length_c   27.62900000
_cell_angle_alpha   90.00000000
_cell_angle_beta   90.00000000
_cell_angle_gamma   90.00000000
_symmetry_Int_Tables_number   1
_chemical_formula_structural   Ca3P2H24C42O13
_chemical_formula_sum   'Ca12 P8 H96 C168 O52'
_cell_volume   6165.37737738
_cell_formula_units_Z   4
loop_
 _symmetry_equiv_pos_site_id
 _symmetry_equiv_pos_as_xyz
  1  'x, y, z'
loop_
 _atom_site_type_symbol
 _atom_site_label
 _atom_site_symmetry_multiplicity
 _atom_site_fract_x
 _atom_site_fract_y
 _atom_site_fract_z
 _atom_site_occupancy
 _atom_site_charge
Ca  Ca1  1  0.65072000  0.29856000  0.12792000  1.0 1.3356436297
Ca  Ca2  1  0.34928000  0.20144000  0.12792000  1.0 1.3356436297
Ca  Ca3  1  0.65072000  0.70144000  0.37208000  1.0 1.3341580435
Ca  Ca4  1  0.34928000  0.79856000  0.37208000  1.0 1.3341580435
Ca  Ca5  1  0.34928000  0.70144000  0.87208000  1.0 1.3341580435
Ca  Ca6  1  0.65072000  0.79856000  0.87208000  1.0 1.3341580435
Ca  Ca7  1  0.34928000  0.29856000  0.62792000  1.0 1.3356436297
Ca  Ca8  1  0.65072000  0.20144000  0.62792000  1.0 1.3356436297
Ca  Ca9  1  0.00000000  0.25000000  0.10670000  1.0 1.3736557766
Ca  Ca10  1  0.00000000  0.75000000  0.39330000  1.0 1.3736557766
Ca  Ca11  1  0.00000000  0.75000000  0.89330000  1.0 1.3736557766
Ca  Ca12  1  0.00000000  0.25000000  0.60670000  1.0 1.3736557766
P  P1  1  0.68840000  0.91628000  0.16110000  1.0 0.2297462515
P  P2  1  0.31160000  0.58372000  0.16110000  1.0 0.2297462515
P  P3  1  0.68840000  0.08372000  0.33890000  1.0 0.2297462515
P  P4  1  0.31160000  0.41628000  0.33890000  1.0 0.2297462515
P  P5  1  0.31160000  0.08372000  0.83890000  1.0 0.2297462515
P  P6  1  0.68840000  0.41628000  0.83890000  1.0 0.2297462515
P  P7  1  0.31160000  0.91628000  0.66110000  1.0 0.2297462515
P  P8  1  0.68840000  0.58372000  0.66110000  1.0 0.2297462515
H  H1  1  0.55210000  0.00610000  0.20600000  1.0 0.1191807102
H  H2  1  0.44790000  0.49390000  0.20600000  1.0 0.1191807102
H  H3  1  0.55210000  0.99390000  0.29400000  1.0 0.1191807102
H  H4  1  0.44790000  0.50610000  0.29400000  1.0 0.1191807102
H  H5  1  0.44790000  0.99390000  0.79400000  1.0 0.1191807102
H  H6  1  0.55210000  0.50610000  0.79400000  1.0 0.1191807102
H  H7  1  0.44790000  0.00610000  0.70600000  1.0 0.1191807102
H  H8  1  0.55210000  0.49390000  0.70600000  1.0 0.1191807102
H  H9  1  0.54630000  0.10570000  0.20060000  1.0 0.1292801404
H  H10  1  0.45370000  0.39430000  0.20060000  1.0 0.1292801404
H  H11  1  0.54630000  0.89430000  0.29940000  1.0 0.1292801404
H  H12  1  0.45370000  0.60570000  0.29940000  1.0 0.1292801404
H  H13  1  0.45370000  0.89430000  0.79940000  1.0 0.1292801404
H  H14  1  0.54630000  0.60570000  0.79940000  1.0 0.1292801404
H  H15  1  0.45370000  0.10570000  0.70060000  1.0 0.1292801404
H  H16  1  0.54630000  0.39430000  0.70060000  1.0 0.1292801404
H  H17  1  0.85470000  0.10040000  0.10150000  1.0 0.1379600569
H  H18  1  0.14530000  0.39960000  0.10150000  1.0 0.1379600569
H  H19  1  0.85470000  0.89960000  0.39850000  1.0 0.1379600569
H  H20  1  0.14530000  0.60040000  0.39850000  1.0 0.1379600569
H  H21  1  0.14530000  0.89960000  0.89850000  1.0 0.1379600569
H  H22  1  0.85470000  0.60040000  0.89850000  1.0 0.1379600569
H  H23  1  0.14530000  0.10040000  0.60150000  1.0 0.1379600569
H  H24  1  0.85470000  0.39960000  0.60150000  1.0 0.1379600569
H  H25  1  0.85080000  0.00260000  0.10240000  1.0 0.1191807102
H  H26  1  0.14920000  0.49740000  0.10240000  1.0 0.1191807102
H  H27  1  0.85080000  0.99740000  0.39760000  1.0 0.1191807102
H  H28  1  0.14920000  0.50260000  0.39760000  1.0 0.1191807102
H  H29  1  0.14920000  0.99740000  0.89760000  1.0 0.1191807102
H  H30  1  0.85080000  0.50260000  0.89760000  1.0 0.1191807102
H  H31  1  0.14920000  0.00260000  0.60240000  1.0 0.1191807102
H  H32  1  0.85080000  0.49740000  0.60240000  1.0 0.1191807102
H  H33  1  0.56710000  0.87040000  0.07750000  1.0 0.1191807102
H  H34  1  0.43290000  0.62960000  0.07750000  1.0 0.1191807102
H  H35  1  0.56710000  0.12960000  0.42250000  1.0 0.1191807102
H  H36  1  0.43290000  0.37040000  0.42250000  1.0 0.1191807102
H  H37  1  0.43290000  0.12960000  0.92250000  1.0 0.1191807102
H  H38  1  0.56710000  0.37040000  0.92250000  1.0 0.1191807102
H  H39  1  0.43290000  0.87040000  0.57750000  1.0 0.1191807102
H  H40  1  0.56710000  0.62960000  0.57750000  1.0 0.1191807102
H  H41  1  0.64060000  0.83650000  0.00280000  1.0 0.1292801404
H  H42  1  0.35940000  0.66350000  0.00280000  1.0 0.1292801404
H  H43  1  0.64060000  0.16350000  0.49720000  1.0 0.1292801404
H  H44  1  0.35940000  0.33650000  0.49720000  1.0 0.1292801404
H  H45  1  0.35940000  0.16350000  0.99720000  1.0 0.1292801404
H  H46  1  0.64060000  0.33650000  0.99720000  1.0 0.1292801404
H  H47  1  0.35940000  0.83650000  0.50280000  1.0 0.1292801404
H  H48  1  0.64060000  0.66350000  0.50280000  1.0 0.1292801404
H  H49  1  0.04660000  0.86690000  0.04050000  1.0 0.1191807102
H  H50  1  0.95340000  0.63310000  0.04050000  1.0 0.1191807102
H  H51  1  0.04660000  0.13310000  0.45950000  1.0 0.1191807102
H  H52  1  0.95340000  0.36690000  0.45950000  1.0 0.1191807102
H  H53  1  0.95340000  0.13310000  0.95950000  1.0 0.1191807102
H  H54  1  0.04660000  0.36690000  0.95950000  1.0 0.1191807102
H  H55  1  0.95340000  0.86690000  0.54050000  1.0 0.1191807102
H  H56  1  0.04660000  0.63310000  0.54050000  1.0 0.1191807102
H  H57  1  0.96830000  0.90120000  0.11490000  1.0 0.1134186356
H  H58  1  0.03170000  0.59880000  0.11490000  1.0 0.1134186356
H  H59  1  0.96830000  0.09880000  0.38510000  1.0 0.1134186356
H  H60  1  0.03170000  0.40120000  0.38510000  1.0 0.1134186356
H  H61  1  0.03170000  0.09880000  0.88510000  1.0 0.1134186356
H  H62  1  0.96830000  0.40120000  0.88510000  1.0 0.1134186356
H  H63  1  0.03170000  0.90120000  0.61490000  1.0 0.1134186356
H  H64  1  0.96830000  0.59880000  0.61490000  1.0 0.1134186356
H  H65  1  0.74100000  0.82240000  0.22080000  1.0 0.1191807102
H  H66  1  0.25900000  0.67760000  0.22080000  1.0 0.1191807102
H  H67  1  0.74100000  0.17760000  0.27920000  1.0 0.1191807102
H  H68  1  0.25900000  0.32240000  0.27920000  1.0 0.1191807102
H  H69  1  0.25900000  0.17760000  0.77920000  1.0 0.1191807102
H  H70  1  0.74100000  0.32240000  0.77920000  1.0 0.1191807102
H  H71  1  0.25900000  0.82240000  0.72080000  1.0 0.1191807102
H  H72  1  0.74100000  0.67760000  0.72080000  1.0 0.1191807102
H  H73  1  0.90940000  0.79320000  0.27610000  1.0 0.1292801404
H  H74  1  0.09060000  0.70680000  0.27610000  1.0 0.1292801404
H  H75  1  0.90940000  0.20680000  0.22390000  1.0 0.1292801404
H  H76  1  0.09060000  0.29320000  0.22390000  1.0 0.1292801404
H  H77  1  0.09060000  0.20680000  0.72390000  1.0 0.1292801404
H  H78  1  0.90940000  0.29320000  0.72390000  1.0 0.1292801404
H  H79  1  0.09060000  0.79320000  0.77610000  1.0 0.1292801404
H  H80  1  0.90940000  0.70680000  0.77610000  1.0 0.1292801404
H  H81  1  0.12340000  0.93980000  0.25620000  1.0 0.1191807102
H  H82  1  0.87660000  0.56020000  0.25620000  1.0 0.1191807102
H  H83  1  0.12340000  0.06020000  0.24380000  1.0 0.1191807102
H  H84  1  0.87660000  0.43980000  0.24380000  1.0 0.1191807102
H  H85  1  0.87660000  0.06020000  0.74380000  1.0 0.1191807102
H  H86  1  0.12340000  0.43980000  0.74380000  1.0 0.1191807102
H  H87  1  0.87660000  0.93980000  0.75620000  1.0 0.1191807102
H  H88  1  0.12340000  0.56020000  0.75620000  1.0 0.1191807102
H  H89  1  0.94550000  0.97080000  0.20160000  1.0 0.1134186356
H  H90  1  0.05450000  0.52920000  0.20160000  1.0 0.1134186356
H  H91  1  0.94550000  0.02920000  0.29840000  1.0 0.1134186356
H  H92  1  0.05450000  0.47080000  0.29840000  1.0 0.1134186356
H  H93  1  0.05450000  0.02920000  0.79840000  1.0 0.1134186356
H  H94  1  0.94550000  0.47080000  0.79840000  1.0 0.1134186356
H  H95  1  0.05450000  0.97080000  0.70160000  1.0 0.1134186356
H  H96  1  0.94550000  0.52920000  0.70160000  1.0 0.1134186356
C  C1  1  0.70090000  0.99370000  0.15542000  1.0 -0.0454975263
C  C2  1  0.29910000  0.50630000  0.15542000  1.0 -0.0413134806
C  C3  1  0.70090000  0.00630000  0.34458000  1.0 -0.0413134806
C  C4  1  0.29910000  0.49370000  0.34458000  1.0 -0.0413134806
C  C5  1  0.29910000  0.00630000  0.84458000  1.0 -0.0413134806
C  C6  1  0.70090000  0.49370000  0.84458000  1.0 -0.0413134806
C  C7  1  0.29910000  0.99370000  0.65542000  1.0 -0.0454975263
C  C8  1  0.70090000  0.50630000  0.65542000  1.0 -0.0413134806
C  C9  1  0.61270000  0.02510000  0.18388000  1.0 -0.129873741
C  C10  1  0.38730000  0.47490000  0.18388000  1.0 -0.129873741
C  C11  1  0.61270000  0.97490000  0.31612000  1.0 -0.129873741
C  C12  1  0.38730000  0.52510000  0.31612000  1.0 -0.129873741
C  C13  1  0.38730000  0.97490000  0.81612000  1.0 -0.129873741
C  C14  1  0.61270000  0.52510000  0.81612000  1.0 -0.129873741
C  C15  1  0.38730000  0.02510000  0.68388000  1.0 -0.129873741
C  C16  1  0.61270000  0.47490000  0.68388000  1.0 -0.129873741
C  C17  1  0.61010000  0.08470000  0.18111000  1.0 -0.0901098353
C  C18  1  0.38990000  0.41530000  0.18111000  1.0 -0.0901098353
C  C19  1  0.61010000  0.91530000  0.31889000  1.0 -0.0901098353
C  C20  1  0.38990000  0.58470000  0.31889000  1.0 -0.0901098353
C  C21  1  0.38990000  0.91530000  0.81889000  1.0 -0.0901098353
C  C22  1  0.61010000  0.58470000  0.81889000  1.0 -0.0901098353
C  C23  1  0.38990000  0.08470000  0.68111000  1.0 -0.0901098353
C  C24  1  0.61010000  0.41530000  0.68111000  1.0 -0.0901098353
C  C25  1  0.70040000  0.11270000  0.14992000  1.0 -0.0347934671
C  C26  1  0.29960000  0.38730000  0.14992000  1.0 -0.0347934671
C  C27  1  0.70040000  0.88730000  0.35008000  1.0 -0.0413134806
C  C28  1  0.29960000  0.61270000  0.35008000  1.0 -0.0347934671
C  C29  1  0.29960000  0.88730000  0.85008000  1.0 -0.0413134806
C  C30  1  0.70040000  0.61270000  0.85008000  1.0 -0.0347934671
C  C31  1  0.29960000  0.11270000  0.64992000  1.0 -0.0347934671
C  C32  1  0.70040000  0.38730000  0.64992000  1.0 -0.0347934671
C  C33  1  0.79030000  0.08130000  0.12220000  1.0 -0.0803169926
C  C34  1  0.20970000  0.41870000  0.12220000  1.0 -0.0803169926
C  C35  1  0.79030000  0.91870000  0.37780000  1.0 -0.0803169926
C  C36  1  0.20970000  0.58130000  0.37780000  1.0 -0.0803169926
C  C37  1  0.20970000  0.91870000  0.87780000  1.0 -0.0803169926
C  C38  1  0.79030000  0.58130000  0.87780000  1.0 -0.0803169926
C  C39  1  0.20970000  0.08130000  0.62220000  1.0 -0.0803169926
C  C40  1  0.79030000  0.41870000  0.62220000  1.0 -0.0803169926
C  C41  1  0.79020000  0.02330000  0.12340000  1.0 -0.1139352814
C  C42  1  0.20980000  0.47670000  0.12340000  1.0 -0.116498758
C  C43  1  0.79020000  0.97670000  0.37660000  1.0 -0.116498758
C  C44  1  0.20980000  0.52330000  0.37660000  1.0 -0.116498758
C  C45  1  0.20980000  0.97670000  0.87660000  1.0 -0.116498758
C  C46  1  0.79020000  0.52330000  0.87660000  1.0 -0.116498758
C  C47  1  0.20980000  0.02330000  0.62340000  1.0 -0.1139352814
C  C48  1  0.79020000  0.47670000  0.62340000  1.0 -0.116498758
C  C49  1  0.68920000  0.17560000  0.14510000  1.0 0.5868903726
C  C50  1  0.31080000  0.32440000  0.14510000  1.0 0.5868903726
C  C51  1  0.68920000  0.82440000  0.35490000  1.0 0.5868903726
C  C52  1  0.31080000  0.67560000  0.35490000  1.0 0.5868903726
C  C53  1  0.31080000  0.82440000  0.85490000  1.0 0.5868903726
C  C54  1  0.68920000  0.67560000  0.85490000  1.0 0.5868903726
C  C55  1  0.31080000  0.17560000  0.64510000  1.0 0.5868903726
C  C56  1  0.68920000  0.32440000  0.64510000  1.0 0.5868903726
C  C57  1  0.76140000  0.89000000  0.10331000  1.0 -0.0413134806
C  C58  1  0.23860000  0.61000000  0.10331000  1.0 -0.0413134806
C  C59  1  0.76140000  0.11000000  0.39669000  1.0 -0.0413134806
C  C60  1  0.23860000  0.39000000  0.39669000  1.0 -0.0413134806
C  C61  1  0.23860000  0.11000000  0.89669000  1.0 -0.0413134806
C  C62  1  0.76140000  0.39000000  0.89669000  1.0 -0.0413134806
C  C63  1  0.23860000  0.89000000  0.60331000  1.0 -0.0413134806
C  C64  1  0.76140000  0.61000000  0.60331000  1.0 -0.0413134806
C  C65  1  0.66460000  0.86990000  0.06990000  1.0 -0.129873741
C  C66  1  0.33540000  0.63010000  0.06990000  1.0 -0.129873741
C  C67  1  0.66460000  0.13010000  0.43010000  1.0 -0.129873741
C  C68  1  0.33540000  0.36990000  0.43010000  1.0 -0.129873741
C  C69  1  0.33540000  0.13010000  0.93010000  1.0 -0.129873741
C  C70  1  0.66460000  0.36990000  0.93010000  1.0 -0.129873741
C  C71  1  0.33540000  0.86990000  0.56990000  1.0 -0.129873741
C  C72  1  0.66460000  0.63010000  0.56990000  1.0 -0.129873741
C  C73  1  0.70830000  0.84910000  0.02570000  1.0 -0.0803169926
C  C74  1  0.29170000  0.65090000  0.02570000  1.0 -0.0803169926
C  C75  1  0.70830000  0.15090000  0.47430000  1.0 -0.0803169926
C  C76  1  0.29170000  0.34910000  0.47430000  1.0 -0.0803169926
C  C77  1  0.29170000  0.15090000  0.97430000  1.0 -0.0803169926
C  C78  1  0.70830000  0.34910000  0.97430000  1.0 -0.0803169926
C  C79  1  0.29170000  0.84910000  0.52570000  1.0 -0.0803169926
C  C80  1  0.70830000  0.65090000  0.52570000  1.0 -0.0803169926
C  C81  1  0.85200000  0.84640000  0.01429000  1.0 -0.0413134806
C  C82  1  0.14800000  0.65360000  0.01429000  1.0 -0.0413134806
C  C83  1  0.85200000  0.15360000  0.48571000  1.0 -0.0413134806
C  C84  1  0.14800000  0.34640000  0.48571000  1.0 -0.0413134806
C  C85  1  0.14800000  0.15360000  0.98571000  1.0 -0.0413134806
C  C86  1  0.85200000  0.34640000  0.98571000  1.0 -0.0413134806
C  C87  1  0.14800000  0.84640000  0.51429000  1.0 -0.0413134806
C  C88  1  0.85200000  0.65360000  0.51429000  1.0 -0.0413134806
C  C89  1  0.94900000  0.86700000  0.04780000  1.0 -0.0803169926
C  C90  1  0.05100000  0.63300000  0.04780000  1.0 -0.0803169926
C  C91  1  0.94900000  0.13300000  0.45220000  1.0 -0.0803169926
C  C92  1  0.05100000  0.36700000  0.45220000  1.0 -0.0803169926
C  C93  1  0.05100000  0.13300000  0.95220000  1.0 -0.0803169926
C  C94  1  0.94900000  0.36700000  0.95220000  1.0 -0.0803169926
C  C95  1  0.05100000  0.86700000  0.54780000  1.0 -0.0803169926
C  C96  1  0.94900000  0.63300000  0.54780000  1.0 -0.0803169926
C  C97  1  0.90150000  0.88790000  0.09190000  1.0 -0.144428213
C  C98  1  0.09850000  0.61210000  0.09190000  1.0 -0.144428213
C  C99  1  0.90150000  0.11210000  0.40810000  1.0 -0.144428213
C  C100  1  0.09850000  0.38790000  0.40810000  1.0 -0.144428213
C  C101  1  0.09850000  0.11210000  0.90810000  1.0 -0.144428213
C  C102  1  0.90150000  0.38790000  0.90810000  1.0 -0.144428213
C  C103  1  0.09850000  0.88790000  0.59190000  1.0 -0.144428213
C  C104  1  0.90150000  0.61210000  0.59190000  1.0 -0.144428213
C  C105  1  0.90060000  0.82050000  0.96870000  1.0 0.5732791453
C  C106  1  0.09940000  0.67950000  0.96870000  1.0 0.5732791453
C  C107  1  0.90060000  0.17950000  0.53130000  1.0 0.5732791453
C  C108  1  0.09940000  0.32050000  0.53130000  1.0 0.5732791453
C  C109  1  0.09940000  0.17950000  0.03130000  1.0 0.5732791453
C  C110  1  0.90060000  0.32050000  0.03130000  1.0 0.5732791453
C  C111  1  0.09940000  0.82050000  0.46870000  1.0 0.5732791453
C  C112  1  0.90060000  0.67950000  0.46870000  1.0 0.5732791453
C  C113  1  0.82910000  0.89920000  0.20466000  1.0 -0.0413134806
C  C114  1  0.17090000  0.60080000  0.20466000  1.0 -0.0413134806
C  C115  1  0.82910000  0.10080000  0.29534000  1.0 -0.0413134806
C  C116  1  0.17090000  0.39920000  0.29534000  1.0 -0.0413134806
C  C117  1  0.17090000  0.10080000  0.79534000  1.0 -0.0413134806
C  C118  1  0.82910000  0.39920000  0.79534000  1.0 -0.0413134806
C  C119  1  0.17090000  0.89920000  0.70466000  1.0 -0.0413134806
C  C120  1  0.82910000  0.60080000  0.70466000  1.0 -0.0413134806
C  C121  1  0.81850000  0.84660000  0.22780000  1.0 -0.1139352814
C  C122  1  0.18150000  0.65340000  0.22780000  1.0 -0.1139352814
C  C123  1  0.81850000  0.15340000  0.27220000  1.0 -0.1139352814
C  C124  1  0.18150000  0.34660000  0.27220000  1.0 -0.1139352814
C  C125  1  0.18150000  0.15340000  0.77220000  1.0 -0.1139352814
C  C126  1  0.81850000  0.34660000  0.77220000  1.0 -0.1139352814
C  C127  1  0.18150000  0.84660000  0.72780000  1.0 -0.1139352814
C  C128  1  0.81850000  0.65340000  0.72780000  1.0 -0.1139352814
C  C129  1  0.91870000  0.82920000  0.26065000  1.0 -0.0901098353
C  C130  1  0.08130000  0.67080000  0.26065000  1.0 -0.0901098353
C  C131  1  0.91870000  0.17080000  0.23935000  1.0 -0.0901098353
C  C132  1  0.08130000  0.32920000  0.23935000  1.0 -0.0901098353
C  C133  1  0.08130000  0.17080000  0.73935000  1.0 -0.0901098353
C  C134  1  0.91870000  0.32920000  0.73935000  1.0 -0.0901098353
C  C135  1  0.08130000  0.82920000  0.76065000  1.0 -0.0901098353
C  C136  1  0.91870000  0.67080000  0.76065000  1.0 -0.0901098353
C  C137  1  0.03180000  0.86330000  0.27132000  1.0 -0.0236163092
C  C138  1  0.96820000  0.63670000  0.27132000  1.0 -0.0236163092
C  C139  1  0.03180000  0.13670000  0.22868000  1.0 -0.0236163092
C  C140  1  0.96820000  0.36330000  0.22868000  1.0 -0.0236163092
C  C141  1  0.96820000  0.13670000  0.72868000  1.0 -0.0236163092
C  C142  1  0.03180000  0.36330000  0.72868000  1.0 -0.0236163092
C  C143  1  0.96820000  0.86330000  0.77132000  1.0 -0.0236163092
C  C144  1  0.03180000  0.63670000  0.77132000  1.0 -0.0236163092
C  C145  1  0.04510000  0.91610000  0.24930000  1.0 -0.0980942993
C  C146  1  0.95490000  0.58390000  0.24930000  1.0 -0.0980942993
C  C147  1  0.04510000  0.08390000  0.25070000  1.0 -0.0980942993
C  C148  1  0.95490000  0.41610000  0.25070000  1.0 -0.0980942993
C  C149  1  0.95490000  0.08390000  0.75070000  1.0 -0.0980942993
C  C150  1  0.04510000  0.41610000  0.75070000  1.0 -0.0980942993
C  C151  1  0.95490000  0.91610000  0.74930000  1.0 -0.0980942993
C  C152  1  0.04510000  0.58390000  0.74930000  1.0 -0.0980942993
C  C153  1  0.93930000  0.93410000  0.21600000  1.0 -0.129873741
C  C154  1  0.06070000  0.56590000  0.21600000  1.0 -0.129873741
C  C155  1  0.93930000  0.06590000  0.28400000  1.0 -0.129873741
C  C156  1  0.06070000  0.43410000  0.28400000  1.0 -0.129873741
C  C157  1  0.06070000  0.06590000  0.78400000  1.0 -0.129873741
C  C158  1  0.93930000  0.43410000  0.78400000  1.0 -0.129873741
C  C159  1  0.06070000  0.93410000  0.71600000  1.0 -0.129873741
C  C160  1  0.93930000  0.56590000  0.71600000  1.0 -0.129873741
C  C161  1  0.14240000  0.84260000  0.30541000  1.0 0.5809141352
C  C162  1  0.85760000  0.65740000  0.30541000  1.0 0.5809141352
C  C163  1  0.14240000  0.15740000  0.19459000  1.0 0.5809141352
C  C164  1  0.85760000  0.34260000  0.19459000  1.0 0.5809141352
C  C165  1  0.85760000  0.15740000  0.69459000  1.0 0.5809141352
C  C166  1  0.14240000  0.34260000  0.69459000  1.0 0.5809141352
C  C167  1  0.85760000  0.84260000  0.80541000  1.0 0.5809141352
C  C168  1  0.14240000  0.65740000  0.80541000  1.0 0.5809141352
O  O1  1  0.78600000  0.20221000  0.12372000  1.0 -0.5984689862
O  O2  1  0.21400000  0.29779000  0.12372000  1.0 -0.5984689862
O  O3  1  0.78600000  0.79779000  0.37628000  1.0 -0.5984689862
O  O4  1  0.21400000  0.70221000  0.37628000  1.0 -0.5984689862
O  O5  1  0.21400000  0.79779000  0.87628000  1.0 -0.5984689862
O  O6  1  0.78600000  0.70221000  0.87628000  1.0 -0.5984689862
O  O7  1  0.21400000  0.20221000  0.62372000  1.0 -0.5984689862
O  O8  1  0.78600000  0.29779000  0.62372000  1.0 -0.5984689862
O  O9  1  0.58190000  0.20095000  0.16123000  1.0 -0.6199126214
O  O10  1  0.41810000  0.29905000  0.16123000  1.0 -0.6199126214
O  O11  1  0.58190000  0.79905000  0.33877000  1.0 -0.6199126214
O  O12  1  0.41810000  0.70095000  0.33877000  1.0 -0.6199126214
O  O13  1  0.41810000  0.79905000  0.83877000  1.0 -0.6199126214
O  O14  1  0.58190000  0.70095000  0.83877000  1.0 -0.6199126214
O  O15  1  0.41810000  0.20095000  0.66123000  1.0 -0.6199126214
O  O16  1  0.58190000  0.29905000  0.66123000  1.0 -0.6199126214
O  O17  1  0.03090000  0.81640000  0.96093000  1.0 -0.5689965333
O  O18  1  0.96910000  0.68360000  0.96093000  1.0 -0.5689965333
O  O19  1  0.03090000  0.18360000  0.53907000  1.0 -0.5689965333
O  O20  1  0.96910000  0.31640000  0.53907000  1.0 -0.5689965333
O  O21  1  0.96910000  0.18360000  0.03907000  1.0 -0.5689965333
O  O22  1  0.03090000  0.31640000  0.03907000  1.0 -0.5689965333
O  O23  1  0.96910000  0.81640000  0.46093000  1.0 -0.5689965333
O  O24  1  0.03090000  0.68360000  0.46093000  1.0 -0.5689965333
O  O25  1  0.81120000  0.80249000  0.93781000  1.0 -0.6402439893
O  O26  1  0.18880000  0.69751000  0.93781000  1.0 -0.6402439893
O  O27  1  0.81120000  0.19751000  0.56219000  1.0 -0.6402439893
O  O28  1  0.18880000  0.30249000  0.56219000  1.0 -0.6402439893
O  O29  1  0.18880000  0.19751000  0.06219000  1.0 -0.6402439893
O  O30  1  0.81120000  0.30249000  0.06219000  1.0 -0.6402439893
O  O31  1  0.18880000  0.80249000  0.43781000  1.0 -0.6402439893
O  O32  1  0.81120000  0.69751000  0.43781000  1.0 -0.6402439893
O  O33  1  0.11230000  0.80345000  0.33417000  1.0 -0.6402439893
O  O34  1  0.88770000  0.69655000  0.33417000  1.0 -0.6402439893
O  O35  1  0.11230000  0.19655000  0.16583000  1.0 -0.6402439893
O  O36  1  0.88770000  0.30345000  0.16583000  1.0 -0.6402439893
O  O37  1  0.88770000  0.19655000  0.66583000  1.0 -0.6402439893
O  O38  1  0.11230000  0.30345000  0.66583000  1.0 -0.6402439893
O  O39  1  0.88770000  0.80345000  0.83417000  1.0 -0.6402439893
O  O40  1  0.11230000  0.69655000  0.83417000  1.0 -0.6402439893
O  O41  1  0.26350000  0.86400000  0.30495000  1.0 -0.5984689862
O  O42  1  0.73650000  0.63600000  0.30495000  1.0 -0.5984689862
O  O43  1  0.26350000  0.13600000  0.19505000  1.0 -0.5984689862
O  O44  1  0.73650000  0.36400000  0.19505000  1.0 -0.5984689862
O  O45  1  0.73650000  0.13600000  0.69505000  1.0 -0.5984689862
O  O46  1  0.26350000  0.36400000  0.69505000  1.0 -0.5984689862
O  O47  1  0.73650000  0.86400000  0.80495000  1.0 -0.5984689862
O  O48  1  0.26350000  0.63600000  0.80495000  1.0 -0.5984689862
O  O49  1  0.50000000  0.25000000  0.06696000  1.0 -0.5689965333
O  O50  1  0.50000000  0.75000000  0.43304000  1.0 -0.5689965333
O  O51  1  0.50000000  0.75000000  0.93304000  1.0 -0.5689965333
O  O52  1  0.50000000  0.25000000  0.56696000  1.0 -0.5689965333
