# DDEC6 charges by PACMAN v1.1 (https://github.com/mtap-research/PACMAN-charge/)
data_HAHPOW_ASR_pacman
_symmetry_space_group_name_H-M   'P 1'
_cell_length_a   21.59900000
_cell_length_b   21.59900000
_cell_length_c   12.19600000
_cell_angle_alpha   90.00000000
_cell_angle_beta   90.00000000
_cell_angle_gamma   120.00000000
_symmetry_Int_Tables_number   1
_chemical_formula_structural   Ag4H30(C14N3)3
_chemical_formula_sum   'Ag16 H120 C168 N36'
_cell_volume   4927.37183009
_cell_formula_units_Z   4
loop_
 _symmetry_equiv_pos_site_id
 _symmetry_equiv_pos_as_xyz
  1  'x, y, z'
loop_
 _atom_site_type_symbol
 _atom_site_label
 _atom_site_symmetry_multiplicity
 _atom_site_fract_x
 _atom_site_fract_y
 _atom_site_fract_z
 _atom_site_occupancy
 _atom_site_charge
Ag  Ag1  1  0.33333333  0.66666667  0.60130000  1.0 0.2373050676
Ag  Ag2  1  0.66666667  0.33333333  0.10130000  1.0 0.2373050676
Ag  Ag3  1  0.66666667  0.33333333  0.39870000  1.0 0.2373050676
Ag  Ag4  1  0.33333333  0.66666667  0.89870000  1.0 0.2373050676
Ag  Ag5  1  0.25981000  0.51962000  0.75000000  1.0 0.3002210856
Ag  Ag6  1  0.48038000  0.74019000  0.75000000  1.0 0.3002210856
Ag  Ag7  1  0.25981000  0.74019000  0.75000000  1.0 0.3002210856
Ag  Ag8  1  0.74019000  0.48038000  0.25000000  1.0 0.3002210856
Ag  Ag9  1  0.51962000  0.25981000  0.25000000  1.0 0.3002210856
Ag  Ag10  1  0.74019000  0.25981000  0.25000000  1.0 0.3002210856
Ag  Ag11  1  0.50121000  0.50121000  0.00000000  1.0 0.2861790232
Ag  Ag12  1  0.49879000  0.00000000  0.00000000  1.0 0.2839235962
Ag  Ag13  1  0.00000000  0.49879000  0.00000000  1.0 0.2839235962
Ag  Ag14  1  0.49879000  0.49879000  0.50000000  1.0 0.2839235962
Ag  Ag15  1  0.50121000  0.00000000  0.50000000  1.0 0.2839235962
Ag  Ag16  1  0.00000000  0.50121000  0.50000000  1.0 0.2861790232
H  H1  1  0.98450000  0.43480000  0.71270000  1.0 0.111433694
H  H2  1  0.56520000  0.54970000  0.71270000  1.0 0.111433694
H  H3  1  0.45030000  0.01550000  0.71270000  1.0 0.111433694
H  H4  1  0.01550000  0.56520000  0.21270000  1.0 0.111433694
H  H5  1  0.43480000  0.45030000  0.21270000  1.0 0.111433694
H  H6  1  0.54970000  0.98450000  0.21270000  1.0 0.111433694
H  H7  1  0.43480000  0.98450000  0.28730000  1.0 0.111433694
H  H8  1  0.54970000  0.56520000  0.28730000  1.0 0.111433694
H  H9  1  0.01550000  0.45030000  0.28730000  1.0 0.111433694
H  H10  1  0.56520000  0.01550000  0.78730000  1.0 0.111433694
H  H11  1  0.45030000  0.43480000  0.78730000  1.0 0.111433694
H  H12  1  0.98450000  0.54970000  0.78730000  1.0 0.111433694
H  H13  1  0.91470000  0.32070000  0.77620000  1.0 0.111433694
H  H14  1  0.67930000  0.59400000  0.77620000  1.0 0.111433694
H  H15  1  0.40600000  0.08530000  0.77620000  1.0 0.111433694
H  H16  1  0.08530000  0.67930000  0.27620000  1.0 0.111433694
H  H17  1  0.32070000  0.40600000  0.27620000  1.0 0.111433694
H  H18  1  0.59400000  0.91470000  0.27620000  1.0 0.111433694
H  H19  1  0.32070000  0.91470000  0.22380000  1.0 0.111433694
H  H20  1  0.59400000  0.67930000  0.22380000  1.0 0.111433694
H  H21  1  0.08530000  0.40600000  0.22380000  1.0 0.111433694
H  H22  1  0.67930000  0.08530000  0.72380000  1.0 0.111433694
H  H23  1  0.40600000  0.32070000  0.72380000  1.0 0.111433694
H  H24  1  0.91470000  0.59400000  0.72380000  1.0 0.111433694
H  H25  1  0.94890000  0.24000000  0.75220000  1.0 0.111433694
H  H26  1  0.76000000  0.70890000  0.75220000  1.0 0.111433694
H  H27  1  0.29110000  0.05110000  0.75220000  1.0 0.111433694
H  H28  1  0.05110000  0.76000000  0.25220000  1.0 0.111433694
H  H29  1  0.24000000  0.29110000  0.25220000  1.0 0.111433694
H  H30  1  0.70890000  0.94890000  0.25220000  1.0 0.111433694
H  H31  1  0.24000000  0.94890000  0.24780000  1.0 0.111433694
H  H32  1  0.70890000  0.76000000  0.24780000  1.0 0.111433694
H  H33  1  0.05110000  0.29110000  0.24780000  1.0 0.111433694
H  H34  1  0.76000000  0.05110000  0.74780000  1.0 0.111433694
H  H35  1  0.29110000  0.24000000  0.74780000  1.0 0.111433694
H  H36  1  0.94890000  0.70890000  0.74780000  1.0 0.111433694
H  H37  1  0.06360000  0.27210000  0.70830000  1.0 0.111433694
H  H38  1  0.72790000  0.79150000  0.70830000  1.0 0.111433694
H  H39  1  0.20850000  0.93640000  0.70830000  1.0 0.111433694
H  H40  1  0.93640000  0.72790000  0.20830000  1.0 0.111433694
H  H41  1  0.27210000  0.20850000  0.20830000  1.0 0.111433694
H  H42  1  0.79150000  0.06360000  0.20830000  1.0 0.111433694
H  H43  1  0.27210000  0.06360000  0.29170000  1.0 0.111433694
H  H44  1  0.79150000  0.72790000  0.29170000  1.0 0.111433694
H  H45  1  0.93640000  0.20850000  0.29170000  1.0 0.111433694
H  H46  1  0.72790000  0.93640000  0.79170000  1.0 0.111433694
H  H47  1  0.20850000  0.27210000  0.79170000  1.0 0.111433694
H  H48  1  0.06360000  0.79150000  0.79170000  1.0 0.111433694
H  H49  1  0.13650000  0.38900000  0.63450000  1.0 0.111433694
H  H50  1  0.61100000  0.74750000  0.63450000  1.0 0.111433694
H  H51  1  0.25250000  0.86350000  0.63450000  1.0 0.111433694
H  H52  1  0.86350000  0.61100000  0.13450000  1.0 0.111433694
H  H53  1  0.38900000  0.25250000  0.13450000  1.0 0.111433694
H  H54  1  0.74750000  0.13650000  0.13450000  1.0 0.111433694
H  H55  1  0.38900000  0.13650000  0.36550000  1.0 0.111433694
H  H56  1  0.74750000  0.61100000  0.36550000  1.0 0.111433694
H  H57  1  0.86350000  0.25250000  0.36550000  1.0 0.111433694
H  H58  1  0.61100000  0.86350000  0.86550000  1.0 0.111433694
H  H59  1  0.25250000  0.38900000  0.86550000  1.0 0.111433694
H  H60  1  0.13650000  0.74750000  0.86550000  1.0 0.111433694
H  H61  1  0.06920000  0.65360000  0.58190000  1.0 0.111433694
H  H62  1  0.34640000  0.41560000  0.58190000  1.0 0.111433694
H  H63  1  0.58440000  0.93080000  0.58190000  1.0 0.111433694
H  H64  1  0.93080000  0.34640000  0.08190000  1.0 0.111433694
H  H65  1  0.65360000  0.58440000  0.08190000  1.0 0.111433694
H  H66  1  0.41560000  0.06920000  0.08190000  1.0 0.111433694
H  H67  1  0.65360000  0.06920000  0.41810000  1.0 0.111433694
H  H68  1  0.41560000  0.34640000  0.41810000  1.0 0.111433694
H  H69  1  0.93080000  0.58440000  0.41810000  1.0 0.111433694
H  H70  1  0.34640000  0.93080000  0.91810000  1.0 0.111433694
H  H71  1  0.58440000  0.65360000  0.91810000  1.0 0.111433694
H  H72  1  0.06920000  0.41560000  0.91810000  1.0 0.111433694
H  H73  1  0.08060000  0.76030000  0.51960000  1.0 0.111433694
H  H74  1  0.23970000  0.32030000  0.51960000  1.0 0.111433694
H  H75  1  0.67970000  0.91940000  0.51960000  1.0 0.111433694
H  H76  1  0.91940000  0.23970000  0.01960000  1.0 0.111433694
H  H77  1  0.76030000  0.67970000  0.01960000  1.0 0.111433694
H  H78  1  0.32030000  0.08060000  0.01960000  1.0 0.111433694
H  H79  1  0.76030000  0.08060000  0.48040000  1.0 0.111433694
H  H80  1  0.32030000  0.23970000  0.48040000  1.0 0.111433694
H  H81  1  0.91940000  0.67970000  0.48040000  1.0 0.111433694
H  H82  1  0.23970000  0.91940000  0.98040000  1.0 0.111433694
H  H83  1  0.67970000  0.76030000  0.98040000  1.0 0.111433694
H  H84  1  0.08060000  0.32030000  0.98040000  1.0 0.111433694
H  H85  1  0.18250000  0.83680000  0.40390000  1.0 0.111433694
H  H86  1  0.16320000  0.34570000  0.40390000  1.0 0.111433694
H  H87  1  0.65430000  0.81750000  0.40390000  1.0 0.111433694
H  H88  1  0.81750000  0.16320000  0.90390000  1.0 0.111433694
H  H89  1  0.83680000  0.65430000  0.90390000  1.0 0.111433694
H  H90  1  0.34570000  0.18250000  0.90390000  1.0 0.111433694
H  H91  1  0.83680000  0.18250000  0.59610000  1.0 0.111433694
H  H92  1  0.34570000  0.16320000  0.59610000  1.0 0.111433694
H  H93  1  0.81750000  0.65430000  0.59610000  1.0 0.111433694
H  H94  1  0.16320000  0.81750000  0.09610000  1.0 0.111433694
H  H95  1  0.65430000  0.83680000  0.09610000  1.0 0.111433694
H  H96  1  0.18250000  0.34570000  0.09610000  1.0 0.111433694
H  H97  1  0.26430000  0.80530000  0.36580000  1.0 0.111433694
H  H98  1  0.19470000  0.45900000  0.36580000  1.0 0.111433694
H  H99  1  0.54100000  0.73570000  0.36580000  1.0 0.111433694
H  H100  1  0.73570000  0.19470000  0.86580000  1.0 0.111433694
H  H101  1  0.80530000  0.54100000  0.86580000  1.0 0.111433694
H  H102  1  0.45900000  0.26430000  0.86580000  1.0 0.111433694
H  H103  1  0.80530000  0.26430000  0.63420000  1.0 0.111433694
H  H104  1  0.45900000  0.19470000  0.63420000  1.0 0.111433694
H  H105  1  0.73570000  0.54100000  0.63420000  1.0 0.111433694
H  H106  1  0.19470000  0.73570000  0.13420000  1.0 0.111433694
H  H107  1  0.54100000  0.80530000  0.13420000  1.0 0.111433694
H  H108  1  0.26430000  0.45900000  0.13420000  1.0 0.111433694
H  H109  1  0.25590000  0.70220000  0.43580000  1.0 0.111433694
H  H110  1  0.29780000  0.55370000  0.43580000  1.0 0.111433694
H  H111  1  0.44630000  0.74410000  0.43580000  1.0 0.111433694
H  H112  1  0.74410000  0.29780000  0.93580000  1.0 0.111433694
H  H113  1  0.70220000  0.44630000  0.93580000  1.0 0.111433694
H  H114  1  0.55370000  0.25590000  0.93580000  1.0 0.111433694
H  H115  1  0.70220000  0.25590000  0.56420000  1.0 0.111433694
H  H116  1  0.55370000  0.29780000  0.56420000  1.0 0.111433694
H  H117  1  0.74410000  0.44630000  0.56420000  1.0 0.111433694
H  H118  1  0.29780000  0.74410000  0.06420000  1.0 0.111433694
H  H119  1  0.44630000  0.70220000  0.06420000  1.0 0.111433694
H  H120  1  0.25590000  0.55370000  0.06420000  1.0 0.111433694
C  C1  1  0.11760000  0.49920000  0.63440000  1.0 0.2484929165
C  C2  1  0.50080000  0.61840000  0.63440000  1.0 0.2484929165
C  C3  1  0.38160000  0.88240000  0.63440000  1.0 0.2484929165
C  C4  1  0.88240000  0.50080000  0.13440000  1.0 0.2484929165
C  C5  1  0.49920000  0.38160000  0.13440000  1.0 0.2484929165
C  C6  1  0.61840000  0.11760000  0.13440000  1.0 0.2484929165
C  C7  1  0.49920000  0.11760000  0.36560000  1.0 0.2484929165
C  C8  1  0.61840000  0.50080000  0.36560000  1.0 0.2484929165
C  C9  1  0.88240000  0.38160000  0.36560000  1.0 0.2484929165
C  C10  1  0.50080000  0.88240000  0.86560000  1.0 0.2484929165
C  C11  1  0.38160000  0.49920000  0.86560000  1.0 0.2484929165
C  C12  1  0.11760000  0.61840000  0.86560000  1.0 0.2484929165
C  C13  1  0.15800000  0.60270000  0.56790000  1.0 0.2861790232
C  C14  1  0.39730000  0.55530000  0.56790000  1.0 0.2861790232
C  C15  1  0.44470000  0.84200000  0.56790000  1.0 0.2861790232
C  C16  1  0.84200000  0.39730000  0.06790000  1.0 0.2861790232
C  C17  1  0.60270000  0.44470000  0.06790000  1.0 0.2861790232
C  C18  1  0.55530000  0.15800000  0.06790000  1.0 0.2861790232
C  C19  1  0.60270000  0.15800000  0.43210000  1.0 0.2861790232
C  C20  1  0.55530000  0.39730000  0.43210000  1.0 0.2861790232
C  C21  1  0.84200000  0.44470000  0.43210000  1.0 0.2861790232
C  C22  1  0.39730000  0.84200000  0.93210000  1.0 0.2861790232
C  C23  1  0.44470000  0.60270000  0.93210000  1.0 0.2861790232
C  C24  1  0.15800000  0.55530000  0.93210000  1.0 0.2861790232
C  C25  1  0.07030000  0.42550000  0.66666667  1.0 0.0272939007
C  C26  1  0.57450000  0.64480000  0.66666667  1.0 0.0272939007
C  C27  1  0.35520000  0.92970000  0.66666667  1.0 0.0272939007
C  C28  1  0.92970000  0.57450000  0.16667000  1.0 0.0272939007
C  C29  1  0.42550000  0.35520000  0.16667000  1.0 0.0272939007
C  C30  1  0.64480000  0.07030000  0.16667000  1.0 0.0272939007
C  C31  1  0.42550000  0.07030000  0.33333333  1.0 0.0272939007
C  C32  1  0.64480000  0.57450000  0.33333333  1.0 0.0272939007
C  C33  1  0.92970000  0.35520000  0.33333333  1.0 0.0272939007
C  C34  1  0.57450000  0.92970000  0.83333000  1.0 0.0272939007
C  C35  1  0.35520000  0.42550000  0.83333000  1.0 0.0272939007
C  C36  1  0.07030000  0.64480000  0.83333000  1.0 0.0272939007
C  C37  1  0.00130000  0.40270000  0.70920000  1.0 -0.1722080049
C  C38  1  0.59730000  0.59860000  0.70920000  1.0 -0.1722080049
C  C39  1  0.40140000  0.99870000  0.70920000  1.0 -0.1722080049
C  C40  1  0.99870000  0.59730000  0.20920000  1.0 -0.1722080049
C  C41  1  0.40270000  0.40140000  0.20920000  1.0 -0.1722080049
C  C42  1  0.59860000  0.00130000  0.20920000  1.0 -0.1722080049
C  C43  1  0.40270000  0.00130000  0.29080000  1.0 -0.1722080049
C  C44  1  0.59860000  0.59730000  0.29080000  1.0 -0.1722080049
C  C45  1  0.99870000  0.40140000  0.29080000  1.0 -0.1722080049
C  C46  1  0.59730000  0.99870000  0.79080000  1.0 -0.1722080049
C  C47  1  0.40140000  0.40270000  0.79080000  1.0 -0.1722080049
C  C48  1  0.00130000  0.59860000  0.79080000  1.0 -0.1722080049
C  C49  1  0.95900000  0.33430000  0.74520000  1.0 -0.1005557717
C  C50  1  0.66570000  0.62470000  0.74520000  1.0 -0.1005557717
C  C51  1  0.37530000  0.04100000  0.74520000  1.0 -0.1005557717
C  C52  1  0.04100000  0.66570000  0.24520000  1.0 -0.1005557717
C  C53  1  0.33430000  0.37530000  0.24520000  1.0 -0.1005557717
C  C54  1  0.62470000  0.95900000  0.24520000  1.0 -0.1005557717
C  C55  1  0.33430000  0.95900000  0.25480000  1.0 -0.1005557717
C  C56  1  0.62470000  0.66570000  0.25480000  1.0 -0.1005557717
C  C57  1  0.04100000  0.37530000  0.25480000  1.0 -0.1005557717
C  C58  1  0.66570000  0.04100000  0.75480000  1.0 -0.1005557717
C  C59  1  0.37530000  0.33430000  0.75480000  1.0 -0.1005557717
C  C60  1  0.95900000  0.62470000  0.75480000  1.0 -0.1005557717
C  C61  1  0.98110000  0.28750000  0.73590000  1.0 -0.1114852223
C  C62  1  0.71250000  0.69360000  0.73590000  1.0 -0.1114852223
C  C63  1  0.30640000  0.01890000  0.73590000  1.0 -0.1114852223
C  C64  1  0.01890000  0.71250000  0.23590000  1.0 -0.1114852223
C  C65  1  0.28750000  0.30640000  0.23590000  1.0 -0.1114852223
C  C66  1  0.69360000  0.98110000  0.23590000  1.0 -0.1114852223
C  C67  1  0.28750000  0.98110000  0.26410000  1.0 -0.1114852223
C  C68  1  0.69360000  0.71250000  0.26410000  1.0 -0.1114852223
C  C69  1  0.01890000  0.30640000  0.26410000  1.0 -0.1114852223
C  C70  1  0.71250000  0.01890000  0.76410000  1.0 -0.1114852223
C  C71  1  0.30640000  0.28750000  0.76410000  1.0 -0.1114852223
C  C72  1  0.98110000  0.69360000  0.76410000  1.0 -0.1114852223
C  C73  1  0.04740000  0.30460000  0.70420000  1.0 -0.1005557717
C  C74  1  0.69540000  0.74280000  0.70420000  1.0 -0.1005557717
C  C75  1  0.25720000  0.95260000  0.70420000  1.0 -0.1005557717
C  C76  1  0.95260000  0.69540000  0.20420000  1.0 -0.1005557717
C  C77  1  0.30460000  0.25720000  0.20420000  1.0 -0.1005557717
C  C78  1  0.74280000  0.04740000  0.20420000  1.0 -0.1005557717
C  C79  1  0.30460000  0.04740000  0.29580000  1.0 -0.1005557717
C  C80  1  0.74280000  0.69540000  0.29580000  1.0 -0.1005557717
C  C81  1  0.95260000  0.25720000  0.29580000  1.0 -0.1005557717
C  C82  1  0.69540000  0.95260000  0.79580000  1.0 -0.1005557717
C  C83  1  0.25720000  0.30460000  0.79580000  1.0 -0.1005557717
C  C84  1  0.04740000  0.74280000  0.79580000  1.0 -0.1005557717
C  C85  1  0.09190000  0.37610000  0.66360000  1.0 -0.1423126533
C  C86  1  0.62390000  0.71580000  0.66360000  1.0 -0.1423126533
C  C87  1  0.28420000  0.90810000  0.66360000  1.0 -0.1423126533
C  C88  1  0.90810000  0.62390000  0.16360000  1.0 -0.1423126533
C  C89  1  0.37610000  0.28420000  0.16360000  1.0 -0.1423126533
C  C90  1  0.71580000  0.09190000  0.16360000  1.0 -0.1423126533
C  C91  1  0.37610000  0.09190000  0.33640000  1.0 -0.1423126533
C  C92  1  0.71580000  0.62390000  0.33640000  1.0 -0.1423126533
C  C93  1  0.90810000  0.28420000  0.33640000  1.0 -0.1423126533
C  C94  1  0.62390000  0.90810000  0.83640000  1.0 -0.1423126533
C  C95  1  0.28420000  0.37610000  0.83640000  1.0 -0.1423126533
C  C96  1  0.09190000  0.71580000  0.83640000  1.0 -0.1423126533
C  C97  1  0.16270000  0.66740000  0.51650000  1.0 0.0128319535
C  C98  1  0.33260000  0.49530000  0.51650000  1.0 0.0128319535
C  C99  1  0.50470000  0.83730000  0.51650000  1.0 0.0128319535
C  C100  1  0.83730000  0.33260000  0.01650000  1.0 0.0128319535
C  C101  1  0.66740000  0.50470000  0.01650000  1.0 0.0128319535
C  C102  1  0.49530000  0.16270000  0.01650000  1.0 0.0128319535
C  C103  1  0.66740000  0.16270000  0.48350000  1.0 0.0128319535
C  C104  1  0.49530000  0.33260000  0.48350000  1.0 0.0128319535
C  C105  1  0.83730000  0.50470000  0.48350000  1.0 0.0128319535
C  C106  1  0.33260000  0.83730000  0.98350000  1.0 0.0128319535
C  C107  1  0.50470000  0.66740000  0.98350000  1.0 0.0128319535
C  C108  1  0.16270000  0.49530000  0.98350000  1.0 0.0128319535
C  C109  1  0.10870000  0.68480000  0.54040000  1.0 -0.163242982
C  C110  1  0.31520000  0.42390000  0.54040000  1.0 -0.163242982
C  C111  1  0.57610000  0.89130000  0.54040000  1.0 -0.163242982
C  C112  1  0.89130000  0.31520000  0.04040000  1.0 -0.163242982
C  C113  1  0.68480000  0.57610000  0.04040000  1.0 -0.163242982
C  C114  1  0.42390000  0.10870000  0.04040000  1.0 -0.163242982
C  C115  1  0.68480000  0.10870000  0.45960000  1.0 -0.163242982
C  C116  1  0.42390000  0.31520000  0.45960000  1.0 -0.163242982
C  C117  1  0.89130000  0.57610000  0.45960000  1.0 -0.163242982
C  C118  1  0.31520000  0.89130000  0.95960000  1.0 -0.163242982
C  C119  1  0.57610000  0.68480000  0.95960000  1.0 -0.163242982
C  C120  1  0.10870000  0.42390000  0.95960000  1.0 -0.163242982
C  C121  1  0.11470000  0.74760000  0.50220000  1.0 -0.1005557717
C  C122  1  0.25240000  0.36710000  0.50220000  1.0 -0.1005557717
C  C123  1  0.63290000  0.88530000  0.50220000  1.0 -0.1005557717
C  C124  1  0.88530000  0.25240000  0.00220000  1.0 -0.1005557717
C  C125  1  0.74760000  0.63290000  0.00220000  1.0 -0.1005557717
C  C126  1  0.36710000  0.11470000  0.00220000  1.0 -0.1005557717
C  C127  1  0.74760000  0.11470000  0.49780000  1.0 -0.1005557717
C  C128  1  0.36710000  0.25240000  0.49780000  1.0 -0.1005557717
C  C129  1  0.88530000  0.63290000  0.49780000  1.0 -0.1005557717
C  C130  1  0.25240000  0.88530000  0.99780000  1.0 -0.1005557717
C  C131  1  0.63290000  0.74760000  0.99780000  1.0 -0.1005557717
C  C132  1  0.11470000  0.36710000  0.99780000  1.0 -0.1005557717
C  C133  1  0.17740000  0.79450000  0.43210000  1.0 -0.1235759754
C  C134  1  0.20550000  0.38290000  0.43210000  1.0 -0.1235759754
C  C135  1  0.61710000  0.82260000  0.43210000  1.0 -0.1235759754
C  C136  1  0.82260000  0.20550000  0.93210000  1.0 -0.1235759754
C  C137  1  0.79450000  0.61710000  0.93210000  1.0 -0.1235759754
C  C138  1  0.38290000  0.17740000  0.93210000  1.0 -0.1235759754
C  C139  1  0.79450000  0.17740000  0.56790000  1.0 -0.1235759754
C  C140  1  0.38290000  0.20550000  0.56790000  1.0 -0.1235759754
C  C141  1  0.82260000  0.61710000  0.56790000  1.0 -0.1235759754
C  C142  1  0.20550000  0.82260000  0.06790000  1.0 -0.1235759754
C  C143  1  0.61710000  0.79450000  0.06790000  1.0 -0.1235759754
C  C144  1  0.17740000  0.38290000  0.06790000  1.0 -0.1235759754
C  C145  1  0.22560000  0.77580000  0.41030000  1.0 -0.1005557717
C  C146  1  0.22420000  0.44980000  0.41030000  1.0 -0.1005557717
C  C147  1  0.55020000  0.77440000  0.41030000  1.0 -0.1005557717
C  C148  1  0.77440000  0.22420000  0.91030000  1.0 -0.1005557717
C  C149  1  0.77580000  0.55020000  0.91030000  1.0 -0.1005557717
C  C150  1  0.44980000  0.22560000  0.91030000  1.0 -0.1005557717
C  C151  1  0.77580000  0.22560000  0.58970000  1.0 -0.1005557717
C  C152  1  0.44980000  0.22420000  0.58970000  1.0 -0.1005557717
C  C153  1  0.77440000  0.55020000  0.58970000  1.0 -0.1005557717
C  C154  1  0.22420000  0.77440000  0.08970000  1.0 -0.1005557717
C  C155  1  0.55020000  0.77580000  0.08970000  1.0 -0.1005557717
C  C156  1  0.22560000  0.44980000  0.08970000  1.0 -0.1005557717
C  C157  1  0.22040000  0.71330000  0.45170000  1.0 -0.1526129468
C  C158  1  0.28670000  0.50710000  0.45170000  1.0 -0.1526129468
C  C159  1  0.49290000  0.77960000  0.45170000  1.0 -0.1526129468
C  C160  1  0.77960000  0.28670000  0.95170000  1.0 -0.1526129468
C  C161  1  0.71330000  0.49290000  0.95170000  1.0 -0.1526129468
C  C162  1  0.50710000  0.22040000  0.95170000  1.0 -0.1526129468
C  C163  1  0.71330000  0.22040000  0.54830000  1.0 -0.1526129468
C  C164  1  0.50710000  0.28670000  0.54830000  1.0 -0.1526129468
C  C165  1  0.77960000  0.49290000  0.54830000  1.0 -0.1526129468
C  C166  1  0.28670000  0.77960000  0.04830000  1.0 -0.1526129468
C  C167  1  0.49290000  0.71330000  0.04830000  1.0 -0.1526129468
C  C168  1  0.22040000  0.50710000  0.04830000  1.0 -0.1526129468
N  N1  1  0.21400000  0.60270000  0.60730000  1.0 -0.2380426078
N  N2  1  0.39730000  0.61130000  0.60730000  1.0 -0.2380426078
N  N3  1  0.38870000  0.78600000  0.60730000  1.0 -0.2380426078
N  N4  1  0.78600000  0.39730000  0.10730000  1.0 -0.2380426078
N  N5  1  0.60270000  0.38870000  0.10730000  1.0 -0.2380426078
N  N6  1  0.61130000  0.21400000  0.10730000  1.0 -0.2380426078
N  N7  1  0.60270000  0.21400000  0.39270000  1.0 -0.2380426078
N  N8  1  0.61130000  0.39730000  0.39270000  1.0 -0.2380426078
N  N9  1  0.78600000  0.38870000  0.39270000  1.0 -0.2380426078
N  N10  1  0.39730000  0.78600000  0.89270000  1.0 -0.2380426078
N  N11  1  0.38870000  0.60270000  0.89270000  1.0 -0.2380426078
N  N12  1  0.21400000  0.61130000  0.89270000  1.0 -0.2380426078
N  N13  1  0.18780000  0.53410000  0.65010000  1.0 -0.1967449113
N  N14  1  0.46590000  0.65370000  0.65010000  1.0 -0.1967449113
N  N15  1  0.34630000  0.81220000  0.65010000  1.0 -0.1967449113
N  N16  1  0.81220000  0.46590000  0.15010000  1.0 -0.1967449113
N  N17  1  0.53410000  0.34630000  0.15010000  1.0 -0.1967449113
N  N18  1  0.65370000  0.18780000  0.15010000  1.0 -0.1967449113
N  N19  1  0.53410000  0.18780000  0.34990000  1.0 -0.1967449113
N  N20  1  0.65370000  0.46590000  0.34990000  1.0 -0.1967449113
N  N21  1  0.81220000  0.34630000  0.34990000  1.0 -0.1967449113
N  N22  1  0.46590000  0.81220000  0.84990000  1.0 -0.1967449113
N  N23  1  0.34630000  0.53410000  0.84990000  1.0 -0.1967449113
N  N24  1  0.18780000  0.65370000  0.84990000  1.0 -0.1967449113
N  N25  1  0.09720000  0.54340000  0.58290000  1.0 -0.358236278
N  N26  1  0.45660000  0.55380000  0.58290000  1.0 -0.358236278
N  N27  1  0.44620000  0.90280000  0.58290000  1.0 -0.358236278
N  N28  1  0.90280000  0.45660000  0.08290000  1.0 -0.358236278
N  N29  1  0.54340000  0.44620000  0.08290000  1.0 -0.358236278
N  N30  1  0.55380000  0.09720000  0.08290000  1.0 -0.358236278
N  N31  1  0.54340000  0.09720000  0.41710000  1.0 -0.358236278
N  N32  1  0.55380000  0.45660000  0.41710000  1.0 -0.358236278
N  N33  1  0.90280000  0.44620000  0.41710000  1.0 -0.358236278
N  N34  1  0.45660000  0.90280000  0.91710000  1.0 -0.358236278
N  N35  1  0.44620000  0.54340000  0.91710000  1.0 -0.358236278
N  N36  1  0.09720000  0.55380000  0.91710000  1.0 -0.358236278
