# DDEC6 charges by PACMAN v1.1 (https://github.com/mtap-research/PACMAN-charge/)
data_HAJLUA_FSR_pacman
_symmetry_space_group_name_H-M   'P 1'
_cell_length_a   15.10940000
_cell_length_b   15.10940000
_cell_length_c   15.10940000
_cell_angle_alpha   114.32400000
_cell_angle_beta   114.32400000
_cell_angle_gamma   114.32400000
_symmetry_Int_Tables_number   1
_chemical_formula_structural   FeH52C22(SN5)2
_chemical_formula_sum   'Fe3 H156 C66 S6 N30'
_cell_volume   2044.35814205
_cell_formula_units_Z   3
loop_
 _symmetry_equiv_pos_site_id
 _symmetry_equiv_pos_as_xyz
  1  'x, y, z'
loop_
 _atom_site_type_symbol
 _atom_site_label
 _atom_site_symmetry_multiplicity
 _atom_site_fract_x
 _atom_site_fract_y
 _atom_site_fract_z
 _atom_site_occupancy
 _atom_site_charge
Fe  Fe1  1  0.50000000  0.00000000  0.00000000  1.0 0.6993417063
Fe  Fe2  1  0.00000000  0.00000000  0.50000000  1.0 0.6993417063
Fe  Fe3  1  0.00000000  0.50000000  0.00000000  1.0 0.6993417063
H  H1  1  0.76700000  0.23500000  0.11180000  1.0 0.2906050601
H  H2  1  0.23500000  0.11180000  0.76700000  1.0 0.2906050601
H  H3  1  0.11180000  0.76700000  0.23500000  1.0 0.2906050601
H  H4  1  0.76500000  0.88820000  0.23300000  1.0 0.2906050601
H  H5  1  0.88820000  0.23300000  0.76500000  1.0 0.2906050601
H  H6  1  0.23300000  0.76500000  0.88820000  1.0 0.2906050601
H  H7  1  0.52260000  0.23060000  0.21000000  1.0 0.0714148528
H  H8  1  0.23060000  0.21000000  0.52260000  1.0 0.0714148528
H  H9  1  0.21000000  0.52260000  0.23060000  1.0 0.0714148528
H  H10  1  0.76940000  0.79000000  0.47740000  1.0 0.0714148528
H  H11  1  0.79000000  0.47740000  0.76940000  1.0 0.0714148528
H  H12  1  0.47740000  0.76940000  0.79000000  1.0 0.0714148528
H  H13  1  0.64810000  0.37900000  0.35520000  1.0 0.0808165644
H  H14  1  0.37900000  0.35520000  0.64810000  1.0 0.0808165644
H  H15  1  0.35520000  0.64810000  0.37900000  1.0 0.0808165644
H  H16  1  0.62100000  0.64480000  0.35190000  1.0 0.0808165644
H  H17  1  0.64480000  0.35190000  0.62100000  1.0 0.0808165644
H  H18  1  0.35190000  0.62100000  0.64480000  1.0 0.0808165644
H  H19  1  0.55460000  0.35390000  0.23080000  1.0 0.0808165644
H  H20  1  0.35390000  0.23080000  0.55460000  1.0 0.0808165644
H  H21  1  0.23080000  0.55460000  0.35390000  1.0 0.0808165644
H  H22  1  0.64610000  0.76920000  0.44540000  1.0 0.0808165644
H  H23  1  0.76920000  0.44540000  0.64610000  1.0 0.0808165644
H  H24  1  0.44540000  0.64610000  0.76920000  1.0 0.0808165644
H  H25  1  0.96570000  0.43600000  0.20740000  1.0 0.0714148528
H  H26  1  0.43600000  0.20740000  0.96570000  1.0 0.0714148528
H  H27  1  0.20740000  0.96570000  0.43600000  1.0 0.0714148528
H  H28  1  0.56400000  0.79260000  0.03430000  1.0 0.0714148528
H  H29  1  0.79260000  0.03430000  0.56400000  1.0 0.0714148528
H  H30  1  0.03430000  0.56400000  0.79260000  1.0 0.0714148528
H  H31  1  0.95610000  0.54180000  0.23180000  1.0 0.0808165644
H  H32  1  0.54180000  0.23180000  0.95610000  1.0 0.0808165644
H  H33  1  0.23180000  0.95610000  0.54180000  1.0 0.0808165644
H  H34  1  0.45820000  0.76820000  0.04390000  1.0 0.0808165644
H  H35  1  0.76820000  0.04390000  0.45820000  1.0 0.0808165644
H  H36  1  0.04390000  0.45820000  0.76820000  1.0 0.0808165644
H  H37  1  0.04460000  0.56270000  0.35460000  1.0 0.0883119394
H  H38  1  0.56270000  0.35460000  0.04460000  1.0 0.0883119394
H  H39  1  0.35460000  0.04460000  0.56270000  1.0 0.0883119394
H  H40  1  0.43730000  0.64540000  0.95540000  1.0 0.0883119394
H  H41  1  0.64540000  0.95540000  0.43730000  1.0 0.0883119394
H  H42  1  0.95540000  0.43730000  0.64540000  1.0 0.0883119394
H  H43  1  0.97370000  0.73130000  0.68470000  1.0 0.0714148528
H  H44  1  0.73130000  0.68470000  0.97370000  1.0 0.0714148528
H  H45  1  0.68470000  0.97370000  0.73130000  1.0 0.0714148528
H  H46  1  0.26870000  0.31530000  0.02630000  1.0 0.0714148528
H  H47  1  0.31530000  0.02630000  0.26870000  1.0 0.0714148528
H  H48  1  0.02630000  0.26870000  0.31530000  1.0 0.0714148528
H  H49  1  0.84040000  0.57670000  0.55380000  1.0 0.0883119394
H  H50  1  0.57670000  0.55380000  0.84040000  1.0 0.0883119394
H  H51  1  0.55380000  0.84040000  0.57670000  1.0 0.0883119394
H  H52  1  0.42330000  0.44620000  0.15960000  1.0 0.0883119394
H  H53  1  0.44620000  0.15960000  0.42330000  1.0 0.0883119394
H  H54  1  0.15960000  0.42330000  0.44620000  1.0 0.0883119394
H  H55  1  0.98200000  0.63030000  0.61060000  1.0 0.0883119394
H  H56  1  0.63030000  0.61060000  0.98200000  1.0 0.0883119394
H  H57  1  0.61060000  0.98200000  0.63030000  1.0 0.0883119394
H  H58  1  0.36970000  0.38940000  0.01800000  1.0 0.0883119394
H  H59  1  0.38940000  0.01800000  0.36970000  1.0 0.0883119394
H  H60  1  0.01800000  0.36970000  0.38940000  1.0 0.0883119394
H  H61  1  0.86500000  0.72050000  0.24020000  1.0 0.0714148528
H  H62  1  0.72050000  0.24020000  0.86500000  1.0 0.0714148528
H  H63  1  0.24020000  0.86500000  0.72050000  1.0 0.0714148528
H  H64  1  0.27950000  0.75980000  0.13500000  1.0 0.0714148528
H  H65  1  0.75980000  0.13500000  0.27950000  1.0 0.0714148528
H  H66  1  0.13500000  0.27950000  0.75980000  1.0 0.0714148528
H  H67  1  0.87220000  0.61190000  0.20300000  1.0 0.0808165644
H  H68  1  0.61190000  0.20300000  0.87220000  1.0 0.0808165644
H  H69  1  0.20300000  0.87220000  0.61190000  1.0 0.0808165644
H  H70  1  0.38810000  0.79700000  0.12780000  1.0 0.0808165644
H  H71  1  0.79700000  0.12780000  0.38810000  1.0 0.0808165644
H  H72  1  0.12780000  0.38810000  0.79700000  1.0 0.0808165644
H  H73  1  0.73720000  0.57120000  0.15580000  1.0 0.0883119394
H  H74  1  0.57120000  0.15580000  0.73720000  1.0 0.0883119394
H  H75  1  0.15580000  0.73720000  0.57120000  1.0 0.0883119394
H  H76  1  0.42880000  0.84420000  0.26280000  1.0 0.0883119394
H  H77  1  0.84420000  0.26280000  0.42880000  1.0 0.0883119394
H  H78  1  0.26280000  0.42880000  0.84420000  1.0 0.0883119394
H  H79  1  0.00900000  0.86950000  0.63750000  1.0 0.2739030042
H  H80  1  0.86950000  0.63750000  0.00900000  1.0 0.2739030042
H  H81  1  0.63750000  0.00900000  0.86950000  1.0 0.2739030042
H  H82  1  0.13050000  0.36250000  0.99100000  1.0 0.2739030042
H  H83  1  0.36250000  0.99100000  0.13050000  1.0 0.2739030042
H  H84  1  0.99100000  0.13050000  0.36250000  1.0 0.2739030042
H  H85  1  0.62760000  0.41180000  0.32070000  1.0 0.0808165644
H  H86  1  0.41180000  0.32070000  0.62760000  1.0 0.0808165644
H  H87  1  0.32070000  0.62760000  0.41180000  1.0 0.0808165644
H  H88  1  0.58820000  0.67930000  0.37240000  1.0 0.0808165644
H  H89  1  0.67930000  0.37240000  0.58820000  1.0 0.0808165644
H  H90  1  0.37240000  0.58820000  0.67930000  1.0 0.0808165644
H  H91  1  0.50220000  0.26330000  0.17550000  1.0 0.0808165644
H  H92  1  0.26330000  0.17550000  0.50220000  1.0 0.0808165644
H  H93  1  0.17550000  0.50220000  0.26330000  1.0 0.0808165644
H  H94  1  0.73670000  0.82450000  0.49780000  1.0 0.0808165644
H  H95  1  0.82450000  0.49780000  0.73670000  1.0 0.0808165644
H  H96  1  0.49780000  0.73670000  0.82450000  1.0 0.0808165644
H  H97  1  0.59570000  0.28840000  0.29990000  1.0 0.0883119394
H  H98  1  0.28840000  0.29990000  0.59570000  1.0 0.0883119394
H  H99  1  0.29990000  0.59570000  0.28840000  1.0 0.0883119394
H  H100  1  0.71160000  0.70010000  0.40430000  1.0 0.0883119394
H  H101  1  0.70010000  0.40430000  0.71160000  1.0 0.0883119394
H  H102  1  0.40430000  0.71160000  0.70010000  1.0 0.0883119394
H  H103  1  0.01200000  0.59090000  0.32180000  1.0 0.0808165644
H  H104  1  0.59090000  0.32180000  0.01200000  1.0 0.0808165644
H  H105  1  0.32180000  0.01200000  0.59090000  1.0 0.0808165644
H  H106  1  0.40910000  0.67820000  0.98800000  1.0 0.0808165644
H  H107  1  0.67820000  0.98800000  0.40910000  1.0 0.0808165644
H  H108  1  0.98800000  0.40910000  0.67820000  1.0 0.0808165644
H  H109  1  0.02160000  0.48530000  0.29750000  1.0 0.0883119394
H  H110  1  0.48530000  0.29750000  0.02160000  1.0 0.0883119394
H  H111  1  0.29750000  0.02160000  0.48530000  1.0 0.0883119394
H  H112  1  0.51470000  0.70250000  0.97840000  1.0 0.0883119394
H  H113  1  0.70250000  0.97840000  0.51470000  1.0 0.0883119394
H  H114  1  0.97840000  0.51470000  0.70250000  1.0 0.0883119394
H  H115  1  0.93300000  0.46430000  0.17460000  1.0 0.0808165644
H  H116  1  0.46430000  0.17460000  0.93300000  1.0 0.0808165644
H  H117  1  0.17460000  0.93300000  0.46430000  1.0 0.0808165644
H  H118  1  0.53570000  0.82540000  0.06700000  1.0 0.0808165644
H  H119  1  0.82540000  0.06700000  0.53570000  1.0 0.0808165644
H  H120  1  0.06700000  0.53570000  0.82540000  1.0 0.0808165644
H  H121  1  0.89040000  0.56100000  0.54800000  1.0 0.0883119394
H  H122  1  0.56100000  0.54800000  0.89040000  1.0 0.0883119394
H  H123  1  0.54800000  0.89040000  0.56100000  1.0 0.0883119394
H  H124  1  0.43900000  0.45200000  0.10960000  1.0 0.0883119394
H  H125  1  0.45200000  0.10960000  0.43900000  1.0 0.0883119394
H  H126  1  0.10960000  0.43900000  0.45200000  1.0 0.0883119394
H  H127  1  0.02370000  0.71540000  0.67880000  1.0 0.0883119394
H  H128  1  0.71540000  0.67880000  0.02370000  1.0 0.0883119394
H  H129  1  0.67880000  0.02370000  0.71540000  1.0 0.0883119394
H  H130  1  0.28460000  0.32120000  0.97630000  1.0 0.0883119394
H  H131  1  0.32120000  0.97630000  0.28460000  1.0 0.0883119394
H  H132  1  0.97630000  0.28460000  0.32120000  1.0 0.0883119394
H  H133  1  0.88220000  0.66190000  0.62210000  1.0 0.0808165644
H  H134  1  0.66190000  0.62210000  0.88220000  1.0 0.0808165644
H  H135  1  0.62210000  0.88220000  0.66190000  1.0 0.0808165644
H  H136  1  0.33810000  0.37790000  0.11780000  1.0 0.0808165644
H  H137  1  0.37790000  0.11780000  0.33810000  1.0 0.0808165644
H  H138  1  0.11780000  0.33810000  0.37790000  1.0 0.0808165644
H  H139  1  0.78460000  0.54850000  0.15900000  1.0 0.0808165644
H  H140  1  0.54850000  0.15900000  0.78460000  1.0 0.0808165644
H  H141  1  0.15900000  0.78460000  0.54850000  1.0 0.0808165644
H  H142  1  0.45150000  0.84100000  0.21540000  1.0 0.0808165644
H  H143  1  0.84100000  0.21540000  0.45150000  1.0 0.0808165644
H  H144  1  0.21540000  0.45150000  0.84100000  1.0 0.0808165644
H  H145  1  0.77740000  0.65720000  0.19640000  1.0 0.0883119394
H  H146  1  0.65720000  0.19640000  0.77740000  1.0 0.0883119394
H  H147  1  0.19640000  0.77740000  0.65720000  1.0 0.0883119394
H  H148  1  0.34280000  0.80360000  0.22260000  1.0 0.0883119394
H  H149  1  0.80360000  0.22260000  0.34280000  1.0 0.0883119394
H  H150  1  0.22260000  0.34280000  0.80360000  1.0 0.0883119394
H  H151  1  0.91250000  0.69790000  0.24350000  1.0 0.0883119394
H  H152  1  0.69790000  0.24350000  0.91250000  1.0 0.0808165644
H  H153  1  0.24350000  0.91250000  0.69790000  1.0 0.0883119394
H  H154  1  0.30210000  0.75650000  0.08750000  1.0 0.0808165644
H  H155  1  0.75650000  0.08750000  0.30210000  1.0 0.0808165644
H  H156  1  0.08750000  0.30210000  0.75650000  1.0 0.0808165644
C  C1  1  0.72454000  0.98890000  0.07336000  1.0 0.1401276681
C  C2  1  0.98890000  0.07336000  0.72454000  1.0 0.1401276681
C  C3  1  0.07336000  0.72454000  0.98890000  1.0 0.1401276681
C  C4  1  0.01110000  0.92664000  0.27546000  1.0 0.1401276681
C  C5  1  0.92664000  0.27546000  0.01110000  1.0 0.1401276681
C  C6  1  0.27546000  0.01110000  0.92664000  1.0 0.1401276681
C  C7  1  0.68110000  0.33640000  0.23370000  1.0 0.1658264496
C  C8  1  0.33640000  0.23370000  0.68110000  1.0 0.1658264496
C  C9  1  0.23370000  0.68110000  0.33640000  1.0 0.1658264496
C  C10  1  0.66360000  0.76630000  0.31890000  1.0 0.1628307917
C  C11  1  0.76630000  0.31890000  0.66360000  1.0 0.1658264496
C  C12  1  0.31890000  0.66360000  0.76630000  1.0 0.1658264496
C  C13  1  0.79789000  0.45820000  0.29031000  1.0 -0.0948646597
C  C14  1  0.45820000  0.29031000  0.79789000  1.0 -0.0948646597
C  C15  1  0.29031000  0.79789000  0.45820000  1.0 -0.0955526835
C  C16  1  0.54180000  0.70969000  0.20211000  1.0 -0.0948646597
C  C17  1  0.70969000  0.20211000  0.54180000  1.0 -0.0948646597
C  C18  1  0.20211000  0.54180000  0.70969000  1.0 -0.0955526835
C  C19  1  0.84420000  0.41770000  0.23770000  1.0 0.121324618
C  C20  1  0.41770000  0.23770000  0.84420000  1.0 0.121324618
C  C21  1  0.23770000  0.84420000  0.41770000  1.0 0.121324618
C  C22  1  0.58230000  0.76230000  0.15580000  1.0 0.121324618
C  C23  1  0.76230000  0.15580000  0.58230000  1.0 0.121324618
C  C24  1  0.15580000  0.58230000  0.76230000  1.0 0.121324618
C  C25  1  0.59390000  0.32380000  0.25970000  1.0 -0.4088654599
C  C26  1  0.32380000  0.25970000  0.59390000  1.0 -0.4088654599
C  C27  1  0.25970000  0.59390000  0.32380000  1.0 -0.4088654599
C  C28  1  0.67620000  0.74030000  0.40610000  1.0 -0.4088654599
C  C29  1  0.74030000  0.40610000  0.67620000  1.0 -0.4088654599
C  C30  1  0.40610000  0.67620000  0.74030000  1.0 -0.4088654599
C  C31  1  0.96300000  0.49640000  0.25980000  1.0 -0.4381688914
C  C32  1  0.49640000  0.25980000  0.96300000  1.0 -0.4381688914
C  C33  1  0.25980000  0.96300000  0.49640000  1.0 -0.4381688914
C  C34  1  0.50360000  0.74020000  0.03700000  1.0 -0.4381688914
C  C35  1  0.74020000  0.03700000  0.50360000  1.0 -0.4381688914
C  C36  1  0.03700000  0.50360000  0.74020000  1.0 -0.4381688914
C  C37  1  0.91620000  0.67980000  0.51200000  1.0 0.1321783134
C  C38  1  0.67980000  0.51200000  0.91620000  1.0 0.1321783134
C  C39  1  0.51200000  0.91620000  0.67980000  1.0 0.1321783134
C  C40  1  0.32020000  0.48800000  0.08380000  1.0 0.1321783134
C  C41  1  0.48800000  0.08380000  0.32020000  1.0 0.1321783134
C  C42  1  0.08380000  0.32020000  0.48800000  1.0 0.1321783134
C  C43  1  0.85771000  0.59747000  0.38012000  1.0 -0.1176456567
C  C44  1  0.59747000  0.38012000  0.85771000  1.0 -0.1176456567
C  C45  1  0.38012000  0.85771000  0.59747000  1.0 -0.1176456567
C  C46  1  0.40253000  0.61988000  0.14229000  1.0 -0.1176456567
C  C47  1  0.61988000  0.14229000  0.40253000  1.0 -0.1176456567
C  C48  1  0.14229000  0.40253000  0.61988000  1.0 -0.1176456567
C  C49  1  0.88050000  0.68070000  0.35510000  1.0 0.1401276681
C  C50  1  0.68070000  0.35510000  0.88050000  1.0 0.1401276681
C  C51  1  0.35510000  0.88050000  0.68070000  1.0 0.1401276681
C  C52  1  0.31930000  0.64490000  0.11950000  1.0 0.1401276681
C  C53  1  0.64490000  0.11950000  0.31930000  1.0 0.1401276681
C  C54  1  0.11950000  0.31930000  0.64490000  1.0 0.1401276681
C  C55  1  0.92920000  0.65210000  0.59780000  1.0 -0.4041387172
C  C56  1  0.65210000  0.59780000  0.92920000  1.0 -0.4041387172
C  C57  1  0.59780000  0.92920000  0.65210000  1.0 -0.4041387172
C  C58  1  0.34790000  0.40220000  0.07080000  1.0 -0.4041387172
C  C59  1  0.40220000  0.07080000  0.34790000  1.0 -0.4041387172
C  C60  1  0.07080000  0.34790000  0.40220000  1.0 -0.4041387172
C  C61  1  0.83480000  0.64270000  0.22730000  1.0 -0.4249001127
C  C62  1  0.64270000  0.22730000  0.83480000  1.0 -0.4249001127
C  C63  1  0.22730000  0.83480000  0.64270000  1.0 -0.4249001127
C  C64  1  0.35730000  0.77270000  0.16520000  1.0 -0.4249001127
C  C65  1  0.77270000  0.16520000  0.35730000  1.0 -0.4249001127
C  C66  1  0.16520000  0.35730000  0.77270000  1.0 -0.4249001127
S  S1  1  0.81580000  0.95508000  0.09827000  1.0 -0.3075869512
S  S2  1  0.95508000  0.09827000  0.81580000  1.0 -0.3075869512
S  S3  1  0.09827000  0.81580000  0.95508000  1.0 -0.3075869512
S  S4  1  0.04492000  0.90173000  0.18420000  1.0 -0.3075869512
S  S5  1  0.90173000  0.18420000  0.04492000  1.0 -0.3075869512
S  S6  1  0.18420000  0.04492000  0.90173000  1.0 -0.3075869512
N  N1  1  0.65623000  0.00900000  0.05257000  1.0 -0.4484220825
N  N2  1  0.00900000  0.05257000  0.65623000  1.0 -0.4484220825
N  N3  1  0.05257000  0.65623000  0.00900000  1.0 -0.4484220825
N  N4  1  0.99100000  0.94743000  0.34377000  1.0 -0.4484220825
N  N5  1  0.94743000  0.34377000  0.99100000  1.0 -0.4484220825
N  N6  1  0.34377000  0.99100000  0.94743000  1.0 -0.4484220825
N  N7  1  0.65827000  0.22989000  0.15214000  1.0 -0.1810843579
N  N8  1  0.22989000  0.15214000  0.65827000  1.0 -0.1810843579
N  N9  1  0.15214000  0.65827000  0.22989000  1.0 -0.1810843579
N  N10  1  0.77011000  0.84786000  0.34173000  1.0 -0.1810843579
N  N11  1  0.84786000  0.34173000  0.77011000  1.0 -0.1810843579
N  N12  1  0.34173000  0.77011000  0.84786000  1.0 -0.1810843579
N  N13  1  0.75879000  0.28298000  0.15663000  1.0 -0.2860758336
N  N14  1  0.28298000  0.15663000  0.75879000  1.0 -0.2860758336
N  N15  1  0.15663000  0.75879000  0.28298000  1.0 -0.2860758336
N  N16  1  0.71702000  0.84337000  0.24121000  1.0 -0.2860758336
N  N17  1  0.84337000  0.24121000  0.71702000  1.0 -0.2860758336
N  N18  1  0.24121000  0.71702000  0.84337000  1.0 -0.2860758336
N  N19  1  0.94897000  0.80667000  0.46426000  1.0 -0.192641013
N  N20  1  0.80667000  0.46426000  0.94897000  1.0 -0.192641013
N  N21  1  0.46426000  0.94897000  0.80667000  1.0 -0.192641013
N  N22  1  0.19333000  0.53574000  0.05103000  1.0 -0.192641013
N  N23  1  0.53574000  0.05103000  0.19333000  1.0 -0.192641013
N  N24  1  0.05103000  0.19333000  0.53574000  1.0 -0.192641013
N  N25  1  0.96784000  0.80138000  0.55718000  1.0 -0.2805888138
N  N26  1  0.80138000  0.55718000  0.96784000  1.0 -0.2805888138
N  N27  1  0.55718000  0.96784000  0.80138000  1.0 -0.2805888138
N  N28  1  0.19862000  0.44282000  0.03216000  1.0 -0.2805888138
N  N29  1  0.44282000  0.03216000  0.19862000  1.0 -0.2805888138
N  N30  1  0.03216000  0.19862000  0.44282000  1.0 -0.2805888138
