# DDEC6 charges by PACMAN v1.1 (https://github.com/mtap-research/PACMAN-charge/)
data_HAJRES_ion_pacman
_symmetry_space_group_name_H-M   'P 1'
_cell_length_a   27.15750000
_cell_length_b   27.14660000
_cell_length_c   21.50920000
_cell_angle_alpha   66.69280000
_cell_angle_beta   66.63960000
_cell_angle_gamma   46.66760000
_symmetry_Int_Tables_number   1
_chemical_formula_structural   CuP2H95C100(NF3)4
_chemical_formula_sum   'Cu4 P8 H380 C400 N16 F48'
_cell_volume   10406.02410232
_cell_formula_units_Z   4
loop_
 _symmetry_equiv_pos_site_id
 _symmetry_equiv_pos_as_xyz
  1  'x, y, z'
loop_
 _atom_site_type_symbol
 _atom_site_label
 _atom_site_symmetry_multiplicity
 _atom_site_fract_x
 _atom_site_fract_y
 _atom_site_fract_z
 _atom_site_occupancy
 _atom_site_charge
Cu  Cu1  1  0.63472000  0.86504000  0.36788000  1.0 0.2783515672
Cu  Cu2  1  0.88212000  0.11764000  0.61528000  1.0 0.274881494
Cu  Cu3  1  0.13236000  0.36788000  0.86504000  1.0 0.2783515672
Cu  Cu4  1  0.38496000  0.61528000  0.11764000  1.0 0.2783515672
P  P1  1  0.38820000  0.50740000  0.76600000  1.0 1.3391437649
P  P2  1  0.33840000  0.76600000  0.50740000  1.0 1.3391437649
P  P3  1  0.74260000  0.86180000  0.91160000  1.0 1.3391437649
P  P4  1  0.48400000  0.91160000  0.86180000  1.0 1.3391437649
P  P5  1  0.83980000  0.27220000  0.12280000  1.0 1.371159327
P  P6  1  0.76520000  0.12280000  0.27220000  1.0 1.371159327
P  P7  1  0.97780000  0.41020000  0.48480000  1.0 1.371159327
P  P8  1  0.12720000  0.48480000  0.41020000  1.0 1.371159327
H  H1  1  0.77260000  0.44620000  0.47580000  1.0 0.1203868255
H  H2  1  0.77420000  0.94460000  0.47740000  1.0 0.1203868255
H  H3  1  0.81090000  0.42890000  0.64910000  1.0 0.1310396291
H  H4  1  0.60090000  0.13890000  0.43910000  1.0 0.1310396291
H  H5  1  0.75420000  0.30320000  0.88300000  1.0 0.1398397182
H  H6  1  0.36700000  0.19040000  0.49580000  1.0 0.1398397182
H  H7  1  0.95580000  0.21940000  0.81480000  1.0 0.1113489258
H  H8  1  0.43520000  0.24000000  0.29420000  1.0 0.1113489258
H  H9  1  0.99530000  0.24830000  0.70690000  1.0 0.1398397182
H  H10  1  0.54310000  0.20050000  0.25470000  1.0 0.1398397182
H  H11  1  0.97260000  0.24880000  0.64820000  1.0 0.1398397182
H  H12  1  0.60180000  0.11960000  0.27740000  1.0 0.1398397182
H  H13  1  0.94360000  0.31960000  0.66080000  1.0 0.1398397182
H  H14  1  0.58920000  0.17400000  0.30640000  1.0 0.1398397182
H  H15  1  0.67500000  0.37420000  0.80160000  1.0 0.1398397182
H  H16  1  0.44840000  0.10080000  0.57500000  1.0 0.1398397182
H  H17  1  0.69390000  0.41670000  0.73550000  1.0 0.1484529707
H  H18  1  0.51450000  0.09610000  0.55610000  1.0 0.1484529707
H  H19  1  0.70830000  0.35110000  0.72850000  1.0 0.1398397182
H  H20  1  0.52150000  0.03790000  0.54170000  1.0 0.1398397182
H  H21  1  0.92030000  0.19010000  0.92990000  1.0 0.1398397182
H  H22  1  0.32010000  0.29030000  0.32970000  1.0 0.1398397182
H  H23  1  0.84400000  0.25180000  0.96100000  1.0 0.1484529707
H  H24  1  0.28900000  0.30680000  0.40600000  1.0 0.1484529707
H  H25  1  0.85910000  0.18650000  0.95190000  1.0 0.1398397182
H  H26  1  0.29810000  0.24750000  0.39090000  1.0 0.1398397182
H  H27  1  0.87510000  0.29370000  0.33650000  1.0 0.1310396291
H  H28  1  0.91350000  0.75530000  0.37490000  1.0 0.1310396291
H  H29  1  0.72930000  0.28410000  0.46810000  1.0 0.1203868255
H  H30  1  0.78190000  0.73150000  0.52070000  1.0 0.1203868255
H  H31  1  0.67380000  0.32440000  0.57000000  1.0 0.1398397182
H  H32  1  0.68000000  0.81820000  0.57620000  1.0 0.1398397182
H  H33  1  0.72600000  0.30240000  0.61120000  1.0 0.1310396291
H  H34  1  0.63880000  0.88960000  0.52400000  1.0 0.1310396291
H  H35  1  0.67460000  0.38100000  0.57520000  1.0 0.1398397182
H  H36  1  0.67480000  0.88080000  0.57540000  1.0 0.1398397182
H  H37  1  0.85220000  0.23380000  0.31520000  1.0 0.1398397182
H  H38  1  0.93480000  0.65120000  0.39780000  1.0 0.1398397182
H  H39  1  0.82740000  0.19560000  0.38060000  1.0 0.1484529707
H  H40  1  0.86940000  0.65360000  0.42260000  1.0 0.1484529707
H  H41  1  0.77210000  0.26870000  0.33910000  1.0 0.1398397182
H  H42  1  0.91090000  0.62990000  0.47790000  1.0 0.1398397182
H  H43  1  0.89630000  0.34570000  0.44730000  1.0 0.1310396291
H  H44  1  0.80270000  0.93930000  0.35370000  1.0 0.1310396291
H  H45  1  0.94850000  0.28890000  0.39910000  1.0 0.1398397182
H  H46  1  0.85090000  0.88650000  0.30150000  1.0 0.1398397182
H  H47  1  0.89130000  0.36730000  0.36790000  1.0 0.1484529707
H  H48  1  0.88210000  0.87650000  0.35870000  1.0 0.1484529707
H  H49  1  0.76860000  0.52980000  0.43500000  1.0 0.1203868255
H  H50  1  0.81500000  0.98340000  0.48140000  1.0 0.1203868255
H  H51  1  0.58260000  0.77880000  0.69820000  1.0 0.1310396291
H  H52  1  0.55180000  0.30960000  0.66740000  1.0 0.1310396291
H  H53  1  0.77880000  0.65960000  0.70740000  1.0 0.1203868255
H  H54  1  0.54260000  0.39580000  0.47120000  1.0 0.1203868255
H  H55  1  0.86700000  0.56720000  0.64780000  1.0 0.1310396291
H  H56  1  0.60220000  0.33200000  0.38300000  1.0 0.1398397182
H  H57  1  0.84440000  0.53380000  0.63020000  1.0 0.1484529707
H  H58  1  0.61980000  0.25840000  0.40560000  1.0 0.1484529707
H  H59  1  0.85680000  0.58500000  0.57140000  1.0 0.1398397182
H  H60  1  0.67860000  0.26320000  0.39320000  1.0 0.1398397182
H  H61  1  0.54430000  0.76870000  0.62930000  1.0 0.1203868255
H  H62  1  0.62070000  0.19230000  0.70570000  1.0 0.1203868255
H  H63  1  0.59410000  0.74870000  0.55650000  1.0 0.1398397182
H  H64  1  0.69350000  0.14930000  0.65590000  1.0 0.1398397182
H  H65  1  0.59010000  0.69230000  0.61630000  1.0 0.1398397182
H  H66  1  0.63370000  0.14870000  0.65990000  1.0 0.1398397182
H  H67  1  0.69790000  0.74270000  0.77930000  1.0 0.1398397182
H  H68  1  0.47070000  0.46990000  0.55210000  1.0 0.1398397182
H  H69  1  0.63490000  0.81210000  0.74290000  1.0 0.1484529707
H  H70  1  0.50710000  0.43990000  0.61510000  1.0 0.1484529707
H  H71  1  0.62370000  0.76130000  0.80450000  1.0 0.1398397182
H  H72  1  0.44550000  0.43950000  0.62630000  1.0 0.1398397182
H  H73  1  0.80820000  0.66700000  0.21620000  1.0 0.1203868255
H  H74  1  0.03380000  0.94140000  0.44180000  1.0 0.1203868255
H  H75  1  0.60210000  0.77350000  0.28230000  1.0 0.1310396291
H  H76  1  0.96770000  0.90790000  0.64790000  1.0 0.1310396291
H  H77  1  0.85580000  0.56520000  0.38160000  1.0 0.1310396291
H  H78  1  0.86840000  0.05260000  0.39420000  1.0 0.1310396291
H  H79  1  0.88170000  0.54930000  0.30590000  1.0 0.1398397182
H  H80  1  0.94410000  0.98690000  0.36830000  1.0 0.1398397182
H  H81  1  0.87820000  0.60640000  0.31780000  1.0 0.1398397182
H  H82  1  0.93220000  0.05240000  0.37180000  1.0 0.1398397182
H  H83  1  0.74220000  0.74380000  0.13300000  1.0 0.1310396291
H  H84  1  0.11700000  0.86900000  0.50780000  1.0 0.1310396291
H  H85  1  0.67510000  0.75150000  0.14590000  1.0 0.1398397182
H  H86  1  0.10410000  0.82250000  0.57490000  1.0 0.1398397182
H  H87  1  0.66740000  0.81140000  0.15740000  1.0 0.1398397182
H  H88  1  0.09260000  0.88620000  0.58260000  1.0 0.1398397182
H  H89  1  0.61530000  0.69270000  0.45950000  1.0 0.1310396291
H  H90  1  0.79050000  0.01750000  0.63470000  1.0 0.1310396291
H  H91  1  0.56950000  0.77070000  0.41910000  1.0 0.1398397182
H  H92  1  0.83090000  0.00930000  0.68050000  1.0 0.1398397182
H  H93  1  0.57170000  0.71430000  0.40770000  1.0 0.1398397182
H  H94  1  0.84230000  0.94370000  0.67830000  1.0 0.1398397182
H  H95  1  0.69870000  0.00150000  0.03410000  1.0 0.1203868255
H  H96  1  0.21590000  0.98430000  0.55130000  1.0 0.1203868255
H  H97  1  0.89010000  0.81630000  0.03330000  1.0 0.1113489258
H  H98  1  0.21670000  0.98970000  0.35990000  1.0 0.1113489258
H  H99  1  0.96650000  0.58830000  0.15790000  1.0 0.1203868255
H  H100  1  0.09210000  0.96270000  0.28350000  1.0 0.1203868255
H  H101  1  0.96740000  0.67160000  0.27460000  1.0 0.1398397182
H  H102  1  0.97540000  0.16360000  0.28260000  1.0 0.1398397182
H  H103  1  0.84560000  0.84420000  0.20060000  1.0 0.1310396291
H  H104  1  0.04940000  0.14040000  0.40440000  1.0 0.1310396291
H  H105  1  0.86270000  0.80190000  0.27610000  1.0 0.1310396291
H  H106  1  0.97390000  0.19070000  0.38730000  1.0 0.1310396291
H  H107  1  0.92130000  0.79970000  0.21430000  1.0 0.1398397182
H  H108  1  0.03570000  0.18530000  0.32870000  1.0 0.1398397182
H  H109  1  0.90300000  0.65720000  0.06800000  1.0 0.1310396291
H  H110  1  0.18200000  0.87820000  0.34700000  1.0 0.1310396291
H  H111  1  0.82820000  0.72500000  0.09120000  1.0 0.1310396291
H  H112  1  0.15880000  0.89440000  0.42180000  1.0 0.1310396291
H  H113  1  0.88530000  0.73090000  0.03650000  1.0 0.1398397182
H  H114  1  0.21350000  0.90270000  0.36470000  1.0 0.1398397182
H  H115  1  0.03660000  0.51720000  0.21760000  1.0 0.1310396291
H  H116  1  0.03240000  0.02140000  0.21340000  1.0 0.1310396291
H  H117  1  0.07680000  0.53620000  0.22780000  1.0 0.1484529707
H  H118  1  0.02220000  0.09080000  0.17320000  1.0 0.1484529707
H  H119  1  0.02420000  0.52940000  0.29120000  1.0 0.1484529707
H  H120  1  0.95880000  0.09480000  0.22580000  1.0 0.1484529707
H  H121  1  0.66310000  0.02010000  0.26610000  1.0 0.1310396291
H  H122  1  0.98390000  0.19930000  0.58690000  1.0 0.1310396291
H  H123  1  0.71490000  0.94610000  0.24490000  1.0 0.1310396291
H  H124  1  0.00510000  0.15590000  0.53510000  1.0 0.1398397182
H  H125  1  0.70570000  0.01090000  0.18890000  1.0 0.1398397182
H  H126  1  0.06110000  0.15550000  0.54430000  1.0 0.1398397182
H  H127  1  0.54720000  0.07980000  0.27440000  1.0 0.1203868255
H  H128  1  0.97560000  0.15140000  0.70280000  1.0 0.1203868255
H  H129  1  0.47700000  0.05420000  0.17480000  1.0 0.1203868255
H  H130  1  0.07520000  0.95600000  0.77300000  1.0 0.1203868255
H  H131  1  0.54560000  0.00020000  0.07200000  1.0 0.1398397182
H  H132  1  0.17800000  0.86780000  0.70440000  1.0 0.1398397182
H  H133  1  0.61750000  0.98610000  0.03830000  1.0 0.1398397182
H  H134  1  0.21170000  0.89190000  0.63250000  1.0 0.1398397182
H  H135  1  0.61490000  0.92850000  0.09650000  1.0 0.1398397182
H  H136  1  0.15350000  0.88990000  0.63510000  1.0 0.1398397182
H  H137  1  0.42140000  0.16320000  0.26840000  1.0 0.1310396291
H  H138  1  0.98160000  0.10300000  0.82860000  1.0 0.1310396291
H  H139  1  0.40490000  0.17530000  0.19770000  1.0 0.1398397182
H  H140  1  0.05230000  0.02790000  0.84510000  1.0 0.1398397182
H  H141  1  0.40050000  0.12250000  0.26330000  1.0 0.1398397182
H  H142  1  0.98670000  0.03630000  0.84950000  1.0 0.1398397182
H  H143  1  0.90510000  0.85090000  0.92790000  1.0 0.1310396291
H  H144  1  0.32210000  0.93390000  0.34490000  1.0 0.1310396291
H  H145  1  0.74080000  0.04220000  0.95560000  1.0 0.1203868255
H  H146  1  0.29440000  0.98860000  0.50920000  1.0 0.1203868255
H  H147  1  0.71770000  0.25670000  0.80390000  1.0 0.1203868255
H  H148  1  0.44610000  0.02830000  0.53230000  1.0 0.1203868255
H  H149  1  0.59790000  0.23110000  0.79110000  1.0 0.1398397182
H  H150  1  0.45890000  0.87010000  0.65210000  1.0 0.1398397182
H  H151  1  0.70500000  0.04940000  0.84900000  1.0 0.1398397182
H  H152  1  0.40100000  0.85340000  0.54500000  1.0 0.1398397182
H  H153  1  0.62490000  0.11330000  0.86550000  1.0 0.1398397182
H  H154  1  0.38450000  0.85370000  0.62510000  1.0 0.1398397182
H  H155  1  0.66200000  0.10040000  0.78800000  1.0 0.1398397182
H  H156  1  0.46200000  0.80040000  0.58800000  1.0 0.1398397182
H  H157  1  0.83110000  0.17030000  0.81410000  1.0 0.1310396291
H  H158  1  0.43590000  0.06550000  0.41890000  1.0 0.1310396291
H  H159  1  0.83340000  0.11300000  0.87840000  1.0 0.1398397182
H  H160  1  0.37160000  0.07480000  0.41660000  1.0 0.1398397182
H  H161  1  0.87180000  0.09460000  0.80280000  1.0 0.1310396291
H  H162  1  0.44720000  0.01920000  0.37820000  1.0 0.1310396291
H  H163  1  0.62430000  0.35410000  0.73790000  1.0 0.1398397182
H  H164  1  0.51210000  0.96630000  0.62570000  1.0 0.1398397182
H  H165  1  0.60010000  0.33370000  0.70230000  1.0 0.1398397182
H  H166  1  0.54770000  0.88610000  0.64990000  1.0 0.1398397182
H  H167  1  0.56040000  0.35400000  0.77700000  1.0 0.1398397182
H  H168  1  0.47300000  0.94140000  0.68960000  1.0 0.1398397182
H  H169  1  0.07080000  0.74660000  0.72180000  1.0 0.1310396291
H  H170  1  0.52820000  0.78920000  0.17920000  1.0 0.1310396291
H  H171  1  0.13010000  0.81350000  0.79330000  1.0 0.1310396291
H  H172  1  0.45670000  0.98690000  0.11990000  1.0 0.1310396291
H  H173  1  0.95430000  0.78310000  0.76950000  1.0 0.1398397182
H  H174  1  0.48050000  0.75690000  0.29570000  1.0 0.1398397182
H  H175  1  0.91150000  0.86350000  0.73710000  1.0 0.1398397182
H  H176  1  0.51290000  0.76210000  0.33850000  1.0 0.1398397182
H  H177  1  0.90240000  0.83880000  0.81900000  1.0 0.1310396291
H  H178  1  0.43100000  0.81020000  0.34760000  1.0 0.1310396291
H  H179  1  0.99330000  0.90170000  0.89510000  1.0 0.1398397182
H  H180  1  0.35490000  0.04010000  0.25670000  1.0 0.1398397182
H  H181  1  0.05730000  0.90030000  0.85030000  1.0 0.1203868255
H  H182  1  0.39970000  0.05790000  0.19270000  1.0 0.1203868255
H  H183  1  0.98290000  0.96110000  0.82970000  1.0 0.1310396291
H  H184  1  0.42030000  0.02370000  0.26710000  1.0 0.1310396291
H  H185  1  0.21860000  0.71700000  0.72720000  1.0 0.1484529707
H  H186  1  0.52280000  0.91280000  0.03140000  1.0 0.1484529707
H  H187  1  0.19790000  0.67030000  0.74070000  1.0 0.1484529707
H  H188  1  0.50930000  0.85890000  0.05210000  1.0 0.1484529707
H  H189  1  0.18920000  0.72420000  0.67000000  1.0 0.1484529707
H  H190  1  0.58000000  0.83340000  0.06080000  1.0 0.1484529707
H  H191  1  0.30540000  0.47580000  0.44620000  1.0 0.1203868255
H  H192  1  0.80380000  0.47740000  0.94460000  1.0 0.1203868255
H  H193  1  0.11110000  0.64910000  0.42890000  1.0 0.1310396291
H  H194  1  0.82110000  0.43910000  0.13890000  1.0 0.1310396291
H  H195  1  0.05960000  0.88300000  0.30320000  1.0 0.1398397182
H  H196  1  0.94680000  0.49580000  0.19040000  1.0 0.1398397182
H  H197  1  0.01000000  0.81480000  0.21940000  1.0 0.1113489258
H  H198  1  0.03060000  0.29420000  0.24000000  1.0 0.1113489258
H  H199  1  0.04950000  0.70690000  0.24830000  1.0 0.1398397182
H  H200  1  0.00170000  0.25470000  0.20050000  1.0 0.1398397182
H  H201  1  0.13040000  0.64820000  0.24880000  1.0 0.1398397182
H  H202  1  0.00120000  0.27740000  0.11960000  1.0 0.1398397182
H  H203  1  0.07600000  0.66080000  0.31960000  1.0 0.1398397182
H  H204  1  0.93040000  0.30640000  0.17400000  1.0 0.1398397182
H  H205  1  0.14920000  0.80160000  0.37420000  1.0 0.1398397182
H  H206  1  0.87580000  0.57500000  0.10080000  1.0 0.1398397182
H  H207  1  0.15390000  0.73550000  0.41670000  1.0 0.1484529707
H  H208  1  0.83330000  0.55610000  0.09610000  1.0 0.1484529707
H  H209  1  0.21210000  0.72850000  0.35110000  1.0 0.1398397182
H  H210  1  0.89890000  0.54170000  0.03790000  1.0 0.1398397182
H  H211  1  0.95970000  0.92990000  0.19010000  1.0 0.1398397182
H  H212  1  0.05990000  0.32970000  0.29030000  1.0 0.1398397182
H  H213  1  0.94320000  0.96100000  0.25180000  1.0 0.1484529707
H  H214  1  0.99820000  0.40600000  0.30680000  1.0 0.1484529707
H  H215  1  0.00250000  0.95190000  0.18650000  1.0 0.1398397182
H  H216  1  0.06350000  0.39090000  0.24750000  1.0 0.1398397182
H  H217  1  0.49470000  0.33650000  0.29370000  1.0 0.1310396291
H  H218  1  0.95630000  0.37490000  0.75530000  1.0 0.1310396291
H  H219  1  0.51850000  0.46810000  0.28410000  1.0 0.1203868255
H  H220  1  0.96590000  0.52070000  0.73150000  1.0 0.1203868255
H  H221  1  0.43180000  0.57000000  0.32440000  1.0 0.1398397182
H  H222  1  0.92560000  0.57620000  0.81820000  1.0 0.1398397182
H  H223  1  0.36040000  0.61120000  0.30240000  1.0 0.1310396291
H  H224  1  0.94760000  0.52400000  0.88960000  1.0 0.1310396291
H  H225  1  0.36920000  0.57520000  0.38100000  1.0 0.1398397182
H  H226  1  0.86900000  0.57540000  0.88080000  1.0 0.1398397182
H  H227  1  0.59880000  0.31520000  0.23380000  1.0 0.1398397182
H  H228  1  0.01620000  0.39780000  0.65120000  1.0 0.1398397182
H  H229  1  0.59640000  0.38060000  0.19560000  1.0 0.1484529707
H  H230  1  0.05440000  0.42260000  0.65360000  1.0 0.1484529707
H  H231  1  0.62010000  0.33910000  0.26870000  1.0 0.1398397182
H  H232  1  0.98130000  0.47790000  0.62990000  1.0 0.1398397182
H  H233  1  0.31070000  0.44730000  0.34570000  1.0 0.1310396291
H  H234  1  0.90430000  0.35370000  0.93930000  1.0 0.1310396291
H  H235  1  0.36350000  0.39910000  0.28890000  1.0 0.1398397182
H  H236  1  0.96110000  0.30150000  0.88650000  1.0 0.1398397182
H  H237  1  0.37350000  0.36790000  0.36730000  1.0 0.1484529707
H  H238  1  0.88270000  0.35870000  0.87650000  1.0 0.1484529707
H  H239  1  0.26660000  0.43500000  0.52980000  1.0 0.1203868255
H  H240  1  0.72020000  0.48140000  0.98340000  1.0 0.1203868255
H  H241  1  0.94040000  0.69820000  0.77880000  1.0 0.1310396291
H  H242  1  0.47120000  0.66740000  0.30960000  1.0 0.1310396291
H  H243  1  0.85420000  0.70740000  0.65960000  1.0 0.1203868255
H  H244  1  0.59040000  0.47120000  0.39580000  1.0 0.1203868255
H  H245  1  0.91800000  0.64780000  0.56720000  1.0 0.1398397182
H  H246  1  0.68280000  0.38300000  0.33200000  1.0 0.1398397182
H  H247  1  0.99160000  0.63020000  0.53380000  1.0 0.1484529707
H  H248  1  0.71620000  0.40560000  0.25840000  1.0 0.1484529707
H  H249  1  0.98680000  0.57140000  0.58500000  1.0 0.1398397182
H  H250  1  0.66500000  0.39320000  0.26320000  1.0 0.1398397182
H  H251  1  0.05770000  0.62930000  0.76870000  1.0 0.1203868255
H  H252  1  0.48130000  0.70570000  0.19230000  1.0 0.1203868255
H  H253  1  0.10070000  0.55650000  0.74870000  1.0 0.1398397182
H  H254  1  0.50130000  0.65590000  0.14930000  1.0 0.1398397182
H  H255  1  0.10130000  0.61630000  0.69230000  1.0 0.1398397182
H  H256  1  0.55770000  0.65990000  0.14870000  1.0 0.1398397182
H  H257  1  0.78010000  0.77930000  0.74270000  1.0 0.1398397182
H  H258  1  0.50730000  0.55210000  0.46990000  1.0 0.1398397182
H  H259  1  0.81010000  0.74290000  0.81210000  1.0 0.1484529707
H  H260  1  0.43790000  0.61510000  0.43990000  1.0 0.1484529707
H  H261  1  0.81050000  0.80450000  0.76130000  1.0 0.1398397182
H  H262  1  0.48870000  0.62630000  0.43950000  1.0 0.1398397182
H  H263  1  0.30860000  0.21620000  0.66700000  1.0 0.1203868255
H  H264  1  0.58300000  0.44180000  0.94140000  1.0 0.1203868255
H  H265  1  0.34210000  0.28230000  0.77350000  1.0 0.1310396291
H  H266  1  0.47650000  0.64790000  0.90790000  1.0 0.1310396291
H  H267  1  0.19740000  0.38160000  0.56520000  1.0 0.1310396291
H  H268  1  0.68480000  0.39420000  0.05260000  1.0 0.1310396291
H  H269  1  0.26310000  0.30590000  0.54930000  1.0 0.1398397182
H  H270  1  0.70070000  0.36830000  0.98690000  1.0 0.1398397182
H  H271  1  0.19760000  0.31780000  0.60640000  1.0 0.1398397182
H  H272  1  0.64360000  0.37180000  0.05240000  1.0 0.1398397182
H  H273  1  0.38100000  0.13300000  0.74380000  1.0 0.1310396291
H  H274  1  0.50620000  0.50780000  0.86900000  1.0 0.1310396291
H  H275  1  0.42750000  0.14590000  0.75150000  1.0 0.1398397182
H  H276  1  0.49850000  0.57490000  0.82250000  1.0 0.1398397182
H  H277  1  0.36380000  0.15740000  0.81140000  1.0 0.1398397182
H  H278  1  0.43860000  0.58260000  0.88620000  1.0 0.1398397182
H  H279  1  0.23250000  0.45950000  0.69270000  1.0 0.1310396291
H  H280  1  0.55730000  0.63470000  0.01750000  1.0 0.1310396291
H  H281  1  0.24070000  0.41910000  0.77070000  1.0 0.1398397182
H  H282  1  0.47930000  0.68050000  0.00930000  1.0 0.1398397182
H  H283  1  0.30630000  0.40770000  0.71430000  1.0 0.1398397182
H  H284  1  0.53570000  0.67830000  0.94370000  1.0 0.1398397182
H  H285  1  0.26570000  0.03410000  0.00150000  1.0 0.1203868255
H  H286  1  0.24850000  0.55130000  0.98430000  1.0 0.1203868255
H  H287  1  0.26030000  0.03330000  0.81630000  1.0 0.1113489258
H  H288  1  0.43370000  0.35990000  0.98970000  1.0 0.1113489258
H  H289  1  0.28730000  0.15790000  0.58830000  1.0 0.1203868255
H  H290  1  0.66170000  0.28350000  0.96270000  1.0 0.1203868255
H  H291  1  0.08640000  0.27460000  0.67160000  1.0 0.1398397182
H  H292  1  0.57840000  0.28260000  0.16360000  1.0 0.1398397182
H  H293  1  0.10960000  0.20060000  0.84420000  1.0 0.1310396291
H  H294  1  0.40580000  0.40440000  0.14040000  1.0 0.1310396291
H  H295  1  0.05930000  0.27610000  0.80190000  1.0 0.1310396291
H  H296  1  0.44810000  0.38730000  0.19070000  1.0 0.1310396291
H  H297  1  0.06470000  0.21430000  0.79970000  1.0 0.1398397182
H  H298  1  0.45030000  0.32870000  0.18530000  1.0 0.1398397182
H  H299  1  0.37180000  0.06800000  0.65720000  1.0 0.1310396291
H  H300  1  0.59280000  0.34700000  0.87820000  1.0 0.1310396291
H  H301  1  0.35560000  0.09120000  0.72500000  1.0 0.1310396291
H  H302  1  0.52500000  0.42180000  0.89440000  1.0 0.1310396291
H  H303  1  0.34730000  0.03650000  0.73090000  1.0 0.1398397182
H  H304  1  0.51910000  0.36470000  0.90270000  1.0 0.1398397182
H  H305  1  0.22860000  0.21760000  0.51720000  1.0 0.1310396291
H  H306  1  0.73280000  0.21340000  0.02140000  1.0 0.1310396291
H  H307  1  0.15920000  0.22780000  0.53620000  1.0 0.1484529707
H  H308  1  0.71380000  0.17320000  0.09080000  1.0 0.1484529707
H  H309  1  0.15520000  0.29120000  0.52940000  1.0 0.1484529707
H  H310  1  0.72060000  0.22580000  0.09480000  1.0 0.1484529707
H  H311  1  0.05070000  0.26610000  0.02010000  1.0 0.1310396291
H  H312  1  0.22990000  0.58690000  0.19930000  1.0 0.1310396291
H  H313  1  0.09410000  0.24490000  0.94610000  1.0 0.1398397182
H  H314  1  0.30390000  0.53510000  0.15590000  1.0 0.1310396291
H  H315  1  0.09450000  0.18890000  0.01090000  1.0 0.1398397182
H  H316  1  0.23910000  0.54430000  0.15550000  1.0 0.1398397182
H  H317  1  0.09860000  0.27440000  0.07980000  1.0 0.1203868255
H  H318  1  0.17020000  0.70280000  0.15140000  1.0 0.1203868255
H  H319  1  0.29400000  0.17480000  0.05420000  1.0 0.1203868255
H  H320  1  0.19580000  0.77300000  0.95600000  1.0 0.1203868255
H  H321  1  0.38220000  0.07200000  0.00020000  1.0 0.1398397182
H  H322  1  0.24980000  0.70440000  0.86780000  1.0 0.1398397182
H  H323  1  0.35810000  0.03830000  0.98610000  1.0 0.1398397182
H  H324  1  0.26390000  0.63250000  0.89190000  1.0 0.1398397182
H  H325  1  0.36010000  0.09650000  0.92850000  1.0 0.1398397182
H  H326  1  0.32150000  0.63510000  0.88990000  1.0 0.1398397182
H  H327  1  0.14700000  0.26840000  0.16320000  1.0 0.1310396291
H  H328  1  0.08680000  0.82860000  0.10300000  1.0 0.1310396291
H  H329  1  0.22210000  0.19770000  0.17530000  1.0 0.1398397182
H  H330  1  0.07470000  0.84510000  0.02790000  1.0 0.1398397182
H  H331  1  0.21370000  0.26330000  0.12250000  1.0 0.1398397182
H  H332  1  0.12750000  0.84950000  0.03630000  1.0 0.1398397182
H  H333  1  0.31610000  0.92790000  0.85090000  1.0 0.1310396291
H  H334  1  0.39910000  0.34490000  0.93390000  1.0 0.1310396291
H  H335  1  0.26140000  0.95560000  0.04220000  1.0 0.1203868255
H  H336  1  0.20780000  0.50920000  0.98860000  1.0 0.1203868255
H  H337  1  0.22170000  0.80390000  0.25670000  1.0 0.1203868255
H  H338  1  0.99330000  0.53230000  0.02830000  1.0 0.1203868255
H  H339  1  0.37990000  0.79110000  0.23110000  1.0 0.1398397182
H  H340  1  0.01890000  0.65210000  0.87010000  1.0 0.1398397182
H  H341  1  0.39660000  0.84900000  0.04940000  1.0 0.1398397182
H  H342  1  0.20060000  0.54500000  0.85340000  1.0 0.1398397182
H  H343  1  0.39630000  0.86550000  0.11330000  1.0 0.1398397182
H  H344  1  0.13670000  0.62510000  0.85370000  1.0 0.1398397182
H  H345  1  0.44960000  0.78800000  0.10040000  1.0 0.1398397182
H  H346  1  0.14960000  0.58800000  0.80040000  1.0 0.1398397182
H  H347  1  0.18450000  0.81410000  0.17030000  1.0 0.1310396291
H  H348  1  0.07970000  0.41890000  0.06550000  1.0 0.1310396291
H  H349  1  0.17520000  0.87840000  0.11300000  1.0 0.1398397182
H  H350  1  0.13700000  0.41660000  0.07480000  1.0 0.1398397182
H  H351  1  0.23080000  0.80280000  0.09460000  1.0 0.1310396291
H  H352  1  0.15540000  0.37820000  0.01920000  1.0 0.1310396291
H  H353  1  0.28370000  0.73790000  0.35410000  1.0 0.1398397182
H  H354  1  0.89590000  0.62570000  0.96630000  1.0 0.1398397182
H  H355  1  0.36390000  0.70230000  0.33370000  1.0 0.1398397182
H  H356  1  0.91630000  0.64990000  0.88610000  1.0 0.1398397182
H  H357  1  0.30860000  0.77700000  0.35400000  1.0 0.1398397182
H  H358  1  0.89600000  0.68960000  0.94140000  1.0 0.1398397182
H  H359  1  0.46080000  0.72180000  0.74660000  1.0 0.1310396291
H  H360  1  0.50340000  0.17920000  0.78920000  1.0 0.1310396291
H  H361  1  0.26310000  0.79330000  0.81350000  1.0 0.1310396291
H  H362  1  0.43650000  0.11990000  0.98690000  1.0 0.1310396291
H  H363  1  0.49310000  0.76950000  0.78310000  1.0 0.1398397182
H  H364  1  0.46690000  0.29570000  0.75690000  1.0 0.1398397182
H  H365  1  0.48790000  0.73710000  0.86350000  1.0 0.1398397182
H  H366  1  0.38650000  0.33850000  0.76210000  1.0 0.1398397182
H  H367  1  0.43980000  0.81900000  0.83880000  1.0 0.1310396291
H  H368  1  0.41120000  0.34760000  0.81020000  1.0 0.1310396291
H  H369  1  0.20990000  0.89510000  0.90170000  1.0 0.1398397182
H  H370  1  0.34830000  0.25670000  0.04010000  1.0 0.1398397182
H  H371  1  0.19210000  0.85030000  0.90030000  1.0 0.1203868255
H  H372  1  0.34970000  0.19270000  0.05790000  1.0 0.1203868255
H  H373  1  0.22630000  0.82970000  0.96110000  1.0 0.1310396291
H  H374  1  0.28890000  0.26710000  0.02370000  1.0 0.1310396291
H  H375  1  0.33720000  0.72720000  0.71700000  1.0 0.1484529707
H  H376  1  0.53300000  0.03140000  0.91280000  1.0 0.1484529707
H  H377  1  0.39110000  0.74070000  0.67030000  1.0 0.1484529707
H  H378  1  0.57970000  0.05210000  0.85890000  1.0 0.1484529707
H  H379  1  0.41660000  0.67000000  0.72420000  1.0 0.1484529707
H  H380  1  0.52580000  0.06080000  0.83340000  1.0 0.1484529707
C  C1  1  0.85600000  0.20200000  0.62880000  1.0 -0.0916153539
C  C2  1  0.62120000  0.93680000  0.39400000  1.0 -0.0916153539
C  C3  1  0.82200000  0.32020000  0.60580000  1.0 0.1113489258
C  C4  1  0.64420000  0.99800000  0.42800000  1.0 0.1113489258
C  C5  1  0.80250000  0.35810000  0.54010000  1.0 0.0266180515
C  C6  1  0.70990000  0.95070000  0.44750000  1.0 0.0266180515
C  C7  1  0.78550000  0.42050000  0.51970000  1.0 -0.1699364588
C  C8  1  0.73030000  0.97570000  0.46450000  1.0 -0.1699364588
C  C9  1  0.78610000  0.44910000  0.55910000  1.0 0.0908513029
C  C10  1  0.69090000  0.04430000  0.46390000  1.0 0.0908513029
C  C11  1  0.80750000  0.41030000  0.62310000  1.0 -0.1699364588
C  C12  1  0.62690000  0.09090000  0.44250000  1.0 -0.1699364588
C  C13  1  0.82340000  0.34760000  0.64840000  1.0 0.0205369745
C  C14  1  0.60160000  0.06940000  0.42660000  1.0 0.0205369745
C  C15  1  0.83740000  0.31100000  0.72000000  1.0 -0.062325046
C  C16  1  0.53000000  0.11840000  0.41260000  1.0 -0.062325046
C  C17  1  0.77890000  0.32490000  0.77430000  1.0 0.1605283343
C  C18  1  0.47570000  0.12810000  0.47110000  1.0 0.1605283343
C  C19  1  0.79150000  0.29410000  0.84570000  1.0 -0.2717268174
C  C20  1  0.40430000  0.18130000  0.45850000  1.0 -0.2717268174
C  C21  1  0.85450000  0.25390000  0.85810000  1.0 0.1801324624
C  C22  1  0.39190000  0.21650000  0.39550000  1.0 0.1801324624
C  C23  1  0.91160000  0.24540000  0.80520000  1.0 -0.2387643458
C  C24  1  0.44480000  0.21220000  0.33840000  1.0 -0.2387643458
C  C25  1  0.89630000  0.27990000  0.73510000  1.0 0.1398397182
C  C26  1  0.51490000  0.16130000  0.35370000  1.0 0.1398397182
C  C27  1  0.95730000  0.27370000  0.68310000  1.0 -0.4609699325
C  C28  1  0.56690000  0.16410000  0.29270000  1.0 -0.4609699325
C  C29  1  0.70780000  0.37080000  0.75860000  1.0 -0.4876427085
C  C30  1  0.49140000  0.08720000  0.54220000  1.0 -0.4876427085
C  C31  1  0.87110000  0.21710000  0.93210000  1.0 -0.4508860206
C  C32  1  0.31790000  0.27030000  0.37890000  1.0 -0.4508860206
C  C33  1  0.80450000  0.32650000  0.49390000  1.0 -0.0492136919
C  C34  1  0.75610000  0.87490000  0.44550000  1.0 -0.0492136919
C  C35  1  0.85130000  0.31690000  0.42790000  1.0 0.1605283343
C  C36  1  0.82210000  0.84610000  0.39870000  1.0 0.1605283343
C  C37  1  0.84850000  0.29530000  0.38170000  1.0 -0.2387643458
C  C38  1  0.86830000  0.77550000  0.40150000  1.0 -0.2387643458
C  C39  1  0.80720000  0.27500000  0.39960000  1.0 0.1700420783
C  C40  1  0.85040000  0.73180000  0.44280000  1.0 0.1700420783
C  C41  1  0.76150000  0.29130000  0.45750000  1.0 -0.2304380175
C  C42  1  0.79250000  0.76030000  0.48850000  1.0 -0.2304380175
C  C43  1  0.75780000  0.31860000  0.50480000  1.0 0.1398397182
C  C44  1  0.74520000  0.83120000  0.49220000  1.0 0.1398397182
C  C45  1  0.70310000  0.33290000  0.57130000  1.0 -0.4609699325
C  C46  1  0.67870000  0.85730000  0.54690000  1.0 -0.4609699325
C  C47  1  0.81540000  0.24040000  0.35500000  1.0 -0.4679450498
C  C48  1  0.89500000  0.66080000  0.43460000  1.0 -0.4679450498
C  C49  1  0.90130000  0.33090000  0.40890000  1.0 -0.4609699325
C  C50  1  0.84110000  0.89110000  0.34870000  1.0 -0.4609699325
C  C51  1  0.76630000  0.51970000  0.53550000  1.0 0.0507279008
C  C52  1  0.71450000  0.07150000  0.48370000  1.0 0.0507279008
C  C53  1  0.75800000  0.55340000  0.46680000  1.0 -0.1595325072
C  C54  1  0.78320000  0.02820000  0.49200000  1.0 -0.1595325072
C  C55  1  0.73440000  0.62020000  0.44580000  1.0 0.0205369745
C  C56  1  0.80420000  0.05040000  0.51560000  1.0 0.0205369745
C  C57  1  0.72280000  0.65400000  0.49020000  1.0 0.1113489258
C  C58  1  0.75980000  0.11700000  0.52720000  1.0 0.1113489258
C  C59  1  0.73150000  0.62230000  0.55930000  1.0 0.0015121212
C  C60  1  0.69070000  0.16310000  0.51850000  1.0 0.0015121212
C  C61  1  0.75110000  0.55690000  0.57950000  1.0 -0.0916153539
C  C62  1  0.67050000  0.13750000  0.49890000  1.0 -0.0916153539
C  C63  1  0.71500000  0.65860000  0.60980000  1.0 -0.0492136919
C  C64  1  0.64020000  0.23340000  0.53500000  1.0 -0.0492136919
C  C65  1  0.64900000  0.70880000  0.63380000  1.0 0.1398397182
C  C66  1  0.61620000  0.24160000  0.60100000  1.0 0.1398397182
C  C67  1  0.62980000  0.74240000  0.68400000  1.0 -0.2387643458
C  C68  1  0.56600000  0.30620000  0.62020000  1.0 -0.2387643458
C  C69  1  0.67620000  0.72380000  0.71060000  1.0 0.1801324624
C  C70  1  0.53940000  0.36060000  0.57380000  1.0 0.1801324624
C  C71  1  0.74520000  0.67100000  0.68840000  1.0 -0.2387643458
C  C72  1  0.56160000  0.35460000  0.50480000  1.0 -0.2387643458
C  C73  1  0.76890000  0.63230000  0.63810000  1.0 0.1484529707
C  C74  1  0.61190000  0.28930000  0.48110000  1.0 0.1484529707
C  C75  1  0.83980000  0.57500000  0.62060000  1.0 -0.4609699325
C  C76  1  0.62940000  0.28540000  0.41020000  1.0 -0.4609699325
C  C77  1  0.58860000  0.73180000  0.60640000  1.0 -0.4508860206
C  C78  1  0.64360000  0.17680000  0.66140000  1.0 -0.4508860206
C  C79  1  0.65630000  0.76370000  0.76450000  1.0 -0.4508860206
C  C80  1  0.48550000  0.43450000  0.59370000  1.0 -0.4508860206
C  C81  1  0.78040000  0.64180000  0.31960000  1.0 0.1605283343
C  C82  1  0.93040000  0.99180000  0.46960000  1.0 0.1605283343
C  C83  1  0.76990000  0.67670000  0.25250000  1.0 -0.2493654222
C  C84  1  0.99750000  0.94910000  0.48010000  1.0 -0.2493654222
C  C85  1  0.70360000  0.72580000  0.23860000  1.0 0.1995627403
C  C86  1  0.01140000  0.91800000  0.54640000  1.0 0.1995627403
C  C87  1  0.64760000  0.74000000  0.29160000  1.0 -0.2387643458
C  C88  1  0.95840000  0.92920000  0.60240000  1.0 -0.2387643458
C  C89  1  0.65800000  0.70500000  0.35880000  1.0 0.1484529707
C  C90  1  0.89120000  0.97180000  0.59200000  1.0 0.1484529707
C  C91  1  0.72430000  0.65610000  0.37270000  1.0 -0.0423371363
C  C92  1  0.87730000  0.00310000  0.52570000  1.0 -0.0423371363
C  C93  1  0.85600000  0.58540000  0.33240000  1.0 -0.4508860206
C  C94  1  0.91760000  0.02380000  0.39400000  1.0 -0.4609699325
C  C95  1  0.69640000  0.76140000  0.16160000  1.0 -0.4679450498
C  C96  1  0.08840000  0.86940000  0.55360000  1.0 -0.4679450498
C  C97  1  0.59860000  0.72220000  0.41600000  1.0 -0.4609699325
C  C98  1  0.83400000  0.98680000  0.65140000  1.0 -0.4609699325
C  C99  1  0.67490000  0.77750000  0.43410000  1.0 -0.0916153539
C  C100  1  0.81590000  0.13650000  0.57510000  1.0 -0.0916153539
C  C101  1  0.69710000  0.84810000  0.27890000  1.0 -0.1107518322
C  C102  1  0.97110000  0.07410000  0.55290000  1.0 -0.1107518322
C  C103  1  0.75540000  0.86800000  0.15600000  1.0 0.0908513029
C  C104  1  0.09400000  0.02940000  0.49460000  1.0 0.0908513029
C  C105  1  0.70590000  0.93630000  0.12410000  1.0 0.0428847528
C  C106  1  0.12590000  0.01630000  0.54410000  1.0 0.0428847528
C  C107  1  0.73010000  0.95630000  0.05750000  1.0 -0.1889188097
C  C108  1  0.19250000  0.99390000  0.51990000  1.0 -0.1889188097
C  C109  1  0.79700000  0.91480000  0.02260000  1.0 0.0980427235
C  C110  1  0.22740000  0.98440000  0.45300000  1.0 0.0980427235
C  C111  1  0.84390000  0.84630000  0.05590000  1.0 -0.1799334691
C  C112  1  0.19410000  0.99610000  0.40610000  1.0 -0.1799334691
C  C113  1  0.82120000  0.82380000  0.12200000  1.0 0.0205369745
C  C114  1  0.12800000  0.01700000  0.42880000  1.0 0.0205369745
C  C115  1  0.87300000  0.75100000  0.15720000  1.0 -0.0423371363
C  C116  1  0.09280000  0.03120000  0.37700000  1.0 -0.0423371363
C  C117  1  0.90220000  0.69400000  0.13620000  1.0 0.1310396291
C  C118  1  0.11380000  0.98240000  0.34780000  1.0 0.1310396291
C  C119  1  0.95060000  0.62780000  0.17020000  1.0 -0.2387643458
C  C120  1  0.07980000  0.99860000  0.29940000  1.0 -0.2387643458
C  C121  1  0.97520000  0.61980000  0.22120000  1.0 0.1801324624
C  C122  1  0.02880000  0.06620000  0.27480000  1.0 0.1801324624
C  C123  1  0.95010000  0.67730000  0.23950000  1.0 -0.2387643458
C  C124  1  0.01050000  0.11690000  0.29990000  1.0 -0.2387643458
C  C125  1  0.90170000  0.74170000  0.21010000  1.0 0.1398397182
C  C126  1  0.03990000  0.10350000  0.34830000  1.0 0.1398397182
C  C127  1  0.88110000  0.80190000  0.22670000  1.0 -0.4609699325
C  C128  1  0.02330000  0.15970000  0.36890000  1.0 -0.4609699325
C  C129  1  0.87740000  0.70260000  0.07780000  1.0 -0.4508860206
C  C130  1  0.17220000  0.90780000  0.37260000  1.0 -0.4508860206
C  C131  1  0.03330000  0.54390000  0.24130000  1.0 -0.4508860206
C  C132  1  0.00870000  0.06850000  0.21670000  1.0 -0.444362261
C  C133  1  0.63200000  0.98720000  0.15860000  1.0 -0.0752103061
C  C134  1  0.09140000  0.02780000  0.61800000  1.0 -0.0752103061
C  C135  1  0.62320000  0.01240000  0.20840000  1.0 0.1605283343
C  C136  1  0.04160000  0.09400000  0.62680000  1.0 0.1605283343
C  C137  1  0.68210000  0.99590000  0.22890000  1.0 -0.4679450498
C  C138  1  0.02110000  0.15690000  0.56790000  1.0 -0.4679450498
C  C139  1  0.55530000  0.06170000  0.23850000  1.0 -0.2493654222
C  C140  1  0.01150000  0.10550000  0.69470000  1.0 -0.2493654222
C  C141  1  0.49700000  0.08600000  0.21620000  1.0 0.1700420783
C  C142  1  0.03380000  0.04920000  0.75300000  1.0 0.1700420783
C  C143  1  0.51270000  0.05170000  0.17770000  1.0 -0.2304380175
C  C144  1  0.07230000  0.99210000  0.73730000  1.0 -0.2304380175
C  C145  1  0.57890000  0.00870000  0.13690000  1.0 0.1700420783
C  C146  1  0.11310000  0.97450000  0.67110000  1.0 0.1700420783
C  C147  1  0.59030000  0.97810000  0.08070000  1.0 -0.4508860206
C  C148  1  0.16930000  0.89910000  0.65970000  1.0 -0.4508860206
C  C149  1  0.42520000  0.14120000  0.23820000  1.0 -0.444362261
C  C150  1  0.01180000  0.05460000  0.82480000  1.0 -0.444362261
C  C151  1  0.82150000  0.93850000  0.95190000  1.0 0.0706571944
C  C152  1  0.29810000  0.96190000  0.42850000  1.0 0.0706571944
C  C153  1  0.87790000  0.89930000  0.91090000  1.0 -0.1595325072
C  C154  1  0.33910000  0.93810000  0.37210000  1.0 -0.1595325072
C  C155  1  0.90190000  0.92050000  0.84570000  1.0 0.0266180515
C  C156  1  0.40430000  0.91810000  0.34810000  1.0 0.0266180515
C  C157  1  0.86110000  0.99190000  0.81810000  1.0 0.1203868255
C  C158  1  0.43190000  0.92110000  0.38890000  1.0 0.1203868255
C  C159  1  0.79880000  0.03760000  0.85800000  1.0 0.0205369745
C  C160  1  0.39200000  0.94440000  0.45120000  1.0 0.0205369745
C  C161  1  0.78060000  0.01120000  0.92640000  1.0 -0.1799334691
C  C162  1  0.32360000  0.96820000  0.46940000  1.0 -0.1799334691
C  C163  1  0.75120000  0.11160000  0.83260000  1.0 -0.062325046
C  C164  1  0.41740000  0.94540000  0.49880000  1.0 -0.062325046
C  C165  1  0.76690000  0.15370000  0.81730000  1.0 0.1605283343
C  C166  1  0.43270000  0.98790000  0.48310000  1.0 0.1605283343
C  C167  1  0.71350000  0.22570000  0.80090000  1.0 -0.2493654222
C  C168  1  0.44910000  0.99010000  0.53650000  1.0 -0.2493654222
C  C169  1  0.65710000  0.25190000  0.78110000  1.0 0.1801324624
C  C170  1  0.46890000  0.94010000  0.59290000  1.0 0.1801324624
C  C171  1  0.64170000  0.21110000  0.79690000  1.0 -0.2493654222
C  C172  1  0.45310000  0.89970000  0.60830000  1.0 -0.2493654222
C  C173  1  0.68570000  0.14090000  0.82110000  1.0 0.1605283343
C  C174  1  0.42890000  0.89770000  0.56430000  1.0 0.1605283343
C  C175  1  0.66790000  0.09730000  0.83190000  1.0 -0.4609699325
C  C176  1  0.41810000  0.84710000  0.58210000  1.0 -0.4609699325
C  C177  1  0.83140000  0.13100000  0.82920000  1.0 -0.4609699325
C  C178  1  0.42080000  0.04160000  0.41860000  1.0 -0.4609699325
C  C179  1  0.60540000  0.33120000  0.74620000  1.0 -0.4508860206
C  C180  1  0.50380000  0.93280000  0.64460000  1.0 -0.4508860206
C  C181  1  0.97490000  0.86870000  0.81090000  1.0 -0.0423371363
C  C182  1  0.43910000  0.90450000  0.27510000  1.0 -0.0423371363
C  C183  1  0.99140000  0.82480000  0.77520000  1.0 0.1398397182
C  C184  1  0.47480000  0.84140000  0.25860000  1.0 0.1398397182
C  C185  1  0.05960000  0.77660000  0.74620000  1.0 -0.258162874
C  C186  1  0.50380000  0.83240000  0.19040000  1.0 -0.258162874
C  C187  1  0.11120000  0.77240000  0.75300000  1.0 0.1889336824
C  C188  1  0.49700000  0.88660000  0.13880000  1.0 0.1889336824
C  C189  1  0.09470000  0.81630000  0.78870000  1.0 -0.2493654222
C  C190  1  0.46130000  0.94970000  0.15530000  1.0 -0.2493654222
C  C191  1  0.02660000  0.86440000  0.81760000  1.0 0.1310396291
C  C192  1  0.43240000  0.95860000  0.22340000  1.0 0.1310396291
C  C193  1  0.93520000  0.82780000  0.77520000  1.0 -0.4609699325
C  C194  1  0.47480000  0.78820000  0.31480000  1.0 -0.4609699325
C  C195  1  0.01410000  0.91070000  0.85110000  1.0 -0.4609699325
C  C196  1  0.39890000  0.02590000  0.23590000  1.0 -0.4609699325
C  C197  1  0.18620000  0.71560000  0.71960000  1.0 -0.4609699325
C  C198  1  0.53040000  0.87140000  0.06380000  1.0 -0.4609699325
C  C199  1  0.88790000  0.05270000  0.70210000  1.0 -0.1107518322
C  C200  1  0.54790000  0.89270000  0.36210000  1.0 -0.1107518322
C  C201  1  0.31320000  0.62880000  0.20200000  1.0 -0.0916153539
C  C202  1  0.04800000  0.39400000  0.93680000  1.0 -0.0916153539
C  C203  1  0.25200000  0.60580000  0.32020000  1.0 0.1113489258
C  C204  1  0.92980000  0.42800000  0.99800000  1.0 0.1113489258
C  C205  1  0.29930000  0.54010000  0.35810000  1.0 0.0266180515
C  C206  1  0.89190000  0.44750000  0.95070000  1.0 0.0266180515
C  C207  1  0.27430000  0.51970000  0.42050000  1.0 -0.1699364588
C  C208  1  0.82950000  0.46450000  0.97570000  1.0 -0.1699364588
C  C209  1  0.20570000  0.55910000  0.44910000  1.0 0.0908513029
C  C210  1  0.80090000  0.46390000  0.04430000  1.0 0.0908513029
C  C211  1  0.15910000  0.62310000  0.41030000  1.0 -0.1699364588
C  C212  1  0.83970000  0.44250000  0.09090000  1.0 -0.1699364588
C  C213  1  0.18060000  0.64840000  0.34760000  1.0 0.0205369745
C  C214  1  0.90240000  0.42660000  0.06940000  1.0 0.0205369745
C  C215  1  0.13160000  0.72000000  0.31100000  1.0 -0.062325046
C  C216  1  0.93900000  0.41260000  0.11840000  1.0 -0.062325046
C  C217  1  0.12190000  0.77430000  0.32490000  1.0 0.1605283343
C  C218  1  0.92510000  0.47110000  0.12810000  1.0 0.1605283343
C  C219  1  0.06870000  0.84570000  0.29410000  1.0 -0.2717268174
C  C220  1  0.95590000  0.45850000  0.18130000  1.0 -0.2717268174
C  C221  1  0.03350000  0.85810000  0.25390000  1.0 0.1801324624
C  C222  1  0.99610000  0.39550000  0.21650000  1.0 0.1801324624
C  C223  1  0.03780000  0.80520000  0.24540000  1.0 -0.2387643458
C  C224  1  0.00460000  0.33840000  0.21220000  1.0 -0.2387643458
C  C225  1  0.08870000  0.73510000  0.27990000  1.0 0.1398397182
C  C226  1  0.97010000  0.35370000  0.16130000  1.0 0.1398397182
C  C227  1  0.08590000  0.68310000  0.27370000  1.0 -0.4609699325
C  C228  1  0.97630000  0.29270000  0.16410000  1.0 -0.4609699325
C  C229  1  0.16280000  0.75860000  0.37080000  1.0 -0.4876427085
C  C230  1  0.87920000  0.54220000  0.08720000  1.0 -0.4876427085
C  C231  1  0.97970000  0.93210000  0.21710000  1.0 -0.4508860206
C  C232  1  0.03290000  0.37890000  0.27030000  1.0 -0.4508860206
C  C233  1  0.37510000  0.49390000  0.32650000  1.0 -0.0492136919
C  C234  1  0.92350000  0.44550000  0.87490000  1.0 -0.0492136919
C  C235  1  0.40390000  0.42790000  0.31690000  1.0 0.1605283343
C  C236  1  0.93310000  0.39870000  0.84610000  1.0 0.1605283343
C  C237  1  0.47450000  0.38170000  0.29530000  1.0 -0.2387643458
C  C238  1  0.95470000  0.40150000  0.77550000  1.0 -0.2387643458
C  C239  1  0.51820000  0.39960000  0.27500000  1.0 0.1700420783
C  C240  1  0.97500000  0.44280000  0.73180000  1.0 0.1700420783
C  C241  1  0.48970000  0.45750000  0.29130000  1.0 -0.2304380175
C  C242  1  0.95870000  0.48850000  0.76030000  1.0 -0.2304380175
C  C243  1  0.41880000  0.50480000  0.31860000  1.0 0.1398397182
C  C244  1  0.93140000  0.49220000  0.83120000  1.0 0.1398397182
C  C245  1  0.39270000  0.57130000  0.33290000  1.0 -0.4609699325
C  C246  1  0.91710000  0.54690000  0.85730000  1.0 -0.4609699325
C  C247  1  0.58920000  0.35500000  0.24040000  1.0 -0.4679450498
C  C248  1  0.00960000  0.43460000  0.66080000  1.0 -0.4679450498
C  C249  1  0.35890000  0.40890000  0.33090000  1.0 -0.4609699325
C  C250  1  0.91910000  0.34870000  0.89110000  1.0 -0.4609699325
C  C251  1  0.17850000  0.53550000  0.51970000  1.0 0.0507279008
C  C252  1  0.73030000  0.48370000  0.07150000  1.0 0.0507279008
C  C253  1  0.22180000  0.46680000  0.55340000  1.0 -0.1595325072
C  C254  1  0.69660000  0.49200000  0.02820000  1.0 -0.1595325072
C  C255  1  0.19960000  0.44580000  0.62020000  1.0 0.0205369745
C  C256  1  0.62980000  0.51560000  0.05040000  1.0 0.0205369745
C  C257  1  0.13300000  0.49020000  0.65400000  1.0 0.1113489258
C  C258  1  0.59600000  0.52720000  0.11700000  1.0 0.1113489258
C  C259  1  0.08690000  0.55930000  0.62230000  1.0 0.0015121212
C  C260  1  0.62770000  0.51850000  0.16310000  1.0 0.0015121212
C  C261  1  0.11250000  0.57950000  0.55690000  1.0 -0.0916153539
C  C262  1  0.69310000  0.49890000  0.13750000  1.0 -0.0916153539
C  C263  1  0.01660000  0.60980000  0.65860000  1.0 -0.0492136919
C  C264  1  0.59140000  0.53500000  0.23340000  1.0 -0.0492136919
C  C265  1  0.00840000  0.63380000  0.70880000  1.0 0.1398397182
C  C266  1  0.54120000  0.60100000  0.24160000  1.0 0.1398397182
C  C267  1  0.94380000  0.68400000  0.74240000  1.0 -0.2387643458
C  C268  1  0.50760000  0.62020000  0.30620000  1.0 -0.2387643458
C  C269  1  0.88940000  0.71060000  0.72380000  1.0 0.1801324624
C  C270  1  0.52620000  0.57380000  0.36060000  1.0 0.1801324624
C  C271  1  0.89540000  0.68840000  0.67100000  1.0 -0.2387643458
C  C272  1  0.57900000  0.50480000  0.35460000  1.0 -0.2387643458
C  C273  1  0.96070000  0.63810000  0.63230000  1.0 0.1484529707
C  C274  1  0.61770000  0.48110000  0.28930000  1.0 0.1484529707
C  C275  1  0.96460000  0.62060000  0.57500000  1.0 -0.4609699325
C  C276  1  0.67500000  0.41020000  0.28540000  1.0 -0.4609699325
C  C277  1  0.07320000  0.60640000  0.73180000  1.0 -0.4508860206
C  C278  1  0.51820000  0.66140000  0.17680000  1.0 -0.4508860206
C  C279  1  0.81550000  0.76450000  0.76370000  1.0 -0.4508860206
C  C280  1  0.48630000  0.59370000  0.43450000  1.0 -0.4508860206
C  C281  1  0.25820000  0.31960000  0.64180000  1.0 0.1605283343
C  C282  1  0.60820000  0.46960000  0.99180000  1.0 0.1605283343
C  C283  1  0.30090000  0.25250000  0.67670000  1.0 -0.2493654222
C  C284  1  0.57330000  0.48010000  0.94910000  1.0 -0.2493654222
C  C285  1  0.33200000  0.23860000  0.72580000  1.0 0.1995627403
C  C286  1  0.52420000  0.54640000  0.91800000  1.0 0.1995627403
C  C287  1  0.32080000  0.29160000  0.74000000  1.0 -0.2387643458
C  C288  1  0.51000000  0.60240000  0.92920000  1.0 -0.2387643458
C  C289  1  0.27820000  0.35880000  0.70500000  1.0 0.1484529707
C  C290  1  0.54500000  0.59200000  0.97180000  1.0 0.1484529707
C  C291  1  0.24690000  0.37270000  0.65610000  1.0 -0.0423371363
C  C292  1  0.59390000  0.52570000  0.00310000  1.0 -0.0423371363
C  C293  1  0.22620000  0.33240000  0.58540000  1.0 -0.4508860206
C  C294  1  0.66460000  0.39400000  0.02380000  1.0 -0.4609699325
C  C295  1  0.38060000  0.16160000  0.76140000  1.0 -0.4679450498
C  C296  1  0.48860000  0.55360000  0.86940000  1.0 -0.4679450498
C  C297  1  0.26320000  0.41600000  0.72220000  1.0 -0.4609699325
C  C298  1  0.52780000  0.65140000  0.98680000  1.0 -0.4609699325
C  C299  1  0.11350000  0.43410000  0.77750000  1.0 -0.0916153539
C  C300  1  0.47250000  0.57510000  0.13650000  1.0 -0.0916153539
C  C301  1  0.17590000  0.27890000  0.84810000  1.0 -0.1107518322
C  C302  1  0.40190000  0.55290000  0.07410000  1.0 -0.1107518322
C  C303  1  0.22060000  0.15600000  0.86800000  1.0 0.0908513029
C  C304  1  0.38200000  0.49460000  0.02940000  1.0 0.0908513029
C  C305  1  0.23370000  0.12410000  0.93630000  1.0 0.0428847528
C  C306  1  0.31370000  0.54410000  0.01630000  1.0 0.0428847528
C  C307  1  0.25610000  0.05750000  0.95630000  1.0 -0.1889188097
C  C308  1  0.29370000  0.51990000  0.99390000  1.0 -0.1889188097
C  C309  1  0.26560000  0.02260000  0.91480000  1.0 0.0980427235
C  C310  1  0.33520000  0.45300000  0.98440000  1.0 0.0980427235
C  C311  1  0.25390000  0.05590000  0.84630000  1.0 -0.1799334691
C  C312  1  0.40370000  0.40610000  0.99610000  1.0 -0.1799334691
C  C313  1  0.23300000  0.12200000  0.82380000  1.0 0.0205369745
C  C314  1  0.42620000  0.42880000  0.01700000  1.0 0.0205369745
C  C315  1  0.21880000  0.15720000  0.75100000  1.0 -0.0423371363
C  C316  1  0.49900000  0.37700000  0.03120000  1.0 -0.0423371363
C  C317  1  0.26760000  0.13620000  0.69400000  1.0 0.1310396291
C  C318  1  0.55600000  0.34780000  0.98240000  1.0 0.1310396291
C  C319  1  0.25140000  0.17020000  0.62780000  1.0 -0.2387643458
C  C320  1  0.62220000  0.29940000  0.99860000  1.0 -0.2387643458
C  C321  1  0.18380000  0.22120000  0.61980000  1.0 0.1801324624
C  C322  1  0.63020000  0.27480000  0.06620000  1.0 0.1801324624
C  C323  1  0.13310000  0.23950000  0.67730000  1.0 -0.2387643458
C  C324  1  0.57270000  0.29990000  0.11690000  1.0 -0.2387643458
C  C325  1  0.14650000  0.21010000  0.74170000  1.0 0.1398397182
C  C326  1  0.50830000  0.34830000  0.10350000  1.0 0.1398397182
C  C327  1  0.09030000  0.22670000  0.80190000  1.0 -0.4609699325
C  C328  1  0.44810000  0.36890000  0.15970000  1.0 -0.4609699325
C  C329  1  0.34220000  0.07780000  0.70260000  1.0 -0.4508860206
C  C330  1  0.54740000  0.37260000  0.90780000  1.0 -0.4508860206
C  C331  1  0.18150000  0.24130000  0.54390000  1.0 -0.444362261
C  C332  1  0.70610000  0.21670000  0.06850000  1.0 -0.444362261
C  C333  1  0.22220000  0.15860000  0.98720000  1.0 -0.0698709826
C  C334  1  0.26280000  0.61800000  0.02780000  1.0 -0.0752103061
C  C335  1  0.15600000  0.20840000  0.01240000  1.0 0.1605283343
C  C336  1  0.23760000  0.62680000  0.09400000  1.0 0.1605283343
C  C337  1  0.09310000  0.22890000  0.99590000  1.0 -0.4679450498
C  C338  1  0.25410000  0.56790000  0.15690000  1.0 -0.4679450498
C  C339  1  0.14450000  0.23850000  0.06170000  1.0 -0.2493654222
C  C340  1  0.18830000  0.69470000  0.10550000  1.0 -0.2493654222
C  C341  1  0.20080000  0.21620000  0.08600000  1.0 0.1700420783
C  C342  1  0.16400000  0.75300000  0.04920000  1.0 0.1700420783
C  C343  1  0.25790000  0.17770000  0.05170000  1.0 -0.2304380175
C  C344  1  0.19830000  0.73730000  0.99210000  1.0 -0.2304380175
C  C345  1  0.27550000  0.13690000  0.00870000  1.0 0.1700420783
C  C346  1  0.24130000  0.67110000  0.97450000  1.0 0.1605283343
C  C347  1  0.35090000  0.08070000  0.97810000  1.0 -0.4508860206
C  C348  1  0.27190000  0.65970000  0.89910000  1.0 -0.4508860206
C  C349  1  0.19540000  0.23820000  0.14120000  1.0 -0.444362261
C  C350  1  0.10880000  0.82480000  0.05460000  1.0 -0.4508860206
C  C351  1  0.28810000  0.95190000  0.93850000  1.0 0.0706571944
C  C352  1  0.31150000  0.42850000  0.96190000  1.0 0.0706571944
C  C353  1  0.31190000  0.91090000  0.89930000  1.0 -0.1595325072
C  C354  1  0.35070000  0.37210000  0.93810000  1.0 -0.1595325072
C  C355  1  0.33190000  0.84570000  0.92050000  1.0 0.0266180515
C  C356  1  0.32950000  0.34810000  0.91810000  1.0 0.0266180515
C  C357  1  0.32890000  0.81810000  0.99190000  1.0 0.1203868255
C  C358  1  0.25810000  0.38890000  0.92110000  1.0 0.1203868255
C  C359  1  0.30560000  0.85800000  0.03760000  1.0 0.0205369745
C  C360  1  0.21240000  0.45120000  0.94440000  1.0 0.0205369745
C  C361  1  0.28180000  0.92640000  0.01120000  1.0 -0.1799334691
C  C362  1  0.23880000  0.46940000  0.96820000  1.0 -0.1799334691
C  C363  1  0.30460000  0.83260000  0.11160000  1.0 -0.062325046
C  C364  1  0.13840000  0.49880000  0.94540000  1.0 -0.062325046
C  C365  1  0.26210000  0.81730000  0.15370000  1.0 0.1605283343
C  C366  1  0.09630000  0.48310000  0.98790000  1.0 0.1605283343
C  C367  1  0.25990000  0.80090000  0.22570000  1.0 -0.2493654222
C  C368  1  0.02430000  0.53650000  0.99010000  1.0 -0.2493654222
C  C369  1  0.30990000  0.78110000  0.25190000  1.0 0.1801324624
C  C370  1  0.99810000  0.59290000  0.94010000  1.0 0.1801324624
C  C371  1  0.35030000  0.79690000  0.21110000  1.0 -0.2493654222
C  C372  1  0.03890000  0.60830000  0.89970000  1.0 -0.2493654222
C  C373  1  0.35230000  0.82110000  0.14090000  1.0 0.1605283343
C  C374  1  0.10910000  0.56430000  0.89770000  1.0 0.1605283343
C  C375  1  0.40290000  0.83190000  0.09730000  1.0 -0.4609699325
C  C376  1  0.15270000  0.58210000  0.84710000  1.0 -0.4609699325
C  C377  1  0.20840000  0.82920000  0.13100000  1.0 -0.4609699325
C  C378  1  0.11900000  0.41860000  0.04160000  1.0 -0.4609699325
C  C379  1  0.31720000  0.74620000  0.33120000  1.0 -0.4508860206
C  C380  1  0.91880000  0.64460000  0.93280000  1.0 -0.4508860206
C  C381  1  0.34550000  0.81090000  0.86870000  1.0 -0.0423371363
C  C382  1  0.38130000  0.27510000  0.90450000  1.0 -0.0423371363
C  C383  1  0.40860000  0.77520000  0.82480000  1.0 0.1398397182
C  C384  1  0.42520000  0.25860000  0.84140000  1.0 0.1398397182
C  C385  1  0.41760000  0.74620000  0.77660000  1.0 -0.258162874
C  C386  1  0.47340000  0.19040000  0.83240000  1.0 -0.258162874
C  C387  1  0.36340000  0.75300000  0.77240000  1.0 0.1889336824
C  C388  1  0.47760000  0.13880000  0.88660000  1.0 0.1889336824
C  C389  1  0.30030000  0.78870000  0.81630000  1.0 -0.2493654222
C  C390  1  0.43370000  0.15530000  0.94970000  1.0 -0.2493654222
C  C391  1  0.29140000  0.81760000  0.86440000  1.0 0.1310396291
C  C392  1  0.38560000  0.22340000  0.95860000  1.0 0.1310396291
C  C393  1  0.46180000  0.77520000  0.82780000  1.0 -0.4609699325
C  C394  1  0.42220000  0.31480000  0.78820000  1.0 -0.4609699325
C  C395  1  0.22410000  0.85110000  0.91070000  1.0 -0.4609699325
C  C396  1  0.33930000  0.23590000  0.02590000  1.0 -0.4609699325
C  C397  1  0.37860000  0.71960000  0.71560000  1.0 -0.4609699325
C  C398  1  0.53440000  0.06380000  0.87140000  1.0 -0.4609699325
C  C399  1  0.35730000  0.70210000  0.05270000  1.0 -0.1107518322
C  C400  1  0.19730000  0.36210000  0.89270000  1.0 -0.1107518322
N  N1  1  0.84220000  0.25180000  0.62500000  1.0 -0.1004768976
N  N2  1  0.62500000  0.96900000  0.40780000  1.0 -0.1004768976
N  N3  1  0.69780000  0.72280000  0.46600000  1.0 -0.062325046
N  N4  1  0.78400000  0.13660000  0.55220000  1.0 -0.0698709826
N  N5  1  0.73050000  0.84710000  0.22370000  1.0 -0.0698709826
N  N6  1  0.02630000  0.05130000  0.51950000  1.0 -0.0698709826
N  N7  1  0.88390000  0.01750000  0.75390000  1.0 -0.1491480724
N  N8  1  0.49610000  0.90530000  0.36610000  1.0 -0.1491480724
N  N9  1  0.28100000  0.62500000  0.25180000  1.0 -0.1004768976
N  N10  1  0.99820000  0.40780000  0.96900000  1.0 -0.1004768976
N  N11  1  0.11340000  0.46600000  0.72280000  1.0 -0.0698709826
N  N12  1  0.52720000  0.55220000  0.13660000  1.0 -0.0698709826
N  N13  1  0.19870000  0.22370000  0.84710000  1.0 -0.0698709826
N  N14  1  0.40290000  0.51950000  0.05130000  1.0 -0.0698709826
N  N15  1  0.34470000  0.75390000  0.01750000  1.0 -0.1491480724
N  N16  1  0.23250000  0.36610000  0.90530000  1.0 -0.1491480724
F  F1  1  0.41930000  0.43990000  0.80510000  1.0 -0.2493654222
F  F2  1  0.41680000  0.51800000  0.79460000  1.0 -0.2717268174
F  F3  1  0.45652000  0.47548000  0.71012000  1.0 -0.2493654222
F  F4  1  0.36580000  0.57420000  0.71520000  1.0 -0.2717268174
F  F5  1  0.32240000  0.53540000  0.81560000  1.0 -0.2803518207
F  F6  1  0.35570000  0.49570000  0.73810000  1.0 -0.258162874
F  F7  1  0.33570000  0.80510000  0.43990000  1.0 -0.2493654222
F  F8  1  0.27060000  0.79460000  0.51800000  1.0 -0.2717268174
F  F9  1  0.35788000  0.71012000  0.47548000  1.0 -0.2493654222
F  F10  1  0.34480000  0.71520000  0.57420000  1.0 -0.2717268174
F  F11  1  0.32660000  0.81560000  0.53540000  1.0 -0.2803518207
F  F12  1  0.41050000  0.73810000  0.49570000  1.0 -0.258162874
F  F13  1  0.81010000  0.83070000  0.91430000  1.0 -0.2493654222
F  F14  1  0.73200000  0.83320000  0.97940000  1.0 -0.2717268174
F  F15  1  0.77452000  0.79348000  0.89212000  1.0 -0.2493654222
F  F16  1  0.67580000  0.88420000  0.90520000  1.0 -0.2717268174
F  F17  1  0.71460000  0.92760000  0.92340000  1.0 -0.2803518207
F  F18  1  0.75430000  0.89430000  0.83950000  1.0 -0.258162874
F  F19  1  0.44490000  0.91430000  0.83070000  1.0 -0.258162874
F  F20  1  0.45540000  0.97940000  0.83320000  1.0 -0.2717268174
F  F21  1  0.53988000  0.89212000  0.79348000  1.0 -0.2493654222
F  F22  1  0.53480000  0.90520000  0.88420000  1.0 -0.2717268174
F  F23  1  0.43440000  0.92340000  0.92760000  1.0 -0.2803518207
F  F24  1  0.51190000  0.83950000  0.89430000  1.0 -0.258162874
F  F25  1  0.86560000  0.21720000  0.09280000  1.0 -0.2387643458
F  F26  1  0.85040000  0.21880000  0.19540000  1.0 -0.2493654222
F  F27  1  0.91280000  0.25240000  0.09320000  1.0 -0.2493654222
F  F28  1  0.83140000  0.31600000  0.15540000  1.0 -0.307369274
F  F29  1  0.82920000  0.31800000  0.04980000  1.0 -0.307369274
F  F30  1  0.77600000  0.29000000  0.15180000  1.0 -0.2387643458
F  F31  1  0.82440000  0.09280000  0.21720000  1.0 -0.2387643458
F  F32  1  0.73540000  0.19540000  0.21880000  1.0 -0.2493654222
F  F33  1  0.74160000  0.09320000  0.25240000  1.0 -0.2493654222
F  F34  1  0.69720000  0.15540000  0.31600000  1.0 -0.3031332374
F  F35  1  0.80300000  0.04980000  0.31800000  1.0 -0.307369274
F  F36  1  0.78220000  0.15180000  0.29000000  1.0 -0.2387643458
F  F37  1  0.03280000  0.38440000  0.42560000  1.0 -0.2387643458
F  F38  1  0.03120000  0.39960000  0.51460000  1.0 -0.2493654222
F  F39  1  0.99760000  0.33720000  0.50840000  1.0 -0.2493654222
F  F40  1  0.93400000  0.41860000  0.55280000  1.0 -0.3031332374
F  F41  1  0.93200000  0.42080000  0.44700000  1.0 -0.307369274
F  F42  1  0.96000000  0.47400000  0.46780000  1.0 -0.2387643458
F  F43  1  0.15720000  0.42560000  0.38440000  1.0 -0.2387643458
F  F44  1  0.05460000  0.51460000  0.39960000  1.0 -0.2493654222
F  F45  1  0.15680000  0.50840000  0.33720000  1.0 -0.2493654222
F  F46  1  0.09460000  0.55280000  0.41860000  1.0 -0.3031332374
F  F47  1  0.20020000  0.44700000  0.42080000  1.0 -0.307369274
F  F48  1  0.09820000  0.46780000  0.47400000  1.0 -0.2387643458
