# DDEC6 charges by PACMAN v1.1 (https://github.com/mtap-research/PACMAN-charge/)
data_HAKCAZ_ASR_pacman
_symmetry_space_group_name_H-M   'P 1'
_cell_length_a   18.14040000
_cell_length_b   18.14040000
_cell_length_c   33.47390000
_cell_angle_alpha   90.00000000
_cell_angle_beta   90.00000000
_cell_angle_gamma   125.08200000
_symmetry_Int_Tables_number   1
_chemical_formula_structural   Dy4Zn3H72C144(N3O7)4
_chemical_formula_sum   'Dy8 Zn6 H144 C288 N24 O56'
_cell_volume   9014.23083700
_cell_formula_units_Z   2
loop_
 _symmetry_equiv_pos_site_id
 _symmetry_equiv_pos_as_xyz
  1  'x, y, z'
loop_
 _atom_site_type_symbol
 _atom_site_label
 _atom_site_symmetry_multiplicity
 _atom_site_fract_x
 _atom_site_fract_y
 _atom_site_fract_z
 _atom_site_occupancy
 _atom_site_charge
Dy  Dy1  1  0.73308000  0.26692000  0.75000000  1.0 1.8836379465
Dy  Dy2  1  0.26692000  0.73308000  0.75000000  1.0 1.8836379465
Dy  Dy3  1  0.26692000  0.73308000  0.25000000  1.0 1.8836379465
Dy  Dy4  1  0.73308000  0.26692000  0.25000000  1.0 1.8836379465
Dy  Dy5  1  0.50000000  0.00000000  0.71623000  1.0 2.0993149397
Dy  Dy6  1  0.00000000  0.50000000  0.78377000  1.0 2.0993149397
Dy  Dy7  1  0.50000000  0.00000000  0.28377000  1.0 2.0993149397
Dy  Dy8  1  0.00000000  0.50000000  0.21623000  1.0 2.0993149397
Zn  Zn1  1  0.41504000  0.35510000  0.00000000  1.0 0.6662683901
Zn  Zn2  1  0.58496000  0.64490000  0.00000000  1.0 0.6662683901
Zn  Zn3  1  0.35510000  0.41504000  0.50000000  1.0 0.6662683901
Zn  Zn4  1  0.64490000  0.58496000  0.50000000  1.0 0.6662683901
Zn  Zn5  1  0.00000000  0.00000000  0.50000000  1.0 0.638986927
Zn  Zn6  1  0.00000000  0.00000000  0.00000000  1.0 0.638986927
H  H1  1  0.54390000  0.17930000  0.96340000  1.0 0.1269120146
H  H2  1  0.45610000  0.82070000  0.96340000  1.0 0.1269120146
H  H3  1  0.17930000  0.54390000  0.53660000  1.0 0.1269120146
H  H4  1  0.82070000  0.45610000  0.53660000  1.0 0.1269120146
H  H5  1  0.45610000  0.82070000  0.03660000  1.0 0.1269120146
H  H6  1  0.54390000  0.17930000  0.03660000  1.0 0.1269120146
H  H7  1  0.82070000  0.45610000  0.46340000  1.0 0.1269120146
H  H8  1  0.17930000  0.54390000  0.46340000  1.0 0.1269120146
H  H9  1  0.40470000  0.27510000  0.85340000  1.0 0.1199513492
H  H10  1  0.59530000  0.72490000  0.85340000  1.0 0.1199513492
H  H11  1  0.27510000  0.40470000  0.64660000  1.0 0.1199513492
H  H12  1  0.72490000  0.59530000  0.64660000  1.0 0.1199513492
H  H13  1  0.59530000  0.72490000  0.14660000  1.0 0.1199513492
H  H14  1  0.40470000  0.27510000  0.14660000  1.0 0.1199513492
H  H15  1  0.72490000  0.59530000  0.35340000  1.0 0.1199513492
H  H16  1  0.27510000  0.40470000  0.35340000  1.0 0.1199513492
H  H17  1  0.34670000  0.36710000  0.85430000  1.0 0.1269120146
H  H18  1  0.65330000  0.63290000  0.85430000  1.0 0.1269120146
H  H19  1  0.36710000  0.34670000  0.64570000  1.0 0.1269120146
H  H20  1  0.63290000  0.65330000  0.64570000  1.0 0.1269120146
H  H21  1  0.65330000  0.63290000  0.14570000  1.0 0.1269120146
H  H22  1  0.34670000  0.36710000  0.14570000  1.0 0.1269120146
H  H23  1  0.63290000  0.65330000  0.35430000  1.0 0.1269120146
H  H24  1  0.36710000  0.34670000  0.35430000  1.0 0.1269120146
H  H25  1  0.32220000  0.56260000  0.96460000  1.0 0.1269120146
H  H26  1  0.67780000  0.43740000  0.96460000  1.0 0.1269120146
H  H27  1  0.56260000  0.32220000  0.53540000  1.0 0.1269120146
H  H28  1  0.43740000  0.67780000  0.53540000  1.0 0.1269120146
H  H29  1  0.67780000  0.43740000  0.03540000  1.0 0.1269120146
H  H30  1  0.32220000  0.56260000  0.03540000  1.0 0.1269120146
H  H31  1  0.43740000  0.67780000  0.46460000  1.0 0.1269120146
H  H32  1  0.56260000  0.32220000  0.46460000  1.0 0.1269120146
H  H33  1  0.35340000  0.11740000  0.88330000  1.0 0.1199513492
H  H34  1  0.64660000  0.88260000  0.88330000  1.0 0.1199513492
H  H35  1  0.11740000  0.35340000  0.61670000  1.0 0.1199513492
H  H36  1  0.88260000  0.64660000  0.61670000  1.0 0.1199513492
H  H37  1  0.64660000  0.88260000  0.11670000  1.0 0.1199513492
H  H38  1  0.35340000  0.11740000  0.11670000  1.0 0.1199513492
H  H39  1  0.88260000  0.64660000  0.38330000  1.0 0.1199513492
H  H40  1  0.11740000  0.35340000  0.38330000  1.0 0.1199513492
H  H41  1  0.37720000  0.05480000  0.82890000  1.0 0.1269120146
H  H42  1  0.62280000  0.94520000  0.82890000  1.0 0.1269120146
H  H43  1  0.05480000  0.37720000  0.67110000  1.0 0.1269120146
H  H44  1  0.94520000  0.62280000  0.67110000  1.0 0.1269120146
H  H45  1  0.62280000  0.94520000  0.17110000  1.0 0.1269120146
H  H46  1  0.37720000  0.05480000  0.17110000  1.0 0.1269120146
H  H47  1  0.94520000  0.62280000  0.32890000  1.0 0.1269120146
H  H48  1  0.05480000  0.37720000  0.32890000  1.0 0.1269120146
H  H49  1  0.64140000  0.23140000  0.84100000  1.0 0.1199513492
H  H50  1  0.35860000  0.76860000  0.84100000  1.0 0.1199513492
H  H51  1  0.23140000  0.64140000  0.65900000  1.0 0.1199513492
H  H52  1  0.76860000  0.35860000  0.65900000  1.0 0.1199513492
H  H53  1  0.35860000  0.76860000  0.15900000  1.0 0.1199513492
H  H54  1  0.64140000  0.23140000  0.15900000  1.0 0.1199513492
H  H55  1  0.76860000  0.35860000  0.34100000  1.0 0.1199513492
H  H56  1  0.23140000  0.64140000  0.34100000  1.0 0.1199513492
H  H57  1  0.61910000  0.28730000  0.89890000  1.0 0.1199513492
H  H58  1  0.38090000  0.71270000  0.89890000  1.0 0.1199513492
H  H59  1  0.28730000  0.61910000  0.60110000  1.0 0.1199513492
H  H60  1  0.71270000  0.38090000  0.60110000  1.0 0.1199513492
H  H61  1  0.38090000  0.71270000  0.10110000  1.0 0.1199513492
H  H62  1  0.61910000  0.28730000  0.10110000  1.0 0.1199513492
H  H63  1  0.71270000  0.38090000  0.39890000  1.0 0.1199513492
H  H64  1  0.28730000  0.61910000  0.39890000  1.0 0.1199513492
H  H65  1  0.43100000  0.54840000  0.86380000  1.0 0.1199513492
H  H66  1  0.56900000  0.45160000  0.86380000  1.0 0.1199513492
H  H67  1  0.54840000  0.43100000  0.63620000  1.0 0.1199513492
H  H68  1  0.45160000  0.56900000  0.63620000  1.0 0.1199513492
H  H69  1  0.56900000  0.45160000  0.13620000  1.0 0.1199513492
H  H70  1  0.43100000  0.54840000  0.13620000  1.0 0.1199513492
H  H71  1  0.45160000  0.56900000  0.36380000  1.0 0.1199513492
H  H72  1  0.54840000  0.43100000  0.36380000  1.0 0.1199513492
H  H73  1  0.37370000  0.60110000  0.81770000  1.0 0.1199513492
H  H74  1  0.62630000  0.39890000  0.81770000  1.0 0.1199513492
H  H75  1  0.60110000  0.37370000  0.68230000  1.0 0.1199513492
H  H76  1  0.39890000  0.62630000  0.68230000  1.0 0.1199513492
H  H77  1  0.62630000  0.39890000  0.18230000  1.0 0.1199513492
H  H78  1  0.37370000  0.60110000  0.18230000  1.0 0.1199513492
H  H79  1  0.39890000  0.62630000  0.31770000  1.0 0.1199513492
H  H80  1  0.60110000  0.37370000  0.31770000  1.0 0.1199513492
H  H81  1  0.13540000  0.45800000  0.87280000  1.0 0.1199513492
H  H82  1  0.86460000  0.54200000  0.87280000  1.0 0.1199513492
H  H83  1  0.45800000  0.13540000  0.62720000  1.0 0.1199513492
H  H84  1  0.54200000  0.86460000  0.62720000  1.0 0.1199513492
H  H85  1  0.86460000  0.54200000  0.12720000  1.0 0.1199513492
H  H86  1  0.13540000  0.45800000  0.12720000  1.0 0.1199513492
H  H87  1  0.54200000  0.86460000  0.37280000  1.0 0.1199513492
H  H88  1  0.45800000  0.13540000  0.37280000  1.0 0.1199513492
H  H89  1  0.19310000  0.40710000  0.91910000  1.0 0.1199513492
H  H90  1  0.80690000  0.59290000  0.91910000  1.0 0.1199513492
H  H91  1  0.40710000  0.19310000  0.58090000  1.0 0.1199513492
H  H92  1  0.59290000  0.80690000  0.58090000  1.0 0.1199513492
H  H93  1  0.80690000  0.59290000  0.08090000  1.0 0.1199513492
H  H94  1  0.19310000  0.40710000  0.08090000  1.0 0.1199513492
H  H95  1  0.59290000  0.80690000  0.41910000  1.0 0.1199513492
H  H96  1  0.40710000  0.19310000  0.41910000  1.0 0.1199513492
H  H97  1  0.79720000  0.09840000  0.53680000  1.0 0.1269120146
H  H98  1  0.20280000  0.90160000  0.53680000  1.0 0.1269120146
H  H99  1  0.09840000  0.79720000  0.96320000  1.0 0.1269120146
H  H100  1  0.90160000  0.20280000  0.96320000  1.0 0.1269120146
H  H101  1  0.20280000  0.90160000  0.46320000  1.0 0.1269120146
H  H102  1  0.79720000  0.09840000  0.46320000  1.0 0.1269120146
H  H103  1  0.90160000  0.20280000  0.03680000  1.0 0.1269120146
H  H104  1  0.09840000  0.79720000  0.03680000  1.0 0.1269120146
H  H105  1  0.94660000  0.02000000  0.64740000  1.0 0.1269120146
H  H106  1  0.05340000  0.98000000  0.64740000  1.0 0.1269120146
H  H107  1  0.02000000  0.94660000  0.85260000  1.0 0.1269120146
H  H108  1  0.98000000  0.05340000  0.85260000  1.0 0.1269120146
H  H109  1  0.05340000  0.98000000  0.35260000  1.0 0.1269120146
H  H110  1  0.94660000  0.02000000  0.35260000  1.0 0.1269120146
H  H111  1  0.98000000  0.05340000  0.14740000  1.0 0.1269120146
H  H112  1  0.02000000  0.94660000  0.14740000  1.0 0.1269120146
H  H113  1  0.86510000  0.23530000  0.64680000  1.0 0.1269120146
H  H114  1  0.13490000  0.76470000  0.64680000  1.0 0.1269120146
H  H115  1  0.23530000  0.86510000  0.85320000  1.0 0.1269120146
H  H116  1  0.76470000  0.13490000  0.85320000  1.0 0.1269120146
H  H117  1  0.13490000  0.76470000  0.35320000  1.0 0.1269120146
H  H118  1  0.86510000  0.23530000  0.35320000  1.0 0.1269120146
H  H119  1  0.76470000  0.13490000  0.14680000  1.0 0.1269120146
H  H120  1  0.23530000  0.86510000  0.14680000  1.0 0.1269120146
H  H121  1  0.93680000  0.20900000  0.59700000  1.0 0.1199513492
H  H122  1  0.06320000  0.79100000  0.59700000  1.0 0.1199513492
H  H123  1  0.20900000  0.93680000  0.90300000  1.0 0.1199513492
H  H124  1  0.79100000  0.06320000  0.90300000  1.0 0.1199513492
H  H125  1  0.06320000  0.79100000  0.40300000  1.0 0.1199513492
H  H126  1  0.93680000  0.20900000  0.40300000  1.0 0.1199513492
H  H127  1  0.79100000  0.06320000  0.09700000  1.0 0.1199513492
H  H128  1  0.20900000  0.93680000  0.09700000  1.0 0.1199513492
H  H129  1  0.68450000  0.97810000  0.66260000  1.0 0.1269120146
H  H130  1  0.31550000  0.02190000  0.66260000  1.0 0.1269120146
H  H131  1  0.97810000  0.68450000  0.83740000  1.0 0.1269120146
H  H132  1  0.02190000  0.31550000  0.83740000  1.0 0.1269120146
H  H133  1  0.31550000  0.02190000  0.33740000  1.0 0.1269120146
H  H134  1  0.68450000  0.97810000  0.33740000  1.0 0.1269120146
H  H135  1  0.02190000  0.31550000  0.16260000  1.0 0.1269120146
H  H136  1  0.97810000  0.68450000  0.16260000  1.0 0.1269120146
H  H137  1  0.76200000  0.94620000  0.61850000  1.0 0.1199513492
H  H138  1  0.23800000  0.05380000  0.61850000  1.0 0.1199513492
H  H139  1  0.94620000  0.76200000  0.88150000  1.0 0.1199513492
H  H140  1  0.05380000  0.23800000  0.88150000  1.0 0.1199513492
H  H141  1  0.23800000  0.05380000  0.38150000  1.0 0.1199513492
H  H142  1  0.76200000  0.94620000  0.38150000  1.0 0.1199513492
H  H143  1  0.05380000  0.23800000  0.11850000  1.0 0.1199513492
H  H144  1  0.94620000  0.76200000  0.11850000  1.0 0.1199513492
C  C1  1  0.52426000  0.20574000  0.98005000  1.0 -0.1907023108
C  C2  1  0.47574000  0.79426000  0.98005000  1.0 -0.1907023108
C  C3  1  0.20574000  0.52426000  0.51995000  1.0 -0.1907023108
C  C4  1  0.79426000  0.47574000  0.51995000  1.0 -0.1907023108
C  C5  1  0.47574000  0.79426000  0.01995000  1.0 -0.1907023108
C  C6  1  0.52426000  0.20574000  0.01995000  1.0 -0.1907023108
C  C7  1  0.79426000  0.47574000  0.48005000  1.0 -0.1907023108
C  C8  1  0.20574000  0.52426000  0.48005000  1.0 -0.1907023108
C  C9  1  0.48831000  0.25389000  0.96727000  1.0 0.1764791799
C  C10  1  0.51169000  0.74611000  0.96727000  1.0 0.1764791799
C  C11  1  0.25389000  0.48831000  0.53273000  1.0 0.1764791799
C  C12  1  0.74611000  0.51169000  0.53273000  1.0 0.1764791799
C  C13  1  0.51169000  0.74611000  0.03273000  1.0 0.1764791799
C  C14  1  0.48831000  0.25389000  0.03273000  1.0 0.1764791799
C  C15  1  0.74611000  0.51169000  0.46727000  1.0 0.1764791799
C  C16  1  0.25389000  0.48831000  0.46727000  1.0 0.1764791799
C  C17  1  0.46586000  0.25834000  0.92788000  1.0 -0.0842576083
C  C18  1  0.53414000  0.74166000  0.92788000  1.0 -0.0842576083
C  C19  1  0.25834000  0.46586000  0.57212000  1.0 -0.0842576083
C  C20  1  0.74166000  0.53414000  0.57212000  1.0 -0.0842576083
C  C21  1  0.53414000  0.74166000  0.07212000  1.0 -0.0842576083
C  C22  1  0.46586000  0.25834000  0.07212000  1.0 -0.0842576083
C  C23  1  0.74166000  0.53414000  0.42788000  1.0 -0.0842576083
C  C24  1  0.25834000  0.46586000  0.42788000  1.0 -0.0842576083
C  C25  1  0.42652000  0.30028000  0.91644000  1.0 0.1681665578
C  C26  1  0.57348000  0.69972000  0.91644000  1.0 0.1681665578
C  C27  1  0.30028000  0.42652000  0.58356000  1.0 0.1681665578
C  C28  1  0.69972000  0.57348000  0.58356000  1.0 0.1681665578
C  C29  1  0.57348000  0.69972000  0.08356000  1.0 0.1681665578
C  C30  1  0.42652000  0.30028000  0.08356000  1.0 0.1681665578
C  C31  1  0.69972000  0.57348000  0.41644000  1.0 0.1681665578
C  C32  1  0.30028000  0.42652000  0.41644000  1.0 0.1681665578
C  C33  1  0.40000000  0.30280000  0.87570000  1.0 -0.1816091785
C  C34  1  0.60000000  0.69720000  0.87570000  1.0 -0.1816091785
C  C35  1  0.30280000  0.40000000  0.62430000  1.0 -0.1816091785
C  C36  1  0.69720000  0.60000000  0.62430000  1.0 -0.1816091785
C  C37  1  0.60000000  0.69720000  0.12430000  1.0 -0.1816091785
C  C38  1  0.40000000  0.30280000  0.12430000  1.0 -0.1816091785
C  C39  1  0.69720000  0.60000000  0.37570000  1.0 -0.1816091785
C  C40  1  0.30280000  0.40000000  0.37570000  1.0 -0.1816091785
C  C41  1  0.36910000  0.35450000  0.87620000  1.0 -0.1907023108
C  C42  1  0.63090000  0.64550000  0.87620000  1.0 -0.1907023108
C  C43  1  0.35450000  0.36910000  0.62380000  1.0 -0.1907023108
C  C44  1  0.64550000  0.63090000  0.62380000  1.0 -0.1907023108
C  C45  1  0.63090000  0.64550000  0.12380000  1.0 -0.1907023108
C  C46  1  0.36910000  0.35450000  0.12380000  1.0 -0.1907023108
C  C47  1  0.64550000  0.63090000  0.37620000  1.0 -0.1907023108
C  C48  1  0.35450000  0.36910000  0.37620000  1.0 -0.1907023108
C  C49  1  0.37684000  0.38616000  0.91640000  1.0 0.1867420566
C  C50  1  0.62316000  0.61384000  0.91640000  1.0 0.1867420566
C  C51  1  0.38616000  0.37684000  0.58360000  1.0 0.1867420566
C  C52  1  0.61384000  0.62316000  0.58360000  1.0 0.1867420566
C  C53  1  0.62316000  0.61384000  0.08360000  1.0 0.1867420566
C  C54  1  0.37684000  0.38616000  0.08360000  1.0 0.1867420566
C  C55  1  0.61384000  0.62316000  0.41640000  1.0 0.1867420566
C  C56  1  0.38616000  0.37684000  0.41640000  1.0 0.1867420566
C  C57  1  0.35240000  0.44220000  0.92830000  1.0 -0.0842576083
C  C58  1  0.64760000  0.55780000  0.92830000  1.0 -0.0842576083
C  C59  1  0.44220000  0.35240000  0.57170000  1.0 -0.0842576083
C  C60  1  0.55780000  0.64760000  0.57170000  1.0 -0.0842576083
C  C61  1  0.64760000  0.55780000  0.07170000  1.0 -0.0842576083
C  C62  1  0.35240000  0.44220000  0.07170000  1.0 -0.0842576083
C  C63  1  0.55780000  0.64760000  0.42830000  1.0 -0.0842576083
C  C64  1  0.44220000  0.35240000  0.42830000  1.0 -0.0842576083
C  C65  1  0.35200000  0.46640000  0.96790000  1.0 0.1681665578
C  C66  1  0.64800000  0.53360000  0.96790000  1.0 0.1681665578
C  C67  1  0.46640000  0.35200000  0.53210000  1.0 0.1681665578
C  C68  1  0.53360000  0.64800000  0.53210000  1.0 0.1681665578
C  C69  1  0.64800000  0.53360000  0.03210000  1.0 0.1681665578
C  C70  1  0.35200000  0.46640000  0.03210000  1.0 0.1681665578
C  C71  1  0.53360000  0.64800000  0.46790000  1.0 0.1681665578
C  C72  1  0.46640000  0.35200000  0.46790000  1.0 0.1681665578
C  C73  1  0.33111000  0.52709000  0.98110000  1.0 -0.1717660609
C  C74  1  0.66889000  0.47291000  0.98110000  1.0 -0.1717660609
C  C75  1  0.52709000  0.33111000  0.51890000  1.0 -0.1717660609
C  C76  1  0.47291000  0.66889000  0.51890000  1.0 -0.1717660609
C  C77  1  0.66889000  0.47291000  0.01890000  1.0 -0.1717660609
C  C78  1  0.33111000  0.52709000  0.01890000  1.0 -0.1717660609
C  C79  1  0.47291000  0.66889000  0.48110000  1.0 -0.1717660609
C  C80  1  0.52709000  0.33111000  0.48110000  1.0 -0.1717660609
C  C81  1  0.48220000  0.21060000  0.89578000  1.0 0.0897945156
C  C82  1  0.51780000  0.78940000  0.89578000  1.0 0.0897945156
C  C83  1  0.21060000  0.48220000  0.60422000  1.0 0.0897945156
C  C84  1  0.78940000  0.51780000  0.60422000  1.0 0.0897945156
C  C85  1  0.51780000  0.78940000  0.10422000  1.0 0.0897945156
C  C86  1  0.48220000  0.21060000  0.10422000  1.0 0.0897945156
C  C87  1  0.78940000  0.51780000  0.39578000  1.0 0.0897945156
C  C88  1  0.21060000  0.48220000  0.39578000  1.0 0.0897945156
C  C89  1  0.41170000  0.13970000  0.87550000  1.0 -0.1493115048
C  C90  1  0.58830000  0.86030000  0.87550000  1.0 -0.1493115048
C  C91  1  0.13970000  0.41170000  0.62450000  1.0 -0.1493115048
C  C92  1  0.86030000  0.58830000  0.62450000  1.0 -0.1493115048
C  C93  1  0.58830000  0.86030000  0.12450000  1.0 -0.1493115048
C  C94  1  0.41170000  0.13970000  0.12450000  1.0 -0.1493115048
C  C95  1  0.86030000  0.58830000  0.37550000  1.0 -0.1493115048
C  C96  1  0.13970000  0.41170000  0.37550000  1.0 -0.1493115048
C  C97  1  0.42550000  0.10450000  0.84190000  1.0 -0.0896211942
C  C98  1  0.57450000  0.89550000  0.84190000  1.0 -0.0896211942
C  C99  1  0.10450000  0.42550000  0.65810000  1.0 -0.0896211942
C  C100  1  0.89550000  0.57450000  0.65810000  1.0 -0.0896211942
C  C101  1  0.57450000  0.89550000  0.15810000  1.0 -0.0896211942
C  C102  1  0.42550000  0.10450000  0.15810000  1.0 -0.0896211942
C  C103  1  0.89550000  0.57450000  0.34190000  1.0 -0.0896211942
C  C104  1  0.10450000  0.42550000  0.34190000  1.0 -0.0896211942
C  C105  1  0.51180000  0.14040000  0.82890000  1.0 -0.030997572
C  C106  1  0.48820000  0.85960000  0.82890000  1.0 -0.030997572
C  C107  1  0.14040000  0.51180000  0.67110000  1.0 -0.030997572
C  C108  1  0.85960000  0.48820000  0.67110000  1.0 -0.030997572
C  C109  1  0.48820000  0.85960000  0.17110000  1.0 -0.030997572
C  C110  1  0.51180000  0.14040000  0.17110000  1.0 -0.030997572
C  C111  1  0.85960000  0.48820000  0.32890000  1.0 -0.030997572
C  C112  1  0.14040000  0.51180000  0.32890000  1.0 -0.030997572
C  C113  1  0.58340000  0.20800000  0.84993000  1.0 -0.0896211942
C  C114  1  0.41660000  0.79200000  0.84993000  1.0 -0.0896211942
C  C115  1  0.20800000  0.58340000  0.65007000  1.0 -0.0896211942
C  C116  1  0.79200000  0.41660000  0.65007000  1.0 -0.0896211942
C  C117  1  0.41660000  0.79200000  0.15007000  1.0 -0.0896211942
C  C118  1  0.58340000  0.20800000  0.15007000  1.0 -0.0896211942
C  C119  1  0.79200000  0.41660000  0.34993000  1.0 -0.0896211942
C  C120  1  0.20800000  0.58340000  0.34993000  1.0 -0.0896211942
C  C121  1  0.57017000  0.24323000  0.88394000  1.0 -0.1493115048
C  C122  1  0.42983000  0.75677000  0.88394000  1.0 -0.1493115048
C  C123  1  0.24323000  0.57017000  0.61606000  1.0 -0.1493115048
C  C124  1  0.75677000  0.42983000  0.61606000  1.0 -0.1493115048
C  C125  1  0.42983000  0.75677000  0.11606000  1.0 -0.1493115048
C  C126  1  0.57017000  0.24323000  0.11606000  1.0 -0.1493115048
C  C127  1  0.75677000  0.42983000  0.38394000  1.0 -0.1493115048
C  C128  1  0.24323000  0.57017000  0.38394000  1.0 -0.1493115048
C  C129  1  0.52630000  0.11130000  0.78990000  1.0 0.638986927
C  C130  1  0.47370000  0.88870000  0.78990000  1.0 0.638986927
C  C131  1  0.11130000  0.52630000  0.71010000  1.0 0.638986927
C  C132  1  0.88870000  0.47370000  0.71010000  1.0 0.638986927
C  C133  1  0.47370000  0.88870000  0.21010000  1.0 0.638986927
C  C134  1  0.52630000  0.11130000  0.21010000  1.0 0.638986927
C  C135  1  0.88870000  0.47370000  0.28990000  1.0 0.638986927
C  C136  1  0.11130000  0.52630000  0.28990000  1.0 0.638986927
C  C137  1  0.31730000  0.47450000  0.89590000  1.0 0.0897945156
C  C138  1  0.68270000  0.52550000  0.89590000  1.0 0.0897945156
C  C139  1  0.47450000  0.31730000  0.60410000  1.0 0.0897945156
C  C140  1  0.52550000  0.68270000  0.60410000  1.0 0.0897945156
C  C141  1  0.68270000  0.52550000  0.10410000  1.0 0.0897945156
C  C142  1  0.31730000  0.47450000  0.10410000  1.0 0.0897945156
C  C143  1  0.52550000  0.68270000  0.39590000  1.0 0.0897945156
C  C144  1  0.47450000  0.31730000  0.39590000  1.0 0.0897945156
C  C145  1  0.37200000  0.53060000  0.86570000  1.0 -0.1493115048
C  C146  1  0.62800000  0.46940000  0.86570000  1.0 -0.1493115048
C  C147  1  0.53060000  0.37200000  0.63430000  1.0 -0.1493115048
C  C148  1  0.46940000  0.62800000  0.63430000  1.0 -0.1493115048
C  C149  1  0.62800000  0.46940000  0.13430000  1.0 -0.1493115048
C  C150  1  0.37200000  0.53060000  0.13430000  1.0 -0.1493115048
C  C151  1  0.46940000  0.62800000  0.36570000  1.0 -0.1493115048
C  C152  1  0.53060000  0.37200000  0.36570000  1.0 -0.1493115048
C  C153  1  0.33720000  0.56140000  0.83780000  1.0 -0.0896211942
C  C154  1  0.66280000  0.43860000  0.83780000  1.0 -0.0896211942
C  C155  1  0.56140000  0.33720000  0.66220000  1.0 -0.0896211942
C  C156  1  0.43860000  0.66280000  0.66220000  1.0 -0.0896211942
C  C157  1  0.66280000  0.43860000  0.16220000  1.0 -0.0896211942
C  C158  1  0.33720000  0.56140000  0.16220000  1.0 -0.0896211942
C  C159  1  0.43860000  0.66280000  0.33780000  1.0 -0.0896211942
C  C160  1  0.56140000  0.33720000  0.33780000  1.0 -0.0896211942
C  C161  1  0.25160000  0.53320000  0.83970000  1.0 -0.0226724105
C  C162  1  0.74840000  0.46680000  0.83970000  1.0 -0.0226724105
C  C163  1  0.53320000  0.25160000  0.66030000  1.0 -0.0226724105
C  C164  1  0.46680000  0.74840000  0.66030000  1.0 -0.0226724105
C  C165  1  0.74840000  0.46680000  0.16030000  1.0 -0.0226724105
C  C166  1  0.25160000  0.53320000  0.16030000  1.0 -0.0226724105
C  C167  1  0.46680000  0.74840000  0.33970000  1.0 -0.0226724105
C  C168  1  0.53320000  0.25160000  0.33970000  1.0 -0.0226724105
C  C169  1  0.19410000  0.47450000  0.87100000  1.0 -0.1062829229
C  C170  1  0.80590000  0.52550000  0.87100000  1.0 -0.1062829229
C  C171  1  0.47450000  0.19410000  0.62900000  1.0 -0.1062829229
C  C172  1  0.52550000  0.80590000  0.62900000  1.0 -0.1062829229
C  C173  1  0.80590000  0.52550000  0.12900000  1.0 -0.1062829229
C  C174  1  0.19410000  0.47450000  0.12900000  1.0 -0.1062829229
C  C175  1  0.52550000  0.80590000  0.37100000  1.0 -0.1062829229
C  C176  1  0.47450000  0.19410000  0.37100000  1.0 -0.1062829229
C  C177  1  0.22920000  0.44660000  0.89890000  1.0 -0.1493115048
C  C178  1  0.77080000  0.55340000  0.89890000  1.0 -0.1493115048
C  C179  1  0.44660000  0.22920000  0.60110000  1.0 -0.1493115048
C  C180  1  0.55340000  0.77080000  0.60110000  1.0 -0.1493115048
C  C181  1  0.77080000  0.55340000  0.10110000  1.0 -0.1493115048
C  C182  1  0.22920000  0.44660000  0.10110000  1.0 -0.1493115048
C  C183  1  0.55340000  0.77080000  0.39890000  1.0 -0.1493115048
C  C184  1  0.44660000  0.22920000  0.39890000  1.0 -0.1493115048
C  C185  1  0.21120000  0.56400000  0.80900000  1.0 0.6558857527
C  C186  1  0.78880000  0.43600000  0.80900000  1.0 0.6558857527
C  C187  1  0.56400000  0.21120000  0.69100000  1.0 0.6558857527
C  C188  1  0.43600000  0.78880000  0.69100000  1.0 0.6558857527
C  C189  1  0.78880000  0.43600000  0.19100000  1.0 0.6558857527
C  C190  1  0.21120000  0.56400000  0.19100000  1.0 0.6558857527
C  C191  1  0.43600000  0.78880000  0.30900000  1.0 0.6558857527
C  C192  1  0.56400000  0.21120000  0.30900000  1.0 0.6558857527
C  C193  1  0.82970000  0.08450000  0.51980000  1.0 -0.2002611938
C  C194  1  0.17030000  0.91550000  0.51980000  1.0 -0.2002611938
C  C195  1  0.08450000  0.82970000  0.98020000  1.0 -0.2002611938
C  C196  1  0.91550000  0.17030000  0.98020000  1.0 -0.2002611938
C  C197  1  0.17030000  0.91550000  0.48020000  1.0 -0.2002611938
C  C198  1  0.82970000  0.08450000  0.48020000  1.0 -0.2002611938
C  C199  1  0.91550000  0.17030000  0.01980000  1.0 -0.2002611938
C  C200  1  0.08450000  0.82970000  0.01980000  1.0 -0.2002611938
C  C201  1  0.88620000  0.06060000  0.53170000  1.0 0.1681665578
C  C202  1  0.11380000  0.93940000  0.53170000  1.0 0.1681665578
C  C203  1  0.06060000  0.88620000  0.96830000  1.0 0.1681665578
C  C204  1  0.93940000  0.11380000  0.96830000  1.0 0.1681665578
C  C205  1  0.11380000  0.93940000  0.46830000  1.0 0.1681665578
C  C206  1  0.88620000  0.06060000  0.46830000  1.0 0.1681665578
C  C207  1  0.93940000  0.11380000  0.03170000  1.0 0.1681665578
C  C208  1  0.06060000  0.88620000  0.03170000  1.0 0.1681665578
C  C209  1  0.90390000  0.05150000  0.57260000  1.0 -0.0603984096
C  C210  1  0.09610000  0.94850000  0.57260000  1.0 -0.0603984096
C  C211  1  0.05150000  0.90390000  0.92740000  1.0 -0.0603984096
C  C212  1  0.94850000  0.09610000  0.92740000  1.0 -0.0603984096
C  C213  1  0.09610000  0.94850000  0.42740000  1.0 -0.0603984096
C  C214  1  0.90390000  0.05150000  0.42740000  1.0 -0.0603984096
C  C215  1  0.94850000  0.09610000  0.07260000  1.0 -0.0603984096
C  C216  1  0.05150000  0.90390000  0.07260000  1.0 -0.0603984096
C  C217  1  0.95490000  0.02350000  0.58480000  1.0 0.1681665578
C  C218  1  0.04510000  0.97650000  0.58480000  1.0 0.1681665578
C  C219  1  0.02350000  0.95490000  0.91520000  1.0 0.1681665578
C  C220  1  0.97650000  0.04510000  0.91520000  1.0 0.1681665578
C  C221  1  0.04510000  0.97650000  0.41520000  1.0 0.1681665578
C  C222  1  0.95490000  0.02350000  0.41520000  1.0 0.1681665578
C  C223  1  0.97650000  0.04510000  0.08480000  1.0 0.1681665578
C  C224  1  0.02350000  0.95490000  0.08480000  1.0 0.1681665578
C  C225  1  0.97180000  0.01180000  0.62510000  1.0 -0.1816091785
C  C226  1  0.02820000  0.98820000  0.62510000  1.0 -0.1816091785
C  C227  1  0.01180000  0.97180000  0.87490000  1.0 -0.1816091785
C  C228  1  0.98820000  0.02820000  0.87490000  1.0 -0.1816091785
C  C229  1  0.02820000  0.98820000  0.37490000  1.0 -0.1816091785
C  C230  1  0.97180000  0.01180000  0.37490000  1.0 -0.1816091785
C  C231  1  0.98820000  0.02820000  0.12510000  1.0 -0.1816091785
C  C232  1  0.01180000  0.97180000  0.12510000  1.0 -0.1816091785
C  C233  1  0.85850000  0.07250000  0.60320000  1.0 0.0844360948
C  C234  1  0.14150000  0.92750000  0.60320000  1.0 0.0844360948
C  C235  1  0.07250000  0.85850000  0.89680000  1.0 0.0844360948
C  C236  1  0.92750000  0.14150000  0.89680000  1.0 0.0844360948
C  C237  1  0.14150000  0.92750000  0.39680000  1.0 0.0844360948
C  C238  1  0.85850000  0.07250000  0.39680000  1.0 0.0844360948
C  C239  1  0.92750000  0.14150000  0.10320000  1.0 0.0844360948
C  C240  1  0.07250000  0.85850000  0.10320000  1.0 0.0844360948
C  C241  1  0.84250000  0.17630000  0.64000000  1.0 -0.1019041869
C  C242  1  0.15750000  0.82370000  0.64000000  1.0 -0.1019041869
C  C243  1  0.17630000  0.84250000  0.86000000  1.0 -0.1019041869
C  C244  1  0.82370000  0.15750000  0.86000000  1.0 -0.1019041869
C  C245  1  0.15750000  0.82370000  0.36000000  1.0 -0.1019041869
C  C246  1  0.84250000  0.17630000  0.36000000  1.0 -0.1019041869
C  C247  1  0.82370000  0.15750000  0.14000000  1.0 -0.1019041869
C  C248  1  0.17630000  0.84250000  0.14000000  1.0 -0.1019041869
C  C249  1  0.88950000  0.16150000  0.61140000  1.0 -0.155565131
C  C250  1  0.11050000  0.83850000  0.61140000  1.0 -0.155565131
C  C251  1  0.16150000  0.88950000  0.88860000  1.0 -0.155565131
C  C252  1  0.83850000  0.11050000  0.88860000  1.0 -0.155565131
C  C253  1  0.11050000  0.83850000  0.38860000  1.0 -0.155565131
C  C254  1  0.88950000  0.16150000  0.38860000  1.0 -0.155565131
C  C255  1  0.83850000  0.11050000  0.11140000  1.0 -0.155565131
C  C256  1  0.16150000  0.88950000  0.11140000  1.0 -0.155565131
C  C257  1  0.76660000  0.10880000  0.65790000  1.0 -0.0226724105
C  C258  1  0.23340000  0.89120000  0.65790000  1.0 -0.0226724105
C  C259  1  0.10880000  0.76660000  0.84210000  1.0 -0.0226724105
C  C260  1  0.89120000  0.23340000  0.84210000  1.0 -0.0226724105
C  C261  1  0.23340000  0.89120000  0.34210000  1.0 -0.0226724105
C  C262  1  0.76660000  0.10880000  0.34210000  1.0 -0.0226724105
C  C263  1  0.89120000  0.23340000  0.15790000  1.0 -0.0226724105
C  C264  1  0.10880000  0.76660000  0.15790000  1.0 -0.0226724105
C  C265  1  0.73620000  0.02460000  0.64990000  1.0 -0.0896211942
C  C266  1  0.26380000  0.97540000  0.64990000  1.0 -0.0896211942
C  C267  1  0.02460000  0.73620000  0.85010000  1.0 -0.0896211942
C  C268  1  0.97540000  0.26380000  0.85010000  1.0 -0.0896211942
C  C269  1  0.26380000  0.97540000  0.35010000  1.0 -0.0896211942
C  C270  1  0.73620000  0.02460000  0.35010000  1.0 -0.0896211942
C  C271  1  0.97540000  0.26380000  0.14990000  1.0 -0.0896211942
C  C272  1  0.02460000  0.73620000  0.14990000  1.0 -0.0896211942
C  C273  1  0.78220000  0.00560000  0.62270000  1.0 -0.1493115048
C  C274  1  0.21780000  0.99440000  0.62270000  1.0 -0.1493115048
C  C275  1  0.00560000  0.78220000  0.87730000  1.0 -0.1493115048
C  C276  1  0.99440000  0.21780000  0.87730000  1.0 -0.1493115048
C  C277  1  0.21780000  0.99440000  0.37730000  1.0 -0.1493115048
C  C278  1  0.78220000  0.00560000  0.37730000  1.0 -0.1493115048
C  C279  1  0.99440000  0.21780000  0.12270000  1.0 -0.1493115048
C  C280  1  0.00560000  0.78220000  0.12270000  1.0 -0.1493115048
C  C281  1  0.71590000  0.12930000  0.68680000  1.0 0.5382950422
C  C282  1  0.28410000  0.87070000  0.68680000  1.0 0.5382950422
C  C283  1  0.12930000  0.71590000  0.81320000  1.0 0.5382950422
C  C284  1  0.87070000  0.28410000  0.81320000  1.0 0.5382950422
C  C285  1  0.28410000  0.87070000  0.31320000  1.0 0.5382950422
C  C286  1  0.71590000  0.12930000  0.31320000  1.0 0.5382950422
C  C287  1  0.87070000  0.28410000  0.18680000  1.0 0.5382950422
C  C288  1  0.12930000  0.71590000  0.18680000  1.0 0.5382950422
N  N1  1  0.46540000  0.28320000  0.00000000  1.0 -0.3788380339
N  N2  1  0.53460000  0.71680000  0.00000000  1.0 -0.3788380339
N  N3  1  0.28320000  0.46540000  0.50000000  1.0 -0.3788380339
N  N4  1  0.71680000  0.53460000  0.50000000  1.0 -0.3788380339
N  N5  1  0.40967000  0.35093000  0.94159000  1.0 -0.3788380339
N  N6  1  0.59033000  0.64907000  0.94159000  1.0 -0.3788380339
N  N7  1  0.35093000  0.40967000  0.55841000  1.0 -0.3788380339
N  N8  1  0.64907000  0.59033000  0.55841000  1.0 -0.3788380339
N  N9  1  0.59033000  0.64907000  0.05841000  1.0 -0.3788380339
N  N10  1  0.40967000  0.35093000  0.05841000  1.0 -0.3788380339
N  N11  1  0.64907000  0.59033000  0.44159000  1.0 -0.3788380339
N  N12  1  0.35093000  0.40967000  0.44159000  1.0 -0.3788380339
N  N13  1  0.37110000  0.43210000  0.00000000  1.0 -0.3864685777
N  N14  1  0.62890000  0.56790000  0.00000000  1.0 -0.3864685777
N  N15  1  0.43210000  0.37110000  0.50000000  1.0 -0.3864685777
N  N16  1  0.56790000  0.62890000  0.50000000  1.0 -0.3864685777
N  N17  1  0.92000000  0.04260000  0.50000000  1.0 -0.3446702543
N  N18  1  0.08000000  0.95740000  0.50000000  1.0 -0.3446702543
N  N19  1  0.04260000  0.92000000  0.00000000  1.0 -0.3446702543
N  N20  1  0.95740000  0.08000000  0.00000000  1.0 -0.3446702543
N  N21  1  0.00000000  0.00000000  0.55970000  1.0 -0.3788380339
N  N22  1  0.00000000  0.00000000  0.94030000  1.0 -0.3788380339
N  N23  1  0.00000000  0.00000000  0.44030000  1.0 -0.3788380339
N  N24  1  0.00000000  0.00000000  0.05970000  1.0 -0.3788380339
O  O1  1  0.60451000  0.14649000  0.77642000  1.0 -0.7200351167
O  O2  1  0.39549000  0.85351000  0.77642000  1.0 -0.7200351167
O  O3  1  0.14649000  0.60451000  0.72358000  1.0 -0.7200351167
O  O4  1  0.85351000  0.39549000  0.72358000  1.0 -0.7200351167
O  O5  1  0.39549000  0.85351000  0.22358000  1.0 -0.7200351167
O  O6  1  0.60451000  0.14649000  0.22358000  1.0 -0.7200351167
O  O7  1  0.85351000  0.39549000  0.27642000  1.0 -0.7200351167
O  O8  1  0.14649000  0.60451000  0.27642000  1.0 -0.7200351167
O  O9  1  0.45700000  0.04620000  0.77151000  1.0 -0.6335262615
O  O10  1  0.54300000  0.95380000  0.77151000  1.0 -0.6335262615
O  O11  1  0.04620000  0.45700000  0.72849000  1.0 -0.6335262615
O  O12  1  0.95380000  0.54300000  0.72849000  1.0 -0.6335262615
O  O13  1  0.54300000  0.95380000  0.22849000  1.0 -0.6335262615
O  O14  1  0.45700000  0.04620000  0.22849000  1.0 -0.6335262615
O  O15  1  0.95380000  0.54300000  0.27151000  1.0 -0.6335262615
O  O16  1  0.04620000  0.45700000  0.27151000  1.0 -0.6335262615
O  O17  1  0.26860000  0.63080000  0.78780000  1.0 -0.6710728514
O  O18  1  0.73140000  0.36920000  0.78780000  1.0 -0.6710728514
O  O19  1  0.63080000  0.26860000  0.71220000  1.0 -0.6710728514
O  O20  1  0.36920000  0.73140000  0.71220000  1.0 -0.6710728514
O  O21  1  0.73140000  0.36920000  0.21220000  1.0 -0.6710728514
O  O22  1  0.26860000  0.63080000  0.21220000  1.0 -0.6710728514
O  O23  1  0.36920000  0.73140000  0.28780000  1.0 -0.6710728514
O  O24  1  0.63080000  0.26860000  0.28780000  1.0 -0.6710728514
O  O25  1  0.12735000  0.52025000  0.80712000  1.0 -0.69018558
O  O26  1  0.87265000  0.47975000  0.80712000  1.0 -0.69018558
O  O27  1  0.52025000  0.12735000  0.69288000  1.0 -0.69018558
O  O28  1  0.47975000  0.87265000  0.69288000  1.0 -0.69018558
O  O29  1  0.87265000  0.47975000  0.19288000  1.0 -0.69018558
O  O30  1  0.12735000  0.52025000  0.19288000  1.0 -0.69018558
O  O31  1  0.47975000  0.87265000  0.30712000  1.0 -0.69018558
O  O32  1  0.52025000  0.12735000  0.30712000  1.0 -0.69018558
O  O33  1  0.64499000  0.06481000  0.70103000  1.0 -0.6335262615
O  O34  1  0.35501000  0.93519000  0.70103000  1.0 -0.6335262615
O  O35  1  0.06481000  0.64499000  0.79897000  1.0 -0.6335262615
O  O36  1  0.93519000  0.35501000  0.79897000  1.0 -0.6335262615
O  O37  1  0.35501000  0.93519000  0.29897000  1.0 -0.6335262615
O  O38  1  0.64499000  0.06481000  0.29897000  1.0 -0.6335262615
O  O39  1  0.93519000  0.35501000  0.20103000  1.0 -0.6335262615
O  O40  1  0.06481000  0.64499000  0.20103000  1.0 -0.6335262615
O  O41  1  0.76860000  0.21340000  0.70300000  1.0 -0.272083472
O  O42  1  0.23140000  0.78660000  0.70300000  1.0 -0.272083472
O  O43  1  0.21340000  0.76860000  0.79700000  1.0 -0.272083472
O  O44  1  0.78660000  0.23140000  0.79700000  1.0 -0.272083472
O  O45  1  0.23140000  0.78660000  0.29700000  1.0 -0.272083472
O  O46  1  0.76860000  0.21340000  0.29700000  1.0 -0.272083472
O  O47  1  0.78660000  0.23140000  0.20300000  1.0 -0.272083472
O  O48  1  0.21340000  0.76860000  0.20300000  1.0 -0.272083472
O  O49  1  0.21150000  0.73450000  0.81540000  1.0 -0.2002611938
O  O50  1  0.78850000  0.26550000  0.81540000  1.0 -0.2002611938
O  O51  1  0.73450000  0.21150000  0.68460000  1.0 -0.2002611938
O  O52  1  0.26550000  0.78850000  0.68460000  1.0 -0.2002611938
O  O53  1  0.78850000  0.26550000  0.18460000  1.0 -0.1907023108
O  O54  1  0.21150000  0.73450000  0.18460000  1.0 -0.1907023108
O  O55  1  0.26550000  0.78850000  0.31540000  1.0 -0.2002611938
O  O56  1  0.73450000  0.21150000  0.31540000  1.0 -0.2002611938
