# DDEC6 charges by PACMAN v1.1 (https://github.com/mtap-research/PACMAN-charge/)
data_HAKVUN_ASR_pacman
_symmetry_space_group_name_H-M   'P 1'
_cell_length_a   13.63600000
_cell_length_b   13.63600000
_cell_length_c   14.92220000
_cell_angle_alpha   90.00000000
_cell_angle_beta   90.00000000
_cell_angle_gamma   120.00000000
_symmetry_Int_Tables_number   1
_chemical_formula_structural   In3AgH9C21N3O13
_chemical_formula_sum   'In6 Ag2 H18 C42 N6 O26'
_cell_volume   2402.90982570
_cell_formula_units_Z   2
loop_
 _symmetry_equiv_pos_site_id
 _symmetry_equiv_pos_as_xyz
  1  'x, y, z'
loop_
 _atom_site_type_symbol
 _atom_site_label
 _atom_site_symmetry_multiplicity
 _atom_site_fract_x
 _atom_site_fract_y
 _atom_site_fract_z
 _atom_site_occupancy
 _atom_site_charge
In  In1  1  0.64127000  0.17267000  0.75000000  1.0 1.4700933271
In  In2  1  0.82733000  0.46860000  0.75000000  1.0 1.4700933271
In  In3  1  0.53140000  0.35873000  0.75000000  1.0 1.4700933271
In  In4  1  0.17267000  0.64127000  0.25000000  1.0 1.4700933271
In  In5  1  0.46860000  0.82733000  0.25000000  1.0 1.4700933271
In  In6  1  0.35873000  0.53140000  0.25000000  1.0 1.4700933271
Ag  Ag1  1  0.00000000  0.00000000  0.50000000  1.0 0.1996801469
Ag  Ag2  1  0.00000000  0.00000000  0.00000000  1.0 0.1996801469
H  H1  1  0.00000000  0.43920000  0.50000000  1.0 0.1253742847
H  H2  1  0.56080000  0.56080000  0.50000000  1.0 0.1253742847
H  H3  1  0.43920000  0.00000000  0.50000000  1.0 0.1253742847
H  H4  1  0.00000000  0.43920000  0.00000000  1.0 0.1253742847
H  H5  1  0.56080000  0.56080000  0.00000000  1.0 0.1253742847
H  H6  1  0.43920000  0.00000000  0.00000000  1.0 0.1253742847
H  H7  1  0.88660000  0.12470000  0.59370000  1.0 0.1033116329
H  H8  1  0.87530000  0.76190000  0.59370000  1.0 0.1033116329
H  H9  1  0.23810000  0.11340000  0.59370000  1.0 0.1033116329
H  H10  1  0.88660000  0.12470000  0.90630000  1.0 0.1033116329
H  H11  1  0.87530000  0.76190000  0.90630000  1.0 0.1033116329
H  H12  1  0.23810000  0.11340000  0.90630000  1.0 0.1033116329
H  H13  1  0.12470000  0.88660000  0.40630000  1.0 0.1033116329
H  H14  1  0.76190000  0.87530000  0.40630000  1.0 0.1033116329
H  H15  1  0.11340000  0.23810000  0.40630000  1.0 0.1033116329
H  H16  1  0.12470000  0.88660000  0.09370000  1.0 0.1033116329
H  H17  1  0.76190000  0.87530000  0.09370000  1.0 0.1033116329
H  H18  1  0.11340000  0.23810000  0.09370000  1.0 0.1033116329
C  C1  1  0.92880000  0.28190000  0.55770000  1.0 -0.0910134602
C  C2  1  0.71810000  0.64690000  0.55770000  1.0 -0.0910134602
C  C3  1  0.35310000  0.07120000  0.55770000  1.0 -0.0910134602
C  C4  1  0.92880000  0.28190000  0.94230000  1.0 -0.0910134602
C  C5  1  0.71810000  0.64690000  0.94230000  1.0 -0.0910134602
C  C6  1  0.35310000  0.07120000  0.94230000  1.0 -0.0910134602
C  C7  1  0.28190000  0.92880000  0.44230000  1.0 -0.0910134602
C  C8  1  0.64690000  0.71810000  0.44230000  1.0 -0.0910134602
C  C9  1  0.07120000  0.35310000  0.44230000  1.0 -0.0910134602
C  C10  1  0.28190000  0.92880000  0.05770000  1.0 -0.0910134602
C  C11  1  0.64690000  0.71810000  0.05770000  1.0 -0.0910134602
C  C12  1  0.07120000  0.35310000  0.05770000  1.0 -0.0910134602
C  C13  1  0.85470000  0.29680000  0.62430000  1.0 0.5977339718
C  C14  1  0.70320000  0.55790000  0.62430000  1.0 0.5977339718
C  C15  1  0.44210000  0.14530000  0.62430000  1.0 0.5977339718
C  C16  1  0.85470000  0.29680000  0.87570000  1.0 0.5977339718
C  C17  1  0.70320000  0.55790000  0.87570000  1.0 0.5977339718
C  C18  1  0.44210000  0.14530000  0.87570000  1.0 0.5977339718
C  C19  1  0.29680000  0.85470000  0.37570000  1.0 0.5977339718
C  C20  1  0.55790000  0.70320000  0.37570000  1.0 0.5977339718
C  C21  1  0.14530000  0.44210000  0.37570000  1.0 0.5977339718
C  C22  1  0.29680000  0.85470000  0.12430000  1.0 0.5977339718
C  C23  1  0.55790000  0.70320000  0.12430000  1.0 0.5977339718
C  C24  1  0.14530000  0.44210000  0.12430000  1.0 0.5977339718
C  C25  1  0.00000000  0.37100000  0.50000000  1.0 -0.0582343161
C  C26  1  0.62900000  0.62900000  0.50000000  1.0 -0.0582343161
C  C27  1  0.37100000  0.00000000  0.50000000  1.0 -0.0582343161
C  C28  1  0.00000000  0.37100000  0.00000000  1.0 -0.0582343161
C  C29  1  0.62900000  0.62900000  0.00000000  1.0 -0.0582343161
C  C30  1  0.37100000  0.00000000  0.00000000  1.0 -0.0582343161
C  C31  1  0.93320000  0.18290000  0.55490000  1.0 0.0481062698
C  C32  1  0.81710000  0.75030000  0.55490000  1.0 0.0481062698
C  C33  1  0.24970000  0.06680000  0.55490000  1.0 0.0481062698
C  C34  1  0.93320000  0.18290000  0.94510000  1.0 0.0481062698
C  C35  1  0.81710000  0.75030000  0.94510000  1.0 0.0481062698
C  C36  1  0.24970000  0.06680000  0.94510000  1.0 0.0481062698
C  C37  1  0.18290000  0.93320000  0.44510000  1.0 0.0481062698
C  C38  1  0.75030000  0.81710000  0.44510000  1.0 0.0481062698
C  C39  1  0.06680000  0.24970000  0.44510000  1.0 0.0481062698
C  C40  1  0.18290000  0.93320000  0.05490000  1.0 0.0481062698
C  C41  1  0.75030000  0.81710000  0.05490000  1.0 0.0481062698
C  C42  1  0.06680000  0.24970000  0.05490000  1.0 0.0481062698
N  N1  1  0.00000000  0.16600000  0.50000000  1.0 -0.2125012976
N  N2  1  0.83400000  0.83400000  0.50000000  1.0 -0.2125012976
N  N3  1  0.16600000  0.00000000  0.50000000  1.0 -0.2125012976
N  N4  1  0.00000000  0.16600000  0.00000000  1.0 -0.2125012976
N  N5  1  0.83400000  0.83400000  0.00000000  1.0 -0.2125012976
N  N6  1  0.16600000  0.00000000  0.00000000  1.0 -0.2125012976
O  O1  1  0.66666667  0.33333333  0.75000000  1.0 -1.0859870341
O  O2  1  0.33333333  0.66666667  0.25000000  1.0 -1.0859870341
O  O3  1  0.88560000  0.39780000  0.64690000  1.0 -0.5916022685
O  O4  1  0.60220000  0.48780000  0.64690000  1.0 -0.5916022685
O  O5  1  0.51220000  0.11440000  0.64690000  1.0 -0.5916022685
O  O6  1  0.88560000  0.39780000  0.85310000  1.0 -0.5916022685
O  O7  1  0.60220000  0.48780000  0.85310000  1.0 -0.5916022685
O  O8  1  0.51220000  0.11440000  0.85310000  1.0 -0.5916022685
O  O9  1  0.39780000  0.88560000  0.35310000  1.0 -0.5916022685
O  O10  1  0.48780000  0.60220000  0.35310000  1.0 -0.5916022685
O  O11  1  0.11440000  0.51220000  0.35310000  1.0 -0.5916022685
O  O12  1  0.39780000  0.88560000  0.14690000  1.0 -0.5916022685
O  O13  1  0.48780000  0.60220000  0.14690000  1.0 -0.5916022685
O  O14  1  0.11440000  0.51220000  0.14690000  1.0 -0.5916022685
O  O15  1  0.77180000  0.20870000  0.65150000  1.0 -0.5811843303
O  O16  1  0.79130000  0.56310000  0.65150000  1.0 -0.5811843303
O  O17  1  0.43690000  0.22820000  0.65150000  1.0 -0.5811843303
O  O18  1  0.77180000  0.20870000  0.84850000  1.0 -0.5811843303
O  O19  1  0.79130000  0.56310000  0.84850000  1.0 -0.5811843303
O  O20  1  0.43690000  0.22820000  0.84850000  1.0 -0.5811843303
O  O21  1  0.20870000  0.77180000  0.34850000  1.0 -0.5811843303
O  O22  1  0.56310000  0.79130000  0.34850000  1.0 -0.5811843303
O  O23  1  0.22820000  0.43690000  0.34850000  1.0 -0.5811843303
O  O24  1  0.20870000  0.77180000  0.15150000  1.0 -0.5811843303
O  O25  1  0.56310000  0.79130000  0.15150000  1.0 -0.5811843303
O  O26  1  0.22820000  0.43690000  0.15150000  1.0 -0.5811843303
