# DDEC6 charges by PACMAN v1.1 (https://github.com/mtap-research/PACMAN-charge/)
data_HAMJUC_FSR_pacman
_symmetry_space_group_name_H-M   'P 1'
_cell_length_a   16.93090000
_cell_length_b   16.93090000
_cell_length_c   16.93090000
_cell_angle_alpha   70.33770000
_cell_angle_beta   70.33770000
_cell_angle_gamma   70.33770000
_symmetry_Int_Tables_number   1
_chemical_formula_structural   ZnH13C20(NO4)2
_chemical_formula_sum   'Zn6 H78 C120 N12 O48'
_cell_volume   4165.22652593
_cell_formula_units_Z   6
loop_
 _symmetry_equiv_pos_site_id
 _symmetry_equiv_pos_as_xyz
  1  'x, y, z'
loop_
 _atom_site_type_symbol
 _atom_site_label
 _atom_site_symmetry_multiplicity
 _atom_site_fract_x
 _atom_site_fract_y
 _atom_site_fract_z
 _atom_site_occupancy
 _atom_site_charge
Zn  Zn1  1  0.44392000  0.01015000  0.44392000  1.0 0.8145507103
Zn  Zn2  1  0.01015000  0.44392000  0.44392000  1.0 0.8145507103
Zn  Zn3  1  0.44392000  0.44392000  0.01015000  1.0 0.815051449
Zn  Zn4  1  0.98985000  0.55608000  0.55608000  1.0 0.815051449
Zn  Zn5  1  0.55608000  0.98985000  0.55608000  1.0 0.815051449
Zn  Zn6  1  0.55608000  0.55608000  0.98985000  1.0 0.815051449
H  H1  1  0.16580000  0.69340000  0.37220000  1.0 0.1325423396
H  H2  1  0.69340000  0.37220000  0.16580000  1.0 0.1325423396
H  H3  1  0.37220000  0.16580000  0.69340000  1.0 0.1325423396
H  H4  1  0.30660000  0.83420000  0.62780000  1.0 0.1325423396
H  H5  1  0.62780000  0.30660000  0.83420000  1.0 0.1325423396
H  H6  1  0.83420000  0.62780000  0.30660000  1.0 0.1325423396
H  H7  1  0.83420000  0.30660000  0.62780000  1.0 0.1325423396
H  H8  1  0.30660000  0.62780000  0.83420000  1.0 0.1325423396
H  H9  1  0.62780000  0.83420000  0.30660000  1.0 0.1325423396
H  H10  1  0.69340000  0.16580000  0.37220000  1.0 0.1325423396
H  H11  1  0.37220000  0.69340000  0.16580000  1.0 0.1325423396
H  H12  1  0.16580000  0.37220000  0.69340000  1.0 0.1325423396
H  H13  1  0.23105000  0.51970000  0.23105000  1.0 0.1392539865
H  H14  1  0.51970000  0.23105000  0.23105000  1.0 0.1392539865
H  H15  1  0.23105000  0.23105000  0.51970000  1.0 0.1392539865
H  H16  1  0.48030000  0.76895000  0.76895000  1.0 0.1392539865
H  H17  1  0.76895000  0.48030000  0.76895000  1.0 0.1392539865
H  H18  1  0.76895000  0.76895000  0.48030000  1.0 0.1392539865
H  H19  1  0.28970000  0.93860000  0.47170000  1.0 0.1106083862
H  H20  1  0.93860000  0.47170000  0.28970000  1.0 0.1106083862
H  H21  1  0.47170000  0.28970000  0.93860000  1.0 0.1106083862
H  H22  1  0.06140000  0.71030000  0.52830000  1.0 0.1106083862
H  H23  1  0.52830000  0.06140000  0.71030000  1.0 0.1106083862
H  H24  1  0.71030000  0.52830000  0.06140000  1.0 0.1106083862
H  H25  1  0.71030000  0.06140000  0.52830000  1.0 0.1106083862
H  H26  1  0.06140000  0.52830000  0.71030000  1.0 0.1106083862
H  H27  1  0.52830000  0.71030000  0.06140000  1.0 0.1106083862
H  H28  1  0.93860000  0.28970000  0.47170000  1.0 0.1106083862
H  H29  1  0.47170000  0.93860000  0.28970000  1.0 0.1106083862
H  H30  1  0.28970000  0.47170000  0.93860000  1.0 0.1106083862
H  H31  1  0.26910000  0.84430000  0.41230000  1.0 0.1106083862
H  H32  1  0.84430000  0.41230000  0.26910000  1.0 0.1106083862
H  H33  1  0.41230000  0.26910000  0.84430000  1.0 0.1106083862
H  H34  1  0.15570000  0.73090000  0.58770000  1.0 0.1106083862
H  H35  1  0.58770000  0.15570000  0.73090000  1.0 0.1106083862
H  H36  1  0.73090000  0.58770000  0.15570000  1.0 0.1106083862
H  H37  1  0.73090000  0.15570000  0.58770000  1.0 0.1106083862
H  H38  1  0.15570000  0.58770000  0.73090000  1.0 0.1106083862
H  H39  1  0.58770000  0.73090000  0.15570000  1.0 0.1106083862
H  H40  1  0.84430000  0.26910000  0.41230000  1.0 0.1106083862
H  H41  1  0.41230000  0.84430000  0.26910000  1.0 0.1106083862
H  H42  1  0.26910000  0.41230000  0.84430000  1.0 0.1106083862
H  H43  1  0.20200000  0.90550000  0.45840000  1.0 0.0992593295
H  H44  1  0.90550000  0.45840000  0.20200000  1.0 0.0992593295
H  H45  1  0.45840000  0.20200000  0.90550000  1.0 0.0992593295
H  H46  1  0.09450000  0.79800000  0.54160000  1.0 0.0992593295
H  H47  1  0.54160000  0.09450000  0.79800000  1.0 0.0992593295
H  H48  1  0.79800000  0.54160000  0.09450000  1.0 0.0992593295
H  H49  1  0.79800000  0.09450000  0.54160000  1.0 0.0992593295
H  H50  1  0.09450000  0.54160000  0.79800000  1.0 0.0992593295
H  H51  1  0.54160000  0.79800000  0.09450000  1.0 0.0992593295
H  H52  1  0.90550000  0.20200000  0.45840000  1.0 0.0992593295
H  H53  1  0.45840000  0.90550000  0.20200000  1.0 0.0992593295
H  H54  1  0.20200000  0.45840000  0.90550000  1.0 0.0992593295
H  H55  1  0.48000000  0.99320000  0.26910000  1.0 0.1106083862
H  H56  1  0.99320000  0.26910000  0.48000000  1.0 0.1106083862
H  H57  1  0.26910000  0.48000000  0.99320000  1.0 0.1106083862
H  H58  1  0.00680000  0.52000000  0.73090000  1.0 0.1106083862
H  H59  1  0.73090000  0.00680000  0.52000000  1.0 0.1106083862
H  H60  1  0.52000000  0.73090000  0.00680000  1.0 0.1106083862
H  H61  1  0.52000000  0.00680000  0.73090000  1.0 0.1106083862
H  H62  1  0.00680000  0.73090000  0.52000000  1.0 0.1106083862
H  H63  1  0.73090000  0.52000000  0.00680000  1.0 0.1106083862
H  H64  1  0.99320000  0.48000000  0.26910000  1.0 0.1106083862
H  H65  1  0.26910000  0.99320000  0.48000000  1.0 0.1106083862
H  H66  1  0.48000000  0.26910000  0.99320000  1.0 0.1106083862
H  H67  1  0.79140000  0.24990000  0.33250000  1.0 0.2277259579
H  H68  1  0.24990000  0.33250000  0.79140000  1.0 0.2277259579
H  H69  1  0.33250000  0.79140000  0.24990000  1.0 0.2277259579
H  H70  1  0.75010000  0.20860000  0.66750000  1.0 0.2277259579
H  H71  1  0.66750000  0.75010000  0.20860000  1.0 0.2277259579
H  H72  1  0.20860000  0.66750000  0.75010000  1.0 0.2277259579
H  H73  1  0.20860000  0.75010000  0.66750000  1.0 0.2277259579
H  H74  1  0.75010000  0.66750000  0.20860000  1.0 0.2277259579
H  H75  1  0.66750000  0.20860000  0.75010000  1.0 0.2277259579
H  H76  1  0.24990000  0.79140000  0.33250000  1.0 0.2277259579
H  H77  1  0.33250000  0.24990000  0.79140000  1.0 0.2277259579
H  H78  1  0.79140000  0.33250000  0.24990000  1.0 0.2277259579
C  C1  1  0.27061000  0.70536000  0.27061000  1.0 0.1173071866
C  C2  1  0.70536000  0.27061000  0.27061000  1.0 0.1173071866
C  C3  1  0.27061000  0.27061000  0.70536000  1.0 0.1173071866
C  C4  1  0.29464000  0.72939000  0.72939000  1.0 0.1173071866
C  C5  1  0.72939000  0.29464000  0.72939000  1.0 0.1173071866
C  C6  1  0.72939000  0.72939000  0.29464000  1.0 0.1173071866
C  C7  1  0.20289000  0.66989000  0.32499000  1.0 -0.2203718808
C  C8  1  0.66989000  0.32499000  0.20289000  1.0 -0.2203718808
C  C9  1  0.32499000  0.20289000  0.66989000  1.0 -0.2203718808
C  C10  1  0.33011000  0.79711000  0.67501000  1.0 -0.2203718808
C  C11  1  0.67501000  0.33011000  0.79711000  1.0 -0.2203718808
C  C12  1  0.79711000  0.67501000  0.33011000  1.0 -0.2203718808
C  C13  1  0.79711000  0.33011000  0.67501000  1.0 -0.2203718808
C  C14  1  0.33011000  0.67501000  0.79711000  1.0 -0.2203718808
C  C15  1  0.67501000  0.79711000  0.33011000  1.0 -0.2203718808
C  C16  1  0.66989000  0.20289000  0.32499000  1.0 -0.2203718808
C  C17  1  0.32499000  0.66989000  0.20289000  1.0 -0.2203718808
C  C18  1  0.20289000  0.32499000  0.66989000  1.0 -0.2203718808
C  C19  1  0.18834000  0.60004000  0.31114000  1.0 0.0060267043
C  C20  1  0.60004000  0.31114000  0.18834000  1.0 0.0060267043
C  C21  1  0.31114000  0.18834000  0.60004000  1.0 0.0060267043
C  C22  1  0.39996000  0.81166000  0.68886000  1.0 0.0060267043
C  C23  1  0.68886000  0.39996000  0.81166000  1.0 0.0060267043
C  C24  1  0.81166000  0.68886000  0.39996000  1.0 0.0060267043
C  C25  1  0.81166000  0.39996000  0.68886000  1.0 0.0060267043
C  C26  1  0.39996000  0.68886000  0.81166000  1.0 0.0060267043
C  C27  1  0.68886000  0.81166000  0.39996000  1.0 0.0060267043
C  C28  1  0.60004000  0.18834000  0.31114000  1.0 0.0060267043
C  C29  1  0.31114000  0.60004000  0.18834000  1.0 0.0060267043
C  C30  1  0.18834000  0.31114000  0.60004000  1.0 0.0060267043
C  C31  1  0.24184000  0.56635000  0.24184000  1.0 -0.1141464697
C  C32  1  0.56635000  0.24183000  0.24184000  1.0 -0.1141464697
C  C33  1  0.24183000  0.24183000  0.56635000  1.0 -0.1141464697
C  C34  1  0.43365000  0.75816000  0.75817000  1.0 -0.1141464697
C  C35  1  0.75816000  0.43365000  0.75817000  1.0 -0.1141464697
C  C36  1  0.75816000  0.75816000  0.43365000  1.0 -0.1141464697
C  C37  1  0.34740000  0.81520000  0.24970000  1.0 0.1173071866
C  C38  1  0.81520000  0.24970000  0.34740000  1.0 0.1173071866
C  C39  1  0.24970000  0.34740000  0.81520000  1.0 0.1173071866
C  C40  1  0.18480000  0.65260000  0.75030000  1.0 0.1173071866
C  C41  1  0.75030000  0.18480000  0.65260000  1.0 0.1173071866
C  C42  1  0.65260000  0.75030000  0.18480000  1.0 0.1173071866
C  C43  1  0.65260000  0.18480000  0.75030000  1.0 0.1173071866
C  C44  1  0.18480000  0.75030000  0.65260000  1.0 0.1173071866
C  C45  1  0.75030000  0.65260000  0.18480000  1.0 0.1173071866
C  C46  1  0.81520000  0.34740000  0.24970000  1.0 0.1173071866
C  C47  1  0.24970000  0.81520000  0.34740000  1.0 0.1173071866
C  C48  1  0.34740000  0.24970000  0.81520000  1.0 0.1173071866
C  C49  1  0.32620000  0.93130000  0.41670000  1.0 0.0452304347
C  C50  1  0.93130000  0.41670000  0.32620000  1.0 0.0452304347
C  C51  1  0.41670000  0.32620000  0.93130000  1.0 0.0452304347
C  C52  1  0.06870000  0.67380000  0.58330000  1.0 0.0452304347
C  C53  1  0.58330000  0.06870000  0.67380000  1.0 0.0452304347
C  C54  1  0.67380000  0.58330000  0.06870000  1.0 0.0452304347
C  C55  1  0.67380000  0.06870000  0.58330000  1.0 0.0452304347
C  C56  1  0.06870000  0.58330000  0.67380000  1.0 0.0446986272
C  C57  1  0.58330000  0.67380000  0.06870000  1.0 0.0452304347
C  C58  1  0.93130000  0.32620000  0.41670000  1.0 0.0452304347
C  C59  1  0.41670000  0.93130000  0.32620000  1.0 0.0452304347
C  C60  1  0.32620000  0.41670000  0.93130000  1.0 0.0452304347
C  C61  1  0.31010000  0.87770000  0.38020000  1.0 -0.0288682143
C  C62  1  0.87770000  0.38020000  0.31010000  1.0 -0.0288682143
C  C63  1  0.38020000  0.31010000  0.87770000  1.0 -0.0288682143
C  C64  1  0.12230000  0.68990000  0.61980000  1.0 -0.0288682143
C  C65  1  0.61980000  0.12230000  0.68990000  1.0 -0.0288682143
C  C66  1  0.68990000  0.61980000  0.12230000  1.0 -0.0288682143
C  C67  1  0.68990000  0.12230000  0.61980000  1.0 -0.0288682143
C  C68  1  0.12230000  0.61980000  0.68990000  1.0 -0.0288682143
C  C69  1  0.61980000  0.68990000  0.12230000  1.0 -0.0288682143
C  C70  1  0.87770000  0.31010000  0.38020000  1.0 -0.0288682143
C  C71  1  0.38020000  0.87770000  0.31010000  1.0 -0.0288682143
C  C72  1  0.31010000  0.38020000  0.87770000  1.0 -0.0288682143
C  C73  1  0.35610000  0.87440000  0.29550000  1.0 -0.0288682143
C  C74  1  0.87440000  0.29550000  0.35610000  1.0 -0.0288682143
C  C75  1  0.29550000  0.35610000  0.87440000  1.0 -0.0288682143
C  C76  1  0.12560000  0.64390000  0.70450000  1.0 -0.0288682143
C  C77  1  0.70450000  0.12560000  0.64390000  1.0 -0.0288682143
C  C78  1  0.64390000  0.70450000  0.12560000  1.0 -0.0288682143
C  C79  1  0.64390000  0.12560000  0.70450000  1.0 -0.0288682143
C  C80  1  0.12560000  0.70450000  0.64390000  1.0 -0.0288682143
C  C81  1  0.70450000  0.64390000  0.12560000  1.0 -0.0288682143
C  C82  1  0.87440000  0.35610000  0.29550000  1.0 -0.0288682143
C  C83  1  0.29550000  0.87440000  0.35610000  1.0 -0.0288682143
C  C84  1  0.35610000  0.29550000  0.87440000  1.0 -0.0288682143
C  C85  1  0.25680000  0.91280000  0.42180000  1.0 -0.1208146089
C  C86  1  0.91280000  0.42180000  0.25680000  1.0 -0.1208146089
C  C87  1  0.42180000  0.25680000  0.91280000  1.0 -0.1208146089
C  C88  1  0.08720000  0.74320000  0.57820000  1.0 -0.1208146089
C  C89  1  0.57820000  0.08720000  0.74320000  1.0 -0.1208146089
C  C90  1  0.74320000  0.57820000  0.08720000  1.0 -0.1208146089
C  C91  1  0.74320000  0.08720000  0.57820000  1.0 -0.1208146089
C  C92  1  0.08720000  0.57820000  0.74320000  1.0 -0.1208146089
C  C93  1  0.57820000  0.74320000  0.08720000  1.0 -0.1208146089
C  C94  1  0.91280000  0.25680000  0.42180000  1.0 -0.1208146089
C  C95  1  0.42180000  0.91280000  0.25680000  1.0 -0.1208146089
C  C96  1  0.25680000  0.42180000  0.91280000  1.0 -0.1208146089
C  C97  1  0.43580000  0.96300000  0.29760000  1.0 -0.021219824
C  C98  1  0.96300000  0.29760000  0.43580000  1.0 -0.021219824
C  C99  1  0.29760000  0.43580000  0.96300000  1.0 -0.021219824
C  C100  1  0.03700000  0.56420000  0.70240000  1.0 -0.021219824
C  C101  1  0.70240000  0.03700000  0.56420000  1.0 -0.021219824
C  C102  1  0.56420000  0.70240000  0.03700000  1.0 -0.021219824
C  C103  1  0.56420000  0.03700000  0.70240000  1.0 -0.021219824
C  C104  1  0.03700000  0.70240000  0.56420000  1.0 -0.021219824
C  C105  1  0.70240000  0.56420000  0.03700000  1.0 -0.021219824
C  C106  1  0.96300000  0.43580000  0.29760000  1.0 -0.021219824
C  C107  1  0.29760000  0.96300000  0.43580000  1.0 -0.021219824
C  C108  1  0.43580000  0.29760000  0.96300000  1.0 -0.021219824
C  C109  1  0.37371000  0.11731000  0.55971000  1.0 0.5838808245
C  C110  1  0.11731000  0.55971000  0.37371000  1.0 0.5838808245
C  C111  1  0.55971000  0.37371000  0.11731000  1.0 0.5838808245
C  C112  1  0.88269000  0.62629000  0.44029000  1.0 0.5838808245
C  C113  1  0.44029000  0.88269000  0.62629000  1.0 0.5838808245
C  C114  1  0.62629000  0.44029000  0.88269000  1.0 0.5838808245
C  C115  1  0.62629000  0.88269000  0.44029000  1.0 0.5838808245
C  C116  1  0.88269000  0.44029000  0.62629000  1.0 0.5838808245
C  C117  1  0.44029000  0.62629000  0.88269000  1.0 0.5838808245
C  C118  1  0.11731000  0.37371000  0.55971000  1.0 0.5838808245
C  C119  1  0.55971000  0.11731000  0.37371000  1.0 0.5838808245
C  C120  1  0.37371000  0.55971000  0.11731000  1.0 0.5838808245
N  N1  1  0.28762000  0.77367000  0.28762000  1.0 -0.2093795115
N  N2  1  0.77367000  0.28762000  0.28762000  1.0 -0.2093795115
N  N3  1  0.28762000  0.28762000  0.77367000  1.0 -0.2093795115
N  N4  1  0.22633000  0.71238000  0.71238000  1.0 -0.2093795115
N  N5  1  0.71238000  0.22633000  0.71238000  1.0 -0.2093795115
N  N6  1  0.71238000  0.71238000  0.22633000  1.0 -0.2093795115
N  N7  1  0.38363000  0.97020000  0.38364000  1.0 -0.1765170643
N  N8  1  0.97020000  0.38363000  0.38364000  1.0 -0.1765170643
N  N9  1  0.38363000  0.38363000  0.97020000  1.0 -0.1765170643
N  N10  1  0.02980000  0.61636000  0.61637000  1.0 -0.1765170643
N  N11  1  0.61637000  0.02980000  0.61637000  1.0 -0.1765170643
N  N12  1  0.61637000  0.61636000  0.02980000  1.0 -0.1765170643
O  O1  1  0.40230000  0.80090000  0.18540000  1.0 -0.1464728339
O  O2  1  0.80090000  0.18540000  0.40230000  1.0 -0.1464728339
O  O3  1  0.18540000  0.40230000  0.80090000  1.0 -0.1464728339
O  O4  1  0.19910000  0.59770000  0.81460000  1.0 -0.1464728339
O  O5  1  0.81460000  0.19910000  0.59770000  1.0 -0.1464728339
O  O6  1  0.59770000  0.81460000  0.19910000  1.0 -0.1464728339
O  O7  1  0.59770000  0.19910000  0.81460000  1.0 -0.1464728339
O  O8  1  0.19910000  0.81460000  0.59770000  1.0 -0.1464728339
O  O9  1  0.81460000  0.59770000  0.19910000  1.0 -0.1464728339
O  O10  1  0.80090000  0.40230000  0.18540000  1.0 -0.1464728339
O  O11  1  0.18540000  0.80090000  0.40230000  1.0 -0.1464728339
O  O12  1  0.40230000  0.18540000  0.80090000  1.0 -0.1464728339
O  O13  1  0.37970000  0.86090000  0.12640000  1.0 -0.1729551776
O  O14  1  0.86090000  0.12640000  0.37970000  1.0 -0.1729551776
O  O15  1  0.12640000  0.37970000  0.86090000  1.0 -0.1729551776
O  O16  1  0.13910000  0.62030000  0.87360000  1.0 -0.1729551776
O  O17  1  0.87360000  0.13910000  0.62030000  1.0 -0.1729551776
O  O18  1  0.62030000  0.87360000  0.13910000  1.0 -0.1729551776
O  O19  1  0.62030000  0.13910000  0.87360000  1.0 -0.1729551776
O  O20  1  0.13910000  0.87360000  0.62030000  1.0 -0.1729551776
O  O21  1  0.87360000  0.62030000  0.13910000  1.0 -0.1729551776
O  O22  1  0.86090000  0.37970000  0.12640000  1.0 -0.1729551776
O  O23  1  0.12640000  0.86090000  0.37970000  1.0 -0.1729551776
O  O24  1  0.37970000  0.12640000  0.86090000  1.0 -0.1729551776
O  O25  1  0.35533000  0.10163000  0.50140000  1.0 -0.5187019878
O  O26  1  0.10163000  0.50140000  0.35533000  1.0 -0.5187019878
O  O27  1  0.50140000  0.35533000  0.10163000  1.0 -0.5187019878
O  O28  1  0.89837000  0.64467000  0.49860000  1.0 -0.5187019878
O  O29  1  0.49860000  0.89837000  0.64467000  1.0 -0.5187019878
O  O30  1  0.64467000  0.49860000  0.89837000  1.0 -0.5187019878
O  O31  1  0.64467000  0.89837000  0.49860000  1.0 -0.5187019878
O  O32  1  0.89837000  0.49860000  0.64467000  1.0 -0.5187019878
O  O33  1  0.49860000  0.64467000  0.89837000  1.0 -0.5187019878
O  O34  1  0.10163000  0.35533000  0.50140000  1.0 -0.5187019878
O  O35  1  0.50140000  0.10163000  0.35533000  1.0 -0.5187019878
O  O36  1  0.35533000  0.50140000  0.10163000  1.0 -0.5187019878
O  O37  1  0.41309000  0.92097000  0.55929000  1.0 -0.5711822087
O  O38  1  0.92097000  0.55929000  0.41309000  1.0 -0.5711822087
O  O39  1  0.55929000  0.41309000  0.92097000  1.0 -0.5711822087
O  O40  1  0.07903000  0.58691000  0.44071000  1.0 -0.5711822087
O  O41  1  0.44071000  0.07903000  0.58691000  1.0 -0.5711822087
O  O42  1  0.58691000  0.44071000  0.07903000  1.0 -0.5711822087
O  O43  1  0.58691000  0.07903000  0.44071000  1.0 -0.5711822087
O  O44  1  0.07903000  0.44071000  0.58691000  1.0 -0.5711822087
O  O45  1  0.44071000  0.58691000  0.07903000  1.0 -0.5711822087
O  O46  1  0.92097000  0.41309000  0.55929000  1.0 -0.5711822087
O  O47  1  0.55929000  0.92097000  0.41309000  1.0 -0.5711822087
O  O48  1  0.41309000  0.55929000  0.92097000  1.0 -0.5711822087
