# DDEC6 charges by PACMAN v1.1 (https://github.com/mtap-research/PACMAN-charge/)
data_HANKUE_ASR_pacman
_symmetry_space_group_name_H-M   'P 1'
_cell_length_a   35.75920000
_cell_length_b   35.75920000
_cell_length_c   35.75920000
_cell_angle_alpha   60.00000000
_cell_angle_beta   60.00000000
_cell_angle_gamma   60.00000000
_symmetry_Int_Tables_number   1
_chemical_formula_structural   Cd3In6C63O44
_chemical_formula_sum   'Cd24 In48 C504 O352'
_cell_volume   32333.17738920
_cell_formula_units_Z   8
loop_
 _symmetry_equiv_pos_site_id
 _symmetry_equiv_pos_as_xyz
  1  'x, y, z'
loop_
 _atom_site_type_symbol
 _atom_site_label
 _atom_site_symmetry_multiplicity
 _atom_site_fract_x
 _atom_site_fract_y
 _atom_site_fract_z
 _atom_site_occupancy
 _atom_site_charge
Cd  Cd1  1  0.73167000  0.73167000  0.62985000  1.0 1.2971678545
Cd  Cd2  1  0.73167000  0.73167000  0.90681000  1.0 1.3118350414
Cd  Cd3  1  0.62985000  0.90681000  0.73167000  1.0 1.2926521271
Cd  Cd4  1  0.90681000  0.62985000  0.73167000  1.0 1.2926521271
Cd  Cd5  1  0.62985000  0.73167000  0.73167000  1.0 1.3118350414
Cd  Cd6  1  0.90681000  0.73167000  0.73167000  1.0 1.3118350414
Cd  Cd7  1  0.73167000  0.62985000  0.90681000  1.0 1.3118350414
Cd  Cd8  1  0.73167000  0.90681000  0.62985000  1.0 1.3118350414
Cd  Cd9  1  0.73167000  0.62985000  0.73167000  1.0 1.3118350414
Cd  Cd10  1  0.73167000  0.90681000  0.73167000  1.0 1.3118350414
Cd  Cd11  1  0.90681000  0.73167000  0.62985000  1.0 1.2926521271
Cd  Cd12  1  0.62985000  0.73167000  0.90681000  1.0 1.3118350414
Cd  Cd13  1  0.51833000  0.51833000  0.34319000  1.0 1.2926521271
Cd  Cd14  1  0.51833000  0.51833000  0.62015000  1.0 1.2926521271
Cd  Cd15  1  0.62015000  0.34319000  0.51833000  1.0 1.2971678545
Cd  Cd16  1  0.34319000  0.62015000  0.51833000  1.0 1.2926521271
Cd  Cd17  1  0.62015000  0.51833000  0.34319000  1.0 1.2926521271
Cd  Cd18  1  0.34319000  0.51833000  0.62015000  1.0 1.2926521271
Cd  Cd19  1  0.51833000  0.62015000  0.51833000  1.0 1.2926521271
Cd  Cd20  1  0.51833000  0.34319000  0.51833000  1.0 1.2971678545
Cd  Cd21  1  0.51833000  0.62015000  0.34319000  1.0 1.2926521271
Cd  Cd22  1  0.51833000  0.34319000  0.62015000  1.0 1.2971678545
Cd  Cd23  1  0.34319000  0.51833000  0.51833000  1.0 1.2926521271
Cd  Cd24  1  0.62015000  0.51833000  0.51833000  1.0 1.2926521271
In  In1  1  0.86556000  0.38444000  0.62500000  1.0 1.3118350414
In  In2  1  0.38444000  0.86556000  0.12500000  1.0 1.3118350414
In  In3  1  0.62500000  0.12500000  0.86556000  1.0 1.3118350414
In  In4  1  0.12500000  0.62500000  0.38444000  1.0 1.3118350414
In  In5  1  0.62500000  0.86556000  0.38444000  1.0 1.3118350414
In  In6  1  0.12500000  0.38444000  0.86556000  1.0 1.3118350414
In  In7  1  0.86556000  0.62500000  0.12500000  1.0 1.3118350414
In  In8  1  0.38444000  0.12500000  0.62500000  1.0 1.3118350414
In  In9  1  0.38444000  0.62500000  0.86556000  1.0 1.3118350414
In  In10  1  0.86556000  0.12500000  0.38444000  1.0 1.3118350414
In  In11  1  0.12500000  0.86556000  0.62500000  1.0 1.3118350414
In  In12  1  0.62500000  0.38444000  0.12500000  1.0 1.3118350414
In  In13  1  0.38444000  0.86556000  0.62500000  1.0 1.3118350414
In  In14  1  0.86556000  0.38444000  0.12500000  1.0 1.3118350414
In  In15  1  0.62500000  0.12500000  0.38444000  1.0 1.3118350414
In  In16  1  0.12500000  0.62500000  0.86556000  1.0 1.3118350414
In  In17  1  0.62500000  0.38444000  0.86556000  1.0 1.3118350414
In  In18  1  0.12500000  0.86556000  0.38444000  1.0 1.3118350414
In  In19  1  0.38444000  0.62500000  0.12500000  1.0 1.3118350414
In  In20  1  0.86556000  0.12500000  0.62500000  1.0 1.3118350414
In  In21  1  0.86556000  0.62500000  0.38444000  1.0 1.3118350414
In  In22  1  0.38444000  0.12500000  0.86556000  1.0 1.3118350414
In  In23  1  0.12500000  0.38444000  0.62500000  1.0 1.3118350414
In  In24  1  0.62500000  0.86556000  0.12500000  1.0 1.3118350414
In  In25  1  0.04155000  0.25315000  0.35265000  1.0 1.5254396326
In  In26  1  0.25315000  0.04155000  0.35265000  1.0 1.5254396326
In  In27  1  0.35265000  0.35265000  0.04155000  1.0 1.5193028917
In  In28  1  0.35265000  0.35265000  0.25315000  1.0 1.5193028917
In  In29  1  0.35265000  0.04155000  0.25315000  1.0 1.5254396326
In  In30  1  0.35265000  0.25315000  0.04155000  1.0 1.5193028917
In  In31  1  0.04155000  0.35265000  0.35265000  1.0 1.5254396326
In  In32  1  0.25315000  0.35265000  0.35265000  1.0 1.5254396326
In  In33  1  0.25315000  0.35265000  0.04155000  1.0 1.5193028917
In  In34  1  0.04155000  0.35265000  0.25315000  1.0 1.5193028917
In  In35  1  0.35265000  0.04155000  0.35265000  1.0 1.5193028917
In  In36  1  0.35265000  0.25315000  0.35265000  1.0 1.5254396326
In  In37  1  0.20845000  0.99685000  0.89735000  1.0 1.5193028917
In  In38  1  0.99685000  0.20845000  0.89735000  1.0 1.5193028917
In  In39  1  0.89735000  0.89735000  0.99685000  1.0 1.5193028917
In  In40  1  0.89735000  0.89735000  0.20845000  1.0 1.5193028917
In  In41  1  0.89735000  0.20845000  0.89735000  1.0 1.5254396326
In  In42  1  0.89735000  0.99685000  0.89735000  1.0 1.5193028917
In  In43  1  0.20845000  0.89735000  0.99685000  1.0 1.5193028917
In  In44  1  0.99685000  0.89735000  0.20845000  1.0 1.5193028917
In  In45  1  0.99685000  0.89735000  0.89735000  1.0 1.5193028917
In  In46  1  0.20845000  0.89735000  0.89735000  1.0 1.5193028917
In  In47  1  0.89735000  0.20845000  0.99685000  1.0 1.5193028917
In  In48  1  0.89735000  0.99685000  0.20845000  1.0 1.5193028917
C  C1  1  0.84600000  0.47460000  0.60940000  1.0 0.5877247729
C  C2  1  0.47460000  0.84600000  0.07000000  1.0 0.5844254696
C  C3  1  0.60940000  0.07000000  0.84600000  1.0 0.5877247729
C  C4  1  0.07000000  0.60940000  0.47460000  1.0 0.5877247729
C  C5  1  0.60940000  0.84600000  0.47460000  1.0 0.5877247729
C  C6  1  0.07000000  0.47460000  0.84600000  1.0 0.5877247729
C  C7  1  0.84600000  0.60940000  0.07000000  1.0 0.5844254696
C  C8  1  0.47460000  0.07000000  0.60940000  1.0 0.5877247729
C  C9  1  0.47460000  0.60940000  0.84600000  1.0 0.5877247729
C  C10  1  0.84600000  0.07000000  0.47460000  1.0 0.5877247729
C  C11  1  0.07000000  0.84600000  0.60940000  1.0 0.5844254696
C  C12  1  0.60940000  0.47460000  0.07000000  1.0 0.5877247729
C  C13  1  0.40400000  0.77540000  0.18000000  1.0 0.5877247729
C  C14  1  0.77540000  0.40400000  0.64060000  1.0 0.5877247729
C  C15  1  0.64060000  0.18000000  0.77540000  1.0 0.5877247729
C  C16  1  0.18000000  0.64060000  0.40400000  1.0 0.5877247729
C  C17  1  0.64060000  0.40400000  0.18000000  1.0 0.5844254696
C  C18  1  0.18000000  0.77540000  0.64060000  1.0 0.5877247729
C  C19  1  0.40400000  0.64060000  0.77540000  1.0 0.5877247729
C  C20  1  0.77540000  0.18000000  0.40400000  1.0 0.5877247729
C  C21  1  0.77540000  0.64060000  0.18000000  1.0 0.5877247729
C  C22  1  0.40400000  0.18000000  0.64060000  1.0 0.5877247729
C  C23  1  0.18000000  0.40400000  0.77540000  1.0 0.5877247729
C  C24  1  0.64060000  0.77540000  0.40400000  1.0 0.5877247729
C  C25  1  0.40400000  0.77540000  0.64060000  1.0 0.5877247729
C  C26  1  0.77540000  0.40400000  0.18000000  1.0 0.5877247729
C  C27  1  0.64060000  0.18000000  0.40400000  1.0 0.5877247729
C  C28  1  0.18000000  0.64060000  0.77540000  1.0 0.5877247729
C  C29  1  0.64060000  0.40400000  0.77540000  1.0 0.5844254696
C  C30  1  0.18000000  0.77540000  0.40400000  1.0 0.5877247729
C  C31  1  0.40400000  0.64060000  0.18000000  1.0 0.5877247729
C  C32  1  0.77540000  0.18000000  0.64060000  1.0 0.5877247729
C  C33  1  0.77540000  0.64060000  0.40400000  1.0 0.5877247729
C  C34  1  0.40400000  0.18000000  0.77540000  1.0 0.5877247729
C  C35  1  0.18000000  0.40400000  0.64060000  1.0 0.5877247729
C  C36  1  0.64060000  0.77540000  0.18000000  1.0 0.5877247729
C  C37  1  0.84600000  0.47460000  0.07000000  1.0 0.5877247729
C  C38  1  0.47460000  0.84600000  0.60940000  1.0 0.5844254696
C  C39  1  0.60940000  0.07000000  0.47460000  1.0 0.5877247729
C  C40  1  0.07000000  0.60940000  0.84600000  1.0 0.5877247729
C  C41  1  0.60940000  0.84600000  0.07000000  1.0 0.5844254696
C  C42  1  0.07000000  0.47460000  0.60940000  1.0 0.5877247729
C  C43  1  0.84600000  0.60940000  0.47460000  1.0 0.5877247729
C  C44  1  0.47460000  0.07000000  0.84600000  1.0 0.5877247729
C  C45  1  0.47460000  0.60940000  0.07000000  1.0 0.5844254696
C  C46  1  0.84600000  0.07000000  0.60940000  1.0 0.5877247729
C  C47  1  0.07000000  0.84600000  0.47460000  1.0 0.5877247729
C  C48  1  0.60940000  0.47460000  0.84600000  1.0 0.5877247729
C  C49  1  0.84680000  0.54460000  0.54460000  1.0 0.087527515
C  C50  1  0.54460000  0.84680000  0.06400000  1.0 0.087527515
C  C51  1  0.54460000  0.06400000  0.84680000  1.0 0.0834913274
C  C52  1  0.06400000  0.54460000  0.54460000  1.0 0.0834913274
C  C53  1  0.54460000  0.84680000  0.54460000  1.0 0.0834913274
C  C54  1  0.06400000  0.54460000  0.84680000  1.0 0.0834913274
C  C55  1  0.84680000  0.54460000  0.06400000  1.0 0.087527515
C  C56  1  0.54460000  0.06400000  0.54460000  1.0 0.0834913274
C  C57  1  0.54460000  0.54460000  0.84680000  1.0 0.087527515
C  C58  1  0.84680000  0.06400000  0.54460000  1.0 0.087527515
C  C59  1  0.06400000  0.84680000  0.54460000  1.0 0.0834913274
C  C60  1  0.54460000  0.54460000  0.06400000  1.0 0.087527515
C  C61  1  0.40320000  0.70540000  0.18600000  1.0 0.0834913274
C  C62  1  0.70540000  0.40320000  0.70540000  1.0 0.0834913274
C  C63  1  0.70540000  0.18600000  0.70540000  1.0 0.0834913274
C  C64  1  0.18600000  0.70540000  0.40320000  1.0 0.0834913274
C  C65  1  0.70540000  0.40320000  0.18600000  1.0 0.087527515
C  C66  1  0.18600000  0.70540000  0.70540000  1.0 0.0834913274
C  C67  1  0.40320000  0.70540000  0.70540000  1.0 0.0834913274
C  C68  1  0.70540000  0.18600000  0.40320000  1.0 0.0834913274
C  C69  1  0.70540000  0.70540000  0.18600000  1.0 0.087527515
C  C70  1  0.40320000  0.18600000  0.70540000  1.0 0.0834913274
C  C71  1  0.18600000  0.40320000  0.70540000  1.0 0.0834913274
C  C72  1  0.70540000  0.70540000  0.40320000  1.0 0.0834913274
C  C73  1  0.83180000  0.52500000  0.59220000  1.0 -0.0755173061
C  C74  1  0.52500000  0.83180000  0.05100000  1.0 -0.0755173061
C  C75  1  0.59220000  0.05100000  0.83180000  1.0 -0.0735887647
C  C76  1  0.05100000  0.59220000  0.52500000  1.0 -0.0735887647
C  C77  1  0.59220000  0.83180000  0.52500000  1.0 -0.0755173061
C  C78  1  0.05100000  0.52500000  0.83180000  1.0 -0.0735887647
C  C79  1  0.83180000  0.59220000  0.05100000  1.0 -0.0735887647
C  C80  1  0.52500000  0.05100000  0.59220000  1.0 -0.0735887647
C  C81  1  0.52500000  0.59220000  0.83180000  1.0 -0.0755173061
C  C82  1  0.83180000  0.05100000  0.52500000  1.0 -0.0735887647
C  C83  1  0.05100000  0.83180000  0.59220000  1.0 -0.0755173061
C  C84  1  0.59220000  0.52500000  0.05100000  1.0 -0.0755173061
C  C85  1  0.41820000  0.72500000  0.19900000  1.0 -0.0735887647
C  C86  1  0.72500000  0.41820000  0.65780000  1.0 -0.0755173061
C  C87  1  0.65780000  0.19900000  0.72500000  1.0 -0.0755173061
C  C88  1  0.19900000  0.65780000  0.41820000  1.0 -0.0755173061
C  C89  1  0.65780000  0.41820000  0.19900000  1.0 -0.0735887647
C  C90  1  0.19900000  0.72500000  0.65780000  1.0 -0.0735887647
C  C91  1  0.41820000  0.65780000  0.72500000  1.0 -0.0735887647
C  C92  1  0.72500000  0.19900000  0.41820000  1.0 -0.0735887647
C  C93  1  0.72500000  0.65780000  0.19900000  1.0 -0.0735887647
C  C94  1  0.41820000  0.19900000  0.65780000  1.0 -0.0755173061
C  C95  1  0.19900000  0.41820000  0.72500000  1.0 -0.0735887647
C  C96  1  0.65780000  0.72500000  0.41820000  1.0 -0.0735887647
C  C97  1  0.41820000  0.72500000  0.65780000  1.0 -0.0735887647
C  C98  1  0.72500000  0.41820000  0.19900000  1.0 -0.0735887647
C  C99  1  0.65780000  0.19900000  0.41820000  1.0 -0.0735887647
C  C100  1  0.19900000  0.65780000  0.72500000  1.0 -0.0735887647
C  C101  1  0.65780000  0.41820000  0.72500000  1.0 -0.0735887647
C  C102  1  0.19900000  0.72500000  0.41820000  1.0 -0.0755173061
C  C103  1  0.41820000  0.65780000  0.19900000  1.0 -0.0735887647
C  C104  1  0.72500000  0.19900000  0.65780000  1.0 -0.0735887647
C  C105  1  0.72500000  0.65780000  0.41820000  1.0 -0.0735887647
C  C106  1  0.41820000  0.19900000  0.72500000  1.0 -0.0755173061
C  C107  1  0.19900000  0.41820000  0.65780000  1.0 -0.0735887647
C  C108  1  0.65780000  0.72500000  0.19900000  1.0 -0.0735887647
C  C109  1  0.83180000  0.52500000  0.05100000  1.0 -0.0735887647
C  C110  1  0.52500000  0.83180000  0.59220000  1.0 -0.0755173061
C  C111  1  0.59220000  0.05100000  0.52500000  1.0 -0.0735887647
C  C112  1  0.05100000  0.59220000  0.83180000  1.0 -0.0755173061
C  C113  1  0.59220000  0.83180000  0.05100000  1.0 -0.0755173061
C  C114  1  0.05100000  0.52500000  0.59220000  1.0 -0.0735887647
C  C115  1  0.83180000  0.59220000  0.52500000  1.0 -0.0755173061
C  C116  1  0.52500000  0.05100000  0.83180000  1.0 -0.0735887647
C  C117  1  0.52500000  0.59220000  0.05100000  1.0 -0.0755173061
C  C118  1  0.83180000  0.05100000  0.59220000  1.0 -0.0735887647
C  C119  1  0.05100000  0.83180000  0.52500000  1.0 -0.0755173061
C  C120  1  0.59220000  0.52500000  0.83180000  1.0 -0.0755173061
C  C121  1  0.80740000  0.55420000  0.61840000  1.0 0.0476421229
C  C122  1  0.55420000  0.80740000  0.02000000  1.0 0.0476421229
C  C123  1  0.61840000  0.02000000  0.80740000  1.0 0.0414863935
C  C124  1  0.02000000  0.61840000  0.55420000  1.0 0.0414863935
C  C125  1  0.61840000  0.80740000  0.55420000  1.0 0.0476421229
C  C126  1  0.02000000  0.55420000  0.80740000  1.0 0.0476421229
C  C127  1  0.80740000  0.61840000  0.02000000  1.0 0.0476421229
C  C128  1  0.55420000  0.02000000  0.61840000  1.0 0.0476421229
C  C129  1  0.55420000  0.61840000  0.80740000  1.0 0.0414863935
C  C130  1  0.80740000  0.02000000  0.55420000  1.0 0.0476421229
C  C131  1  0.02000000  0.80740000  0.61840000  1.0 0.0476421229
C  C132  1  0.61840000  0.55420000  0.02000000  1.0 0.0476421229
C  C133  1  0.44260000  0.69580000  0.23000000  1.0 0.0476421229
C  C134  1  0.69580000  0.44260000  0.63160000  1.0 0.0476421229
C  C135  1  0.63160000  0.23000000  0.69580000  1.0 0.0476421229
C  C136  1  0.23000000  0.63160000  0.44260000  1.0 0.0476421229
C  C137  1  0.63160000  0.44260000  0.23000000  1.0 0.0476421229
C  C138  1  0.23000000  0.69580000  0.63160000  1.0 0.0476421229
C  C139  1  0.44260000  0.63160000  0.69580000  1.0 0.0476421229
C  C140  1  0.69580000  0.23000000  0.44260000  1.0 0.0414863935
C  C141  1  0.69580000  0.63160000  0.23000000  1.0 0.0476421229
C  C142  1  0.44260000  0.23000000  0.63160000  1.0 0.0476421229
C  C143  1  0.23000000  0.44260000  0.69580000  1.0 0.0414863935
C  C144  1  0.63160000  0.69580000  0.44260000  1.0 0.0476421229
C  C145  1  0.44260000  0.69580000  0.63160000  1.0 0.0476421229
C  C146  1  0.69580000  0.44260000  0.23000000  1.0 0.0476421229
C  C147  1  0.63160000  0.23000000  0.44260000  1.0 0.0476421229
C  C148  1  0.23000000  0.63160000  0.69580000  1.0 0.0414863935
C  C149  1  0.63160000  0.44260000  0.69580000  1.0 0.0476421229
C  C150  1  0.23000000  0.69580000  0.44260000  1.0 0.0414863935
C  C151  1  0.44260000  0.63160000  0.23000000  1.0 0.0476421229
C  C152  1  0.69580000  0.23000000  0.63160000  1.0 0.0476421229
C  C153  1  0.69580000  0.63160000  0.44260000  1.0 0.0476421229
C  C154  1  0.44260000  0.23000000  0.69580000  1.0 0.0476421229
C  C155  1  0.23000000  0.44260000  0.63160000  1.0 0.0476421229
C  C156  1  0.63160000  0.69580000  0.23000000  1.0 0.0476421229
C  C157  1  0.80740000  0.55420000  0.02000000  1.0 0.0476421229
C  C158  1  0.55420000  0.80740000  0.61840000  1.0 0.0476421229
C  C159  1  0.61840000  0.02000000  0.55420000  1.0 0.0476421229
C  C160  1  0.02000000  0.61840000  0.80740000  1.0 0.0476421229
C  C161  1  0.61840000  0.80740000  0.02000000  1.0 0.0476421229
C  C162  1  0.02000000  0.55420000  0.61840000  1.0 0.0414863935
C  C163  1  0.80740000  0.61840000  0.55420000  1.0 0.0476421229
C  C164  1  0.55420000  0.02000000  0.80740000  1.0 0.0414863935
C  C165  1  0.55420000  0.61840000  0.02000000  1.0 0.0476421229
C  C166  1  0.80740000  0.02000000  0.61840000  1.0 0.0476421229
C  C167  1  0.02000000  0.80740000  0.55420000  1.0 0.0476421229
C  C168  1  0.61840000  0.55420000  0.80740000  1.0 0.0414863935
C  C169  1  0.79510000  0.60010000  0.60010000  1.0 -0.0885845334
C  C170  1  0.60010000  0.79510000  0.00470000  1.0 -0.0885845334
C  C171  1  0.60010000  0.00470000  0.79510000  1.0 -0.0885845334
C  C172  1  0.00470000  0.60010000  0.60010000  1.0 -0.0885845334
C  C173  1  0.60010000  0.79510000  0.60010000  1.0 -0.0885845334
C  C174  1  0.00470000  0.60010000  0.79510000  1.0 -0.0885845334
C  C175  1  0.79510000  0.60010000  0.00470000  1.0 -0.0885845334
C  C176  1  0.60010000  0.00470000  0.60010000  1.0 -0.0885845334
C  C177  1  0.60010000  0.60010000  0.79510000  1.0 -0.0885845334
C  C178  1  0.79510000  0.00470000  0.60010000  1.0 -0.0885845334
C  C179  1  0.00470000  0.79510000  0.60010000  1.0 -0.0885845334
C  C180  1  0.60010000  0.60010000  0.00470000  1.0 -0.0885845334
C  C181  1  0.45490000  0.64990000  0.24530000  1.0 -0.0885845334
C  C182  1  0.64990000  0.45490000  0.64990000  1.0 -0.0885845334
C  C183  1  0.64990000  0.24530000  0.64990000  1.0 -0.0885845334
C  C184  1  0.24530000  0.64990000  0.45490000  1.0 -0.0885845334
C  C185  1  0.64990000  0.45490000  0.24530000  1.0 -0.0885845334
C  C186  1  0.24530000  0.64990000  0.64990000  1.0 -0.0885845334
C  C187  1  0.45490000  0.64990000  0.64990000  1.0 -0.0885845334
C  C188  1  0.64990000  0.24530000  0.45490000  1.0 -0.0885845334
C  C189  1  0.64990000  0.64990000  0.24530000  1.0 -0.0885845334
C  C190  1  0.45490000  0.24530000  0.64990000  1.0 -0.0885845334
C  C191  1  0.24530000  0.45490000  0.64990000  1.0 -0.0885845334
C  C192  1  0.64990000  0.64990000  0.45490000  1.0 -0.0885845334
C  C193  1  0.76310000  0.62810000  0.62810000  1.0 0.6581212302
C  C194  1  0.62810000  0.76310000  0.98070000  1.0 0.6581212302
C  C195  1  0.62810000  0.98070000  0.76310000  1.0 0.6581212302
C  C196  1  0.98070000  0.62810000  0.62810000  1.0 0.6581212302
C  C197  1  0.62810000  0.76310000  0.62810000  1.0 0.6581212302
C  C198  1  0.98070000  0.62810000  0.76310000  1.0 0.6581212302
C  C199  1  0.76310000  0.62810000  0.98070000  1.0 0.6581212302
C  C200  1  0.62810000  0.98070000  0.62810000  1.0 0.6581212302
C  C201  1  0.62810000  0.62810000  0.76310000  1.0 0.6581212302
C  C202  1  0.76310000  0.98070000  0.62810000  1.0 0.6581212302
C  C203  1  0.98070000  0.76310000  0.62810000  1.0 0.6581212302
C  C204  1  0.62810000  0.62810000  0.98070000  1.0 0.6581212302
C  C205  1  0.48690000  0.62190000  0.26930000  1.0 0.6581212302
C  C206  1  0.62190000  0.48690000  0.62190000  1.0 0.6581212302
C  C207  1  0.62190000  0.26930000  0.62190000  1.0 0.6581212302
C  C208  1  0.26930000  0.62190000  0.48690000  1.0 0.6581212302
C  C209  1  0.62190000  0.48690000  0.26930000  1.0 0.6581212302
C  C210  1  0.26930000  0.62190000  0.62190000  1.0 0.6581212302
C  C211  1  0.48690000  0.62190000  0.62190000  1.0 0.6581212302
C  C212  1  0.62190000  0.26930000  0.48690000  1.0 0.6581212302
C  C213  1  0.62190000  0.62190000  0.26930000  1.0 0.6581212302
C  C214  1  0.48690000  0.26930000  0.62190000  1.0 0.6581212302
C  C215  1  0.26930000  0.48690000  0.62190000  1.0 0.6581212302
C  C216  1  0.62190000  0.62190000  0.48690000  1.0 0.6581212302
C  C217  1  0.89960000  0.33000000  0.57980000  1.0 0.5844254696
C  C218  1  0.33000000  0.89960000  0.19060000  1.0 0.5877247729
C  C219  1  0.57980000  0.19060000  0.89960000  1.0 0.5844254696
C  C220  1  0.19060000  0.57980000  0.33000000  1.0 0.5877247729
C  C221  1  0.57980000  0.89960000  0.33000000  1.0 0.5844254696
C  C222  1  0.19060000  0.33000000  0.89960000  1.0 0.5877247729
C  C223  1  0.89960000  0.57980000  0.19060000  1.0 0.5844254696
C  C224  1  0.33000000  0.19060000  0.57980000  1.0 0.5877247729
C  C225  1  0.33000000  0.57980000  0.89960000  1.0 0.5877247729
C  C226  1  0.89960000  0.19060000  0.33000000  1.0 0.5877247729
C  C227  1  0.19060000  0.89960000  0.57980000  1.0 0.5877247729
C  C228  1  0.57980000  0.33000000  0.19060000  1.0 0.5877247729
C  C229  1  0.35040000  0.92000000  0.05940000  1.0 0.5877247729
C  C230  1  0.92000000  0.35040000  0.67020000  1.0 0.5877247729
C  C231  1  0.67020000  0.05940000  0.92000000  1.0 0.5877247729
C  C232  1  0.05940000  0.67020000  0.35040000  1.0 0.5877247729
C  C233  1  0.67020000  0.35040000  0.05940000  1.0 0.5844254696
C  C234  1  0.05940000  0.92000000  0.67020000  1.0 0.5877247729
C  C235  1  0.35040000  0.67020000  0.92000000  1.0 0.5877247729
C  C236  1  0.92000000  0.05940000  0.35040000  1.0 0.5877247729
C  C237  1  0.92000000  0.67020000  0.05940000  1.0 0.5844254696
C  C238  1  0.35040000  0.05940000  0.67020000  1.0 0.5877247729
C  C239  1  0.05940000  0.35040000  0.92000000  1.0 0.5877247729
C  C240  1  0.67020000  0.92000000  0.35040000  1.0 0.5877247729
C  C241  1  0.35040000  0.92000000  0.67020000  1.0 0.5877247729
C  C242  1  0.92000000  0.35040000  0.05940000  1.0 0.5844254696
C  C243  1  0.67020000  0.05940000  0.35040000  1.0 0.5877247729
C  C244  1  0.05940000  0.67020000  0.92000000  1.0 0.5877247729
C  C245  1  0.67020000  0.35040000  0.92000000  1.0 0.5877247729
C  C246  1  0.05940000  0.92000000  0.35040000  1.0 0.5877247729
C  C247  1  0.35040000  0.67020000  0.05940000  1.0 0.5844254696
C  C248  1  0.92000000  0.05940000  0.67020000  1.0 0.5877247729
C  C249  1  0.92000000  0.67020000  0.35040000  1.0 0.5877247729
C  C250  1  0.35040000  0.05940000  0.92000000  1.0 0.5877247729
C  C251  1  0.05940000  0.35040000  0.67020000  1.0 0.5877247729
C  C252  1  0.67020000  0.92000000  0.05940000  1.0 0.5877247729
C  C253  1  0.89960000  0.33000000  0.19060000  1.0 0.5877247729
C  C254  1  0.33000000  0.89960000  0.57980000  1.0 0.5877247729
C  C255  1  0.57980000  0.19060000  0.33000000  1.0 0.5877247729
C  C256  1  0.19060000  0.57980000  0.89960000  1.0 0.5877247729
C  C257  1  0.57980000  0.89960000  0.19060000  1.0 0.5877247729
C  C258  1  0.19060000  0.33000000  0.57980000  1.0 0.5877247729
C  C259  1  0.89960000  0.57980000  0.33000000  1.0 0.5877247729
C  C260  1  0.33000000  0.19060000  0.89960000  1.0 0.5844254696
C  C261  1  0.33000000  0.57980000  0.19060000  1.0 0.5877247729
C  C262  1  0.89960000  0.19060000  0.57980000  1.0 0.5877247729
C  C263  1  0.19060000  0.89960000  0.33000000  1.0 0.5844254696
C  C264  1  0.57980000  0.33000000  0.89960000  1.0 0.5877247729
C  C265  1  0.90280000  0.26080000  0.57560000  1.0 0.0219270158
C  C266  1  0.26080000  0.90280000  0.26080000  1.0 0.0219270158
C  C267  1  0.57560000  0.26080000  0.90280000  1.0 0.0219270158
C  C268  1  0.26080000  0.57560000  0.26080000  1.0 0.0254691089
C  C269  1  0.57560000  0.90280000  0.26080000  1.0 0.0254691089
C  C270  1  0.26080000  0.26080000  0.90280000  1.0 0.0219270158
C  C271  1  0.90280000  0.57560000  0.26080000  1.0 0.0254691089
C  C272  1  0.26080000  0.26080000  0.57560000  1.0 0.0219270158
C  C273  1  0.26080000  0.57560000  0.90280000  1.0 0.0219270158
C  C274  1  0.90280000  0.26080000  0.26080000  1.0 0.0219270158
C  C275  1  0.26080000  0.90280000  0.57560000  1.0 0.0219270158
C  C276  1  0.57560000  0.26080000  0.26080000  1.0 0.0219270158
C  C277  1  0.34720000  0.98920000  0.98920000  1.0 0.0219270158
C  C278  1  0.98920000  0.34720000  0.67440000  1.0 0.0219270158
C  C279  1  0.67440000  0.98920000  0.98920000  1.0 0.0219270158
C  C280  1  0.98920000  0.67440000  0.34720000  1.0 0.0219270158
C  C281  1  0.67440000  0.34720000  0.98920000  1.0 0.0219270158
C  C282  1  0.98920000  0.98920000  0.67440000  1.0 0.0219270158
C  C283  1  0.34720000  0.67440000  0.98920000  1.0 0.0219270158
C  C284  1  0.98920000  0.98920000  0.34720000  1.0 0.0219270158
C  C285  1  0.98920000  0.67440000  0.98920000  1.0 0.0219270158
C  C286  1  0.34720000  0.98920000  0.67440000  1.0 0.0219270158
C  C287  1  0.98920000  0.34720000  0.98920000  1.0 0.0219270158
C  C288  1  0.67440000  0.98920000  0.34720000  1.0 0.0219270158
C  C289  1  0.91550000  0.29810000  0.55470000  1.0 -0.0225010166
C  C290  1  0.29810000  0.91550000  0.23170000  1.0 -0.0225010166
C  C291  1  0.55470000  0.23170000  0.91550000  1.0 -0.0225010166
C  C292  1  0.23170000  0.55470000  0.29810000  1.0 -0.0225010166
C  C293  1  0.55470000  0.91550000  0.29810000  1.0 -0.0225010166
C  C294  1  0.23170000  0.29810000  0.91550000  1.0 -0.0225010166
C  C295  1  0.91550000  0.55470000  0.23170000  1.0 -0.0225010166
C  C296  1  0.29810000  0.23170000  0.55470000  1.0 -0.0225010166
C  C297  1  0.29810000  0.55470000  0.91550000  1.0 -0.0225010166
C  C298  1  0.91550000  0.23170000  0.29810000  1.0 -0.0225010166
C  C299  1  0.23170000  0.91550000  0.55470000  1.0 -0.0225010166
C  C300  1  0.55470000  0.29810000  0.23170000  1.0 -0.0225010166
C  C301  1  0.33450000  0.95190000  0.01830000  1.0 -0.0225010166
C  C302  1  0.95190000  0.33450000  0.69530000  1.0 -0.0225010166
C  C303  1  0.69530000  0.01830000  0.95190000  1.0 -0.0225010166
C  C304  1  0.01830000  0.69530000  0.33450000  1.0 -0.0225010166
C  C305  1  0.69530000  0.33450000  0.01830000  1.0 -0.0225010166
C  C306  1  0.01830000  0.95190000  0.69530000  1.0 -0.0225010166
C  C307  1  0.33450000  0.69530000  0.95190000  1.0 -0.0225010166
C  C308  1  0.95190000  0.01830000  0.33450000  1.0 -0.0225010166
C  C309  1  0.95190000  0.69530000  0.01830000  1.0 -0.0225010166
C  C310  1  0.33450000  0.01830000  0.69530000  1.0 -0.0225010166
C  C311  1  0.01830000  0.33450000  0.95190000  1.0 -0.0225010166
C  C312  1  0.69530000  0.95190000  0.33450000  1.0 -0.0225010166
C  C313  1  0.33450000  0.95190000  0.69530000  1.0 -0.0225010166
C  C314  1  0.95190000  0.33450000  0.01830000  1.0 -0.0225010166
C  C315  1  0.69530000  0.01830000  0.33450000  1.0 -0.0225010166
C  C316  1  0.01830000  0.69530000  0.95190000  1.0 -0.0254234354
C  C317  1  0.69530000  0.33450000  0.95190000  1.0 -0.0225010166
C  C318  1  0.01830000  0.95190000  0.33450000  1.0 -0.0225010166
C  C319  1  0.33450000  0.69530000  0.01830000  1.0 -0.0225010166
C  C320  1  0.95190000  0.01830000  0.69530000  1.0 -0.0225010166
C  C321  1  0.95190000  0.69530000  0.33450000  1.0 -0.0225010166
C  C322  1  0.33450000  0.01830000  0.95190000  1.0 -0.0225010166
C  C323  1  0.01830000  0.33450000  0.69530000  1.0 -0.0225010166
C  C324  1  0.69530000  0.95190000  0.01830000  1.0 -0.0225010166
C  C325  1  0.91550000  0.29810000  0.23170000  1.0 -0.0225010166
C  C326  1  0.29810000  0.91550000  0.55470000  1.0 -0.0225010166
C  C327  1  0.55470000  0.23170000  0.29810000  1.0 -0.0225010166
C  C328  1  0.23170000  0.55470000  0.91550000  1.0 -0.0225010166
C  C329  1  0.55470000  0.91550000  0.23170000  1.0 -0.0225010166
C  C330  1  0.23170000  0.29810000  0.55470000  1.0 -0.0225010166
C  C331  1  0.91550000  0.55470000  0.29810000  1.0 -0.0225010166
C  C332  1  0.29810000  0.23170000  0.91550000  1.0 -0.0225010166
C  C333  1  0.29810000  0.55470000  0.23170000  1.0 -0.0225010166
C  C334  1  0.91550000  0.23170000  0.55470000  1.0 -0.0225010166
C  C335  1  0.23170000  0.91550000  0.29810000  1.0 -0.0225010166
C  C336  1  0.55470000  0.29810000  0.91550000  1.0 -0.0225010166
C  C337  1  0.93940000  0.31080000  0.50680000  1.0 0.0595675466
C  C338  1  0.31080000  0.93940000  0.24300000  1.0 0.0595675466
C  C339  1  0.50680000  0.24300000  0.93940000  1.0 0.0595675466
C  C340  1  0.24300000  0.50680000  0.31080000  1.0 0.0595675466
C  C341  1  0.50680000  0.93940000  0.31080000  1.0 0.0595675466
C  C342  1  0.24300000  0.31080000  0.93940000  1.0 0.0595675466
C  C343  1  0.93940000  0.50680000  0.24300000  1.0 0.0595675466
C  C344  1  0.31080000  0.24300000  0.50680000  1.0 0.0595675466
C  C345  1  0.31080000  0.50680000  0.93940000  1.0 0.0595675466
C  C346  1  0.93940000  0.24300000  0.31080000  1.0 0.0595675466
C  C347  1  0.24300000  0.93940000  0.50680000  1.0 0.0595675466
C  C348  1  0.50680000  0.31080000  0.24300000  1.0 0.0595675466
C  C349  1  0.31060000  0.93920000  0.00700000  1.0 0.0595675466
C  C350  1  0.93920000  0.31060000  0.74320000  1.0 0.0595675466
C  C351  1  0.74320000  0.00700000  0.93920000  1.0 0.0595675466
C  C352  1  0.00700000  0.74320000  0.31060000  1.0 0.0595675466
C  C353  1  0.74320000  0.31060000  0.00700000  1.0 0.0595675466
C  C354  1  0.00700000  0.93920000  0.74320000  1.0 0.0595675466
C  C355  1  0.31060000  0.74320000  0.93920000  1.0 0.0595675466
C  C356  1  0.93920000  0.00700000  0.31060000  1.0 0.0595675466
C  C357  1  0.93920000  0.74320000  0.00700000  1.0 0.0595675466
C  C358  1  0.31060000  0.00700000  0.74320000  1.0 0.0595675466
C  C359  1  0.00700000  0.31060000  0.93920000  1.0 0.0595675466
C  C360  1  0.74320000  0.93920000  0.31060000  1.0 0.0595675466
C  C361  1  0.31060000  0.93920000  0.74320000  1.0 0.0595675466
C  C362  1  0.93920000  0.31060000  0.00700000  1.0 0.0595675466
C  C363  1  0.74320000  0.00700000  0.31060000  1.0 0.0595675466
C  C364  1  0.00700000  0.74320000  0.93920000  1.0 0.0595675466
C  C365  1  0.74320000  0.31060000  0.93920000  1.0 0.0595675466
C  C366  1  0.00700000  0.93920000  0.31060000  1.0 0.0595675466
C  C367  1  0.31060000  0.74320000  0.00700000  1.0 0.0595675466
C  C368  1  0.93920000  0.00700000  0.74320000  1.0 0.0595675466
C  C369  1  0.93920000  0.74320000  0.31060000  1.0 0.0595675466
C  C370  1  0.31060000  0.00700000  0.93920000  1.0 0.0595675466
C  C371  1  0.00700000  0.31060000  0.74320000  1.0 0.0595675466
C  C372  1  0.74320000  0.93920000  0.00700000  1.0 0.0595675466
C  C373  1  0.93940000  0.31080000  0.24300000  1.0 0.0595675466
C  C374  1  0.31080000  0.93940000  0.50680000  1.0 0.0595675466
C  C375  1  0.50680000  0.24300000  0.31080000  1.0 0.0595675466
C  C376  1  0.24300000  0.50680000  0.93940000  1.0 0.0595675466
C  C377  1  0.50680000  0.93940000  0.24300000  1.0 0.0595675466
C  C378  1  0.24300000  0.31080000  0.50680000  1.0 0.0595675466
C  C379  1  0.93940000  0.50680000  0.31080000  1.0 0.0595675466
C  C380  1  0.31080000  0.24300000  0.93940000  1.0 0.0595675466
C  C381  1  0.31080000  0.50680000  0.24300000  1.0 0.0595675466
C  C382  1  0.93940000  0.24300000  0.50680000  1.0 0.0595675466
C  C383  1  0.24300000  0.93940000  0.31080000  1.0 0.0595675466
C  C384  1  0.50680000  0.31080000  0.93940000  1.0 0.0595675466
C  C385  1  0.95030000  0.28210000  0.48550000  1.0 -0.0755173061
C  C386  1  0.28210000  0.95030000  0.28210000  1.0 -0.0735887647
C  C387  1  0.48550000  0.28210000  0.95030000  1.0 -0.0755173061
C  C388  1  0.28210000  0.48550000  0.28210000  1.0 -0.0755173061
C  C389  1  0.48550000  0.95030000  0.28210000  1.0 -0.0755173061
C  C390  1  0.28210000  0.28210000  0.95030000  1.0 -0.0735887647
C  C391  1  0.95030000  0.48550000  0.28210000  1.0 -0.0735887647
C  C392  1  0.28210000  0.28210000  0.48550000  1.0 -0.0735887647
C  C393  1  0.28210000  0.48550000  0.95030000  1.0 -0.0735887647
C  C394  1  0.95030000  0.28210000  0.28210000  1.0 -0.0735887647
C  C395  1  0.28210000  0.95030000  0.48550000  1.0 -0.0735887647
C  C396  1  0.48550000  0.28210000  0.28210000  1.0 -0.0735887647
C  C397  1  0.29970000  0.96790000  0.96790000  1.0 -0.0735887647
C  C398  1  0.96790000  0.29970000  0.76450000  1.0 -0.0735887647
C  C399  1  0.76450000  0.96790000  0.96790000  1.0 -0.0735887647
C  C400  1  0.96790000  0.76450000  0.29970000  1.0 -0.0735887647
C  C401  1  0.76450000  0.29970000  0.96790000  1.0 -0.0755173061
C  C402  1  0.96790000  0.96790000  0.76450000  1.0 -0.0735887647
C  C403  1  0.29970000  0.76450000  0.96790000  1.0 -0.0755173061
C  C404  1  0.96790000  0.96790000  0.29970000  1.0 -0.0735887647
C  C405  1  0.96790000  0.76450000  0.96790000  1.0 -0.0755173061
C  C406  1  0.29970000  0.96790000  0.76450000  1.0 -0.0735887647
C  C407  1  0.96790000  0.29970000  0.96790000  1.0 -0.0755173061
C  C408  1  0.76450000  0.96790000  0.29970000  1.0 -0.0735887647
C  C409  1  0.97830000  0.29450000  0.43270000  1.0 0.6493950481
C  C410  1  0.29450000  0.97830000  0.29450000  1.0 0.6493950481
C  C411  1  0.43270000  0.29450000  0.97830000  1.0 0.6493950481
C  C412  1  0.29450000  0.43270000  0.29450000  1.0 0.6493950481
C  C413  1  0.43270000  0.97830000  0.29450000  1.0 0.6493950481
C  C414  1  0.29450000  0.29450000  0.97830000  1.0 0.6493950481
C  C415  1  0.97830000  0.43270000  0.29450000  1.0 0.6493950481
C  C416  1  0.29450000  0.29450000  0.43270000  1.0 0.6493950481
C  C417  1  0.29450000  0.43270000  0.97830000  1.0 0.6493950481
C  C418  1  0.97830000  0.29450000  0.29450000  1.0 0.6493950481
C  C419  1  0.29450000  0.97830000  0.43270000  1.0 0.6493950481
C  C420  1  0.43270000  0.29450000  0.29450000  1.0 0.6493950481
C  C421  1  0.27170000  0.95550000  0.95550000  1.0 0.6493950481
C  C422  1  0.95550000  0.27170000  0.81730000  1.0 0.6493950481
C  C423  1  0.81730000  0.95550000  0.95550000  1.0 0.6493950481
C  C424  1  0.95550000  0.81730000  0.27170000  1.0 0.6493950481
C  C425  1  0.81730000  0.27170000  0.95550000  1.0 0.6493950481
C  C426  1  0.95550000  0.95550000  0.81730000  1.0 0.6493950481
C  C427  1  0.27170000  0.81730000  0.95550000  1.0 0.6493950481
C  C428  1  0.95550000  0.95550000  0.27170000  1.0 0.6493950481
C  C429  1  0.95550000  0.81730000  0.95550000  1.0 0.6493950481
C  C430  1  0.27170000  0.95550000  0.81730000  1.0 0.6493950481
C  C431  1  0.95550000  0.27170000  0.95550000  1.0 0.6493950481
C  C432  1  0.81730000  0.95550000  0.27170000  1.0 0.6493950481
C  C433  1  0.11400000  0.25340000  0.25340000  1.0 0.6439460436
C  C434  1  0.25340000  0.11400000  0.37920000  1.0 0.6439460436
C  C435  1  0.25340000  0.37920000  0.11400000  1.0 0.6439460436
C  C436  1  0.37920000  0.25340000  0.25340000  1.0 0.6439460436
C  C437  1  0.25340000  0.11400000  0.25340000  1.0 0.6439460436
C  C438  1  0.37920000  0.25340000  0.11400000  1.0 0.6439460436
C  C439  1  0.11400000  0.25340000  0.37920000  1.0 0.6439460436
C  C440  1  0.25340000  0.37920000  0.25340000  1.0 0.6439460436
C  C441  1  0.25340000  0.25340000  0.11400000  1.0 0.6439460436
C  C442  1  0.11400000  0.37920000  0.25340000  1.0 0.6439460436
C  C443  1  0.37920000  0.11400000  0.25340000  1.0 0.6439460436
C  C444  1  0.25340000  0.25340000  0.37920000  1.0 0.6439460436
C  C445  1  0.13600000  0.99660000  0.87080000  1.0 0.6439460436
C  C446  1  0.99660000  0.13600000  0.99660000  1.0 0.6439460436
C  C447  1  0.99660000  0.87080000  0.99660000  1.0 0.6439460436
C  C448  1  0.87080000  0.99660000  0.13600000  1.0 0.6439460436
C  C449  1  0.99660000  0.13600000  0.87080000  1.0 0.6439460436
C  C450  1  0.87080000  0.99660000  0.99660000  1.0 0.6439460436
C  C451  1  0.13600000  0.99660000  0.99660000  1.0 0.6439460436
C  C452  1  0.99660000  0.87080000  0.13600000  1.0 0.6439460436
C  C453  1  0.99660000  0.99660000  0.87080000  1.0 0.6439460436
C  C454  1  0.13600000  0.87080000  0.99660000  1.0 0.6439460436
C  C455  1  0.87080000  0.13600000  0.99660000  1.0 0.6439460436
C  C456  1  0.99660000  0.99660000  0.13600000  1.0 0.6439460436
C  C457  1  0.15920000  0.22900000  0.22900000  1.0 -0.1320209347
C  C458  1  0.22900000  0.15920000  0.38280000  1.0 -0.1320209347
C  C459  1  0.22900000  0.38280000  0.15920000  1.0 -0.1320209347
C  C460  1  0.38280000  0.22900000  0.22900000  1.0 -0.1320209347
C  C461  1  0.22900000  0.15920000  0.22900000  1.0 -0.1320209347
C  C462  1  0.38280000  0.22900000  0.15920000  1.0 -0.1320209347
C  C463  1  0.15920000  0.22900000  0.38280000  1.0 -0.1320209347
C  C464  1  0.22900000  0.38280000  0.22900000  1.0 -0.1320209347
C  C465  1  0.22900000  0.22900000  0.15920000  1.0 -0.1320209347
C  C466  1  0.15920000  0.38280000  0.22900000  1.0 -0.1320209347
C  C467  1  0.38280000  0.15920000  0.22900000  1.0 -0.1320209347
C  C468  1  0.22900000  0.22900000  0.38280000  1.0 -0.1320209347
C  C469  1  0.09080000  0.02100000  0.86720000  1.0 -0.1320209347
C  C470  1  0.02100000  0.09080000  0.02100000  1.0 -0.1320209347
C  C471  1  0.02100000  0.86720000  0.02100000  1.0 -0.1320209347
C  C472  1  0.86720000  0.02100000  0.09080000  1.0 -0.1320209347
C  C473  1  0.02100000  0.09080000  0.86720000  1.0 -0.1320209347
C  C474  1  0.86720000  0.02100000  0.02100000  1.0 -0.1320209347
C  C475  1  0.09080000  0.02100000  0.02100000  1.0 -0.1320209347
C  C476  1  0.02100000  0.86720000  0.09080000  1.0 -0.1320209347
C  C477  1  0.02100000  0.02100000  0.86720000  1.0 -0.1320209347
C  C478  1  0.09080000  0.86720000  0.02100000  1.0 -0.1320209347
C  C479  1  0.86720000  0.09080000  0.02100000  1.0 -0.1320209347
C  C480  1  0.02100000  0.02100000  0.09080000  1.0 -0.1320209347
C  C481  1  0.18390000  0.18390000  0.25150000  1.0 0.087527515
C  C482  1  0.18390000  0.18390000  0.38070000  1.0 0.087527515
C  C483  1  0.25150000  0.38070000  0.18390000  1.0 0.087527515
C  C484  1  0.38070000  0.25150000  0.18390000  1.0 0.087527515
C  C485  1  0.25150000  0.18390000  0.18390000  1.0 0.087527515
C  C486  1  0.38070000  0.18390000  0.18390000  1.0 0.087527515
C  C487  1  0.18390000  0.25150000  0.38070000  1.0 0.087527515
C  C488  1  0.18390000  0.38070000  0.25150000  1.0 0.087527515
C  C489  1  0.18390000  0.25150000  0.18390000  1.0 0.087527515
C  C490  1  0.18390000  0.38070000  0.18390000  1.0 0.0834913274
C  C491  1  0.38070000  0.18390000  0.25150000  1.0 0.087527515
C  C492  1  0.25150000  0.18390000  0.38070000  1.0 0.087527515
C  C493  1  0.06610000  0.06610000  0.86930000  1.0 0.087527515
C  C494  1  0.06610000  0.06610000  0.99850000  1.0 0.087527515
C  C495  1  0.99850000  0.86930000  0.06610000  1.0 0.087527515
C  C496  1  0.86930000  0.99850000  0.06610000  1.0 0.087527515
C  C497  1  0.99850000  0.06610000  0.86930000  1.0 0.087527515
C  C498  1  0.86930000  0.06610000  0.99850000  1.0 0.087527515
C  C499  1  0.06610000  0.99850000  0.06610000  1.0 0.087527515
C  C500  1  0.06610000  0.86930000  0.06610000  1.0 0.087527515
C  C501  1  0.06610000  0.99850000  0.86930000  1.0 0.087527515
C  C502  1  0.06610000  0.86930000  0.99850000  1.0 0.087527515
C  C503  1  0.86930000  0.06610000  0.06610000  1.0 0.087527515
C  C504  1  0.99850000  0.06610000  0.06610000  1.0 0.087527515
O  O1  1  0.86240000  0.45440000  0.58260000  1.0 -0.5090016929
O  O2  1  0.45440000  0.86240000  0.10060000  1.0 -0.5090016929
O  O3  1  0.58260000  0.10060000  0.86240000  1.0 -0.5090016929
O  O4  1  0.10060000  0.58260000  0.45440000  1.0 -0.5090016929
O  O5  1  0.58260000  0.86240000  0.45440000  1.0 -0.5090016929
O  O6  1  0.10060000  0.45440000  0.86240000  1.0 -0.5090016929
O  O7  1  0.86240000  0.58260000  0.10060000  1.0 -0.5090016929
O  O8  1  0.45440000  0.10060000  0.58260000  1.0 -0.5090016929
O  O9  1  0.45440000  0.58260000  0.86240000  1.0 -0.5090016929
O  O10  1  0.86240000  0.10060000  0.45440000  1.0 -0.5090016929
O  O11  1  0.10060000  0.86240000  0.58260000  1.0 -0.5090016929
O  O12  1  0.58260000  0.45440000  0.10060000  1.0 -0.5090016929
O  O13  1  0.38760000  0.79560000  0.14940000  1.0 -0.5090016929
O  O14  1  0.79560000  0.38760000  0.66740000  1.0 -0.5090016929
O  O15  1  0.66740000  0.14940000  0.79560000  1.0 -0.5090016929
O  O16  1  0.14940000  0.66740000  0.38760000  1.0 -0.5090016929
O  O17  1  0.66740000  0.38760000  0.14940000  1.0 -0.5090016929
O  O18  1  0.14940000  0.79560000  0.66740000  1.0 -0.5090016929
O  O19  1  0.38760000  0.66740000  0.79560000  1.0 -0.5090016929
O  O20  1  0.79560000  0.14940000  0.38760000  1.0 -0.5090016929
O  O21  1  0.79560000  0.66740000  0.14940000  1.0 -0.5090016929
O  O22  1  0.38760000  0.14940000  0.66740000  1.0 -0.5090016929
O  O23  1  0.14940000  0.38760000  0.79560000  1.0 -0.5090016929
O  O24  1  0.66740000  0.79560000  0.38760000  1.0 -0.5090016929
O  O25  1  0.38760000  0.79560000  0.66740000  1.0 -0.5090016929
O  O26  1  0.79560000  0.38760000  0.14940000  1.0 -0.5090016929
O  O27  1  0.66740000  0.14940000  0.38760000  1.0 -0.5090016929
O  O28  1  0.14940000  0.66740000  0.79560000  1.0 -0.5090016929
O  O29  1  0.66740000  0.38760000  0.79560000  1.0 -0.5090016929
O  O30  1  0.14940000  0.79560000  0.38760000  1.0 -0.5090016929
O  O31  1  0.38760000  0.66740000  0.14940000  1.0 -0.5090016929
O  O32  1  0.79560000  0.14940000  0.66740000  1.0 -0.5090016929
O  O33  1  0.79560000  0.66740000  0.38760000  1.0 -0.5090016929
O  O34  1  0.38760000  0.14940000  0.79560000  1.0 -0.5090016929
O  O35  1  0.14940000  0.38760000  0.66740000  1.0 -0.5090016929
O  O36  1  0.66740000  0.79560000  0.14940000  1.0 -0.5090016929
O  O37  1  0.86240000  0.45440000  0.10060000  1.0 -0.5090016929
O  O38  1  0.45440000  0.86240000  0.58260000  1.0 -0.5090016929
O  O39  1  0.58260000  0.10060000  0.45440000  1.0 -0.5090016929
O  O40  1  0.10060000  0.58260000  0.86240000  1.0 -0.5090016929
O  O41  1  0.58260000  0.86240000  0.10060000  1.0 -0.51858528
O  O42  1  0.10060000  0.45440000  0.58260000  1.0 -0.5090016929
O  O43  1  0.86240000  0.58260000  0.45440000  1.0 -0.5090016929
O  O44  1  0.45440000  0.10060000  0.86240000  1.0 -0.5090016929
O  O45  1  0.45440000  0.58260000  0.10060000  1.0 -0.51858528
O  O46  1  0.86240000  0.10060000  0.58260000  1.0 -0.5090016929
O  O47  1  0.10060000  0.86240000  0.45440000  1.0 -0.5090016929
O  O48  1  0.58260000  0.45440000  0.86240000  1.0 -0.5090016929
O  O49  1  0.83710000  0.45590000  0.65190000  1.0 -0.4803502323
O  O50  1  0.45590000  0.83710000  0.05510000  1.0 -0.4803502323
O  O51  1  0.65190000  0.05510000  0.83710000  1.0 -0.4803502323
O  O52  1  0.05510000  0.65190000  0.45590000  1.0 -0.4803502323
O  O53  1  0.65190000  0.83710000  0.45590000  1.0 -0.4803502323
O  O54  1  0.05510000  0.45590000  0.83710000  1.0 -0.4803502323
O  O55  1  0.83710000  0.65190000  0.05510000  1.0 -0.4803502323
O  O56  1  0.45590000  0.05510000  0.65190000  1.0 -0.4803502323
O  O57  1  0.45590000  0.65190000  0.83710000  1.0 -0.4803502323
O  O58  1  0.83710000  0.05510000  0.45590000  1.0 -0.4803502323
O  O59  1  0.05510000  0.83710000  0.65190000  1.0 -0.4803502323
O  O60  1  0.65190000  0.45590000  0.05510000  1.0 -0.4803502323
O  O61  1  0.41290000  0.79410000  0.19490000  1.0 -0.4803502323
O  O62  1  0.79410000  0.41290000  0.59810000  1.0 -0.4803502323
O  O63  1  0.59810000  0.19490000  0.79410000  1.0 -0.4803502323
O  O64  1  0.19490000  0.59810000  0.41290000  1.0 -0.4803502323
O  O65  1  0.59810000  0.41290000  0.19490000  1.0 -0.4803502323
O  O66  1  0.19490000  0.79410000  0.59810000  1.0 -0.4803502323
O  O67  1  0.41290000  0.59810000  0.79410000  1.0 -0.4803502323
O  O68  1  0.79410000  0.19490000  0.41290000  1.0 -0.4803502323
O  O69  1  0.79410000  0.59810000  0.19490000  1.0 -0.4803502323
O  O70  1  0.41290000  0.19490000  0.59810000  1.0 -0.4803502323
O  O71  1  0.19490000  0.41290000  0.79410000  1.0 -0.4803502323
O  O72  1  0.59810000  0.79410000  0.41290000  1.0 -0.4803502323
O  O73  1  0.41290000  0.79410000  0.59810000  1.0 -0.4803502323
O  O74  1  0.79410000  0.41290000  0.19490000  1.0 -0.4803502323
O  O75  1  0.59810000  0.19490000  0.41290000  1.0 -0.4803502323
O  O76  1  0.19490000  0.59810000  0.79410000  1.0 -0.4803502323
O  O77  1  0.59810000  0.41290000  0.79410000  1.0 -0.4803502323
O  O78  1  0.19490000  0.79410000  0.41290000  1.0 -0.4803502323
O  O79  1  0.41290000  0.59810000  0.19490000  1.0 -0.4803502323
O  O80  1  0.79410000  0.19490000  0.59810000  1.0 -0.4803502323
O  O81  1  0.79410000  0.59810000  0.41290000  1.0 -0.4803502323
O  O82  1  0.41290000  0.19490000  0.79410000  1.0 -0.4803502323
O  O83  1  0.19490000  0.41290000  0.59810000  1.0 -0.4803502323
O  O84  1  0.59810000  0.79410000  0.19490000  1.0 -0.4803502323
O  O85  1  0.83710000  0.45590000  0.05510000  1.0 -0.4803502323
O  O86  1  0.45590000  0.83710000  0.65190000  1.0 -0.4803502323
O  O87  1  0.65190000  0.05510000  0.45590000  1.0 -0.4803502323
O  O88  1  0.05510000  0.65190000  0.83710000  1.0 -0.4803502323
O  O89  1  0.65190000  0.83710000  0.05510000  1.0 -0.4803502323
O  O90  1  0.05510000  0.45590000  0.65190000  1.0 -0.4803502323
O  O91  1  0.83710000  0.65190000  0.45590000  1.0 -0.4803502323
O  O92  1  0.45590000  0.05510000  0.83710000  1.0 -0.4803502323
O  O93  1  0.45590000  0.65190000  0.05510000  1.0 -0.4803502323
O  O94  1  0.83710000  0.05510000  0.65190000  1.0 -0.4803502323
O  O95  1  0.05510000  0.83710000  0.45590000  1.0 -0.4803502323
O  O96  1  0.65190000  0.45590000  0.83710000  1.0 -0.4803502323
O  O97  1  0.75770000  0.67250000  0.60930000  1.0 -0.6236615768
O  O98  1  0.67250000  0.75770000  0.96050000  1.0 -0.6271533073
O  O99  1  0.60930000  0.96050000  0.75770000  1.0 -0.6236615768
O  O100  1  0.96050000  0.60930000  0.67250000  1.0 -0.6271533073
O  O101  1  0.60930000  0.75770000  0.67250000  1.0 -0.6271533073
O  O102  1  0.96050000  0.67250000  0.75770000  1.0 -0.6271533073
O  O103  1  0.75770000  0.60930000  0.96050000  1.0 -0.6271533073
O  O104  1  0.67250000  0.96050000  0.60930000  1.0 -0.6271533073
O  O105  1  0.67250000  0.60930000  0.75770000  1.0 -0.6236615768
O  O106  1  0.75770000  0.96050000  0.67250000  1.0 -0.6271533073
O  O107  1  0.96050000  0.75770000  0.60930000  1.0 -0.6236615768
O  O108  1  0.60930000  0.67250000  0.96050000  1.0 -0.6271533073
O  O109  1  0.49230000  0.57750000  0.28950000  1.0 -0.6271533073
O  O110  1  0.57750000  0.49230000  0.64070000  1.0 -0.6271533073
O  O111  1  0.64070000  0.28950000  0.57750000  1.0 -0.6236615768
O  O112  1  0.28950000  0.64070000  0.49230000  1.0 -0.6271533073
O  O113  1  0.64070000  0.49230000  0.28950000  1.0 -0.6271533073
O  O114  1  0.28950000  0.57750000  0.64070000  1.0 -0.6271533073
O  O115  1  0.49230000  0.64070000  0.57750000  1.0 -0.6271533073
O  O116  1  0.57750000  0.28950000  0.49230000  1.0 -0.6236615768
O  O117  1  0.57750000  0.64070000  0.28950000  1.0 -0.6271533073
O  O118  1  0.49230000  0.28950000  0.64070000  1.0 -0.6236615768
O  O119  1  0.28950000  0.49230000  0.57750000  1.0 -0.6271533073
O  O120  1  0.64070000  0.57750000  0.49230000  1.0 -0.6271533073
O  O121  1  0.49230000  0.57750000  0.64070000  1.0 -0.6271533073
O  O122  1  0.57750000  0.49230000  0.28950000  1.0 -0.6271533073
O  O123  1  0.64070000  0.28950000  0.49230000  1.0 -0.6236615768
O  O124  1  0.28950000  0.64070000  0.57750000  1.0 -0.6271533073
O  O125  1  0.64070000  0.49230000  0.57750000  1.0 -0.6271533073
O  O126  1  0.28950000  0.57750000  0.49230000  1.0 -0.6271533073
O  O127  1  0.49230000  0.64070000  0.28950000  1.0 -0.6271533073
O  O128  1  0.57750000  0.28950000  0.64070000  1.0 -0.6236615768
O  O129  1  0.57750000  0.64070000  0.49230000  1.0 -0.6271533073
O  O130  1  0.49230000  0.28950000  0.57750000  1.0 -0.6236615768
O  O131  1  0.28950000  0.49230000  0.64070000  1.0 -0.6271533073
O  O132  1  0.64070000  0.57750000  0.28950000  1.0 -0.6271533073
O  O133  1  0.75770000  0.67250000  0.96050000  1.0 -0.6271533073
O  O134  1  0.67250000  0.75770000  0.60930000  1.0 -0.6236615768
O  O135  1  0.60930000  0.96050000  0.67250000  1.0 -0.6271533073
O  O136  1  0.96050000  0.60930000  0.75770000  1.0 -0.6236615768
O  O137  1  0.60930000  0.75770000  0.96050000  1.0 -0.6271533073
O  O138  1  0.96050000  0.67250000  0.60930000  1.0 -0.6271533073
O  O139  1  0.75770000  0.60930000  0.67250000  1.0 -0.6271533073
O  O140  1  0.67250000  0.96050000  0.75770000  1.0 -0.6271533073
O  O141  1  0.67250000  0.60930000  0.96050000  1.0 -0.6271533073
O  O142  1  0.75770000  0.96050000  0.60930000  1.0 -0.6271533073
O  O143  1  0.96050000  0.75770000  0.67250000  1.0 -0.6271533073
O  O144  1  0.60930000  0.67250000  0.75770000  1.0 -0.6236615768
O  O145  1  0.90337000  0.36937000  0.55807000  1.0 -0.5461253885
O  O146  1  0.36937000  0.90337000  0.16919000  1.0 -0.5424901019
O  O147  1  0.55807000  0.16919000  0.90337000  1.0 -0.5461253885
O  O148  1  0.16919000  0.55807000  0.36937000  1.0 -0.5461253885
O  O149  1  0.55807000  0.90337000  0.36937000  1.0 -0.5461253885
O  O150  1  0.16919000  0.36937000  0.90337000  1.0 -0.5461253885
O  O151  1  0.90337000  0.55807000  0.16919000  1.0 -0.5461253885
O  O152  1  0.36937000  0.16919000  0.55807000  1.0 -0.5461253885
O  O153  1  0.36937000  0.55807000  0.90337000  1.0 -0.5461253885
O  O154  1  0.90337000  0.16919000  0.36937000  1.0 -0.5461253885
O  O155  1  0.16919000  0.90337000  0.55807000  1.0 -0.5424901019
O  O156  1  0.55807000  0.36937000  0.16919000  1.0 -0.5424901019
O  O157  1  0.34663000  0.88063000  0.08081000  1.0 -0.5461253885
O  O158  1  0.88063000  0.34663000  0.69193000  1.0 -0.5424901019
O  O159  1  0.69193000  0.08081000  0.88063000  1.0 -0.5424901019
O  O160  1  0.08081000  0.69193000  0.34663000  1.0 -0.5424901019
O  O161  1  0.69193000  0.34663000  0.08081000  1.0 -0.5461253885
O  O162  1  0.08081000  0.88063000  0.69193000  1.0 -0.5424901019
O  O163  1  0.34663000  0.69193000  0.88063000  1.0 -0.5424901019
O  O164  1  0.88063000  0.08081000  0.34663000  1.0 -0.5461253885
O  O165  1  0.88063000  0.69193000  0.08081000  1.0 -0.5461253885
O  O166  1  0.34663000  0.08081000  0.69193000  1.0 -0.5424901019
O  O167  1  0.08081000  0.34663000  0.88063000  1.0 -0.5424901019
O  O168  1  0.69193000  0.88063000  0.34663000  1.0 -0.5461253885
O  O169  1  0.34663000  0.88063000  0.69193000  1.0 -0.5424901019
O  O170  1  0.88063000  0.34663000  0.08081000  1.0 -0.5461253885
O  O171  1  0.69193000  0.08081000  0.34663000  1.0 -0.5461253885
O  O172  1  0.08081000  0.69193000  0.88063000  1.0 -0.5424901019
O  O173  1  0.69193000  0.34663000  0.88063000  1.0 -0.5461253885
O  O174  1  0.08081000  0.88063000  0.34663000  1.0 -0.5424901019
O  O175  1  0.34663000  0.69193000  0.08081000  1.0 -0.5461253885
O  O176  1  0.88063000  0.08081000  0.69193000  1.0 -0.5461253885
O  O177  1  0.88063000  0.69193000  0.34663000  1.0 -0.5461253885
O  O178  1  0.34663000  0.08081000  0.88063000  1.0 -0.5424901019
O  O179  1  0.08081000  0.34663000  0.69193000  1.0 -0.5424901019
O  O180  1  0.69193000  0.88063000  0.08081000  1.0 -0.5461253885
O  O181  1  0.90337000  0.36937000  0.16919000  1.0 -0.5461253885
O  O182  1  0.36937000  0.90337000  0.55807000  1.0 -0.5424901019
O  O183  1  0.55807000  0.16919000  0.36937000  1.0 -0.5461253885
O  O184  1  0.16919000  0.55807000  0.90337000  1.0 -0.5461253885
O  O185  1  0.55807000  0.90337000  0.16919000  1.0 -0.5461253885
O  O186  1  0.16919000  0.36937000  0.55807000  1.0 -0.5424901019
O  O187  1  0.90337000  0.55807000  0.36937000  1.0 -0.5461253885
O  O188  1  0.36937000  0.16919000  0.90337000  1.0 -0.5461253885
O  O189  1  0.36937000  0.55807000  0.16919000  1.0 -0.5424901019
O  O190  1  0.90337000  0.16919000  0.55807000  1.0 -0.5461253885
O  O191  1  0.16919000  0.90337000  0.36937000  1.0 -0.5461253885
O  O192  1  0.55807000  0.36937000  0.90337000  1.0 -0.5461253885
O  O193  1  0.88095000  0.31711000  0.62207000  1.0 -0.5424901019
O  O194  1  0.31711000  0.88095000  0.17987000  1.0 -0.5424901019
O  O195  1  0.62207000  0.17987000  0.88095000  1.0 -0.5424901019
O  O196  1  0.17987000  0.62207000  0.31711000  1.0 -0.5461253885
O  O197  1  0.62207000  0.88095000  0.31711000  1.0 -0.5424901019
O  O198  1  0.17987000  0.31711000  0.88095000  1.0 -0.5424901019
O  O199  1  0.88095000  0.62207000  0.17987000  1.0 -0.5424901019
O  O200  1  0.31711000  0.17987000  0.62207000  1.0 -0.5461253885
O  O201  1  0.31711000  0.62207000  0.88095000  1.0 -0.5424901019
O  O202  1  0.88095000  0.17987000  0.31711000  1.0 -0.5424901019
O  O203  1  0.17987000  0.88095000  0.62207000  1.0 -0.5424901019
O  O204  1  0.62207000  0.31711000  0.17987000  1.0 -0.5424901019
O  O205  1  0.36905000  0.93289000  0.07013000  1.0 -0.5424901019
O  O206  1  0.93289000  0.36905000  0.62793000  1.0 -0.5424901019
O  O207  1  0.62793000  0.07013000  0.93289000  1.0 -0.5424901019
O  O208  1  0.07013000  0.62793000  0.36905000  1.0 -0.5424901019
O  O209  1  0.62793000  0.36905000  0.07013000  1.0 -0.5424901019
O  O210  1  0.07013000  0.93289000  0.62793000  1.0 -0.5424901019
O  O211  1  0.36905000  0.62793000  0.93289000  1.0 -0.5424901019
O  O212  1  0.93289000  0.07013000  0.36905000  1.0 -0.5461253885
O  O213  1  0.93289000  0.62793000  0.07013000  1.0 -0.5424901019
O  O214  1  0.36905000  0.07013000  0.62793000  1.0 -0.5424901019
O  O215  1  0.07013000  0.36905000  0.93289000  1.0 -0.5424901019
O  O216  1  0.62793000  0.93289000  0.36905000  1.0 -0.5424901019
O  O217  1  0.36905000  0.93289000  0.62793000  1.0 -0.5424901019
O  O218  1  0.93289000  0.36905000  0.07013000  1.0 -0.5424901019
O  O219  1  0.62793000  0.07013000  0.36905000  1.0 -0.5461253885
O  O220  1  0.07013000  0.62793000  0.93289000  1.0 -0.5424901019
O  O221  1  0.62793000  0.36905000  0.93289000  1.0 -0.5424901019
O  O222  1  0.07013000  0.93289000  0.36905000  1.0 -0.5424901019
O  O223  1  0.36905000  0.62793000  0.07013000  1.0 -0.5424901019
O  O224  1  0.93289000  0.07013000  0.62793000  1.0 -0.5424901019
O  O225  1  0.93289000  0.62793000  0.36905000  1.0 -0.5424901019
O  O226  1  0.36905000  0.07013000  0.93289000  1.0 -0.5424901019
O  O227  1  0.07013000  0.36905000  0.62793000  1.0 -0.5424901019
O  O228  1  0.62793000  0.93289000  0.07013000  1.0 -0.5424901019
O  O229  1  0.88095000  0.31711000  0.17987000  1.0 -0.5424901019
O  O230  1  0.31711000  0.88095000  0.62207000  1.0 -0.5424901019
O  O231  1  0.62207000  0.17987000  0.31711000  1.0 -0.5461253885
O  O232  1  0.17987000  0.62207000  0.88095000  1.0 -0.5424901019
O  O233  1  0.62207000  0.88095000  0.17987000  1.0 -0.5461253885
O  O234  1  0.17987000  0.31711000  0.62207000  1.0 -0.5424901019
O  O235  1  0.88095000  0.62207000  0.31711000  1.0 -0.5424901019
O  O236  1  0.31711000  0.17987000  0.88095000  1.0 -0.5424901019
O  O237  1  0.31711000  0.62207000  0.17987000  1.0 -0.5424901019
O  O238  1  0.88095000  0.17987000  0.62207000  1.0 -0.5424901019
O  O239  1  0.17987000  0.88095000  0.31711000  1.0 -0.5424901019
O  O240  1  0.62207000  0.31711000  0.88095000  1.0 -0.5424901019
O  O241  1  0.99055000  0.26589000  0.41523000  1.0 -0.5698192857
O  O242  1  0.26589000  0.99055000  0.32833000  1.0 -0.5698192857
O  O243  1  0.41523000  0.32833000  0.99055000  1.0 -0.5698192857
O  O244  1  0.32833000  0.41523000  0.26589000  1.0 -0.5698192857
O  O245  1  0.41523000  0.99055000  0.26589000  1.0 -0.5698192857
O  O246  1  0.32833000  0.26589000  0.99055000  1.0 -0.5698192857
O  O247  1  0.99055000  0.41523000  0.32833000  1.0 -0.5698192857
O  O248  1  0.26589000  0.32833000  0.41523000  1.0 -0.5698192857
O  O249  1  0.26589000  0.41523000  0.99055000  1.0 -0.5698192857
O  O250  1  0.99055000  0.32833000  0.26589000  1.0 -0.5698192857
O  O251  1  0.32833000  0.99055000  0.41523000  1.0 -0.5698192857
O  O252  1  0.41523000  0.26589000  0.32833000  1.0 -0.5698192857
O  O253  1  0.25945000  0.98411000  0.92167000  1.0 -0.5698192857
O  O254  1  0.98411000  0.25945000  0.83477000  1.0 -0.5698192857
O  O255  1  0.83477000  0.92167000  0.98411000  1.0 -0.5698192857
O  O256  1  0.92167000  0.83477000  0.25945000  1.0 -0.5698192857
O  O257  1  0.83477000  0.25945000  0.92167000  1.0 -0.5698192857
O  O258  1  0.92167000  0.98411000  0.83477000  1.0 -0.5698192857
O  O259  1  0.25945000  0.83477000  0.98411000  1.0 -0.5698192857
O  O260  1  0.98411000  0.92167000  0.25945000  1.0 -0.5698192857
O  O261  1  0.98411000  0.83477000  0.92167000  1.0 -0.5698192857
O  O262  1  0.25945000  0.92167000  0.83477000  1.0 -0.5698192857
O  O263  1  0.92167000  0.25945000  0.98411000  1.0 -0.5698192857
O  O264  1  0.83477000  0.98411000  0.25945000  1.0 -0.5698192857
O  O265  1  0.25945000  0.98411000  0.83477000  1.0 -0.5698192857
O  O266  1  0.98411000  0.25945000  0.92167000  1.0 -0.5698192857
O  O267  1  0.83477000  0.92167000  0.25945000  1.0 -0.5698192857
O  O268  1  0.92167000  0.83477000  0.98411000  1.0 -0.5698192857
O  O269  1  0.83477000  0.25945000  0.98411000  1.0 -0.5698192857
O  O270  1  0.92167000  0.98411000  0.25945000  1.0 -0.5698192857
O  O271  1  0.25945000  0.83477000  0.92167000  1.0 -0.5698192857
O  O272  1  0.98411000  0.92167000  0.83477000  1.0 -0.5698192857
O  O273  1  0.98411000  0.83477000  0.25945000  1.0 -0.5698192857
O  O274  1  0.25945000  0.92167000  0.98411000  1.0 -0.5698192857
O  O275  1  0.92167000  0.25945000  0.83477000  1.0 -0.5698192857
O  O276  1  0.83477000  0.98411000  0.92167000  1.0 -0.5698192857
O  O277  1  0.99055000  0.26589000  0.32833000  1.0 -0.5698192857
O  O278  1  0.26589000  0.99055000  0.41523000  1.0 -0.5698192857
O  O279  1  0.41523000  0.32833000  0.26589000  1.0 -0.5698192857
O  O280  1  0.32833000  0.41523000  0.99055000  1.0 -0.5698192857
O  O281  1  0.41523000  0.99055000  0.32833000  1.0 -0.5698192857
O  O282  1  0.32833000  0.26589000  0.41523000  1.0 -0.5698192857
O  O283  1  0.99055000  0.41523000  0.26589000  1.0 -0.5698192857
O  O284  1  0.26589000  0.32833000  0.99055000  1.0 -0.5698192857
O  O285  1  0.26589000  0.41523000  0.32833000  1.0 -0.5698192857
O  O286  1  0.99055000  0.32833000  0.41523000  1.0 -0.5698192857
O  O287  1  0.32833000  0.99055000  0.26589000  1.0 -0.5698192857
O  O288  1  0.41523000  0.26589000  0.99055000  1.0 -0.5698192857
O  O289  1  0.03988000  0.32004000  0.32004000  1.0 -1.0967928896
O  O290  1  0.32004000  0.03988000  0.32004000  1.0 -1.0967928896
O  O291  1  0.32004000  0.32004000  0.03988000  1.0 -1.0946221123
O  O292  1  0.32004000  0.32004000  0.32004000  1.0 -1.0967928896
O  O293  1  0.21012000  0.92996000  0.92996000  1.0 -1.0946221123
O  O294  1  0.92996000  0.21012000  0.92996000  1.0 -1.0946221123
O  O295  1  0.92996000  0.92996000  0.92996000  1.0 -1.0946221123
O  O296  1  0.92996000  0.92996000  0.21012000  1.0 -1.0946221123
O  O297  1  0.09621000  0.23249000  0.29347000  1.0 -0.51858528
O  O298  1  0.23249000  0.09621000  0.37783000  1.0 -0.51858528
O  O299  1  0.29347000  0.37783000  0.09621000  1.0 -0.51858528
O  O300  1  0.37783000  0.29347000  0.23249000  1.0 -0.51858528
O  O301  1  0.29347000  0.09621000  0.23249000  1.0 -0.51858528
O  O302  1  0.37783000  0.23249000  0.09621000  1.0 -0.51858528
O  O303  1  0.09621000  0.29347000  0.37783000  1.0 -0.51858528
O  O304  1  0.23249000  0.37783000  0.29347000  1.0 -0.51858528
O  O305  1  0.23249000  0.29347000  0.09621000  1.0 -0.51858528
O  O306  1  0.09621000  0.37783000  0.23249000  1.0 -0.51858528
O  O307  1  0.37783000  0.09621000  0.29347000  1.0 -0.51858528
O  O308  1  0.29347000  0.23249000  0.37783000  1.0 -0.51858528
O  O309  1  0.15379000  0.01751000  0.87217000  1.0 -0.51858528
O  O310  1  0.01751000  0.15379000  0.95653000  1.0 -0.51858528
O  O311  1  0.95653000  0.87217000  0.01751000  1.0 -0.51858528
O  O312  1  0.87217000  0.95653000  0.15379000  1.0 -0.51858528
O  O313  1  0.95653000  0.15379000  0.87217000  1.0 -0.51858528
O  O314  1  0.87217000  0.01751000  0.95653000  1.0 -0.51858528
O  O315  1  0.15379000  0.95653000  0.01751000  1.0 -0.51858528
O  O316  1  0.01751000  0.87217000  0.15379000  1.0 -0.51858528
O  O317  1  0.01751000  0.95653000  0.87217000  1.0 -0.51858528
O  O318  1  0.15379000  0.87217000  0.95653000  1.0 -0.51858528
O  O319  1  0.87217000  0.15379000  0.01751000  1.0 -0.51858528
O  O320  1  0.95653000  0.01751000  0.15379000  1.0 -0.51858528
O  O321  1  0.15379000  0.01751000  0.95653000  1.0 -0.51858528
O  O322  1  0.01751000  0.15379000  0.87217000  1.0 -0.51858528
O  O323  1  0.95653000  0.87217000  0.15379000  1.0 -0.51858528
O  O324  1  0.87217000  0.95653000  0.01751000  1.0 -0.51858528
O  O325  1  0.95653000  0.15379000  0.01751000  1.0 -0.51858528
O  O326  1  0.87217000  0.01751000  0.15379000  1.0 -0.51858528
O  O327  1  0.15379000  0.95653000  0.87217000  1.0 -0.51858528
O  O328  1  0.01751000  0.87217000  0.95653000  1.0 -0.51858528
O  O329  1  0.01751000  0.95653000  0.15379000  1.0 -0.51858528
O  O330  1  0.15379000  0.87217000  0.01751000  1.0 -0.51858528
O  O331  1  0.87217000  0.15379000  0.95653000  1.0 -0.51858528
O  O332  1  0.95653000  0.01751000  0.87217000  1.0 -0.51858528
O  O333  1  0.09621000  0.23249000  0.37783000  1.0 -0.51858528
O  O334  1  0.23249000  0.09621000  0.29347000  1.0 -0.51858528
O  O335  1  0.29347000  0.37783000  0.23249000  1.0 -0.51858528
O  O336  1  0.37783000  0.29347000  0.09621000  1.0 -0.51858528
O  O337  1  0.29347000  0.09621000  0.37783000  1.0 -0.51858528
O  O338  1  0.37783000  0.23249000  0.29347000  1.0 -0.51858528
O  O339  1  0.09621000  0.29347000  0.23249000  1.0 -0.51858528
O  O340  1  0.23249000  0.37783000  0.09621000  1.0 -0.51858528
O  O341  1  0.23249000  0.29347000  0.37783000  1.0 -0.51858528
O  O342  1  0.09621000  0.37783000  0.29347000  1.0 -0.51858528
O  O343  1  0.37783000  0.09621000  0.23249000  1.0 -0.51858528
O  O344  1  0.29347000  0.23249000  0.09621000  1.0 -0.51858528
O  O345  1  0.69940000  0.69940000  0.69940000  1.0 -1.2220378051
O  O346  1  0.69940000  0.69940000  0.90180000  1.0 -1.1996568372
O  O347  1  0.69940000  0.90180000  0.69940000  1.0 -1.1996568372
O  O348  1  0.90180000  0.69940000  0.69940000  1.0 -1.1996568372
O  O349  1  0.55060000  0.55060000  0.34820000  1.0 -1.1943179299
O  O350  1  0.55060000  0.55060000  0.55060000  1.0 -1.1943179299
O  O351  1  0.55060000  0.34820000  0.55060000  1.0 -1.2220378051
O  O352  1  0.34820000  0.55060000  0.55060000  1.0 -1.1943179299
