# DDEC6 charges by PACMAN v1.1 (https://github.com/mtap-research/PACMAN-charge/)
data_HANKOY_ASR_pacman
_symmetry_space_group_name_H-M   'P 1'
_cell_length_a   35.71800000
_cell_length_b   35.71800000
_cell_length_c   35.71800000
_cell_angle_alpha   60.00000000
_cell_angle_beta   60.00000000
_cell_angle_gamma   60.00000000
_symmetry_Int_Tables_number   1
_chemical_formula_structural   In6Ni6C63O50
_chemical_formula_sum   'In48 Ni48 C504 O400'
_cell_volume   32221.54798867
_cell_formula_units_Z   8
loop_
 _symmetry_equiv_pos_site_id
 _symmetry_equiv_pos_as_xyz
  1  'x, y, z'
loop_
 _atom_site_type_symbol
 _atom_site_label
 _atom_site_symmetry_multiplicity
 _atom_site_fract_x
 _atom_site_fract_y
 _atom_site_fract_z
 _atom_site_occupancy
 _atom_site_charge
In  In1  1  0.86878000  0.38122000  0.62500000  1.0 1.302319913
In  In2  1  0.38122000  0.86878000  0.12500000  1.0 1.302319913
In  In3  1  0.62500000  0.12500000  0.86878000  1.0 1.310449344
In  In4  1  0.12500000  0.62500000  0.38122000  1.0 1.310449344
In  In5  1  0.62500000  0.86878000  0.38122000  1.0 1.310449344
In  In6  1  0.12500000  0.38122000  0.86878000  1.0 1.310449344
In  In7  1  0.86878000  0.62500000  0.12500000  1.0 1.310449344
In  In8  1  0.38122000  0.12500000  0.62500000  1.0 1.310449344
In  In9  1  0.38122000  0.62500000  0.86878000  1.0 1.310449344
In  In10  1  0.86878000  0.12500000  0.38122000  1.0 1.310449344
In  In11  1  0.12500000  0.86878000  0.62500000  1.0 1.310449344
In  In12  1  0.62500000  0.38122000  0.12500000  1.0 1.310449344
In  In13  1  0.38122000  0.86878000  0.62500000  1.0 1.310449344
In  In14  1  0.86878000  0.38122000  0.12500000  1.0 1.310449344
In  In15  1  0.62500000  0.12500000  0.38122000  1.0 1.310449344
In  In16  1  0.12500000  0.62500000  0.86878000  1.0 1.310449344
In  In17  1  0.62500000  0.38122000  0.86878000  1.0 1.310449344
In  In18  1  0.12500000  0.86878000  0.38122000  1.0 1.310449344
In  In19  1  0.38122000  0.62500000  0.12500000  1.0 1.302319913
In  In20  1  0.86878000  0.12500000  0.62500000  1.0 1.310449344
In  In21  1  0.86878000  0.62500000  0.38122000  1.0 1.310449344
In  In22  1  0.38122000  0.12500000  0.86878000  1.0 1.310449344
In  In23  1  0.12500000  0.38122000  0.62500000  1.0 1.302319913
In  In24  1  0.62500000  0.86878000  0.12500000  1.0 1.302319913
In  In25  1  0.04492000  0.25198000  0.35155000  1.0 1.5266920297
In  In26  1  0.25198000  0.04492000  0.35155000  1.0 1.5246418684
In  In27  1  0.35155000  0.35155000  0.04492000  1.0 1.5266920297
In  In28  1  0.35155000  0.35155000  0.25198000  1.0 1.5266920297
In  In29  1  0.35155000  0.04492000  0.25198000  1.0 1.5266920297
In  In30  1  0.35155000  0.25198000  0.04492000  1.0 1.5266920297
In  In31  1  0.04492000  0.35155000  0.35155000  1.0 1.5266920297
In  In32  1  0.25198000  0.35155000  0.35155000  1.0 1.5266920297
In  In33  1  0.25198000  0.35155000  0.04492000  1.0 1.5266920297
In  In34  1  0.04492000  0.35155000  0.25198000  1.0 1.5266920297
In  In35  1  0.35155000  0.04492000  0.35155000  1.0 1.5246418684
In  In36  1  0.35155000  0.25198000  0.35155000  1.0 1.5266920297
In  In37  1  0.20508000  0.99802000  0.89845000  1.0 1.5266920297
In  In38  1  0.99802000  0.20508000  0.89845000  1.0 1.5266920297
In  In39  1  0.89845000  0.89845000  0.99802000  1.0 1.5266920297
In  In40  1  0.89845000  0.89845000  0.20508000  1.0 1.5266920297
In  In41  1  0.89845000  0.20508000  0.89845000  1.0 1.5266920297
In  In42  1  0.89845000  0.99802000  0.89845000  1.0 1.5266920297
In  In43  1  0.20508000  0.89845000  0.99802000  1.0 1.5266920297
In  In44  1  0.99802000  0.89845000  0.20508000  1.0 1.5266920297
In  In45  1  0.99802000  0.89845000  0.89845000  1.0 1.5266920297
In  In46  1  0.20508000  0.89845000  0.89845000  1.0 1.5266920297
In  In47  1  0.89845000  0.20508000  0.99802000  1.0 1.5266920297
In  In48  1  0.89845000  0.99802000  0.20508000  1.0 1.5246418684
Ni  Ni1  1  0.71849000  0.71849000  0.61340000  1.0 0.3469010871
Ni  Ni2  1  0.71849000  0.71849000  0.94962000  1.0 0.3469010871
Ni  Ni3  1  0.61340000  0.94962000  0.71849000  1.0 0.3469010871
Ni  Ni4  1  0.94962000  0.61340000  0.71849000  1.0 0.3469010871
Ni  Ni5  1  0.61340000  0.71849000  0.71849000  1.0 0.3469010871
Ni  Ni6  1  0.94962000  0.71849000  0.71849000  1.0 0.3469010871
Ni  Ni7  1  0.71849000  0.61340000  0.94962000  1.0 0.3438834455
Ni  Ni8  1  0.71849000  0.94962000  0.61340000  1.0 0.3438834455
Ni  Ni9  1  0.71849000  0.61340000  0.71849000  1.0 0.3469010871
Ni  Ni10  1  0.71849000  0.94962000  0.71849000  1.0 0.3469010871
Ni  Ni11  1  0.94962000  0.71849000  0.61340000  1.0 0.3469010871
Ni  Ni12  1  0.61340000  0.71849000  0.94962000  1.0 0.3438834455
Ni  Ni13  1  0.53151000  0.53151000  0.30038000  1.0 0.3469010871
Ni  Ni14  1  0.53151000  0.53151000  0.63660000  1.0 0.3469010871
Ni  Ni15  1  0.63660000  0.30038000  0.53151000  1.0 0.3438834455
Ni  Ni16  1  0.30038000  0.63660000  0.53151000  1.0 0.3469010871
Ni  Ni17  1  0.63660000  0.53151000  0.30038000  1.0 0.3469010871
Ni  Ni18  1  0.30038000  0.53151000  0.63660000  1.0 0.3469010871
Ni  Ni19  1  0.53151000  0.63660000  0.53151000  1.0 0.3438834455
Ni  Ni20  1  0.53151000  0.30038000  0.53151000  1.0 0.3438834455
Ni  Ni21  1  0.53151000  0.63660000  0.30038000  1.0 0.3438834455
Ni  Ni22  1  0.53151000  0.30038000  0.63660000  1.0 0.3438834455
Ni  Ni23  1  0.30038000  0.53151000  0.53151000  1.0 0.3469010871
Ni  Ni24  1  0.63660000  0.53151000  0.53151000  1.0 0.3469010871
Ni  Ni25  1  0.72249000  0.72249000  0.63726000  1.0 0.1185603439
Ni  Ni26  1  0.72249000  0.72249000  0.91776000  1.0 0.1185603439
Ni  Ni27  1  0.63726000  0.91776000  0.72249000  1.0 0.1185603439
Ni  Ni28  1  0.91776000  0.63726000  0.72249000  1.0 0.1185603439
Ni  Ni29  1  0.63726000  0.72249000  0.72249000  1.0 0.1185603439
Ni  Ni30  1  0.91776000  0.72249000  0.72249000  1.0 0.1185603439
Ni  Ni31  1  0.72249000  0.63726000  0.91776000  1.0 0.1185603439
Ni  Ni32  1  0.72249000  0.91776000  0.63726000  1.0 0.1185603439
Ni  Ni33  1  0.72249000  0.63726000  0.72249000  1.0 0.1185603439
Ni  Ni34  1  0.72249000  0.91776000  0.72249000  1.0 0.1185603439
Ni  Ni35  1  0.91776000  0.72249000  0.63726000  1.0 0.1185603439
Ni  Ni36  1  0.63726000  0.72249000  0.91776000  1.0 0.1185603439
Ni  Ni37  1  0.52751000  0.52751000  0.33224000  1.0 0.1113643406
Ni  Ni38  1  0.52751000  0.52751000  0.61274000  1.0 0.1113643406
Ni  Ni39  1  0.61274000  0.33224000  0.52751000  1.0 0.1185603439
Ni  Ni40  1  0.33224000  0.61274000  0.52751000  1.0 0.1185603439
Ni  Ni41  1  0.61274000  0.52751000  0.33224000  1.0 0.1113643406
Ni  Ni42  1  0.33224000  0.52751000  0.61274000  1.0 0.1113643406
Ni  Ni43  1  0.52751000  0.61274000  0.52751000  1.0 0.1185603439
Ni  Ni44  1  0.52751000  0.33224000  0.52751000  1.0 0.1185603439
Ni  Ni45  1  0.52751000  0.61274000  0.33224000  1.0 0.1185603439
Ni  Ni46  1  0.52751000  0.33224000  0.61274000  1.0 0.1185603439
Ni  Ni47  1  0.33224000  0.52751000  0.52751000  1.0 0.1185603439
Ni  Ni48  1  0.61274000  0.52751000  0.52751000  1.0 0.1185603439
C  C1  1  0.85083000  0.47001000  0.60797000  1.0 0.5874528335
C  C2  1  0.47001000  0.85083000  0.07119000  1.0 0.5814820661
C  C3  1  0.60797000  0.07119000  0.85083000  1.0 0.5814820661
C  C4  1  0.07119000  0.60797000  0.47001000  1.0 0.5874528335
C  C5  1  0.60797000  0.85083000  0.47001000  1.0 0.5874528335
C  C6  1  0.07119000  0.47001000  0.85083000  1.0 0.5874528335
C  C7  1  0.85083000  0.60797000  0.07119000  1.0 0.5814820661
C  C8  1  0.47001000  0.07119000  0.60797000  1.0 0.5874528335
C  C9  1  0.47001000  0.60797000  0.85083000  1.0 0.5874528335
C  C10  1  0.85083000  0.07119000  0.47001000  1.0 0.5874528335
C  C11  1  0.07119000  0.85083000  0.60797000  1.0 0.5814820661
C  C12  1  0.60797000  0.47001000  0.07119000  1.0 0.5874528335
C  C13  1  0.39917000  0.77999000  0.17881000  1.0 0.5814820661
C  C14  1  0.77999000  0.39917000  0.64203000  1.0 0.5814820661
C  C15  1  0.64203000  0.17881000  0.77999000  1.0 0.5814820661
C  C16  1  0.17881000  0.64203000  0.39917000  1.0 0.5874528335
C  C17  1  0.64203000  0.39917000  0.17881000  1.0 0.5874528335
C  C18  1  0.17881000  0.77999000  0.64203000  1.0 0.5874528335
C  C19  1  0.39917000  0.64203000  0.77999000  1.0 0.5874528335
C  C20  1  0.77999000  0.17881000  0.39917000  1.0 0.5874528335
C  C21  1  0.77999000  0.64203000  0.17881000  1.0 0.5814820661
C  C22  1  0.39917000  0.17881000  0.64203000  1.0 0.5814820661
C  C23  1  0.17881000  0.39917000  0.77999000  1.0 0.5874528335
C  C24  1  0.64203000  0.77999000  0.39917000  1.0 0.5874528335
C  C25  1  0.39917000  0.77999000  0.64203000  1.0 0.5874528335
C  C26  1  0.77999000  0.39917000  0.17881000  1.0 0.5874528335
C  C27  1  0.64203000  0.17881000  0.39917000  1.0 0.5874528335
C  C28  1  0.17881000  0.64203000  0.77999000  1.0 0.5874528335
C  C29  1  0.64203000  0.39917000  0.77999000  1.0 0.5874528335
C  C30  1  0.17881000  0.77999000  0.39917000  1.0 0.5874528335
C  C31  1  0.39917000  0.64203000  0.17881000  1.0 0.5814820661
C  C32  1  0.77999000  0.17881000  0.64203000  1.0 0.5814820661
C  C33  1  0.77999000  0.64203000  0.39917000  1.0 0.5874528335
C  C34  1  0.39917000  0.17881000  0.77999000  1.0 0.5874528335
C  C35  1  0.17881000  0.39917000  0.64203000  1.0 0.5814820661
C  C36  1  0.64203000  0.77999000  0.17881000  1.0 0.5814820661
C  C37  1  0.85083000  0.47001000  0.07119000  1.0 0.5874528335
C  C38  1  0.47001000  0.85083000  0.60797000  1.0 0.5814820661
C  C39  1  0.60797000  0.07119000  0.47001000  1.0 0.5874528335
C  C40  1  0.07119000  0.60797000  0.85083000  1.0 0.5874528335
C  C41  1  0.60797000  0.85083000  0.07119000  1.0 0.5814820661
C  C42  1  0.07119000  0.47001000  0.60797000  1.0 0.5814820661
C  C43  1  0.85083000  0.60797000  0.47001000  1.0 0.5874528335
C  C44  1  0.47001000  0.07119000  0.85083000  1.0 0.5874528335
C  C45  1  0.47001000  0.60797000  0.07119000  1.0 0.5814820661
C  C46  1  0.85083000  0.07119000  0.60797000  1.0 0.5874528335
C  C47  1  0.07119000  0.85083000  0.47001000  1.0 0.5874528335
C  C48  1  0.60797000  0.47001000  0.85083000  1.0 0.5874528335
C  C49  1  0.85044000  0.54039000  0.54039000  1.0 0.1113643406
C  C50  1  0.54039000  0.85044000  0.06878000  1.0 0.1185603439
C  C51  1  0.54039000  0.06878000  0.85044000  1.0 0.1185603439
C  C52  1  0.06878000  0.54039000  0.54039000  1.0 0.1185603439
C  C53  1  0.54039000  0.85044000  0.54039000  1.0 0.1113643406
C  C54  1  0.06878000  0.54039000  0.85044000  1.0 0.1113643406
C  C55  1  0.85044000  0.54039000  0.06878000  1.0 0.1113643406
C  C56  1  0.54039000  0.06878000  0.54039000  1.0 0.1113643406
C  C57  1  0.54039000  0.54039000  0.85044000  1.0 0.1113643406
C  C58  1  0.85044000  0.06878000  0.54039000  1.0 0.1113643406
C  C59  1  0.06878000  0.85044000  0.54039000  1.0 0.1113643406
C  C60  1  0.54039000  0.54039000  0.06878000  1.0 0.1113643406
C  C61  1  0.39956000  0.70961000  0.18122000  1.0 0.1185603439
C  C62  1  0.70961000  0.39956000  0.70961000  1.0 0.1185603439
C  C63  1  0.70961000  0.18122000  0.70961000  1.0 0.1185603439
C  C64  1  0.18122000  0.70961000  0.39956000  1.0 0.1113643406
C  C65  1  0.70961000  0.39956000  0.18122000  1.0 0.1113643406
C  C66  1  0.18122000  0.70961000  0.70961000  1.0 0.1113643406
C  C67  1  0.39956000  0.70961000  0.70961000  1.0 0.1113643406
C  C68  1  0.70961000  0.18122000  0.39956000  1.0 0.1113643406
C  C69  1  0.70961000  0.70961000  0.18122000  1.0 0.1113643406
C  C70  1  0.39956000  0.18122000  0.70961000  1.0 0.1113643406
C  C71  1  0.18122000  0.39956000  0.70961000  1.0 0.1185603439
C  C72  1  0.70961000  0.70961000  0.39956000  1.0 0.1113643406
C  C73  1  0.83954000  0.52132000  0.58806000  1.0 -0.0883319842
C  C74  1  0.52132000  0.83954000  0.05108000  1.0 -0.0883319842
C  C75  1  0.58806000  0.05108000  0.83954000  1.0 -0.0883319842
C  C76  1  0.05108000  0.58806000  0.52132000  1.0 -0.0883319842
C  C77  1  0.58806000  0.83954000  0.52132000  1.0 -0.0883319842
C  C78  1  0.05108000  0.52132000  0.83954000  1.0 -0.0883319842
C  C79  1  0.83954000  0.58806000  0.05108000  1.0 -0.0883319842
C  C80  1  0.52132000  0.05108000  0.58806000  1.0 -0.0883319842
C  C81  1  0.52132000  0.58806000  0.83954000  1.0 -0.0883319842
C  C82  1  0.83954000  0.05108000  0.52132000  1.0 -0.0883319842
C  C83  1  0.05108000  0.83954000  0.58806000  1.0 -0.0883319842
C  C84  1  0.58806000  0.52132000  0.05108000  1.0 -0.0883319842
C  C85  1  0.41046000  0.72868000  0.19892000  1.0 -0.0883319842
C  C86  1  0.72868000  0.41046000  0.66194000  1.0 -0.0883319842
C  C87  1  0.66194000  0.19892000  0.72868000  1.0 -0.0883319842
C  C88  1  0.19892000  0.66194000  0.41046000  1.0 -0.0883319842
C  C89  1  0.66194000  0.41046000  0.19892000  1.0 -0.0883319842
C  C90  1  0.19892000  0.72868000  0.66194000  1.0 -0.0883319842
C  C91  1  0.41046000  0.66194000  0.72868000  1.0 -0.0883319842
C  C92  1  0.72868000  0.19892000  0.41046000  1.0 -0.0883319842
C  C93  1  0.72868000  0.66194000  0.19892000  1.0 -0.0883319842
C  C94  1  0.41046000  0.19892000  0.66194000  1.0 -0.0883319842
C  C95  1  0.19892000  0.41046000  0.72868000  1.0 -0.0883319842
C  C96  1  0.66194000  0.72868000  0.41046000  1.0 -0.0883319842
C  C97  1  0.41046000  0.72868000  0.66194000  1.0 -0.0883319842
C  C98  1  0.72868000  0.41046000  0.19892000  1.0 -0.0883319842
C  C99  1  0.66194000  0.19892000  0.41046000  1.0 -0.0883319842
C  C100  1  0.19892000  0.66194000  0.72868000  1.0 -0.0883319842
C  C101  1  0.66194000  0.41046000  0.72868000  1.0 -0.0883319842
C  C102  1  0.19892000  0.72868000  0.41046000  1.0 -0.0883319842
C  C103  1  0.41046000  0.66194000  0.19892000  1.0 -0.0883319842
C  C104  1  0.72868000  0.19892000  0.66194000  1.0 -0.0883319842
C  C105  1  0.72868000  0.66194000  0.41046000  1.0 -0.0883319842
C  C106  1  0.41046000  0.19892000  0.72868000  1.0 -0.0883319842
C  C107  1  0.19892000  0.41046000  0.66194000  1.0 -0.0883319842
C  C108  1  0.66194000  0.72868000  0.19892000  1.0 -0.0883319842
C  C109  1  0.83954000  0.52132000  0.05108000  1.0 -0.0883319842
C  C110  1  0.52132000  0.83954000  0.58806000  1.0 -0.0818812197
C  C111  1  0.58806000  0.05108000  0.52132000  1.0 -0.0883319842
C  C112  1  0.05108000  0.58806000  0.83954000  1.0 -0.0883319842
C  C113  1  0.58806000  0.83954000  0.05108000  1.0 -0.0883319842
C  C114  1  0.05108000  0.52132000  0.58806000  1.0 -0.0883319842
C  C115  1  0.83954000  0.58806000  0.52132000  1.0 -0.0883319842
C  C116  1  0.52132000  0.05108000  0.83954000  1.0 -0.0883319842
C  C117  1  0.52132000  0.58806000  0.05108000  1.0 -0.0883319842
C  C118  1  0.83954000  0.05108000  0.58806000  1.0 -0.0883319842
C  C119  1  0.05108000  0.83954000  0.52132000  1.0 -0.0883319842
C  C120  1  0.58806000  0.52132000  0.83954000  1.0 -0.0883319842
C  C121  1  0.81550000  0.54808000  0.61630000  1.0 0.1413827781
C  C122  1  0.54808000  0.81550000  0.02012000  1.0 0.1471866275
C  C123  1  0.61630000  0.02012000  0.81550000  1.0 0.1471866275
C  C124  1  0.02012000  0.61630000  0.54808000  1.0 0.1471866275
C  C125  1  0.61630000  0.81550000  0.54808000  1.0 0.1471866275
C  C126  1  0.02012000  0.54808000  0.81550000  1.0 0.1471866275
C  C127  1  0.81550000  0.61630000  0.02012000  1.0 0.1471866275
C  C128  1  0.54808000  0.02012000  0.61630000  1.0 0.1471866275
C  C129  1  0.54808000  0.61630000  0.81550000  1.0 0.1471866275
C  C130  1  0.81550000  0.02012000  0.54808000  1.0 0.1471866275
C  C131  1  0.02012000  0.81550000  0.61630000  1.0 0.1471866275
C  C132  1  0.61630000  0.54808000  0.02012000  1.0 0.1471866275
C  C133  1  0.43450000  0.70192000  0.22988000  1.0 0.1471866275
C  C134  1  0.70192000  0.43450000  0.63370000  1.0 0.1471866275
C  C135  1  0.63370000  0.22988000  0.70192000  1.0 0.1471866275
C  C136  1  0.22988000  0.63370000  0.43450000  1.0 0.1471866275
C  C137  1  0.63370000  0.43450000  0.22988000  1.0 0.1471866275
C  C138  1  0.22988000  0.70192000  0.63370000  1.0 0.1471866275
C  C139  1  0.43450000  0.63370000  0.70192000  1.0 0.1471866275
C  C140  1  0.70192000  0.22988000  0.43450000  1.0 0.1471866275
C  C141  1  0.70192000  0.63370000  0.22988000  1.0 0.1471866275
C  C142  1  0.43450000  0.22988000  0.63370000  1.0 0.1471866275
C  C143  1  0.22988000  0.43450000  0.70192000  1.0 0.1471866275
C  C144  1  0.63370000  0.70192000  0.43450000  1.0 0.1471866275
C  C145  1  0.43450000  0.70192000  0.63370000  1.0 0.1471866275
C  C146  1  0.70192000  0.43450000  0.22988000  1.0 0.1471866275
C  C147  1  0.63370000  0.22988000  0.43450000  1.0 0.1471866275
C  C148  1  0.22988000  0.63370000  0.70192000  1.0 0.1471866275
C  C149  1  0.63370000  0.43450000  0.70192000  1.0 0.1471866275
C  C150  1  0.22988000  0.70192000  0.43450000  1.0 0.1471866275
C  C151  1  0.43450000  0.63370000  0.22988000  1.0 0.1471866275
C  C152  1  0.70192000  0.22988000  0.63370000  1.0 0.1471866275
C  C153  1  0.70192000  0.63370000  0.43450000  1.0 0.1471866275
C  C154  1  0.43450000  0.22988000  0.70192000  1.0 0.1471866275
C  C155  1  0.22988000  0.43450000  0.63370000  1.0 0.1413827781
C  C156  1  0.63370000  0.70192000  0.22988000  1.0 0.1471866275
C  C157  1  0.81550000  0.54808000  0.02012000  1.0 0.1471866275
C  C158  1  0.54808000  0.81550000  0.61630000  1.0 0.1471866275
C  C159  1  0.61630000  0.02012000  0.54808000  1.0 0.1471866275
C  C160  1  0.02012000  0.61630000  0.81550000  1.0 0.1471866275
C  C161  1  0.61630000  0.81550000  0.02012000  1.0 0.1471866275
C  C162  1  0.02012000  0.54808000  0.61630000  1.0 0.1413827781
C  C163  1  0.81550000  0.61630000  0.54808000  1.0 0.1471866275
C  C164  1  0.54808000  0.02012000  0.81550000  1.0 0.1471866275
C  C165  1  0.54808000  0.61630000  0.02012000  1.0 0.1471866275
C  C166  1  0.81550000  0.02012000  0.61630000  1.0 0.1471866275
C  C167  1  0.02012000  0.81550000  0.54808000  1.0 0.1471866275
C  C168  1  0.61630000  0.54808000  0.81550000  1.0 0.1471866275
C  C169  1  0.80430000  0.59569000  0.59569000  1.0 -0.3508007233
C  C170  1  0.59569000  0.80430000  0.00432000  1.0 -0.3508007233
C  C171  1  0.59569000  0.00432000  0.80430000  1.0 -0.3508007233
C  C172  1  0.00432000  0.59569000  0.59569000  1.0 -0.3508007233
C  C173  1  0.59569000  0.80430000  0.59569000  1.0 -0.360081638
C  C174  1  0.00432000  0.59569000  0.80430000  1.0 -0.3508007233
C  C175  1  0.80430000  0.59569000  0.00432000  1.0 -0.3508007233
C  C176  1  0.59569000  0.00432000  0.59569000  1.0 -0.3508007233
C  C177  1  0.59569000  0.59569000  0.80430000  1.0 -0.3508007233
C  C178  1  0.80430000  0.00432000  0.59569000  1.0 -0.3508007233
C  C179  1  0.00432000  0.80430000  0.59569000  1.0 -0.360081638
C  C180  1  0.59569000  0.59569000  0.00432000  1.0 -0.3508007233
C  C181  1  0.44570000  0.65431000  0.24568000  1.0 -0.3508007233
C  C182  1  0.65431000  0.44570000  0.65431000  1.0 -0.3508007233
C  C183  1  0.65431000  0.24568000  0.65431000  1.0 -0.360081638
C  C184  1  0.24568000  0.65431000  0.44570000  1.0 -0.3508007233
C  C185  1  0.65431000  0.44570000  0.24568000  1.0 -0.3508007233
C  C186  1  0.24568000  0.65431000  0.65431000  1.0 -0.3508007233
C  C187  1  0.44570000  0.65431000  0.65431000  1.0 -0.3508007233
C  C188  1  0.65431000  0.24568000  0.44570000  1.0 -0.360081638
C  C189  1  0.65431000  0.65431000  0.24568000  1.0 -0.3508007233
C  C190  1  0.44570000  0.24568000  0.65431000  1.0 -0.360081638
C  C191  1  0.24568000  0.44570000  0.65431000  1.0 -0.3508007233
C  C192  1  0.65431000  0.65431000  0.44570000  1.0 -0.3508007233
C  C193  1  0.77740000  0.62399000  0.62399000  1.0 0.5874528335
C  C194  1  0.62399000  0.77740000  0.97462000  1.0 0.5986286331
C  C195  1  0.62399000  0.97462000  0.77740000  1.0 0.5986286331
C  C196  1  0.97462000  0.62399000  0.62399000  1.0 0.5986286331
C  C197  1  0.62399000  0.77740000  0.62399000  1.0 0.5986286331
C  C198  1  0.97462000  0.62399000  0.77740000  1.0 0.5986286331
C  C199  1  0.77740000  0.62399000  0.97462000  1.0 0.5874528335
C  C200  1  0.62399000  0.97462000  0.62399000  1.0 0.5986286331
C  C201  1  0.62399000  0.62399000  0.77740000  1.0 0.5986286331
C  C202  1  0.77740000  0.97462000  0.62399000  1.0 0.5986286331
C  C203  1  0.97462000  0.77740000  0.62399000  1.0 0.5874528335
C  C204  1  0.62399000  0.62399000  0.97462000  1.0 0.5986286331
C  C205  1  0.47260000  0.62601000  0.27538000  1.0 0.5986286331
C  C206  1  0.62601000  0.47260000  0.62601000  1.0 0.5986286331
C  C207  1  0.62601000  0.27538000  0.62601000  1.0 0.5986286331
C  C208  1  0.27538000  0.62601000  0.47260000  1.0 0.5874528335
C  C209  1  0.62601000  0.47260000  0.27538000  1.0 0.5986286331
C  C210  1  0.27538000  0.62601000  0.62601000  1.0 0.5986286331
C  C211  1  0.47260000  0.62601000  0.62601000  1.0 0.5986286331
C  C212  1  0.62601000  0.27538000  0.47260000  1.0 0.5986286331
C  C213  1  0.62601000  0.62601000  0.27538000  1.0 0.5986286331
C  C214  1  0.47260000  0.27538000  0.62601000  1.0 0.5986286331
C  C215  1  0.27538000  0.47260000  0.62601000  1.0 0.5986286331
C  C216  1  0.62601000  0.62601000  0.47260000  1.0 0.5986286331
C  C217  1  0.90497000  0.32877000  0.57667000  1.0 0.5874528335
C  C218  1  0.32877000  0.90497000  0.18959000  1.0 0.5874528335
C  C219  1  0.57667000  0.18959000  0.90497000  1.0 0.5874528335
C  C220  1  0.18959000  0.57667000  0.32877000  1.0 0.5874528335
C  C221  1  0.57667000  0.90497000  0.32877000  1.0 0.5874528335
C  C222  1  0.18959000  0.32877000  0.90497000  1.0 0.5874528335
C  C223  1  0.90497000  0.57667000  0.18959000  1.0 0.5874528335
C  C224  1  0.32877000  0.18959000  0.57667000  1.0 0.5874528335
C  C225  1  0.32877000  0.57667000  0.90497000  1.0 0.5874528335
C  C226  1  0.90497000  0.18959000  0.32877000  1.0 0.5874528335
C  C227  1  0.18959000  0.90497000  0.57667000  1.0 0.5874528335
C  C228  1  0.57667000  0.32877000  0.18959000  1.0 0.5874528335
C  C229  1  0.34503000  0.92123000  0.06041000  1.0 0.5874528335
C  C230  1  0.92123000  0.34503000  0.67333000  1.0 0.5874528335
C  C231  1  0.67333000  0.06041000  0.92123000  1.0 0.5874528335
C  C232  1  0.06041000  0.67333000  0.34503000  1.0 0.5874528335
C  C233  1  0.67333000  0.34503000  0.06041000  1.0 0.5874528335
C  C234  1  0.06041000  0.92123000  0.67333000  1.0 0.5874528335
C  C235  1  0.34503000  0.67333000  0.92123000  1.0 0.5874528335
C  C236  1  0.92123000  0.06041000  0.34503000  1.0 0.5874528335
C  C237  1  0.92123000  0.67333000  0.06041000  1.0 0.5874528335
C  C238  1  0.34503000  0.06041000  0.67333000  1.0 0.5874528335
C  C239  1  0.06041000  0.34503000  0.92123000  1.0 0.5874528335
C  C240  1  0.67333000  0.92123000  0.34503000  1.0 0.5874528335
C  C241  1  0.34503000  0.92123000  0.67333000  1.0 0.5874528335
C  C242  1  0.92123000  0.34503000  0.06041000  1.0 0.5874528335
C  C243  1  0.67333000  0.06041000  0.34503000  1.0 0.5874528335
C  C244  1  0.06041000  0.67333000  0.92123000  1.0 0.5874528335
C  C245  1  0.67333000  0.34503000  0.92123000  1.0 0.5874528335
C  C246  1  0.06041000  0.92123000  0.34503000  1.0 0.5874528335
C  C247  1  0.34503000  0.67333000  0.06041000  1.0 0.5874528335
C  C248  1  0.92123000  0.06041000  0.67333000  1.0 0.5874528335
C  C249  1  0.92123000  0.67333000  0.34503000  1.0 0.5874528335
C  C250  1  0.34503000  0.06041000  0.92123000  1.0 0.5874528335
C  C251  1  0.06041000  0.34503000  0.67333000  1.0 0.5874528335
C  C252  1  0.67333000  0.92123000  0.06041000  1.0 0.5874528335
C  C253  1  0.90497000  0.32877000  0.18959000  1.0 0.5874528335
C  C254  1  0.32877000  0.90497000  0.57667000  1.0 0.5874528335
C  C255  1  0.57667000  0.18959000  0.32877000  1.0 0.5874528335
C  C256  1  0.18959000  0.57667000  0.90497000  1.0 0.5874528335
C  C257  1  0.57667000  0.90497000  0.18959000  1.0 0.5874528335
C  C258  1  0.18959000  0.32877000  0.57667000  1.0 0.5874528335
C  C259  1  0.90497000  0.57667000  0.32877000  1.0 0.5874528335
C  C260  1  0.32877000  0.18959000  0.90497000  1.0 0.5874528335
C  C261  1  0.32877000  0.57667000  0.18959000  1.0 0.5874528335
C  C262  1  0.90497000  0.18959000  0.57667000  1.0 0.5874528335
C  C263  1  0.18959000  0.90497000  0.32877000  1.0 0.5874528335
C  C264  1  0.57667000  0.32877000  0.90497000  1.0 0.5874528335
C  C265  1  0.90892000  0.25780000  0.57548000  1.0 0.0998427575
C  C266  1  0.25780000  0.90892000  0.25780000  1.0 0.0998427575
C  C267  1  0.57548000  0.25780000  0.90892000  1.0 0.0998427575
C  C268  1  0.25780000  0.57548000  0.25780000  1.0 0.0998427575
C  C269  1  0.57548000  0.90892000  0.25780000  1.0 0.0998427575
C  C270  1  0.25780000  0.25780000  0.90892000  1.0 0.0998427575
C  C271  1  0.90892000  0.57548000  0.25780000  1.0 0.0998427575
C  C272  1  0.25780000  0.25780000  0.57548000  1.0 0.0998427575
C  C273  1  0.25780000  0.57548000  0.90892000  1.0 0.0998427575
C  C274  1  0.90892000  0.25780000  0.25780000  1.0 0.0998427575
C  C275  1  0.25780000  0.90892000  0.57548000  1.0 0.0998427575
C  C276  1  0.57548000  0.25780000  0.25780000  1.0 0.0998427575
C  C277  1  0.34108000  0.99220000  0.99220000  1.0 0.0998427575
C  C278  1  0.99220000  0.34108000  0.67452000  1.0 0.0998427575
C  C279  1  0.67452000  0.99220000  0.99220000  1.0 0.0998427575
C  C280  1  0.99220000  0.67452000  0.34108000  1.0 0.0998427575
C  C281  1  0.67452000  0.34108000  0.99220000  1.0 0.0998427575
C  C282  1  0.99220000  0.99220000  0.67452000  1.0 0.0998427575
C  C283  1  0.34108000  0.67452000  0.99220000  1.0 0.0998427575
C  C284  1  0.99220000  0.99220000  0.34108000  1.0 0.0944095571
C  C285  1  0.99220000  0.67452000  0.99220000  1.0 0.0998427575
C  C286  1  0.34108000  0.99220000  0.67452000  1.0 0.0998427575
C  C287  1  0.99220000  0.34108000  0.99220000  1.0 0.0998427575
C  C288  1  0.67452000  0.99220000  0.34108000  1.0 0.0944095571
C  C289  1  0.92039000  0.29743000  0.55157000  1.0 -0.0281748113
C  C290  1  0.29743000  0.92039000  0.23061000  1.0 -0.0281748113
C  C291  1  0.55157000  0.23061000  0.92039000  1.0 -0.0281748113
C  C292  1  0.23061000  0.55157000  0.29743000  1.0 -0.0281748113
C  C293  1  0.55157000  0.92039000  0.29743000  1.0 -0.0281748113
C  C294  1  0.23061000  0.29743000  0.92039000  1.0 -0.0281748113
C  C295  1  0.92039000  0.55157000  0.23061000  1.0 -0.0281748113
C  C296  1  0.29743000  0.23061000  0.55157000  1.0 -0.0281748113
C  C297  1  0.29743000  0.55157000  0.92039000  1.0 -0.0281748113
C  C298  1  0.92039000  0.23061000  0.29743000  1.0 -0.0281748113
C  C299  1  0.23061000  0.92039000  0.55157000  1.0 -0.0281748113
C  C300  1  0.55157000  0.29743000  0.23061000  1.0 -0.0281748113
C  C301  1  0.32961000  0.95257000  0.01939000  1.0 -0.0281748113
C  C302  1  0.95257000  0.32961000  0.69843000  1.0 -0.0281748113
C  C303  1  0.69843000  0.01939000  0.95257000  1.0 -0.0281748113
C  C304  1  0.01939000  0.69843000  0.32961000  1.0 -0.0281748113
C  C305  1  0.69843000  0.32961000  0.01939000  1.0 -0.0281748113
C  C306  1  0.01939000  0.95257000  0.69843000  1.0 -0.0281748113
C  C307  1  0.32961000  0.69843000  0.95257000  1.0 -0.0281748113
C  C308  1  0.95257000  0.01939000  0.32961000  1.0 -0.0281748113
C  C309  1  0.95257000  0.69843000  0.01939000  1.0 -0.0281748113
C  C310  1  0.32961000  0.01939000  0.69843000  1.0 -0.0281748113
C  C311  1  0.01939000  0.32961000  0.95257000  1.0 -0.0281748113
C  C312  1  0.69843000  0.95257000  0.32961000  1.0 -0.0244019385
C  C313  1  0.32961000  0.95257000  0.69843000  1.0 -0.0281748113
C  C314  1  0.95257000  0.32961000  0.01939000  1.0 -0.0244019385
C  C315  1  0.69843000  0.01939000  0.32961000  1.0 -0.0281748113
C  C316  1  0.01939000  0.69843000  0.95257000  1.0 -0.0281748113
C  C317  1  0.69843000  0.32961000  0.95257000  1.0 -0.0281748113
C  C318  1  0.01939000  0.95257000  0.32961000  1.0 -0.0281748113
C  C319  1  0.32961000  0.69843000  0.01939000  1.0 -0.0281748113
C  C320  1  0.95257000  0.01939000  0.69843000  1.0 -0.0281748113
C  C321  1  0.95257000  0.69843000  0.32961000  1.0 -0.0281748113
C  C322  1  0.32961000  0.01939000  0.95257000  1.0 -0.0281748113
C  C323  1  0.01939000  0.32961000  0.69843000  1.0 -0.0281748113
C  C324  1  0.69843000  0.95257000  0.01939000  1.0 -0.0281748113
C  C325  1  0.92039000  0.29743000  0.23061000  1.0 -0.0281748113
C  C326  1  0.29743000  0.92039000  0.55157000  1.0 -0.0281748113
C  C327  1  0.55157000  0.23061000  0.29743000  1.0 -0.0281748113
C  C328  1  0.23061000  0.55157000  0.92039000  1.0 -0.0281748113
C  C329  1  0.55157000  0.92039000  0.23061000  1.0 -0.0281748113
C  C330  1  0.23061000  0.29743000  0.55157000  1.0 -0.0281748113
C  C331  1  0.92039000  0.55157000  0.29743000  1.0 -0.0281748113
C  C332  1  0.29743000  0.23061000  0.92039000  1.0 -0.0281748113
C  C333  1  0.29743000  0.55157000  0.23061000  1.0 -0.0281748113
C  C334  1  0.92039000  0.23061000  0.55157000  1.0 -0.0281748113
C  C335  1  0.23061000  0.92039000  0.29743000  1.0 -0.0281748113
C  C336  1  0.55157000  0.29743000  0.92039000  1.0 -0.0281748113
C  C337  1  0.94484000  0.30886000  0.50508000  1.0 0.0595133685
C  C338  1  0.30886000  0.94484000  0.24122000  1.0 0.0595133685
C  C339  1  0.50508000  0.24122000  0.94484000  1.0 0.0595133685
C  C340  1  0.24122000  0.50508000  0.30886000  1.0 0.0595133685
C  C341  1  0.50508000  0.94484000  0.30886000  1.0 0.0595133685
C  C342  1  0.24122000  0.30886000  0.94484000  1.0 0.0595133685
C  C343  1  0.94484000  0.50508000  0.24122000  1.0 0.0595133685
C  C344  1  0.30886000  0.24122000  0.50508000  1.0 0.0595133685
C  C345  1  0.30886000  0.50508000  0.94484000  1.0 0.0595133685
C  C346  1  0.94484000  0.24122000  0.30886000  1.0 0.0595133685
C  C347  1  0.24122000  0.94484000  0.50508000  1.0 0.0595133685
C  C348  1  0.50508000  0.30886000  0.24122000  1.0 0.0595133685
C  C349  1  0.30516000  0.94114000  0.00878000  1.0 0.0595133685
C  C350  1  0.94114000  0.30516000  0.74492000  1.0 0.0595133685
C  C351  1  0.74492000  0.00878000  0.94114000  1.0 0.0595133685
C  C352  1  0.00878000  0.74492000  0.30516000  1.0 0.0595133685
C  C353  1  0.74492000  0.30516000  0.00878000  1.0 0.0529370051
C  C354  1  0.00878000  0.94114000  0.74492000  1.0 0.0595133685
C  C355  1  0.30516000  0.74492000  0.94114000  1.0 0.0595133685
C  C356  1  0.94114000  0.00878000  0.30516000  1.0 0.0595133685
C  C357  1  0.94114000  0.74492000  0.00878000  1.0 0.0595133685
C  C358  1  0.30516000  0.00878000  0.74492000  1.0 0.0595133685
C  C359  1  0.00878000  0.30516000  0.94114000  1.0 0.0595133685
C  C360  1  0.74492000  0.94114000  0.30516000  1.0 0.0595133685
C  C361  1  0.30516000  0.94114000  0.74492000  1.0 0.0595133685
C  C362  1  0.94114000  0.30516000  0.00878000  1.0 0.0529370051
C  C363  1  0.74492000  0.00878000  0.30516000  1.0 0.0595133685
C  C364  1  0.00878000  0.74492000  0.94114000  1.0 0.0595133685
C  C365  1  0.74492000  0.30516000  0.94114000  1.0 0.0595133685
C  C366  1  0.00878000  0.94114000  0.30516000  1.0 0.0529370051
C  C367  1  0.30516000  0.74492000  0.00878000  1.0 0.0595133685
C  C368  1  0.94114000  0.00878000  0.74492000  1.0 0.0595133685
C  C369  1  0.94114000  0.74492000  0.30516000  1.0 0.0595133685
C  C370  1  0.30516000  0.00878000  0.94114000  1.0 0.0595133685
C  C371  1  0.00878000  0.30516000  0.74492000  1.0 0.0595133685
C  C372  1  0.74492000  0.94114000  0.00878000  1.0 0.0595133685
C  C373  1  0.94484000  0.30886000  0.24122000  1.0 0.0595133685
C  C374  1  0.30886000  0.94484000  0.50508000  1.0 0.0595133685
C  C375  1  0.50508000  0.24122000  0.30886000  1.0 0.0595133685
C  C376  1  0.24122000  0.50508000  0.94484000  1.0 0.0529370051
C  C377  1  0.50508000  0.94484000  0.24122000  1.0 0.0595133685
C  C378  1  0.24122000  0.30886000  0.50508000  1.0 0.0595133685
C  C379  1  0.94484000  0.50508000  0.30886000  1.0 0.0595133685
C  C380  1  0.30886000  0.24122000  0.94484000  1.0 0.0595133685
C  C381  1  0.30886000  0.50508000  0.24122000  1.0 0.0595133685
C  C382  1  0.94484000  0.24122000  0.50508000  1.0 0.0595133685
C  C383  1  0.24122000  0.94484000  0.30886000  1.0 0.0529370051
C  C384  1  0.50508000  0.30886000  0.94484000  1.0 0.0595133685
C  C385  1  0.95755000  0.28049000  0.48147000  1.0 -0.0818812197
C  C386  1  0.28049000  0.95755000  0.28049000  1.0 -0.0818812197
C  C387  1  0.48147000  0.28049000  0.95755000  1.0 -0.0818812197
C  C388  1  0.28049000  0.48147000  0.28049000  1.0 -0.0818812197
C  C389  1  0.48147000  0.95755000  0.28049000  1.0 -0.0818812197
C  C390  1  0.28049000  0.28049000  0.95755000  1.0 -0.0818812197
C  C391  1  0.95755000  0.48147000  0.28049000  1.0 -0.0818812197
C  C392  1  0.28049000  0.28049000  0.48147000  1.0 -0.0818812197
C  C393  1  0.28049000  0.48147000  0.95755000  1.0 -0.0818812197
C  C394  1  0.95755000  0.28049000  0.28049000  1.0 -0.0818812197
C  C395  1  0.28049000  0.95755000  0.48147000  1.0 -0.0818812197
C  C396  1  0.48147000  0.28049000  0.28049000  1.0 -0.0818812197
C  C397  1  0.29245000  0.96951000  0.96951000  1.0 -0.0818812197
C  C398  1  0.96951000  0.29245000  0.76853000  1.0 -0.0818812197
C  C399  1  0.76853000  0.96951000  0.96951000  1.0 -0.0818812197
C  C400  1  0.96951000  0.76853000  0.29245000  1.0 -0.0818812197
C  C401  1  0.76853000  0.29245000  0.96951000  1.0 -0.0818812197
C  C402  1  0.96951000  0.96951000  0.76853000  1.0 -0.0818812197
C  C403  1  0.29245000  0.76853000  0.96951000  1.0 -0.0818812197
C  C404  1  0.96951000  0.96951000  0.29245000  1.0 -0.0818812197
C  C405  1  0.96951000  0.76853000  0.96951000  1.0 -0.0818812197
C  C406  1  0.29245000  0.96951000  0.76853000  1.0 -0.0818812197
C  C407  1  0.96951000  0.29245000  0.96951000  1.0 -0.0818812197
C  C408  1  0.76853000  0.96951000  0.29245000  1.0 -0.0818812197
C  C409  1  0.98454000  0.29234000  0.43078000  1.0 0.6426541377
C  C410  1  0.29234000  0.98454000  0.29234000  1.0 0.6487374473
C  C411  1  0.43078000  0.29234000  0.98454000  1.0 0.6487374473
C  C412  1  0.29234000  0.43078000  0.29234000  1.0 0.6426541377
C  C413  1  0.43078000  0.98454000  0.29234000  1.0 0.6426541377
C  C414  1  0.29234000  0.29234000  0.98454000  1.0 0.6487374473
C  C415  1  0.98454000  0.43078000  0.29234000  1.0 0.6487374473
C  C416  1  0.29234000  0.29234000  0.43078000  1.0 0.6426541377
C  C417  1  0.29234000  0.43078000  0.98454000  1.0 0.6487374473
C  C418  1  0.98454000  0.29234000  0.29234000  1.0 0.6487374473
C  C419  1  0.29234000  0.98454000  0.43078000  1.0 0.6426541377
C  C420  1  0.43078000  0.29234000  0.29234000  1.0 0.6426541377
C  C421  1  0.26546000  0.95766000  0.95766000  1.0 0.6487374473
C  C422  1  0.95766000  0.26546000  0.81922000  1.0 0.6426541377
C  C423  1  0.81922000  0.95766000  0.95766000  1.0 0.6487374473
C  C424  1  0.95766000  0.81922000  0.26546000  1.0 0.6487374473
C  C425  1  0.81922000  0.26546000  0.95766000  1.0 0.6487374473
C  C426  1  0.95766000  0.95766000  0.81922000  1.0 0.6426541377
C  C427  1  0.26546000  0.81922000  0.95766000  1.0 0.6487374473
C  C428  1  0.95766000  0.95766000  0.26546000  1.0 0.6426541377
C  C429  1  0.95766000  0.81922000  0.95766000  1.0 0.6426541377
C  C430  1  0.26546000  0.95766000  0.81922000  1.0 0.6487374473
C  C431  1  0.95766000  0.26546000  0.95766000  1.0 0.6487374473
C  C432  1  0.81922000  0.95766000  0.26546000  1.0 0.6487374473
C  C433  1  0.11609000  0.25436000  0.25436000  1.0 0.6487374473
C  C434  1  0.25436000  0.11609000  0.37519000  1.0 0.6487374473
C  C435  1  0.25436000  0.37519000  0.11609000  1.0 0.6487374473
C  C436  1  0.37519000  0.25436000  0.25436000  1.0 0.6487374473
C  C437  1  0.25436000  0.11609000  0.25436000  1.0 0.6487374473
C  C438  1  0.37519000  0.25436000  0.11609000  1.0 0.6487374473
C  C439  1  0.11609000  0.25436000  0.37519000  1.0 0.6487374473
C  C440  1  0.25436000  0.37519000  0.25436000  1.0 0.6487374473
C  C441  1  0.25436000  0.25436000  0.11609000  1.0 0.6487374473
C  C442  1  0.11609000  0.37519000  0.25436000  1.0 0.6487374473
C  C443  1  0.37519000  0.11609000  0.25436000  1.0 0.6487374473
C  C444  1  0.25436000  0.25436000  0.37519000  1.0 0.6487374473
C  C445  1  0.13391000  0.99564000  0.87481000  1.0 0.6487374473
C  C446  1  0.99564000  0.13391000  0.99564000  1.0 0.6487374473
C  C447  1  0.99564000  0.87481000  0.99564000  1.0 0.6487374473
C  C448  1  0.87481000  0.99564000  0.13391000  1.0 0.6487374473
C  C449  1  0.99564000  0.13391000  0.87481000  1.0 0.6487374473
C  C450  1  0.87481000  0.99564000  0.99564000  1.0 0.6487374473
C  C451  1  0.13391000  0.99564000  0.99564000  1.0 0.6487374473
C  C452  1  0.99564000  0.87481000  0.13391000  1.0 0.6487374473
C  C453  1  0.99564000  0.99564000  0.87481000  1.0 0.6487374473
C  C454  1  0.13391000  0.87481000  0.99564000  1.0 0.6487374473
C  C455  1  0.87481000  0.13391000  0.99564000  1.0 0.6487374473
C  C456  1  0.99564000  0.99564000  0.13391000  1.0 0.6487374473
C  C457  1  0.16176000  0.23025000  0.23025000  1.0 -0.0953078943
C  C458  1  0.23025000  0.16176000  0.37774000  1.0 -0.0953078943
C  C459  1  0.23025000  0.37774000  0.16176000  1.0 -0.0883319842
C  C460  1  0.37774000  0.23025000  0.23025000  1.0 -0.0953078943
C  C461  1  0.23025000  0.16176000  0.23025000  1.0 -0.0953078943
C  C462  1  0.37774000  0.23025000  0.16176000  1.0 -0.0953078943
C  C463  1  0.16176000  0.23025000  0.37774000  1.0 -0.0953078943
C  C464  1  0.23025000  0.37774000  0.23025000  1.0 -0.0883319842
C  C465  1  0.23025000  0.23025000  0.16176000  1.0 -0.0953078943
C  C466  1  0.16176000  0.37774000  0.23025000  1.0 -0.0953078943
C  C467  1  0.37774000  0.16176000  0.23025000  1.0 -0.0953078943
C  C468  1  0.23025000  0.23025000  0.37774000  1.0 -0.0953078943
C  C469  1  0.08824000  0.01975000  0.87226000  1.0 -0.0953078943
C  C470  1  0.01975000  0.08824000  0.01975000  1.0 -0.0883319842
C  C471  1  0.01975000  0.87226000  0.01975000  1.0 -0.0883319842
C  C472  1  0.87226000  0.01975000  0.08824000  1.0 -0.0953078943
C  C473  1  0.01975000  0.08824000  0.87226000  1.0 -0.0953078943
C  C474  1  0.87226000  0.01975000  0.01975000  1.0 -0.0953078943
C  C475  1  0.08824000  0.01975000  0.01975000  1.0 -0.0883319842
C  C476  1  0.01975000  0.87226000  0.08824000  1.0 -0.0883319842
C  C477  1  0.01975000  0.01975000  0.87226000  1.0 -0.0953078943
C  C478  1  0.08824000  0.87226000  0.01975000  1.0 -0.0883319842
C  C479  1  0.87226000  0.08824000  0.01975000  1.0 -0.0883319842
C  C480  1  0.01975000  0.01975000  0.08824000  1.0 -0.0953078943
C  C481  1  0.18526000  0.18526000  0.25239000  1.0 0.0654765684
C  C482  1  0.18526000  0.18526000  0.37709000  1.0 0.0595133685
C  C483  1  0.25239000  0.37709000  0.18526000  1.0 0.0595133685
C  C484  1  0.37709000  0.25239000  0.18526000  1.0 0.0595133685
C  C485  1  0.25239000  0.18526000  0.18526000  1.0 0.0654765684
C  C486  1  0.37709000  0.18526000  0.18526000  1.0 0.0654765684
C  C487  1  0.18526000  0.25239000  0.37709000  1.0 0.0595133685
C  C488  1  0.18526000  0.37709000  0.25239000  1.0 0.0595133685
C  C489  1  0.18526000  0.25239000  0.18526000  1.0 0.0595133685
C  C490  1  0.18526000  0.37709000  0.18526000  1.0 0.0595133685
C  C491  1  0.37709000  0.18526000  0.25239000  1.0 0.0595133685
C  C492  1  0.25239000  0.18526000  0.37709000  1.0 0.0595133685
C  C493  1  0.06474000  0.06474000  0.87291000  1.0 0.0595133685
C  C494  1  0.06474000  0.06474000  0.99761000  1.0 0.0595133685
C  C495  1  0.99761000  0.87291000  0.06474000  1.0 0.0595133685
C  C496  1  0.87291000  0.99761000  0.06474000  1.0 0.0595133685
C  C497  1  0.99761000  0.06474000  0.87291000  1.0 0.0654765684
C  C498  1  0.87291000  0.06474000  0.99761000  1.0 0.0654765684
C  C499  1  0.06474000  0.99761000  0.06474000  1.0 0.0595133685
C  C500  1  0.06474000  0.87291000  0.06474000  1.0 0.0595133685
C  C501  1  0.06474000  0.99761000  0.87291000  1.0 0.0595133685
C  C502  1  0.06474000  0.87291000  0.99761000  1.0 0.0595133685
C  C503  1  0.87291000  0.06474000  0.06474000  1.0 0.0595133685
C  C504  1  0.99761000  0.06474000  0.06474000  1.0 0.0654765684
O  O1  1  0.86866000  0.44944000  0.58054000  1.0 -0.4959862313
O  O2  1  0.44944000  0.86866000  0.10136000  1.0 -0.4903332109
O  O3  1  0.58054000  0.10136000  0.86866000  1.0 -0.4959862313
O  O4  1  0.10136000  0.58054000  0.44944000  1.0 -0.4903332109
O  O5  1  0.58054000  0.86866000  0.44944000  1.0 -0.4903332109
O  O6  1  0.10136000  0.44944000  0.86866000  1.0 -0.4959862313
O  O7  1  0.86866000  0.58054000  0.10136000  1.0 -0.4903332109
O  O8  1  0.44944000  0.10136000  0.58054000  1.0 -0.4903332109
O  O9  1  0.44944000  0.58054000  0.86866000  1.0 -0.4903332109
O  O10  1  0.86866000  0.10136000  0.44944000  1.0 -0.4903332109
O  O11  1  0.10136000  0.86866000  0.58054000  1.0 -0.4903332109
O  O12  1  0.58054000  0.44944000  0.10136000  1.0 -0.4903332109
O  O13  1  0.38134000  0.80056000  0.14864000  1.0 -0.4903332109
O  O14  1  0.80056000  0.38134000  0.66946000  1.0 -0.4903332109
O  O15  1  0.66946000  0.14864000  0.80056000  1.0 -0.4959862313
O  O16  1  0.14864000  0.66946000  0.38134000  1.0 -0.4903332109
O  O17  1  0.66946000  0.38134000  0.14864000  1.0 -0.4903332109
O  O18  1  0.14864000  0.80056000  0.66946000  1.0 -0.4903332109
O  O19  1  0.38134000  0.66946000  0.80056000  1.0 -0.4903332109
O  O20  1  0.80056000  0.14864000  0.38134000  1.0 -0.4959862313
O  O21  1  0.80056000  0.66946000  0.14864000  1.0 -0.4903332109
O  O22  1  0.38134000  0.14864000  0.66946000  1.0 -0.4903332109
O  O23  1  0.14864000  0.38134000  0.80056000  1.0 -0.4959862313
O  O24  1  0.66946000  0.80056000  0.38134000  1.0 -0.4903332109
O  O25  1  0.38134000  0.80056000  0.66946000  1.0 -0.4903332109
O  O26  1  0.80056000  0.38134000  0.14864000  1.0 -0.4903332109
O  O27  1  0.66946000  0.14864000  0.38134000  1.0 -0.4959862313
O  O28  1  0.14864000  0.66946000  0.80056000  1.0 -0.4903332109
O  O29  1  0.66946000  0.38134000  0.80056000  1.0 -0.4959862313
O  O30  1  0.14864000  0.80056000  0.38134000  1.0 -0.4903332109
O  O31  1  0.38134000  0.66946000  0.14864000  1.0 -0.4903332109
O  O32  1  0.80056000  0.14864000  0.66946000  1.0 -0.4903332109
O  O33  1  0.80056000  0.66946000  0.38134000  1.0 -0.4903332109
O  O34  1  0.38134000  0.14864000  0.80056000  1.0 -0.4903332109
O  O35  1  0.14864000  0.38134000  0.66946000  1.0 -0.4903332109
O  O36  1  0.66946000  0.80056000  0.14864000  1.0 -0.4903332109
O  O37  1  0.86866000  0.44944000  0.10136000  1.0 -0.4903332109
O  O38  1  0.44944000  0.86866000  0.58054000  1.0 -0.4903332109
O  O39  1  0.58054000  0.10136000  0.44944000  1.0 -0.4903332109
O  O40  1  0.10136000  0.58054000  0.86866000  1.0 -0.4903332109
O  O41  1  0.58054000  0.86866000  0.10136000  1.0 -0.4903332109
O  O42  1  0.10136000  0.44944000  0.58054000  1.0 -0.4959862313
O  O43  1  0.86866000  0.58054000  0.44944000  1.0 -0.4903332109
O  O44  1  0.44944000  0.10136000  0.86866000  1.0 -0.4959862313
O  O45  1  0.44944000  0.58054000  0.10136000  1.0 -0.4903332109
O  O46  1  0.86866000  0.10136000  0.58054000  1.0 -0.4959862313
O  O47  1  0.10136000  0.86866000  0.44944000  1.0 -0.4903332109
O  O48  1  0.58054000  0.44944000  0.86866000  1.0 -0.4959862313
O  O49  1  0.84186000  0.45026000  0.64888000  1.0 -0.4591250718
O  O50  1  0.45026000  0.84186000  0.05900000  1.0 -0.4591250718
O  O51  1  0.64888000  0.05900000  0.84186000  1.0 -0.4591250718
O  O52  1  0.05900000  0.64888000  0.45026000  1.0 -0.4591250718
O  O53  1  0.64888000  0.84186000  0.45026000  1.0 -0.4591250718
O  O54  1  0.05900000  0.45026000  0.84186000  1.0 -0.4591250718
O  O55  1  0.84186000  0.64888000  0.05900000  1.0 -0.4591250718
O  O56  1  0.45026000  0.05900000  0.64888000  1.0 -0.4591250718
O  O57  1  0.45026000  0.64888000  0.84186000  1.0 -0.4591250718
O  O58  1  0.84186000  0.05900000  0.45026000  1.0 -0.4591250718
O  O59  1  0.05900000  0.84186000  0.64888000  1.0 -0.4591250718
O  O60  1  0.64888000  0.45026000  0.05900000  1.0 -0.4591250718
O  O61  1  0.40814000  0.79974000  0.19100000  1.0 -0.4591250718
O  O62  1  0.79974000  0.40814000  0.60112000  1.0 -0.4591250718
O  O63  1  0.60112000  0.19100000  0.79974000  1.0 -0.4591250718
O  O64  1  0.19100000  0.60112000  0.40814000  1.0 -0.4591250718
O  O65  1  0.60112000  0.40814000  0.19100000  1.0 -0.4591250718
O  O66  1  0.19100000  0.79974000  0.60112000  1.0 -0.4591250718
O  O67  1  0.40814000  0.60112000  0.79974000  1.0 -0.4591250718
O  O68  1  0.79974000  0.19100000  0.40814000  1.0 -0.4591250718
O  O69  1  0.79974000  0.60112000  0.19100000  1.0 -0.4591250718
O  O70  1  0.40814000  0.19100000  0.60112000  1.0 -0.4591250718
O  O71  1  0.19100000  0.40814000  0.79974000  1.0 -0.4591250718
O  O72  1  0.60112000  0.79974000  0.40814000  1.0 -0.4591250718
O  O73  1  0.40814000  0.79974000  0.60112000  1.0 -0.4591250718
O  O74  1  0.79974000  0.40814000  0.19100000  1.0 -0.4591250718
O  O75  1  0.60112000  0.19100000  0.40814000  1.0 -0.4591250718
O  O76  1  0.19100000  0.60112000  0.79974000  1.0 -0.4591250718
O  O77  1  0.60112000  0.40814000  0.79974000  1.0 -0.4591250718
O  O78  1  0.19100000  0.79974000  0.40814000  1.0 -0.4591250718
O  O79  1  0.40814000  0.60112000  0.19100000  1.0 -0.4591250718
O  O80  1  0.79974000  0.19100000  0.60112000  1.0 -0.4591250718
O  O81  1  0.79974000  0.60112000  0.40814000  1.0 -0.4591250718
O  O82  1  0.40814000  0.19100000  0.79974000  1.0 -0.4591250718
O  O83  1  0.19100000  0.40814000  0.60112000  1.0 -0.4591250718
O  O84  1  0.60112000  0.79974000  0.19100000  1.0 -0.4591250718
O  O85  1  0.84186000  0.45026000  0.05900000  1.0 -0.4591250718
O  O86  1  0.45026000  0.84186000  0.64888000  1.0 -0.4591250718
O  O87  1  0.64888000  0.05900000  0.45026000  1.0 -0.4591250718
O  O88  1  0.05900000  0.64888000  0.84186000  1.0 -0.4591250718
O  O89  1  0.64888000  0.84186000  0.05900000  1.0 -0.4591250718
O  O90  1  0.05900000  0.45026000  0.64888000  1.0 -0.4591250718
O  O91  1  0.84186000  0.64888000  0.45026000  1.0 -0.4591250718
O  O92  1  0.45026000  0.05900000  0.84186000  1.0 -0.4591250718
O  O93  1  0.45026000  0.64888000  0.05900000  1.0 -0.4591250718
O  O94  1  0.84186000  0.05900000  0.64888000  1.0 -0.4591250718
O  O95  1  0.05900000  0.84186000  0.45026000  1.0 -0.4591250718
O  O96  1  0.64888000  0.45026000  0.84186000  1.0 -0.4591250718
O  O97  1  0.76744000  0.66794000  0.60516000  1.0 -0.308052587
O  O98  1  0.66794000  0.76744000  0.95946000  1.0 -0.308052587
O  O99  1  0.60516000  0.95946000  0.76744000  1.0 -0.308052587
O  O100  1  0.95946000  0.60516000  0.66794000  1.0 -0.308052587
O  O101  1  0.60516000  0.76744000  0.66794000  1.0 -0.308052587
O  O102  1  0.95946000  0.66794000  0.76744000  1.0 -0.308052587
O  O103  1  0.76744000  0.60516000  0.95946000  1.0 -0.308052587
O  O104  1  0.66794000  0.95946000  0.60516000  1.0 -0.308052587
O  O105  1  0.66794000  0.60516000  0.76744000  1.0 -0.308052587
O  O106  1  0.76744000  0.95946000  0.66794000  1.0 -0.308052587
O  O107  1  0.95946000  0.76744000  0.60516000  1.0 -0.308052587
O  O108  1  0.60516000  0.66794000  0.95946000  1.0 -0.308052587
O  O109  1  0.48256000  0.58206000  0.29054000  1.0 -0.308052587
O  O110  1  0.58206000  0.48256000  0.64484000  1.0 -0.308052587
O  O111  1  0.64484000  0.29054000  0.58206000  1.0 -0.308052587
O  O112  1  0.29054000  0.64484000  0.48256000  1.0 -0.308052587
O  O113  1  0.64484000  0.48256000  0.29054000  1.0 -0.308052587
O  O114  1  0.29054000  0.58206000  0.64484000  1.0 -0.308052587
O  O115  1  0.48256000  0.64484000  0.58206000  1.0 -0.308052587
O  O116  1  0.58206000  0.29054000  0.48256000  1.0 -0.308052587
O  O117  1  0.58206000  0.64484000  0.29054000  1.0 -0.308052587
O  O118  1  0.48256000  0.29054000  0.64484000  1.0 -0.308052587
O  O119  1  0.29054000  0.48256000  0.58206000  1.0 -0.308052587
O  O120  1  0.64484000  0.58206000  0.48256000  1.0 -0.308052587
O  O121  1  0.48256000  0.58206000  0.64484000  1.0 -0.308052587
O  O122  1  0.58206000  0.48256000  0.29054000  1.0 -0.308052587
O  O123  1  0.64484000  0.29054000  0.48256000  1.0 -0.308052587
O  O124  1  0.29054000  0.64484000  0.58206000  1.0 -0.308052587
O  O125  1  0.64484000  0.48256000  0.58206000  1.0 -0.308052587
O  O126  1  0.29054000  0.58206000  0.48256000  1.0 -0.308052587
O  O127  1  0.48256000  0.64484000  0.29054000  1.0 -0.308052587
O  O128  1  0.58206000  0.29054000  0.64484000  1.0 -0.308052587
O  O129  1  0.58206000  0.64484000  0.48256000  1.0 -0.308052587
O  O130  1  0.48256000  0.29054000  0.58206000  1.0 -0.308052587
O  O131  1  0.29054000  0.48256000  0.64484000  1.0 -0.308052587
O  O132  1  0.64484000  0.58206000  0.29054000  1.0 -0.308052587
O  O133  1  0.76744000  0.66794000  0.95946000  1.0 -0.308052587
O  O134  1  0.66794000  0.76744000  0.60516000  1.0 -0.308052587
O  O135  1  0.60516000  0.95946000  0.66794000  1.0 -0.308052587
O  O136  1  0.95946000  0.60516000  0.76744000  1.0 -0.308052587
O  O137  1  0.60516000  0.76744000  0.95946000  1.0 -0.308052587
O  O138  1  0.95946000  0.66794000  0.60516000  1.0 -0.308052587
O  O139  1  0.76744000  0.60516000  0.66794000  1.0 -0.308052587
O  O140  1  0.66794000  0.95946000  0.76744000  1.0 -0.308052587
O  O141  1  0.66794000  0.60516000  0.95946000  1.0 -0.308052587
O  O142  1  0.76744000  0.95946000  0.60516000  1.0 -0.308052587
O  O143  1  0.95946000  0.76744000  0.66794000  1.0 -0.308052587
O  O144  1  0.60516000  0.66794000  0.76744000  1.0 -0.308052587
O  O145  1  0.90825000  0.36729000  0.55645000  1.0 -0.5127793417
O  O146  1  0.36729000  0.90825000  0.16801000  1.0 -0.5127793417
O  O147  1  0.55645000  0.16801000  0.90825000  1.0 -0.5127793417
O  O148  1  0.16801000  0.55645000  0.36729000  1.0 -0.5127793417
O  O149  1  0.55645000  0.90825000  0.36729000  1.0 -0.5127793417
O  O150  1  0.16801000  0.36729000  0.90825000  1.0 -0.5127793417
O  O151  1  0.90825000  0.55645000  0.16801000  1.0 -0.5176528132
O  O152  1  0.36729000  0.16801000  0.55645000  1.0 -0.5127793417
O  O153  1  0.36729000  0.55645000  0.90825000  1.0 -0.5127793417
O  O154  1  0.90825000  0.16801000  0.36729000  1.0 -0.5127793417
O  O155  1  0.16801000  0.90825000  0.55645000  1.0 -0.5127793417
O  O156  1  0.55645000  0.36729000  0.16801000  1.0 -0.5127793417
O  O157  1  0.34175000  0.88271000  0.08199000  1.0 -0.5127793417
O  O158  1  0.88271000  0.34175000  0.69355000  1.0 -0.5127793417
O  O159  1  0.69355000  0.08199000  0.88271000  1.0 -0.5127793417
O  O160  1  0.08199000  0.69355000  0.34175000  1.0 -0.5127793417
O  O161  1  0.69355000  0.34175000  0.08199000  1.0 -0.5127793417
O  O162  1  0.08199000  0.88271000  0.69355000  1.0 -0.5127793417
O  O163  1  0.34175000  0.69355000  0.88271000  1.0 -0.5127793417
O  O164  1  0.88271000  0.08199000  0.34175000  1.0 -0.5127793417
O  O165  1  0.88271000  0.69355000  0.08199000  1.0 -0.5127793417
O  O166  1  0.34175000  0.08199000  0.69355000  1.0 -0.5127793417
O  O167  1  0.08199000  0.34175000  0.88271000  1.0 -0.5127793417
O  O168  1  0.69355000  0.88271000  0.34175000  1.0 -0.5127793417
O  O169  1  0.34175000  0.88271000  0.69355000  1.0 -0.5127793417
O  O170  1  0.88271000  0.34175000  0.08199000  1.0 -0.5127793417
O  O171  1  0.69355000  0.08199000  0.34175000  1.0 -0.5127793417
O  O172  1  0.08199000  0.69355000  0.88271000  1.0 -0.5127793417
O  O173  1  0.69355000  0.34175000  0.88271000  1.0 -0.5127793417
O  O174  1  0.08199000  0.88271000  0.34175000  1.0 -0.5127793417
O  O175  1  0.34175000  0.69355000  0.08199000  1.0 -0.5127793417
O  O176  1  0.88271000  0.08199000  0.69355000  1.0 -0.5127793417
O  O177  1  0.88271000  0.69355000  0.34175000  1.0 -0.5127793417
O  O178  1  0.34175000  0.08199000  0.88271000  1.0 -0.5127793417
O  O179  1  0.08199000  0.34175000  0.69355000  1.0 -0.5127793417
O  O180  1  0.69355000  0.88271000  0.08199000  1.0 -0.5127793417
O  O181  1  0.90825000  0.36729000  0.16801000  1.0 -0.5127793417
O  O182  1  0.36729000  0.90825000  0.55645000  1.0 -0.5127793417
O  O183  1  0.55645000  0.16801000  0.36729000  1.0 -0.5127793417
O  O184  1  0.16801000  0.55645000  0.90825000  1.0 -0.5127793417
O  O185  1  0.55645000  0.90825000  0.16801000  1.0 -0.5127793417
O  O186  1  0.16801000  0.36729000  0.55645000  1.0 -0.5127793417
O  O187  1  0.90825000  0.55645000  0.36729000  1.0 -0.5127793417
O  O188  1  0.36729000  0.16801000  0.90825000  1.0 -0.5127793417
O  O189  1  0.36729000  0.55645000  0.16801000  1.0 -0.5127793417
O  O190  1  0.90825000  0.16801000  0.55645000  1.0 -0.5127793417
O  O191  1  0.16801000  0.90825000  0.36729000  1.0 -0.5127793417
O  O192  1  0.55645000  0.36729000  0.90825000  1.0 -0.5127793417
O  O193  1  0.88566000  0.31560000  0.61908000  1.0 -0.5336546992
O  O194  1  0.31560000  0.88566000  0.17966000  1.0 -0.5336546992
O  O195  1  0.61908000  0.17966000  0.88566000  1.0 -0.5336546992
O  O196  1  0.17966000  0.61908000  0.31560000  1.0 -0.5336546992
O  O197  1  0.61908000  0.88566000  0.31560000  1.0 -0.5336546992
O  O198  1  0.17966000  0.31560000  0.88566000  1.0 -0.5336546992
O  O199  1  0.88566000  0.61908000  0.17966000  1.0 -0.5370129255
O  O200  1  0.31560000  0.17966000  0.61908000  1.0 -0.5370129255
O  O201  1  0.31560000  0.61908000  0.88566000  1.0 -0.5336546992
O  O202  1  0.88566000  0.17966000  0.31560000  1.0 -0.5336546992
O  O203  1  0.17966000  0.88566000  0.61908000  1.0 -0.5370129255
O  O204  1  0.61908000  0.31560000  0.17966000  1.0 -0.5336546992
O  O205  1  0.36434000  0.93440000  0.07034000  1.0 -0.5336546992
O  O206  1  0.93440000  0.36434000  0.63092000  1.0 -0.5370129255
O  O207  1  0.63092000  0.07034000  0.93440000  1.0 -0.5370129255
O  O208  1  0.07034000  0.63092000  0.36434000  1.0 -0.5336546992
O  O209  1  0.63092000  0.36434000  0.07034000  1.0 -0.5336546992
O  O210  1  0.07034000  0.93440000  0.63092000  1.0 -0.5336546992
O  O211  1  0.36434000  0.63092000  0.93440000  1.0 -0.5336546992
O  O212  1  0.93440000  0.07034000  0.36434000  1.0 -0.5336546992
O  O213  1  0.93440000  0.63092000  0.07034000  1.0 -0.5336546992
O  O214  1  0.36434000  0.07034000  0.63092000  1.0 -0.5336546992
O  O215  1  0.07034000  0.36434000  0.93440000  1.0 -0.5370129255
O  O216  1  0.63092000  0.93440000  0.36434000  1.0 -0.5336546992
O  O217  1  0.36434000  0.93440000  0.63092000  1.0 -0.5336546992
O  O218  1  0.93440000  0.36434000  0.07034000  1.0 -0.5336546992
O  O219  1  0.63092000  0.07034000  0.36434000  1.0 -0.5336546992
O  O220  1  0.07034000  0.63092000  0.93440000  1.0 -0.5336546992
O  O221  1  0.63092000  0.36434000  0.93440000  1.0 -0.5336546992
O  O222  1  0.07034000  0.93440000  0.36434000  1.0 -0.5336546992
O  O223  1  0.36434000  0.63092000  0.07034000  1.0 -0.5336546992
O  O224  1  0.93440000  0.07034000  0.63092000  1.0 -0.5336546992
O  O225  1  0.93440000  0.63092000  0.36434000  1.0 -0.5336546992
O  O226  1  0.36434000  0.07034000  0.93440000  1.0 -0.5336546992
O  O227  1  0.07034000  0.36434000  0.63092000  1.0 -0.5336546992
O  O228  1  0.63092000  0.93440000  0.07034000  1.0 -0.5336546992
O  O229  1  0.88566000  0.31560000  0.17966000  1.0 -0.5336546992
O  O230  1  0.31560000  0.88566000  0.61908000  1.0 -0.5336546992
O  O231  1  0.61908000  0.17966000  0.31560000  1.0 -0.5336546992
O  O232  1  0.17966000  0.61908000  0.88566000  1.0 -0.5336546992
O  O233  1  0.61908000  0.88566000  0.17966000  1.0 -0.5336546992
O  O234  1  0.17966000  0.31560000  0.61908000  1.0 -0.5336546992
O  O235  1  0.88566000  0.61908000  0.31560000  1.0 -0.5336546992
O  O236  1  0.31560000  0.17966000  0.88566000  1.0 -0.5336546992
O  O237  1  0.31560000  0.61908000  0.17966000  1.0 -0.5336546992
O  O238  1  0.88566000  0.17966000  0.61908000  1.0 -0.5370129255
O  O239  1  0.17966000  0.88566000  0.31560000  1.0 -0.5336546992
O  O240  1  0.61908000  0.31560000  0.88566000  1.0 -0.5336546992
O  O241  1  0.99492000  0.26534000  0.41288000  1.0 -0.5176528132
O  O242  1  0.26534000  0.99492000  0.32686000  1.0 -0.5176528132
O  O243  1  0.41288000  0.32686000  0.99492000  1.0 -0.5176528132
O  O244  1  0.32686000  0.41288000  0.26534000  1.0 -0.5127793417
O  O245  1  0.41288000  0.99492000  0.26534000  1.0 -0.5176528132
O  O246  1  0.32686000  0.26534000  0.99492000  1.0 -0.5176528132
O  O247  1  0.99492000  0.41288000  0.32686000  1.0 -0.5176528132
O  O248  1  0.26534000  0.32686000  0.41288000  1.0 -0.5176528132
O  O249  1  0.26534000  0.41288000  0.99492000  1.0 -0.5127793417
O  O250  1  0.99492000  0.32686000  0.26534000  1.0 -0.5176528132
O  O251  1  0.32686000  0.99492000  0.41288000  1.0 -0.5176528132
O  O252  1  0.41288000  0.26534000  0.32686000  1.0 -0.5176528132
O  O253  1  0.25508000  0.98466000  0.92314000  1.0 -0.5176528132
O  O254  1  0.98466000  0.25508000  0.83712000  1.0 -0.5176528132
O  O255  1  0.83712000  0.92314000  0.98466000  1.0 -0.5176528132
O  O256  1  0.92314000  0.83712000  0.25508000  1.0 -0.5176528132
O  O257  1  0.83712000  0.25508000  0.92314000  1.0 -0.5176528132
O  O258  1  0.92314000  0.98466000  0.83712000  1.0 -0.5176528132
O  O259  1  0.25508000  0.83712000  0.98466000  1.0 -0.5127793417
O  O260  1  0.98466000  0.92314000  0.25508000  1.0 -0.5176528132
O  O261  1  0.98466000  0.83712000  0.92314000  1.0 -0.5176528132
O  O262  1  0.25508000  0.92314000  0.83712000  1.0 -0.5176528132
O  O263  1  0.92314000  0.25508000  0.98466000  1.0 -0.5176528132
O  O264  1  0.83712000  0.98466000  0.25508000  1.0 -0.5176528132
O  O265  1  0.25508000  0.98466000  0.83712000  1.0 -0.5176528132
O  O266  1  0.98466000  0.25508000  0.92314000  1.0 -0.5176528132
O  O267  1  0.83712000  0.92314000  0.25508000  1.0 -0.5176528132
O  O268  1  0.92314000  0.83712000  0.98466000  1.0 -0.5176528132
O  O269  1  0.83712000  0.25508000  0.98466000  1.0 -0.5176528132
O  O270  1  0.92314000  0.98466000  0.25508000  1.0 -0.5176528132
O  O271  1  0.25508000  0.83712000  0.92314000  1.0 -0.5127793417
O  O272  1  0.98466000  0.92314000  0.83712000  1.0 -0.5176528132
O  O273  1  0.98466000  0.83712000  0.25508000  1.0 -0.5176528132
O  O274  1  0.25508000  0.92314000  0.98466000  1.0 -0.5176528132
O  O275  1  0.92314000  0.25508000  0.83712000  1.0 -0.5176528132
O  O276  1  0.83712000  0.98466000  0.92314000  1.0 -0.5176528132
O  O277  1  0.99492000  0.26534000  0.32686000  1.0 -0.5176528132
O  O278  1  0.26534000  0.99492000  0.41288000  1.0 -0.5176528132
O  O279  1  0.41288000  0.32686000  0.26534000  1.0 -0.5176528132
O  O280  1  0.32686000  0.41288000  0.99492000  1.0 -0.5127793417
O  O281  1  0.41288000  0.99492000  0.32686000  1.0 -0.5176528132
O  O282  1  0.32686000  0.26534000  0.41288000  1.0 -0.5176528132
O  O283  1  0.99492000  0.41288000  0.26534000  1.0 -0.5176528132
O  O284  1  0.26534000  0.32686000  0.99492000  1.0 -0.5176528132
O  O285  1  0.26534000  0.41288000  0.32686000  1.0 -0.5176528132
O  O286  1  0.99492000  0.32686000  0.41288000  1.0 -0.5176528132
O  O287  1  0.32686000  0.99492000  0.26534000  1.0 -0.5176528132
O  O288  1  0.41288000  0.26534000  0.99492000  1.0 -0.5176528132
O  O289  1  0.03481000  0.32173000  0.32173000  1.0 -1.0876512062
O  O290  1  0.32173000  0.03481000  0.32173000  1.0 -1.0876512062
O  O291  1  0.32173000  0.32173000  0.03481000  1.0 -1.0876512062
O  O292  1  0.32173000  0.32173000  0.32173000  1.0 -1.0876512062
O  O293  1  0.21519000  0.92827000  0.92827000  1.0 -1.0876512062
O  O294  1  0.92827000  0.21519000  0.92827000  1.0 -1.0876512062
O  O295  1  0.92827000  0.92827000  0.92827000  1.0 -1.0876512062
O  O296  1  0.92827000  0.92827000  0.21519000  1.0 -1.0876512062
O  O297  1  0.09688000  0.23422000  0.29498000  1.0 -0.5370129255
O  O298  1  0.23422000  0.09688000  0.37392000  1.0 -0.5370129255
O  O299  1  0.29498000  0.37392000  0.09688000  1.0 -0.5370129255
O  O300  1  0.37392000  0.29498000  0.23422000  1.0 -0.5370129255
O  O301  1  0.29498000  0.09688000  0.23422000  1.0 -0.5370129255
O  O302  1  0.37392000  0.23422000  0.09688000  1.0 -0.5370129255
O  O303  1  0.09688000  0.29498000  0.37392000  1.0 -0.5370129255
O  O304  1  0.23422000  0.37392000  0.29498000  1.0 -0.5370129255
O  O305  1  0.23422000  0.29498000  0.09688000  1.0 -0.5370129255
O  O306  1  0.09688000  0.37392000  0.23422000  1.0 -0.5370129255
O  O307  1  0.37392000  0.09688000  0.29498000  1.0 -0.5370129255
O  O308  1  0.29498000  0.23422000  0.37392000  1.0 -0.5370129255
O  O309  1  0.15312000  0.01578000  0.87608000  1.0 -0.5370129255
O  O310  1  0.01578000  0.15312000  0.95502000  1.0 -0.5370129255
O  O311  1  0.95502000  0.87608000  0.01578000  1.0 -0.5370129255
O  O312  1  0.87608000  0.95502000  0.15312000  1.0 -0.5370129255
O  O313  1  0.95502000  0.15312000  0.87608000  1.0 -0.5370129255
O  O314  1  0.87608000  0.01578000  0.95502000  1.0 -0.5370129255
O  O315  1  0.15312000  0.95502000  0.01578000  1.0 -0.5370129255
O  O316  1  0.01578000  0.87608000  0.15312000  1.0 -0.5370129255
O  O317  1  0.01578000  0.95502000  0.87608000  1.0 -0.5370129255
O  O318  1  0.15312000  0.87608000  0.95502000  1.0 -0.5370129255
O  O319  1  0.87608000  0.15312000  0.01578000  1.0 -0.5370129255
O  O320  1  0.95502000  0.01578000  0.15312000  1.0 -0.5370129255
O  O321  1  0.15312000  0.01578000  0.95502000  1.0 -0.5370129255
O  O322  1  0.01578000  0.15312000  0.87608000  1.0 -0.5370129255
O  O323  1  0.95502000  0.87608000  0.15312000  1.0 -0.5370129255
O  O324  1  0.87608000  0.95502000  0.01578000  1.0 -0.5370129255
O  O325  1  0.95502000  0.15312000  0.01578000  1.0 -0.5370129255
O  O326  1  0.87608000  0.01578000  0.15312000  1.0 -0.5370129255
O  O327  1  0.15312000  0.95502000  0.87608000  1.0 -0.5370129255
O  O328  1  0.01578000  0.87608000  0.95502000  1.0 -0.5370129255
O  O329  1  0.01578000  0.95502000  0.15312000  1.0 -0.5370129255
O  O330  1  0.15312000  0.87608000  0.01578000  1.0 -0.5370129255
O  O331  1  0.87608000  0.15312000  0.95502000  1.0 -0.5370129255
O  O332  1  0.95502000  0.01578000  0.87608000  1.0 -0.5370129255
O  O333  1  0.09688000  0.23422000  0.37392000  1.0 -0.5370129255
O  O334  1  0.23422000  0.09688000  0.29498000  1.0 -0.5370129255
O  O335  1  0.29498000  0.37392000  0.23422000  1.0 -0.5370129255
O  O336  1  0.37392000  0.29498000  0.09688000  1.0 -0.5370129255
O  O337  1  0.29498000  0.09688000  0.37392000  1.0 -0.5370129255
O  O338  1  0.37392000  0.23422000  0.29498000  1.0 -0.5370129255
O  O339  1  0.09688000  0.29498000  0.23422000  1.0 -0.5370129255
O  O340  1  0.23422000  0.37392000  0.09688000  1.0 -0.5370129255
O  O341  1  0.23422000  0.29498000  0.37392000  1.0 -0.5370129255
O  O342  1  0.09688000  0.37392000  0.29498000  1.0 -0.5370129255
O  O343  1  0.37392000  0.09688000  0.23422000  1.0 -0.5370129255
O  O344  1  0.29498000  0.23422000  0.09688000  1.0 -0.5370129255
O  O345  1  0.67241000  0.67241000  0.67241000  1.0 -0.2288460564
O  O346  1  0.67241000  0.67241000  0.98276000  1.0 -0.2219651323
O  O347  1  0.67241000  0.98276000  0.67241000  1.0 -0.2034119274
O  O348  1  0.98276000  0.67241000  0.67241000  1.0 -0.2288460564
O  O349  1  0.57759000  0.57759000  0.26724000  1.0 -0.2105045683
O  O350  1  0.57759000  0.57759000  0.57759000  1.0 -0.2219651323
O  O351  1  0.57759000  0.26724000  0.57759000  1.0 -0.2034119274
O  O352  1  0.26724000  0.57759000  0.57759000  1.0 -0.2219651323
O  O353  1  0.75419000  0.75419000  0.55820000  1.0 -0.0883319842
O  O354  1  0.75419000  0.75419000  0.93342000  1.0 -0.0818812197
O  O355  1  0.55820000  0.93342000  0.75419000  1.0 -0.118955737
O  O356  1  0.93342000  0.55820000  0.75419000  1.0 -0.0883319842
O  O357  1  0.55820000  0.75419000  0.75419000  1.0 -0.0883319842
O  O358  1  0.93342000  0.75419000  0.75419000  1.0 -0.0883319842
O  O359  1  0.75419000  0.55820000  0.93342000  1.0 -0.0883319842
O  O360  1  0.75419000  0.93342000  0.55820000  1.0 -0.1279752534
O  O361  1  0.75419000  0.55820000  0.75419000  1.0 -0.0883319842
O  O362  1  0.75419000  0.93342000  0.75419000  1.0 -0.118955737
O  O363  1  0.93342000  0.75419000  0.55820000  1.0 -0.0883319842
O  O364  1  0.55820000  0.75419000  0.93342000  1.0 -0.0953078943
O  O365  1  0.49581000  0.49581000  0.31658000  1.0 -0.118955737
O  O366  1  0.49581000  0.49581000  0.69180000  1.0 -0.0883319842
O  O367  1  0.69180000  0.31658000  0.49581000  1.0 -0.0684791338
O  O368  1  0.31658000  0.69180000  0.49581000  1.0 -0.0883319842
O  O369  1  0.69180000  0.49581000  0.31658000  1.0 -0.1279752534
O  O370  1  0.31658000  0.49581000  0.69180000  1.0 -0.1279752534
O  O371  1  0.49581000  0.69180000  0.49581000  1.0 -0.0953078943
O  O372  1  0.49581000  0.31658000  0.49581000  1.0 -0.0684791338
O  O373  1  0.49581000  0.69180000  0.31658000  1.0 -0.0818812197
O  O374  1  0.49581000  0.31658000  0.69180000  1.0 -0.118955737
O  O375  1  0.31658000  0.49581000  0.49581000  1.0 -0.0818812197
O  O376  1  0.69180000  0.49581000  0.49581000  1.0 -0.0818812197
O  O377  1  0.73109000  0.73109000  0.65550000  1.0 -0.2105045683
O  O378  1  0.73109000  0.73109000  0.88232000  1.0 -0.2105045683
O  O379  1  0.65550000  0.88232000  0.73109000  1.0 -0.2105045683
O  O380  1  0.88232000  0.65550000  0.73109000  1.0 -0.2105045683
O  O381  1  0.65550000  0.73109000  0.73109000  1.0 -0.2105045683
O  O382  1  0.88232000  0.73109000  0.73109000  1.0 -0.2105045683
O  O383  1  0.73109000  0.65550000  0.88232000  1.0 -0.2105045683
O  O384  1  0.73109000  0.88232000  0.65550000  1.0 -0.2034119274
O  O385  1  0.73109000  0.65550000  0.73109000  1.0 -0.2105045683
O  O386  1  0.73109000  0.88232000  0.73109000  1.0 -0.2105045683
O  O387  1  0.88232000  0.73109000  0.65550000  1.0 -0.2105045683
O  O388  1  0.65550000  0.73109000  0.88232000  1.0 -0.2105045683
O  O389  1  0.51891000  0.51891000  0.36768000  1.0 -0.2034119274
O  O390  1  0.51891000  0.51891000  0.59450000  1.0 -0.2105045683
O  O391  1  0.59450000  0.36768000  0.51891000  1.0 -0.2105045683
O  O392  1  0.36768000  0.59450000  0.51891000  1.0 -0.2105045683
O  O393  1  0.59450000  0.51891000  0.36768000  1.0 -0.2034119274
O  O394  1  0.36768000  0.51891000  0.59450000  1.0 -0.2105045683
O  O395  1  0.51891000  0.59450000  0.51891000  1.0 -0.2105045683
O  O396  1  0.51891000  0.36768000  0.51891000  1.0 -0.2105045683
O  O397  1  0.51891000  0.59450000  0.36768000  1.0 -0.2105045683
O  O398  1  0.51891000  0.36768000  0.59450000  1.0 -0.2034119274
O  O399  1  0.36768000  0.51891000  0.51891000  1.0 -0.2105045683
O  O400  1  0.59450000  0.51891000  0.51891000  1.0 -0.2105045683
