# DDEC6 charges by PACMAN v1.1 (https://github.com/mtap-research/PACMAN-charge/)
data_HANKEO_ASR_pacman
_symmetry_space_group_name_H-M   'P 1'
_cell_length_a   36.00580000
_cell_length_b   36.00580000
_cell_length_c   36.00580000
_cell_angle_alpha   60.00000000
_cell_angle_beta   60.00000000
_cell_angle_gamma   60.00000000
_symmetry_Int_Tables_number   1
_chemical_formula_structural   Mn6In6C63O50
_chemical_formula_sum   'Mn48 In48 C504 O400'
_cell_volume   33006.72209294
_cell_formula_units_Z   8
loop_
 _symmetry_equiv_pos_site_id
 _symmetry_equiv_pos_as_xyz
  1  'x, y, z'
loop_
 _atom_site_type_symbol
 _atom_site_label
 _atom_site_symmetry_multiplicity
 _atom_site_fract_x
 _atom_site_fract_y
 _atom_site_fract_z
 _atom_site_occupancy
 _atom_site_charge
Mn  Mn1  1  0.71823000  0.71823000  0.61221000  1.0 0.3926899435
Mn  Mn2  1  0.71823000  0.71823000  0.95133000  1.0 0.3959060407
Mn  Mn3  1  0.61221000  0.95133000  0.71823000  1.0 0.3926899435
Mn  Mn4  1  0.95133000  0.61221000  0.71823000  1.0 0.3926899435
Mn  Mn5  1  0.61221000  0.71823000  0.71823000  1.0 0.3830475605
Mn  Mn6  1  0.95133000  0.71823000  0.71823000  1.0 0.3830475605
Mn  Mn7  1  0.71823000  0.61221000  0.95133000  1.0 0.3830475605
Mn  Mn8  1  0.71823000  0.95133000  0.61221000  1.0 0.3926899435
Mn  Mn9  1  0.71823000  0.61221000  0.71823000  1.0 0.3926899435
Mn  Mn10  1  0.71823000  0.95133000  0.71823000  1.0 0.3926899435
Mn  Mn11  1  0.95133000  0.71823000  0.61221000  1.0 0.3926899435
Mn  Mn12  1  0.61221000  0.71823000  0.95133000  1.0 0.3959060407
Mn  Mn13  1  0.53177000  0.53177000  0.29867000  1.0 0.3926899435
Mn  Mn14  1  0.53177000  0.53177000  0.63779000  1.0 0.3926899435
Mn  Mn15  1  0.63779000  0.29867000  0.53177000  1.0 0.3926899435
Mn  Mn16  1  0.29867000  0.63779000  0.53177000  1.0 0.3926899435
Mn  Mn17  1  0.63779000  0.53177000  0.29867000  1.0 0.3926899435
Mn  Mn18  1  0.29867000  0.53177000  0.63779000  1.0 0.3926899435
Mn  Mn19  1  0.53177000  0.63779000  0.53177000  1.0 0.3926899435
Mn  Mn20  1  0.53177000  0.29867000  0.53177000  1.0 0.3926899435
Mn  Mn21  1  0.53177000  0.63779000  0.29867000  1.0 0.3926899435
Mn  Mn22  1  0.53177000  0.29867000  0.63779000  1.0 0.3926899435
Mn  Mn23  1  0.29867000  0.53177000  0.53177000  1.0 0.3926899435
Mn  Mn24  1  0.63779000  0.53177000  0.53177000  1.0 0.3926899435
Mn  Mn25  1  0.71990000  0.71990000  0.63718000  1.0 0.2726567199
Mn  Mn26  1  0.71990000  0.71990000  0.92302000  1.0 0.2627310029
Mn  Mn27  1  0.63718000  0.92302000  0.71990000  1.0 0.2726567199
Mn  Mn28  1  0.92302000  0.63718000  0.71990000  1.0 0.2726567199
Mn  Mn29  1  0.63718000  0.71990000  0.71990000  1.0 0.2726567199
Mn  Mn30  1  0.92302000  0.71990000  0.71990000  1.0 0.2726567199
Mn  Mn31  1  0.71990000  0.63718000  0.92302000  1.0 0.2726567199
Mn  Mn32  1  0.71990000  0.92302000  0.63718000  1.0 0.2726567199
Mn  Mn33  1  0.71990000  0.63718000  0.71990000  1.0 0.2726567199
Mn  Mn34  1  0.71990000  0.92302000  0.71990000  1.0 0.2726567199
Mn  Mn35  1  0.92302000  0.71990000  0.63718000  1.0 0.2726567199
Mn  Mn36  1  0.63718000  0.71990000  0.92302000  1.0 0.2627310029
Mn  Mn37  1  0.53010000  0.53010000  0.32698000  1.0 0.2726567199
Mn  Mn38  1  0.53010000  0.53010000  0.61282000  1.0 0.2726567199
Mn  Mn39  1  0.61282000  0.32698000  0.53010000  1.0 0.2726567199
Mn  Mn40  1  0.32698000  0.61282000  0.53010000  1.0 0.2726567199
Mn  Mn41  1  0.61282000  0.53010000  0.32698000  1.0 0.2726567199
Mn  Mn42  1  0.32698000  0.53010000  0.61282000  1.0 0.2726567199
Mn  Mn43  1  0.53010000  0.61282000  0.53010000  1.0 0.2726567199
Mn  Mn44  1  0.53010000  0.32698000  0.53010000  1.0 0.2726567199
Mn  Mn45  1  0.53010000  0.61282000  0.32698000  1.0 0.2726567199
Mn  Mn46  1  0.53010000  0.32698000  0.61282000  1.0 0.2726567199
Mn  Mn47  1  0.32698000  0.53010000  0.53010000  1.0 0.2726567199
Mn  Mn48  1  0.61282000  0.53010000  0.53010000  1.0 0.2726567199
In  In1  1  0.86908000  0.38092000  0.62500000  1.0 1.3162597116
In  In2  1  0.38092000  0.86908000  0.12500000  1.0 1.313154103
In  In3  1  0.62500000  0.12500000  0.86908000  1.0 1.313154103
In  In4  1  0.12500000  0.62500000  0.38092000  1.0 1.313154103
In  In5  1  0.62500000  0.86908000  0.38092000  1.0 1.313154103
In  In6  1  0.12500000  0.38092000  0.86908000  1.0 1.313154103
In  In7  1  0.86908000  0.62500000  0.12500000  1.0 1.3162597116
In  In8  1  0.38092000  0.12500000  0.62500000  1.0 1.313154103
In  In9  1  0.38092000  0.62500000  0.86908000  1.0 1.313154103
In  In10  1  0.86908000  0.12500000  0.38092000  1.0 1.3162597116
In  In11  1  0.12500000  0.86908000  0.62500000  1.0 1.313154103
In  In12  1  0.62500000  0.38092000  0.12500000  1.0 1.3162597116
In  In13  1  0.38092000  0.86908000  0.62500000  1.0 1.313154103
In  In14  1  0.86908000  0.38092000  0.12500000  1.0 1.3162597116
In  In15  1  0.62500000  0.12500000  0.38092000  1.0 1.3162597116
In  In16  1  0.12500000  0.62500000  0.86908000  1.0 1.313154103
In  In17  1  0.62500000  0.38092000  0.86908000  1.0 1.313154103
In  In18  1  0.12500000  0.86908000  0.38092000  1.0 1.313154103
In  In19  1  0.38092000  0.62500000  0.12500000  1.0 1.3162597116
In  In20  1  0.86908000  0.12500000  0.62500000  1.0 1.313154103
In  In21  1  0.86908000  0.62500000  0.38092000  1.0 1.3162597116
In  In22  1  0.38092000  0.12500000  0.86908000  1.0 1.313154103
In  In23  1  0.12500000  0.38092000  0.62500000  1.0 1.313154103
In  In24  1  0.62500000  0.86908000  0.12500000  1.0 1.3162597116
In  In25  1  0.04383000  0.25177000  0.35220000  1.0 1.5613072462
In  In26  1  0.25177000  0.04383000  0.35220000  1.0 1.5613072462
In  In27  1  0.35220000  0.35220000  0.04383000  1.0 1.5613072462
In  In28  1  0.35220000  0.35220000  0.25177000  1.0 1.5613072462
In  In29  1  0.35220000  0.04383000  0.25177000  1.0 1.5613072462
In  In30  1  0.35220000  0.25177000  0.04383000  1.0 1.5613072462
In  In31  1  0.04383000  0.35220000  0.35220000  1.0 1.5613072462
In  In32  1  0.25177000  0.35220000  0.35220000  1.0 1.5613072462
In  In33  1  0.25177000  0.35220000  0.04383000  1.0 1.5613072462
In  In34  1  0.04383000  0.35220000  0.25177000  1.0 1.5613072462
In  In35  1  0.35220000  0.04383000  0.35220000  1.0 1.5613072462
In  In36  1  0.35220000  0.25177000  0.35220000  1.0 1.5613072462
In  In37  1  0.20617000  0.99823000  0.89780000  1.0 1.5613072462
In  In38  1  0.99823000  0.20617000  0.89780000  1.0 1.5613072462
In  In39  1  0.89780000  0.89780000  0.99823000  1.0 1.5613072462
In  In40  1  0.89780000  0.89780000  0.20617000  1.0 1.5613072462
In  In41  1  0.89780000  0.20617000  0.89780000  1.0 1.5613072462
In  In42  1  0.89780000  0.99823000  0.89780000  1.0 1.5613072462
In  In43  1  0.20617000  0.89780000  0.99823000  1.0 1.5613072462
In  In44  1  0.99823000  0.89780000  0.20617000  1.0 1.5613072462
In  In45  1  0.99823000  0.89780000  0.89780000  1.0 1.5613072462
In  In46  1  0.20617000  0.89780000  0.89780000  1.0 1.5613072462
In  In47  1  0.89780000  0.20617000  0.99823000  1.0 1.5613072462
In  In48  1  0.89780000  0.99823000  0.20617000  1.0 1.5613072462
C  C1  1  0.85070000  0.46930000  0.60750000  1.0 0.5861133547
C  C2  1  0.46930000  0.85070000  0.07250000  1.0 0.5838784175
C  C3  1  0.60750000  0.07250000  0.85070000  1.0 0.5861133547
C  C4  1  0.07250000  0.60750000  0.46930000  1.0 0.5861133547
C  C5  1  0.60750000  0.85070000  0.46930000  1.0 0.5838784175
C  C6  1  0.07250000  0.46930000  0.85070000  1.0 0.5861133547
C  C7  1  0.85070000  0.60750000  0.07250000  1.0 0.5861133547
C  C8  1  0.46930000  0.07250000  0.60750000  1.0 0.5861133547
C  C9  1  0.46930000  0.60750000  0.85070000  1.0 0.5861133547
C  C10  1  0.85070000  0.07250000  0.46930000  1.0 0.5838784175
C  C11  1  0.07250000  0.85070000  0.60750000  1.0 0.5861133547
C  C12  1  0.60750000  0.46930000  0.07250000  1.0 0.5861133547
C  C13  1  0.39930000  0.78070000  0.17750000  1.0 0.5861133547
C  C14  1  0.78070000  0.39930000  0.64250000  1.0 0.5861133547
C  C15  1  0.64250000  0.17750000  0.78070000  1.0 0.5838784175
C  C16  1  0.17750000  0.64250000  0.39930000  1.0 0.5861133547
C  C17  1  0.64250000  0.39930000  0.17750000  1.0 0.5838784175
C  C18  1  0.17750000  0.78070000  0.64250000  1.0 0.5861133547
C  C19  1  0.39930000  0.64250000  0.78070000  1.0 0.5861133547
C  C20  1  0.78070000  0.17750000  0.39930000  1.0 0.5861133547
C  C21  1  0.78070000  0.64250000  0.17750000  1.0 0.5861133547
C  C22  1  0.39930000  0.17750000  0.64250000  1.0 0.5861133547
C  C23  1  0.17750000  0.39930000  0.78070000  1.0 0.5861133547
C  C24  1  0.64250000  0.78070000  0.39930000  1.0 0.5861133547
C  C25  1  0.39930000  0.78070000  0.64250000  1.0 0.5861133547
C  C26  1  0.78070000  0.39930000  0.17750000  1.0 0.5861133547
C  C27  1  0.64250000  0.17750000  0.39930000  1.0 0.5861133547
C  C28  1  0.17750000  0.64250000  0.78070000  1.0 0.5861133547
C  C29  1  0.64250000  0.39930000  0.78070000  1.0 0.5861133547
C  C30  1  0.17750000  0.78070000  0.39930000  1.0 0.5861133547
C  C31  1  0.39930000  0.64250000  0.17750000  1.0 0.5861133547
C  C32  1  0.78070000  0.17750000  0.64250000  1.0 0.5861133547
C  C33  1  0.78070000  0.64250000  0.39930000  1.0 0.5861133547
C  C34  1  0.39930000  0.17750000  0.78070000  1.0 0.5861133547
C  C35  1  0.17750000  0.39930000  0.64250000  1.0 0.5861133547
C  C36  1  0.64250000  0.78070000  0.17750000  1.0 0.5861133547
C  C37  1  0.85070000  0.46930000  0.07250000  1.0 0.5861133547
C  C38  1  0.46930000  0.85070000  0.60750000  1.0 0.5861133547
C  C39  1  0.60750000  0.07250000  0.46930000  1.0 0.5861133547
C  C40  1  0.07250000  0.60750000  0.85070000  1.0 0.5861133547
C  C41  1  0.60750000  0.85070000  0.07250000  1.0 0.5861133547
C  C42  1  0.07250000  0.46930000  0.60750000  1.0 0.5838784175
C  C43  1  0.85070000  0.60750000  0.46930000  1.0 0.5861133547
C  C44  1  0.46930000  0.07250000  0.85070000  1.0 0.5861133547
C  C45  1  0.46930000  0.60750000  0.07250000  1.0 0.5861133547
C  C46  1  0.85070000  0.07250000  0.60750000  1.0 0.5861133547
C  C47  1  0.07250000  0.85070000  0.46930000  1.0 0.5861133547
C  C48  1  0.60750000  0.46930000  0.85070000  1.0 0.5861133547
C  C49  1  0.85140000  0.53820000  0.53820000  1.0 0.1507374377
C  C50  1  0.53820000  0.85140000  0.07220000  1.0 0.1507374377
C  C51  1  0.53820000  0.07220000  0.85140000  1.0 0.1507374377
C  C52  1  0.07220000  0.53820000  0.53820000  1.0 0.1507374377
C  C53  1  0.53820000  0.85140000  0.53820000  1.0 0.1507374377
C  C54  1  0.07220000  0.53820000  0.85140000  1.0 0.1507374377
C  C55  1  0.85140000  0.53820000  0.07220000  1.0 0.1507374377
C  C56  1  0.53820000  0.07220000  0.53820000  1.0 0.1507374377
C  C57  1  0.53820000  0.53820000  0.85140000  1.0 0.1507374377
C  C58  1  0.85140000  0.07220000  0.53820000  1.0 0.1507374377
C  C59  1  0.07220000  0.85140000  0.53820000  1.0 0.1507374377
C  C60  1  0.53820000  0.53820000  0.07220000  1.0 0.1507374377
C  C61  1  0.39860000  0.71180000  0.17780000  1.0 0.1507374377
C  C62  1  0.71180000  0.39860000  0.71180000  1.0 0.15526622
C  C63  1  0.71180000  0.17780000  0.71180000  1.0 0.1507374377
C  C64  1  0.17780000  0.71180000  0.39860000  1.0 0.1507374377
C  C65  1  0.71180000  0.39860000  0.17780000  1.0 0.15526622
C  C66  1  0.17780000  0.71180000  0.71180000  1.0 0.1507374377
C  C67  1  0.39860000  0.71180000  0.71180000  1.0 0.1507374377
C  C68  1  0.71180000  0.17780000  0.39860000  1.0 0.1507374377
C  C69  1  0.71180000  0.71180000  0.17780000  1.0 0.1507374377
C  C70  1  0.39860000  0.17780000  0.71180000  1.0 0.1507374377
C  C71  1  0.17780000  0.39860000  0.71180000  1.0 0.1507374377
C  C72  1  0.71180000  0.71180000  0.39860000  1.0 0.1507374377
C  C73  1  0.83940000  0.52100000  0.58620000  1.0 -0.0691636433
C  C74  1  0.52100000  0.83940000  0.05340000  1.0 -0.0691636433
C  C75  1  0.58620000  0.05340000  0.83940000  1.0 -0.0691636433
C  C76  1  0.05340000  0.58620000  0.52100000  1.0 -0.0691636433
C  C77  1  0.58620000  0.83940000  0.52100000  1.0 -0.0691636433
C  C78  1  0.05340000  0.52100000  0.83940000  1.0 -0.0691636433
C  C79  1  0.83940000  0.58620000  0.05340000  1.0 -0.0691636433
C  C80  1  0.52100000  0.05340000  0.58620000  1.0 -0.0691636433
C  C81  1  0.52100000  0.58620000  0.83940000  1.0 -0.0691636433
C  C82  1  0.83940000  0.05340000  0.52100000  1.0 -0.0691636433
C  C83  1  0.05340000  0.83940000  0.58620000  1.0 -0.0691636433
C  C84  1  0.58620000  0.52100000  0.05340000  1.0 -0.0691636433
C  C85  1  0.41060000  0.72900000  0.19660000  1.0 -0.0691636433
C  C86  1  0.72900000  0.41060000  0.66380000  1.0 -0.0691636433
C  C87  1  0.66380000  0.19660000  0.72900000  1.0 -0.0691636433
C  C88  1  0.19660000  0.66380000  0.41060000  1.0 -0.0691636433
C  C89  1  0.66380000  0.41060000  0.19660000  1.0 -0.0691636433
C  C90  1  0.19660000  0.72900000  0.66380000  1.0 -0.0691636433
C  C91  1  0.41060000  0.66380000  0.72900000  1.0 -0.0691636433
C  C92  1  0.72900000  0.19660000  0.41060000  1.0 -0.0691636433
C  C93  1  0.72900000  0.66380000  0.19660000  1.0 -0.0691636433
C  C94  1  0.41060000  0.19660000  0.66380000  1.0 -0.0691636433
C  C95  1  0.19660000  0.41060000  0.72900000  1.0 -0.0691636433
C  C96  1  0.66380000  0.72900000  0.41060000  1.0 -0.0691636433
C  C97  1  0.41060000  0.72900000  0.66380000  1.0 -0.0691636433
C  C98  1  0.72900000  0.41060000  0.19660000  1.0 -0.0691636433
C  C99  1  0.66380000  0.19660000  0.41060000  1.0 -0.0691636433
C  C100  1  0.19660000  0.66380000  0.72900000  1.0 -0.0691636433
C  C101  1  0.66380000  0.41060000  0.72900000  1.0 -0.0691636433
C  C102  1  0.19660000  0.72900000  0.41060000  1.0 -0.0691636433
C  C103  1  0.41060000  0.66380000  0.19660000  1.0 -0.0691636433
C  C104  1  0.72900000  0.19660000  0.66380000  1.0 -0.0691636433
C  C105  1  0.72900000  0.66380000  0.41060000  1.0 -0.0691636433
C  C106  1  0.41060000  0.19660000  0.72900000  1.0 -0.0691636433
C  C107  1  0.19660000  0.41060000  0.66380000  1.0 -0.0691636433
C  C108  1  0.66380000  0.72900000  0.19660000  1.0 -0.0691636433
C  C109  1  0.83940000  0.52100000  0.05340000  1.0 -0.0691636433
C  C110  1  0.52100000  0.83940000  0.58620000  1.0 -0.0691636433
C  C111  1  0.58620000  0.05340000  0.52100000  1.0 -0.0691636433
C  C112  1  0.05340000  0.58620000  0.83940000  1.0 -0.0691636433
C  C113  1  0.58620000  0.83940000  0.05340000  1.0 -0.0691636433
C  C114  1  0.05340000  0.52100000  0.58620000  1.0 -0.0691636433
C  C115  1  0.83940000  0.58620000  0.52100000  1.0 -0.0691636433
C  C116  1  0.52100000  0.05340000  0.83940000  1.0 -0.0691636433
C  C117  1  0.52100000  0.58620000  0.05340000  1.0 -0.0691636433
C  C118  1  0.83940000  0.05340000  0.58620000  1.0 -0.0691636433
C  C119  1  0.05340000  0.83940000  0.52100000  1.0 -0.0691636433
C  C120  1  0.58620000  0.52100000  0.83940000  1.0 -0.0691636433
C  C121  1  0.81620000  0.54560000  0.61500000  1.0 0.1507374377
C  C122  1  0.54560000  0.81620000  0.02320000  1.0 0.1507374377
C  C123  1  0.61500000  0.02320000  0.81620000  1.0 0.1507374377
C  C124  1  0.02320000  0.61500000  0.54560000  1.0 0.1507374377
C  C125  1  0.61500000  0.81620000  0.54560000  1.0 0.1507374377
C  C126  1  0.02320000  0.54560000  0.81620000  1.0 0.1507374377
C  C127  1  0.81620000  0.61500000  0.02320000  1.0 0.1507374377
C  C128  1  0.54560000  0.02320000  0.61500000  1.0 0.1507374377
C  C129  1  0.54560000  0.61500000  0.81620000  1.0 0.1507374377
C  C130  1  0.81620000  0.02320000  0.54560000  1.0 0.1507374377
C  C131  1  0.02320000  0.81620000  0.61500000  1.0 0.1507374377
C  C132  1  0.61500000  0.54560000  0.02320000  1.0 0.1507374377
C  C133  1  0.43380000  0.70440000  0.22680000  1.0 0.1507374377
C  C134  1  0.70440000  0.43380000  0.63500000  1.0 0.1507374377
C  C135  1  0.63500000  0.22680000  0.70440000  1.0 0.1507374377
C  C136  1  0.22680000  0.63500000  0.43380000  1.0 0.1507374377
C  C137  1  0.63500000  0.43380000  0.22680000  1.0 0.1507374377
C  C138  1  0.22680000  0.70440000  0.63500000  1.0 0.1507374377
C  C139  1  0.43380000  0.63500000  0.70440000  1.0 0.1507374377
C  C140  1  0.70440000  0.22680000  0.43380000  1.0 0.1507374377
C  C141  1  0.70440000  0.63500000  0.22680000  1.0 0.1507374377
C  C142  1  0.43380000  0.22680000  0.63500000  1.0 0.1507374377
C  C143  1  0.22680000  0.43380000  0.70440000  1.0 0.1507374377
C  C144  1  0.63500000  0.70440000  0.43380000  1.0 0.1507374377
C  C145  1  0.43380000  0.70440000  0.63500000  1.0 0.1507374377
C  C146  1  0.70440000  0.43380000  0.22680000  1.0 0.1507374377
C  C147  1  0.63500000  0.22680000  0.43380000  1.0 0.1507374377
C  C148  1  0.22680000  0.63500000  0.70440000  1.0 0.1507374377
C  C149  1  0.63500000  0.43380000  0.70440000  1.0 0.1507374377
C  C150  1  0.22680000  0.70440000  0.43380000  1.0 0.1507374377
C  C151  1  0.43380000  0.63500000  0.22680000  1.0 0.1507374377
C  C152  1  0.70440000  0.22680000  0.63500000  1.0 0.1507374377
C  C153  1  0.70440000  0.63500000  0.43380000  1.0 0.1507374377
C  C154  1  0.43380000  0.22680000  0.70440000  1.0 0.1507374377
C  C155  1  0.22680000  0.43380000  0.63500000  1.0 0.1507374377
C  C156  1  0.63500000  0.70440000  0.22680000  1.0 0.1507374377
C  C157  1  0.81620000  0.54560000  0.02320000  1.0 0.1507374377
C  C158  1  0.54560000  0.81620000  0.61500000  1.0 0.1507374377
C  C159  1  0.61500000  0.02320000  0.54560000  1.0 0.1507374377
C  C160  1  0.02320000  0.61500000  0.81620000  1.0 0.1507374377
C  C161  1  0.61500000  0.81620000  0.02320000  1.0 0.1507374377
C  C162  1  0.02320000  0.54560000  0.61500000  1.0 0.1507374377
C  C163  1  0.81620000  0.61500000  0.54560000  1.0 0.1507374377
C  C164  1  0.54560000  0.02320000  0.81620000  1.0 0.1507374377
C  C165  1  0.54560000  0.61500000  0.02320000  1.0 0.1507374377
C  C166  1  0.81620000  0.02320000  0.61500000  1.0 0.1507374377
C  C167  1  0.02320000  0.81620000  0.54560000  1.0 0.1507374377
C  C168  1  0.61500000  0.54560000  0.81620000  1.0 0.1507374377
C  C169  1  0.80270000  0.59370000  0.59370000  1.0 -0.2492639922
C  C170  1  0.59370000  0.80270000  0.00990000  1.0 -0.2492639922
C  C171  1  0.59370000  0.00990000  0.80270000  1.0 -0.2440514079
C  C172  1  0.00990000  0.59370000  0.59370000  1.0 -0.2440514079
C  C173  1  0.59370000  0.80270000  0.59370000  1.0 -0.2492639922
C  C174  1  0.00990000  0.59370000  0.80270000  1.0 -0.2492639922
C  C175  1  0.80270000  0.59370000  0.00990000  1.0 -0.2440514079
C  C176  1  0.59370000  0.00990000  0.59370000  1.0 -0.2440514079
C  C177  1  0.59370000  0.59370000  0.80270000  1.0 -0.2440514079
C  C178  1  0.80270000  0.00990000  0.59370000  1.0 -0.2440514079
C  C179  1  0.00990000  0.80270000  0.59370000  1.0 -0.2492639922
C  C180  1  0.59370000  0.59370000  0.00990000  1.0 -0.2492639922
C  C181  1  0.44730000  0.65630000  0.24010000  1.0 -0.2440514079
C  C182  1  0.65630000  0.44730000  0.65630000  1.0 -0.2492639922
C  C183  1  0.65630000  0.24010000  0.65630000  1.0 -0.2492639922
C  C184  1  0.24010000  0.65630000  0.44730000  1.0 -0.2440514079
C  C185  1  0.65630000  0.44730000  0.24010000  1.0 -0.2492639922
C  C186  1  0.24010000  0.65630000  0.65630000  1.0 -0.2492639922
C  C187  1  0.44730000  0.65630000  0.65630000  1.0 -0.2492639922
C  C188  1  0.65630000  0.24010000  0.44730000  1.0 -0.2440514079
C  C189  1  0.65630000  0.65630000  0.24010000  1.0 -0.2440514079
C  C190  1  0.44730000  0.24010000  0.65630000  1.0 -0.2440514079
C  C191  1  0.24010000  0.44730000  0.65630000  1.0 -0.2440514079
C  C192  1  0.65630000  0.65630000  0.44730000  1.0 -0.2440514079
C  C193  1  0.78170000  0.62390000  0.62390000  1.0 0.6511514109
C  C194  1  0.62390000  0.78170000  0.97050000  1.0 0.6511514109
C  C195  1  0.62390000  0.97050000  0.78170000  1.0 0.6511514109
C  C196  1  0.97050000  0.62390000  0.62390000  1.0 0.6511514109
C  C197  1  0.62390000  0.78170000  0.62390000  1.0 0.6511514109
C  C198  1  0.97050000  0.62390000  0.78170000  1.0 0.6511514109
C  C199  1  0.78170000  0.62390000  0.97050000  1.0 0.6511514109
C  C200  1  0.62390000  0.97050000  0.62390000  1.0 0.6511514109
C  C201  1  0.62390000  0.62390000  0.78170000  1.0 0.6511514109
C  C202  1  0.78170000  0.97050000  0.62390000  1.0 0.6511514109
C  C203  1  0.97050000  0.78170000  0.62390000  1.0 0.6511514109
C  C204  1  0.62390000  0.62390000  0.97050000  1.0 0.6511514109
C  C205  1  0.46830000  0.62610000  0.27950000  1.0 0.6511514109
C  C206  1  0.62610000  0.46830000  0.62610000  1.0 0.6511514109
C  C207  1  0.62610000  0.27950000  0.62610000  1.0 0.6511514109
C  C208  1  0.27950000  0.62610000  0.46830000  1.0 0.6511514109
C  C209  1  0.62610000  0.46830000  0.27950000  1.0 0.6511514109
C  C210  1  0.27950000  0.62610000  0.62610000  1.0 0.6511514109
C  C211  1  0.46830000  0.62610000  0.62610000  1.0 0.6511514109
C  C212  1  0.62610000  0.27950000  0.46830000  1.0 0.6511514109
C  C213  1  0.62610000  0.62610000  0.27950000  1.0 0.6511514109
C  C214  1  0.46830000  0.27950000  0.62610000  1.0 0.6511514109
C  C215  1  0.27950000  0.46830000  0.62610000  1.0 0.6511514109
C  C216  1  0.62610000  0.62610000  0.46830000  1.0 0.6511514109
C  C217  1  0.90360000  0.32840000  0.57940000  1.0 0.6065286526
C  C218  1  0.32840000  0.90360000  0.18860000  1.0 0.6040045575
C  C219  1  0.57940000  0.18860000  0.90360000  1.0 0.6065286526
C  C220  1  0.18860000  0.57940000  0.32840000  1.0 0.6065286526
C  C221  1  0.57940000  0.90360000  0.32840000  1.0 0.6065286526
C  C222  1  0.18860000  0.32840000  0.90360000  1.0 0.6065286526
C  C223  1  0.90360000  0.57940000  0.18860000  1.0 0.6040045575
C  C224  1  0.32840000  0.18860000  0.57940000  1.0 0.6065286526
C  C225  1  0.32840000  0.57940000  0.90360000  1.0 0.6065286526
C  C226  1  0.90360000  0.18860000  0.32840000  1.0 0.6065286526
C  C227  1  0.18860000  0.90360000  0.57940000  1.0 0.6065286526
C  C228  1  0.57940000  0.32840000  0.18860000  1.0 0.6065286526
C  C229  1  0.34640000  0.92160000  0.06140000  1.0 0.6065286526
C  C230  1  0.92160000  0.34640000  0.67060000  1.0 0.6065286526
C  C231  1  0.67060000  0.06140000  0.92160000  1.0 0.6065286526
C  C232  1  0.06140000  0.67060000  0.34640000  1.0 0.6065286526
C  C233  1  0.67060000  0.34640000  0.06140000  1.0 0.6065286526
C  C234  1  0.06140000  0.92160000  0.67060000  1.0 0.6040045575
C  C235  1  0.34640000  0.67060000  0.92160000  1.0 0.6065286526
C  C236  1  0.92160000  0.06140000  0.34640000  1.0 0.6065286526
C  C237  1  0.92160000  0.67060000  0.06140000  1.0 0.6065286526
C  C238  1  0.34640000  0.06140000  0.67060000  1.0 0.6065286526
C  C239  1  0.06140000  0.34640000  0.92160000  1.0 0.6065286526
C  C240  1  0.67060000  0.92160000  0.34640000  1.0 0.6065286526
C  C241  1  0.34640000  0.92160000  0.67060000  1.0 0.6065286526
C  C242  1  0.92160000  0.34640000  0.06140000  1.0 0.6065286526
C  C243  1  0.67060000  0.06140000  0.34640000  1.0 0.6065286526
C  C244  1  0.06140000  0.67060000  0.92160000  1.0 0.6065286526
C  C245  1  0.67060000  0.34640000  0.92160000  1.0 0.6065286526
C  C246  1  0.06140000  0.92160000  0.34640000  1.0 0.6065286526
C  C247  1  0.34640000  0.67060000  0.06140000  1.0 0.6065286526
C  C248  1  0.92160000  0.06140000  0.67060000  1.0 0.6065286526
C  C249  1  0.92160000  0.67060000  0.34640000  1.0 0.6040045575
C  C250  1  0.34640000  0.06140000  0.92160000  1.0 0.6065286526
C  C251  1  0.06140000  0.34640000  0.67060000  1.0 0.6065286526
C  C252  1  0.67060000  0.92160000  0.06140000  1.0 0.6065286526
C  C253  1  0.90360000  0.32840000  0.18860000  1.0 0.6040045575
C  C254  1  0.32840000  0.90360000  0.57940000  1.0 0.6040045575
C  C255  1  0.57940000  0.18860000  0.32840000  1.0 0.6040045575
C  C256  1  0.18860000  0.57940000  0.90360000  1.0 0.6065286526
C  C257  1  0.57940000  0.90360000  0.18860000  1.0 0.6040045575
C  C258  1  0.18860000  0.32840000  0.57940000  1.0 0.6065286526
C  C259  1  0.90360000  0.57940000  0.32840000  1.0 0.6065286526
C  C260  1  0.32840000  0.18860000  0.90360000  1.0 0.6065286526
C  C261  1  0.32840000  0.57940000  0.18860000  1.0 0.6065286526
C  C262  1  0.90360000  0.18860000  0.57940000  1.0 0.6065286526
C  C263  1  0.18860000  0.90360000  0.32840000  1.0 0.6065286526
C  C264  1  0.57940000  0.32840000  0.90360000  1.0 0.6065286526
C  C265  1  0.90720000  0.25740000  0.57800000  1.0 0.1406990599
C  C266  1  0.25740000  0.90720000  0.25740000  1.0 0.1406990599
C  C267  1  0.57800000  0.25740000  0.90720000  1.0 0.1406990599
C  C268  1  0.25740000  0.57800000  0.25740000  1.0 0.1406990599
C  C269  1  0.57800000  0.90720000  0.25740000  1.0 0.1406990599
C  C270  1  0.25740000  0.25740000  0.90720000  1.0 0.1406990599
C  C271  1  0.90720000  0.57800000  0.25740000  1.0 0.1406990599
C  C272  1  0.25740000  0.25740000  0.57800000  1.0 0.1406990599
C  C273  1  0.25740000  0.57800000  0.90720000  1.0 0.1406990599
C  C274  1  0.90720000  0.25740000  0.25740000  1.0 0.1406990599
C  C275  1  0.25740000  0.90720000  0.57800000  1.0 0.1406990599
C  C276  1  0.57800000  0.25740000  0.25740000  1.0 0.1406990599
C  C277  1  0.34280000  0.99260000  0.99260000  1.0 0.1406990599
C  C278  1  0.99260000  0.34280000  0.67200000  1.0 0.1406990599
C  C279  1  0.67200000  0.99260000  0.99260000  1.0 0.1406990599
C  C280  1  0.99260000  0.67200000  0.34280000  1.0 0.1406990599
C  C281  1  0.67200000  0.34280000  0.99260000  1.0 0.1406990599
C  C282  1  0.99260000  0.99260000  0.67200000  1.0 0.1406990599
C  C283  1  0.34280000  0.67200000  0.99260000  1.0 0.1406990599
C  C284  1  0.99260000  0.99260000  0.34280000  1.0 0.1406990599
C  C285  1  0.99260000  0.67200000  0.99260000  1.0 0.1406990599
C  C286  1  0.34280000  0.99260000  0.67200000  1.0 0.1406990599
C  C287  1  0.99260000  0.34280000  0.99260000  1.0 0.1406990599
C  C288  1  0.67200000  0.99260000  0.34280000  1.0 0.1507374377
C  C289  1  0.91920000  0.29800000  0.55280000  1.0 -0.062803169
C  C290  1  0.29800000  0.91920000  0.23000000  1.0 -0.062803169
C  C291  1  0.55280000  0.23000000  0.91920000  1.0 -0.062803169
C  C292  1  0.23000000  0.55280000  0.29800000  1.0 -0.062803169
C  C293  1  0.55280000  0.91920000  0.29800000  1.0 -0.062803169
C  C294  1  0.23000000  0.29800000  0.91920000  1.0 -0.062803169
C  C295  1  0.91920000  0.55280000  0.23000000  1.0 -0.062803169
C  C296  1  0.29800000  0.23000000  0.55280000  1.0 -0.062803169
C  C297  1  0.29800000  0.55280000  0.91920000  1.0 -0.0691636433
C  C298  1  0.91920000  0.23000000  0.29800000  1.0 -0.062803169
C  C299  1  0.23000000  0.91920000  0.55280000  1.0 -0.062803169
C  C300  1  0.55280000  0.29800000  0.23000000  1.0 -0.0691636433
C  C301  1  0.33080000  0.95200000  0.02000000  1.0 -0.0691636433
C  C302  1  0.95200000  0.33080000  0.69720000  1.0 -0.062803169
C  C303  1  0.69720000  0.02000000  0.95200000  1.0 -0.0691636433
C  C304  1  0.02000000  0.69720000  0.33080000  1.0 -0.0691636433
C  C305  1  0.69720000  0.33080000  0.02000000  1.0 -0.062803169
C  C306  1  0.02000000  0.95200000  0.69720000  1.0 -0.062803169
C  C307  1  0.33080000  0.69720000  0.95200000  1.0 -0.062803169
C  C308  1  0.95200000  0.02000000  0.33080000  1.0 -0.062803169
C  C309  1  0.95200000  0.69720000  0.02000000  1.0 -0.062803169
C  C310  1  0.33080000  0.02000000  0.69720000  1.0 -0.0691636433
C  C311  1  0.02000000  0.33080000  0.95200000  1.0 -0.0691636433
C  C312  1  0.69720000  0.95200000  0.33080000  1.0 -0.0691636433
C  C313  1  0.33080000  0.95200000  0.69720000  1.0 -0.062803169
C  C314  1  0.95200000  0.33080000  0.02000000  1.0 -0.062803169
C  C315  1  0.69720000  0.02000000  0.33080000  1.0 -0.0691636433
C  C316  1  0.02000000  0.69720000  0.95200000  1.0 -0.062803169
C  C317  1  0.69720000  0.33080000  0.95200000  1.0 -0.0691636433
C  C318  1  0.02000000  0.95200000  0.33080000  1.0 -0.0691636433
C  C319  1  0.33080000  0.69720000  0.02000000  1.0 -0.062803169
C  C320  1  0.95200000  0.02000000  0.69720000  1.0 -0.0691636433
C  C321  1  0.95200000  0.69720000  0.33080000  1.0 -0.062803169
C  C322  1  0.33080000  0.02000000  0.95200000  1.0 -0.0691636433
C  C323  1  0.02000000  0.33080000  0.69720000  1.0 -0.062803169
C  C324  1  0.69720000  0.95200000  0.02000000  1.0 -0.062803169
C  C325  1  0.91920000  0.29800000  0.23000000  1.0 -0.062803169
C  C326  1  0.29800000  0.91920000  0.55280000  1.0 -0.062803169
C  C327  1  0.55280000  0.23000000  0.29800000  1.0 -0.0691636433
C  C328  1  0.23000000  0.55280000  0.91920000  1.0 -0.0691636433
C  C329  1  0.55280000  0.91920000  0.23000000  1.0 -0.062803169
C  C330  1  0.23000000  0.29800000  0.55280000  1.0 -0.062803169
C  C331  1  0.91920000  0.55280000  0.29800000  1.0 -0.062803169
C  C332  1  0.29800000  0.23000000  0.91920000  1.0 -0.062803169
C  C333  1  0.29800000  0.55280000  0.23000000  1.0 -0.062803169
C  C334  1  0.91920000  0.23000000  0.55280000  1.0 -0.062803169
C  C335  1  0.23000000  0.91920000  0.29800000  1.0 -0.062803169
C  C336  1  0.55280000  0.29800000  0.91920000  1.0 -0.062803169
C  C337  1  0.94292000  0.30988000  0.50612000  1.0 0.1016319582
C  C338  1  0.30988000  0.94292000  0.24108000  1.0 0.1016319582
C  C339  1  0.50612000  0.24108000  0.94292000  1.0 0.1016319582
C  C340  1  0.24108000  0.50612000  0.30988000  1.0 0.1016319582
C  C341  1  0.50612000  0.94292000  0.30988000  1.0 0.1016319582
C  C342  1  0.24108000  0.30988000  0.94292000  1.0 0.1016319582
C  C343  1  0.94292000  0.50612000  0.24108000  1.0 0.1016319582
C  C344  1  0.30988000  0.24108000  0.50612000  1.0 0.1016319582
C  C345  1  0.30988000  0.50612000  0.94292000  1.0 0.1016319582
C  C346  1  0.94292000  0.24108000  0.30988000  1.0 0.105763281
C  C347  1  0.24108000  0.94292000  0.50612000  1.0 0.1016319582
C  C348  1  0.50612000  0.30988000  0.24108000  1.0 0.105763281
C  C349  1  0.30708000  0.94012000  0.00892000  1.0 0.1016319582
C  C350  1  0.94012000  0.30708000  0.74388000  1.0 0.1016319582
C  C351  1  0.74388000  0.00892000  0.94012000  1.0 0.1016319582
C  C352  1  0.00892000  0.74388000  0.30708000  1.0 0.1016319582
C  C353  1  0.74388000  0.30708000  0.00892000  1.0 0.1016319582
C  C354  1  0.00892000  0.94012000  0.74388000  1.0 0.1016319582
C  C355  1  0.30708000  0.74388000  0.94012000  1.0 0.1016319582
C  C356  1  0.94012000  0.00892000  0.30708000  1.0 0.1016319582
C  C357  1  0.94012000  0.74388000  0.00892000  1.0 0.1016319582
C  C358  1  0.30708000  0.00892000  0.74388000  1.0 0.1016319582
C  C359  1  0.00892000  0.30708000  0.94012000  1.0 0.1016319582
C  C360  1  0.74388000  0.94012000  0.30708000  1.0 0.1016319582
C  C361  1  0.30708000  0.94012000  0.74388000  1.0 0.1016319582
C  C362  1  0.94012000  0.30708000  0.00892000  1.0 0.1016319582
C  C363  1  0.74388000  0.00892000  0.30708000  1.0 0.1016319582
C  C364  1  0.00892000  0.74388000  0.94012000  1.0 0.1016319582
C  C365  1  0.74388000  0.30708000  0.94012000  1.0 0.1016319582
C  C366  1  0.00892000  0.94012000  0.30708000  1.0 0.1016319582
C  C367  1  0.30708000  0.74388000  0.00892000  1.0 0.1016319582
C  C368  1  0.94012000  0.00892000  0.74388000  1.0 0.1016319582
C  C369  1  0.94012000  0.74388000  0.30708000  1.0 0.1016319582
C  C370  1  0.30708000  0.00892000  0.94012000  1.0 0.1016319582
C  C371  1  0.00892000  0.30708000  0.74388000  1.0 0.1016319582
C  C372  1  0.74388000  0.94012000  0.00892000  1.0 0.1016319582
C  C373  1  0.94292000  0.30988000  0.24108000  1.0 0.1016319582
C  C374  1  0.30988000  0.94292000  0.50612000  1.0 0.1016319582
C  C375  1  0.50612000  0.24108000  0.30988000  1.0 0.105763281
C  C376  1  0.24108000  0.50612000  0.94292000  1.0 0.1016319582
C  C377  1  0.50612000  0.94292000  0.24108000  1.0 0.1016319582
C  C378  1  0.24108000  0.30988000  0.50612000  1.0 0.1016319582
C  C379  1  0.94292000  0.50612000  0.30988000  1.0 0.1016319582
C  C380  1  0.30988000  0.24108000  0.94292000  1.0 0.1016319582
C  C381  1  0.30988000  0.50612000  0.24108000  1.0 0.1016319582
C  C382  1  0.94292000  0.24108000  0.50612000  1.0 0.1016319582
C  C383  1  0.24108000  0.94292000  0.30988000  1.0 0.1016319582
C  C384  1  0.50612000  0.30988000  0.94292000  1.0 0.1016319582
C  C385  1  0.95400000  0.28160000  0.48280000  1.0 -0.1358939502
C  C386  1  0.28160000  0.95400000  0.28160000  1.0 -0.1358939502
C  C387  1  0.48280000  0.28160000  0.95400000  1.0 -0.1337720506
C  C388  1  0.28160000  0.48280000  0.28160000  1.0 -0.1358939502
C  C389  1  0.48280000  0.95400000  0.28160000  1.0 -0.1337720506
C  C390  1  0.28160000  0.28160000  0.95400000  1.0 -0.1337720506
C  C391  1  0.95400000  0.48280000  0.28160000  1.0 -0.1358939502
C  C392  1  0.28160000  0.28160000  0.48280000  1.0 -0.1358939502
C  C393  1  0.28160000  0.48280000  0.95400000  1.0 -0.1358939502
C  C394  1  0.95400000  0.28160000  0.28160000  1.0 -0.1358939502
C  C395  1  0.28160000  0.95400000  0.48280000  1.0 -0.1337720506
C  C396  1  0.48280000  0.28160000  0.28160000  1.0 -0.1358939502
C  C397  1  0.29600000  0.96840000  0.96840000  1.0 -0.1358939502
C  C398  1  0.96840000  0.29600000  0.76720000  1.0 -0.1358939502
C  C399  1  0.76720000  0.96840000  0.96840000  1.0 -0.1358939502
C  C400  1  0.96840000  0.76720000  0.29600000  1.0 -0.1358939502
C  C401  1  0.76720000  0.29600000  0.96840000  1.0 -0.1337720506
C  C402  1  0.96840000  0.96840000  0.76720000  1.0 -0.1358939502
C  C403  1  0.29600000  0.76720000  0.96840000  1.0 -0.1337720506
C  C404  1  0.96840000  0.96840000  0.29600000  1.0 -0.1337720506
C  C405  1  0.96840000  0.76720000  0.96840000  1.0 -0.1337720506
C  C406  1  0.29600000  0.96840000  0.76720000  1.0 -0.1358939502
C  C407  1  0.96840000  0.29600000  0.96840000  1.0 -0.1337720506
C  C408  1  0.76720000  0.96840000  0.29600000  1.0 -0.1358939502
C  C409  1  0.98120000  0.29260000  0.43360000  1.0 0.6677353751
C  C410  1  0.29260000  0.98120000  0.29260000  1.0 0.6677353751
C  C411  1  0.43360000  0.29260000  0.98120000  1.0 0.6677353751
C  C412  1  0.29260000  0.43360000  0.29260000  1.0 0.6677353751
C  C413  1  0.43360000  0.98120000  0.29260000  1.0 0.6677353751
C  C414  1  0.29260000  0.29260000  0.98120000  1.0 0.6677353751
C  C415  1  0.98120000  0.43360000  0.29260000  1.0 0.6677353751
C  C416  1  0.29260000  0.29260000  0.43360000  1.0 0.6677353751
C  C417  1  0.29260000  0.43360000  0.98120000  1.0 0.6677353751
C  C418  1  0.98120000  0.29260000  0.29260000  1.0 0.6677353751
C  C419  1  0.29260000  0.98120000  0.43360000  1.0 0.6677353751
C  C420  1  0.43360000  0.29260000  0.29260000  1.0 0.6677353751
C  C421  1  0.26880000  0.95740000  0.95740000  1.0 0.6677353751
C  C422  1  0.95740000  0.26880000  0.81640000  1.0 0.6677353751
C  C423  1  0.81640000  0.95740000  0.95740000  1.0 0.6677353751
C  C424  1  0.95740000  0.81640000  0.26880000  1.0 0.6677353751
C  C425  1  0.81640000  0.26880000  0.95740000  1.0 0.6677353751
C  C426  1  0.95740000  0.95740000  0.81640000  1.0 0.6677353751
C  C427  1  0.26880000  0.81640000  0.95740000  1.0 0.6677353751
C  C428  1  0.95740000  0.95740000  0.26880000  1.0 0.6677353751
C  C429  1  0.95740000  0.81640000  0.95740000  1.0 0.6677353751
C  C430  1  0.26880000  0.95740000  0.81640000  1.0 0.6677353751
C  C431  1  0.95740000  0.26880000  0.95740000  1.0 0.6677353751
C  C432  1  0.81640000  0.95740000  0.26880000  1.0 0.6677353751
C  C433  1  0.11840000  0.25240000  0.25240000  1.0 0.6040045575
C  C434  1  0.25240000  0.11840000  0.37680000  1.0 0.6040045575
C  C435  1  0.25240000  0.37680000  0.11840000  1.0 0.6065286526
C  C436  1  0.37680000  0.25240000  0.25240000  1.0 0.6065286526
C  C437  1  0.25240000  0.11840000  0.25240000  1.0 0.6065286526
C  C438  1  0.37680000  0.25240000  0.11840000  1.0 0.6065286526
C  C439  1  0.11840000  0.25240000  0.37680000  1.0 0.6040045575
C  C440  1  0.25240000  0.37680000  0.25240000  1.0 0.6065286526
C  C441  1  0.25240000  0.25240000  0.11840000  1.0 0.6040045575
C  C442  1  0.11840000  0.37680000  0.25240000  1.0 0.6065286526
C  C443  1  0.37680000  0.11840000  0.25240000  1.0 0.6040045575
C  C444  1  0.25240000  0.25240000  0.37680000  1.0 0.6040045575
C  C445  1  0.13160000  0.99760000  0.87320000  1.0 0.6040045575
C  C446  1  0.99760000  0.13160000  0.99760000  1.0 0.6065286526
C  C447  1  0.99760000  0.87320000  0.99760000  1.0 0.6065286526
C  C448  1  0.87320000  0.99760000  0.13160000  1.0 0.6065286526
C  C449  1  0.99760000  0.13160000  0.87320000  1.0 0.6040045575
C  C450  1  0.87320000  0.99760000  0.99760000  1.0 0.6065286526
C  C451  1  0.13160000  0.99760000  0.99760000  1.0 0.6040045575
C  C452  1  0.99760000  0.87320000  0.13160000  1.0 0.6065286526
C  C453  1  0.99760000  0.99760000  0.87320000  1.0 0.6065286526
C  C454  1  0.13160000  0.87320000  0.99760000  1.0 0.6065286526
C  C455  1  0.87320000  0.13160000  0.99760000  1.0 0.6065286526
C  C456  1  0.99760000  0.99760000  0.13160000  1.0 0.6065286526
C  C457  1  0.16084000  0.23000000  0.23000000  1.0 -0.1641067894
C  C458  1  0.23000000  0.16084000  0.37916000  1.0 -0.1641067894
C  C459  1  0.23000000  0.37916000  0.16084000  1.0 -0.1641067894
C  C460  1  0.37916000  0.23000000  0.23000000  1.0 -0.1641067894
C  C461  1  0.23000000  0.16084000  0.23000000  1.0 -0.1641067894
C  C462  1  0.37916000  0.23000000  0.16084000  1.0 -0.1641067894
C  C463  1  0.16084000  0.23000000  0.37916000  1.0 -0.1641067894
C  C464  1  0.23000000  0.37916000  0.23000000  1.0 -0.1641067894
C  C465  1  0.23000000  0.23000000  0.16084000  1.0 -0.1641067894
C  C466  1  0.16084000  0.37916000  0.23000000  1.0 -0.1641067894
C  C467  1  0.37916000  0.16084000  0.23000000  1.0 -0.1641067894
C  C468  1  0.23000000  0.23000000  0.37916000  1.0 -0.1641067894
C  C469  1  0.08916000  0.02000000  0.87084000  1.0 -0.1641067894
C  C470  1  0.02000000  0.08916000  0.02000000  1.0 -0.1641067894
C  C471  1  0.02000000  0.87084000  0.02000000  1.0 -0.1641067894
C  C472  1  0.87084000  0.02000000  0.08916000  1.0 -0.1662872288
C  C473  1  0.02000000  0.08916000  0.87084000  1.0 -0.1641067894
C  C474  1  0.87084000  0.02000000  0.02000000  1.0 -0.1662872288
C  C475  1  0.08916000  0.02000000  0.02000000  1.0 -0.1641067894
C  C476  1  0.02000000  0.87084000  0.08916000  1.0 -0.1641067894
C  C477  1  0.02000000  0.02000000  0.87084000  1.0 -0.1641067894
C  C478  1  0.08916000  0.87084000  0.02000000  1.0 -0.1641067894
C  C479  1  0.87084000  0.08916000  0.02000000  1.0 -0.1662872288
C  C480  1  0.02000000  0.02000000  0.08916000  1.0 -0.1641067894
C  C481  1  0.18490000  0.18490000  0.25168000  1.0 0.1016319582
C  C482  1  0.18490000  0.18490000  0.37852000  1.0 0.1016319582
C  C483  1  0.25168000  0.37852000  0.18490000  1.0 0.1016319582
C  C484  1  0.37852000  0.25168000  0.18490000  1.0 0.1016319582
C  C485  1  0.25168000  0.18490000  0.18490000  1.0 0.1016319582
C  C486  1  0.37852000  0.18490000  0.18490000  1.0 0.1016319582
C  C487  1  0.18490000  0.25168000  0.37852000  1.0 0.1016319582
C  C488  1  0.18490000  0.37852000  0.25168000  1.0 0.1016319582
C  C489  1  0.18490000  0.25168000  0.18490000  1.0 0.1016319582
C  C490  1  0.18490000  0.37852000  0.18490000  1.0 0.1016319582
C  C491  1  0.37852000  0.18490000  0.25168000  1.0 0.1016319582
C  C492  1  0.25168000  0.18490000  0.37852000  1.0 0.1016319582
C  C493  1  0.06510000  0.06510000  0.87148000  1.0 0.1016319582
C  C494  1  0.06510000  0.06510000  0.99832000  1.0 0.1016319582
C  C495  1  0.99832000  0.87148000  0.06510000  1.0 0.1016319582
C  C496  1  0.87148000  0.99832000  0.06510000  1.0 0.1016319582
C  C497  1  0.99832000  0.06510000  0.87148000  1.0 0.1016319582
C  C498  1  0.87148000  0.06510000  0.99832000  1.0 0.1016319582
C  C499  1  0.06510000  0.99832000  0.06510000  1.0 0.1016319582
C  C500  1  0.06510000  0.87148000  0.06510000  1.0 0.1016319582
C  C501  1  0.06510000  0.99832000  0.87148000  1.0 0.1016319582
C  C502  1  0.06510000  0.87148000  0.99832000  1.0 0.1016319582
C  C503  1  0.87148000  0.06510000  0.06510000  1.0 0.1016319582
C  C504  1  0.99832000  0.06510000  0.06510000  1.0 0.1016319582
O  O1  1  0.87022000  0.44858000  0.57962000  1.0 -0.4888783123
O  O2  1  0.44858000  0.87022000  0.10158000  1.0 -0.4888783123
O  O3  1  0.57962000  0.10158000  0.87022000  1.0 -0.4888783123
O  O4  1  0.10158000  0.57962000  0.44858000  1.0 -0.4888783123
O  O5  1  0.57962000  0.87022000  0.44858000  1.0 -0.4888783123
O  O6  1  0.10158000  0.44858000  0.87022000  1.0 -0.4888783123
O  O7  1  0.87022000  0.57962000  0.10158000  1.0 -0.4888783123
O  O8  1  0.44858000  0.10158000  0.57962000  1.0 -0.4888783123
O  O9  1  0.44858000  0.57962000  0.87022000  1.0 -0.4848710203
O  O10  1  0.87022000  0.10158000  0.44858000  1.0 -0.4888783123
O  O11  1  0.10158000  0.87022000  0.57962000  1.0 -0.4888783123
O  O12  1  0.57962000  0.44858000  0.10158000  1.0 -0.4888783123
O  O13  1  0.37978000  0.80142000  0.14842000  1.0 -0.4888783123
O  O14  1  0.80142000  0.37978000  0.67038000  1.0 -0.4888783123
O  O15  1  0.67038000  0.14842000  0.80142000  1.0 -0.4888783123
O  O16  1  0.14842000  0.67038000  0.37978000  1.0 -0.4888783123
O  O17  1  0.67038000  0.37978000  0.14842000  1.0 -0.4888783123
O  O18  1  0.14842000  0.80142000  0.67038000  1.0 -0.4888783123
O  O19  1  0.37978000  0.67038000  0.80142000  1.0 -0.4848710203
O  O20  1  0.80142000  0.14842000  0.37978000  1.0 -0.4888783123
O  O21  1  0.80142000  0.67038000  0.14842000  1.0 -0.4888783123
O  O22  1  0.37978000  0.14842000  0.67038000  1.0 -0.4888783123
O  O23  1  0.14842000  0.37978000  0.80142000  1.0 -0.4888783123
O  O24  1  0.67038000  0.80142000  0.37978000  1.0 -0.4888783123
O  O25  1  0.37978000  0.80142000  0.67038000  1.0 -0.4888783123
O  O26  1  0.80142000  0.37978000  0.14842000  1.0 -0.4888783123
O  O27  1  0.67038000  0.14842000  0.37978000  1.0 -0.4888783123
O  O28  1  0.14842000  0.67038000  0.80142000  1.0 -0.4848710203
O  O29  1  0.67038000  0.37978000  0.80142000  1.0 -0.4888783123
O  O30  1  0.14842000  0.80142000  0.37978000  1.0 -0.4888783123
O  O31  1  0.37978000  0.67038000  0.14842000  1.0 -0.4888783123
O  O32  1  0.80142000  0.14842000  0.67038000  1.0 -0.4888783123
O  O33  1  0.80142000  0.67038000  0.37978000  1.0 -0.4888783123
O  O34  1  0.37978000  0.14842000  0.80142000  1.0 -0.4888783123
O  O35  1  0.14842000  0.37978000  0.67038000  1.0 -0.4888783123
O  O36  1  0.67038000  0.80142000  0.14842000  1.0 -0.4888783123
O  O37  1  0.87022000  0.44858000  0.10158000  1.0 -0.4888783123
O  O38  1  0.44858000  0.87022000  0.57962000  1.0 -0.4888783123
O  O39  1  0.57962000  0.10158000  0.44858000  1.0 -0.4888783123
O  O40  1  0.10158000  0.57962000  0.87022000  1.0 -0.4848710203
O  O41  1  0.57962000  0.87022000  0.10158000  1.0 -0.4888783123
O  O42  1  0.10158000  0.44858000  0.57962000  1.0 -0.4888783123
O  O43  1  0.87022000  0.57962000  0.44858000  1.0 -0.4888783123
O  O44  1  0.44858000  0.10158000  0.87022000  1.0 -0.4888783123
O  O45  1  0.44858000  0.57962000  0.10158000  1.0 -0.4888783123
O  O46  1  0.87022000  0.10158000  0.57962000  1.0 -0.4888783123
O  O47  1  0.10158000  0.87022000  0.44858000  1.0 -0.4888783123
O  O48  1  0.57962000  0.44858000  0.87022000  1.0 -0.4888783123
O  O49  1  0.84000000  0.44960000  0.64740000  1.0 -0.4356487533
O  O50  1  0.44960000  0.84000000  0.06300000  1.0 -0.4356487533
O  O51  1  0.64740000  0.06300000  0.84000000  1.0 -0.4356487533
O  O52  1  0.06300000  0.64740000  0.44960000  1.0 -0.433967992
O  O53  1  0.64740000  0.84000000  0.44960000  1.0 -0.4356487533
O  O54  1  0.06300000  0.44960000  0.84000000  1.0 -0.433967992
O  O55  1  0.84000000  0.64740000  0.06300000  1.0 -0.4356487533
O  O56  1  0.44960000  0.06300000  0.64740000  1.0 -0.4356487533
O  O57  1  0.44960000  0.64740000  0.84000000  1.0 -0.433967992
O  O58  1  0.84000000  0.06300000  0.44960000  1.0 -0.4356487533
O  O59  1  0.06300000  0.84000000  0.64740000  1.0 -0.4356487533
O  O60  1  0.64740000  0.44960000  0.06300000  1.0 -0.4356487533
O  O61  1  0.41000000  0.80040000  0.18700000  1.0 -0.4356487533
O  O62  1  0.80040000  0.41000000  0.60260000  1.0 -0.4356487533
O  O63  1  0.60260000  0.18700000  0.80040000  1.0 -0.4356487533
O  O64  1  0.18700000  0.60260000  0.41000000  1.0 -0.433967992
O  O65  1  0.60260000  0.41000000  0.18700000  1.0 -0.4356487533
O  O66  1  0.18700000  0.80040000  0.60260000  1.0 -0.4356487533
O  O67  1  0.41000000  0.60260000  0.80040000  1.0 -0.4356487533
O  O68  1  0.80040000  0.18700000  0.41000000  1.0 -0.4356487533
O  O69  1  0.80040000  0.60260000  0.18700000  1.0 -0.4356487533
O  O70  1  0.41000000  0.18700000  0.60260000  1.0 -0.4356487533
O  O71  1  0.18700000  0.41000000  0.80040000  1.0 -0.4356487533
O  O72  1  0.60260000  0.80040000  0.41000000  1.0 -0.4356487533
O  O73  1  0.41000000  0.80040000  0.60260000  1.0 -0.4356487533
O  O74  1  0.80040000  0.41000000  0.18700000  1.0 -0.4356487533
O  O75  1  0.60260000  0.18700000  0.41000000  1.0 -0.4356487533
O  O76  1  0.18700000  0.60260000  0.80040000  1.0 -0.433967992
O  O77  1  0.60260000  0.41000000  0.80040000  1.0 -0.4356487533
O  O78  1  0.18700000  0.80040000  0.41000000  1.0 -0.433967992
O  O79  1  0.41000000  0.60260000  0.18700000  1.0 -0.4356487533
O  O80  1  0.80040000  0.18700000  0.60260000  1.0 -0.433967992
O  O81  1  0.80040000  0.60260000  0.41000000  1.0 -0.4356487533
O  O82  1  0.41000000  0.18700000  0.80040000  1.0 -0.4356487533
O  O83  1  0.18700000  0.41000000  0.60260000  1.0 -0.4356487533
O  O84  1  0.60260000  0.80040000  0.18700000  1.0 -0.4356487533
O  O85  1  0.84000000  0.44960000  0.06300000  1.0 -0.4356487533
O  O86  1  0.44960000  0.84000000  0.64740000  1.0 -0.4356487533
O  O87  1  0.64740000  0.06300000  0.44960000  1.0 -0.4356487533
O  O88  1  0.06300000  0.64740000  0.84000000  1.0 -0.433967992
O  O89  1  0.64740000  0.84000000  0.06300000  1.0 -0.4356487533
O  O90  1  0.06300000  0.44960000  0.64740000  1.0 -0.4356487533
O  O91  1  0.84000000  0.64740000  0.44960000  1.0 -0.4356487533
O  O92  1  0.44960000  0.06300000  0.84000000  1.0 -0.4356487533
O  O93  1  0.44960000  0.64740000  0.06300000  1.0 -0.4356487533
O  O94  1  0.84000000  0.06300000  0.64740000  1.0 -0.4356487533
O  O95  1  0.06300000  0.84000000  0.44960000  1.0 -0.433967992
O  O96  1  0.64740000  0.44960000  0.84000000  1.0 -0.433967992
O  O97  1  0.75940000  0.66460000  0.60500000  1.0 -0.3757562512
O  O98  1  0.66460000  0.75940000  0.97100000  1.0 -0.3757562512
O  O99  1  0.60500000  0.97100000  0.75940000  1.0 -0.3740152025
O  O100  1  0.97100000  0.60500000  0.66460000  1.0 -0.3757562512
O  O101  1  0.60500000  0.75940000  0.66460000  1.0 -0.3757562512
O  O102  1  0.97100000  0.66460000  0.75940000  1.0 -0.3757562512
O  O103  1  0.75940000  0.60500000  0.97100000  1.0 -0.3757562512
O  O104  1  0.66460000  0.97100000  0.60500000  1.0 -0.3740152025
O  O105  1  0.66460000  0.60500000  0.75940000  1.0 -0.3757562512
O  O106  1  0.75940000  0.97100000  0.66460000  1.0 -0.3757562512
O  O107  1  0.97100000  0.75940000  0.60500000  1.0 -0.3757562512
O  O108  1  0.60500000  0.66460000  0.97100000  1.0 -0.3757562512
O  O109  1  0.49060000  0.58540000  0.27900000  1.0 -0.3740152025
O  O110  1  0.58540000  0.49060000  0.64500000  1.0 -0.3757562512
O  O111  1  0.64500000  0.27900000  0.58540000  1.0 -0.3757562512
O  O112  1  0.27900000  0.64500000  0.49060000  1.0 -0.3757562512
O  O113  1  0.64500000  0.49060000  0.27900000  1.0 -0.3740152025
O  O114  1  0.27900000  0.58540000  0.64500000  1.0 -0.3757562512
O  O115  1  0.49060000  0.64500000  0.58540000  1.0 -0.3757562512
O  O116  1  0.58540000  0.27900000  0.49060000  1.0 -0.3757562512
O  O117  1  0.58540000  0.64500000  0.27900000  1.0 -0.3757562512
O  O118  1  0.49060000  0.27900000  0.64500000  1.0 -0.3757562512
O  O119  1  0.27900000  0.49060000  0.58540000  1.0 -0.3757562512
O  O120  1  0.64500000  0.58540000  0.49060000  1.0 -0.3757562512
O  O121  1  0.49060000  0.58540000  0.64500000  1.0 -0.3757562512
O  O122  1  0.58540000  0.49060000  0.27900000  1.0 -0.3740152025
O  O123  1  0.64500000  0.27900000  0.49060000  1.0 -0.3757562512
O  O124  1  0.27900000  0.64500000  0.58540000  1.0 -0.3757562512
O  O125  1  0.64500000  0.49060000  0.58540000  1.0 -0.3757562512
O  O126  1  0.27900000  0.58540000  0.49060000  1.0 -0.3757562512
O  O127  1  0.49060000  0.64500000  0.27900000  1.0 -0.3740152025
O  O128  1  0.58540000  0.27900000  0.64500000  1.0 -0.3757562512
O  O129  1  0.58540000  0.64500000  0.49060000  1.0 -0.3757562512
O  O130  1  0.49060000  0.27900000  0.58540000  1.0 -0.3757562512
O  O131  1  0.27900000  0.49060000  0.64500000  1.0 -0.3757562512
O  O132  1  0.64500000  0.58540000  0.27900000  1.0 -0.3757562512
O  O133  1  0.75940000  0.66460000  0.97100000  1.0 -0.3757562512
O  O134  1  0.66460000  0.75940000  0.60500000  1.0 -0.3757562512
O  O135  1  0.60500000  0.97100000  0.66460000  1.0 -0.3757562512
O  O136  1  0.97100000  0.60500000  0.75940000  1.0 -0.3757562512
O  O137  1  0.60500000  0.75940000  0.97100000  1.0 -0.3757562512
O  O138  1  0.97100000  0.66460000  0.60500000  1.0 -0.3757562512
O  O139  1  0.75940000  0.60500000  0.66460000  1.0 -0.3757562512
O  O140  1  0.66460000  0.97100000  0.75940000  1.0 -0.3740152025
O  O141  1  0.66460000  0.60500000  0.97100000  1.0 -0.3757562512
O  O142  1  0.75940000  0.97100000  0.60500000  1.0 -0.3740152025
O  O143  1  0.97100000  0.75940000  0.66460000  1.0 -0.3757562512
O  O144  1  0.60500000  0.66460000  0.75940000  1.0 -0.3757562512
O  O145  1  0.90800000  0.36728000  0.55708000  1.0 -0.5216012303
O  O146  1  0.36728000  0.90800000  0.16764000  1.0 -0.5216012303
O  O147  1  0.55708000  0.16764000  0.90800000  1.0 -0.5216012303
O  O148  1  0.16764000  0.55708000  0.36728000  1.0 -0.5260048148
O  O149  1  0.55708000  0.90800000  0.36728000  1.0 -0.5260048148
O  O150  1  0.16764000  0.36728000  0.90800000  1.0 -0.5216012303
O  O151  1  0.90800000  0.55708000  0.16764000  1.0 -0.5216012303
O  O152  1  0.36728000  0.16764000  0.55708000  1.0 -0.5216012303
O  O153  1  0.36728000  0.55708000  0.90800000  1.0 -0.5216012303
O  O154  1  0.90800000  0.16764000  0.36728000  1.0 -0.5260048148
O  O155  1  0.16764000  0.90800000  0.55708000  1.0 -0.5216012303
O  O156  1  0.55708000  0.36728000  0.16764000  1.0 -0.5216012303
O  O157  1  0.34200000  0.88272000  0.08236000  1.0 -0.5260048148
O  O158  1  0.88272000  0.34200000  0.69292000  1.0 -0.5260048148
O  O159  1  0.69292000  0.08236000  0.88272000  1.0 -0.5216012303
O  O160  1  0.08236000  0.69292000  0.34200000  1.0 -0.5216012303
O  O161  1  0.69292000  0.34200000  0.08236000  1.0 -0.5216012303
O  O162  1  0.08236000  0.88272000  0.69292000  1.0 -0.5216012303
O  O163  1  0.34200000  0.69292000  0.88272000  1.0 -0.5216012303
O  O164  1  0.88272000  0.08236000  0.34200000  1.0 -0.5216012303
O  O165  1  0.88272000  0.69292000  0.08236000  1.0 -0.5216012303
O  O166  1  0.34200000  0.08236000  0.69292000  1.0 -0.5216012303
O  O167  1  0.08236000  0.34200000  0.88272000  1.0 -0.5216012303
O  O168  1  0.69292000  0.88272000  0.34200000  1.0 -0.5216012303
O  O169  1  0.34200000  0.88272000  0.69292000  1.0 -0.5216012303
O  O170  1  0.88272000  0.34200000  0.08236000  1.0 -0.5216012303
O  O171  1  0.69292000  0.08236000  0.34200000  1.0 -0.5216012303
O  O172  1  0.08236000  0.69292000  0.88272000  1.0 -0.5216012303
O  O173  1  0.69292000  0.34200000  0.88272000  1.0 -0.5216012303
O  O174  1  0.08236000  0.88272000  0.34200000  1.0 -0.5216012303
O  O175  1  0.34200000  0.69292000  0.08236000  1.0 -0.5216012303
O  O176  1  0.88272000  0.08236000  0.69292000  1.0 -0.5216012303
O  O177  1  0.88272000  0.69292000  0.34200000  1.0 -0.5216012303
O  O178  1  0.34200000  0.08236000  0.88272000  1.0 -0.5216012303
O  O179  1  0.08236000  0.34200000  0.69292000  1.0 -0.5260048148
O  O180  1  0.69292000  0.88272000  0.08236000  1.0 -0.5216012303
O  O181  1  0.90800000  0.36728000  0.16764000  1.0 -0.5216012303
O  O182  1  0.36728000  0.90800000  0.55708000  1.0 -0.5216012303
O  O183  1  0.55708000  0.16764000  0.36728000  1.0 -0.5216012303
O  O184  1  0.16764000  0.55708000  0.90800000  1.0 -0.5216012303
O  O185  1  0.55708000  0.90800000  0.16764000  1.0 -0.5216012303
O  O186  1  0.16764000  0.36728000  0.55708000  1.0 -0.5260048148
O  O187  1  0.90800000  0.55708000  0.36728000  1.0 -0.5260048148
O  O188  1  0.36728000  0.16764000  0.90800000  1.0 -0.5216012303
O  O189  1  0.36728000  0.55708000  0.16764000  1.0 -0.5216012303
O  O190  1  0.90800000  0.16764000  0.55708000  1.0 -0.5216012303
O  O191  1  0.16764000  0.90800000  0.36728000  1.0 -0.5260048148
O  O192  1  0.55708000  0.36728000  0.90800000  1.0 -0.5216012303
O  O193  1  0.88530000  0.31452000  0.62140000  1.0 -0.5404626704
O  O194  1  0.31452000  0.88530000  0.17878000  1.0 -0.5404626704
O  O195  1  0.62140000  0.17878000  0.88530000  1.0 -0.5404626704
O  O196  1  0.17878000  0.62140000  0.31452000  1.0 -0.5452730475
O  O197  1  0.62140000  0.88530000  0.31452000  1.0 -0.5404626704
O  O198  1  0.17878000  0.31452000  0.88530000  1.0 -0.5404626704
O  O199  1  0.88530000  0.62140000  0.17878000  1.0 -0.5404626704
O  O200  1  0.31452000  0.17878000  0.62140000  1.0 -0.5404626704
O  O201  1  0.31452000  0.62140000  0.88530000  1.0 -0.5404626704
O  O202  1  0.88530000  0.17878000  0.31452000  1.0 -0.5404626704
O  O203  1  0.17878000  0.88530000  0.62140000  1.0 -0.5404626704
O  O204  1  0.62140000  0.31452000  0.17878000  1.0 -0.5404626704
O  O205  1  0.36470000  0.93548000  0.07122000  1.0 -0.5452730475
O  O206  1  0.93548000  0.36470000  0.62860000  1.0 -0.5404626704
O  O207  1  0.62860000  0.07122000  0.93548000  1.0 -0.5404626704
O  O208  1  0.07122000  0.62860000  0.36470000  1.0 -0.5404626704
O  O209  1  0.62860000  0.36470000  0.07122000  1.0 -0.5404626704
O  O210  1  0.07122000  0.93548000  0.62860000  1.0 -0.5404626704
O  O211  1  0.36470000  0.62860000  0.93548000  1.0 -0.5404626704
O  O212  1  0.93548000  0.07122000  0.36470000  1.0 -0.5452730475
O  O213  1  0.93548000  0.62860000  0.07122000  1.0 -0.5452730475
O  O214  1  0.36470000  0.07122000  0.62860000  1.0 -0.5404626704
O  O215  1  0.07122000  0.36470000  0.93548000  1.0 -0.5404626704
O  O216  1  0.62860000  0.93548000  0.36470000  1.0 -0.5452730475
O  O217  1  0.36470000  0.93548000  0.62860000  1.0 -0.5404626704
O  O218  1  0.93548000  0.36470000  0.07122000  1.0 -0.5404626704
O  O219  1  0.62860000  0.07122000  0.36470000  1.0 -0.5452730475
O  O220  1  0.07122000  0.62860000  0.93548000  1.0 -0.5404626704
O  O221  1  0.62860000  0.36470000  0.93548000  1.0 -0.5404626704
O  O222  1  0.07122000  0.93548000  0.36470000  1.0 -0.5404626704
O  O223  1  0.36470000  0.62860000  0.07122000  1.0 -0.5452730475
O  O224  1  0.93548000  0.07122000  0.62860000  1.0 -0.5404626704
O  O225  1  0.93548000  0.62860000  0.36470000  1.0 -0.5404626704
O  O226  1  0.36470000  0.07122000  0.93548000  1.0 -0.5404626704
O  O227  1  0.07122000  0.36470000  0.62860000  1.0 -0.5404626704
O  O228  1  0.62860000  0.93548000  0.07122000  1.0 -0.5404626704
O  O229  1  0.88530000  0.31452000  0.17878000  1.0 -0.5404626704
O  O230  1  0.31452000  0.88530000  0.62140000  1.0 -0.5404626704
O  O231  1  0.62140000  0.17878000  0.31452000  1.0 -0.5404626704
O  O232  1  0.17878000  0.62140000  0.88530000  1.0 -0.5404626704
O  O233  1  0.62140000  0.88530000  0.17878000  1.0 -0.5404626704
O  O234  1  0.17878000  0.31452000  0.62140000  1.0 -0.5404626704
O  O235  1  0.88530000  0.62140000  0.31452000  1.0 -0.5404626704
O  O236  1  0.31452000  0.17878000  0.88530000  1.0 -0.5404626704
O  O237  1  0.31452000  0.62140000  0.17878000  1.0 -0.5404626704
O  O238  1  0.88530000  0.17878000  0.62140000  1.0 -0.5404626704
O  O239  1  0.17878000  0.88530000  0.31452000  1.0 -0.5404626704
O  O240  1  0.62140000  0.31452000  0.88530000  1.0 -0.5404626704
O  O241  1  0.99200000  0.26450000  0.41628000  1.0 -0.5404626704
O  O242  1  0.26450000  0.99200000  0.32722000  1.0 -0.5404626704
O  O243  1  0.41628000  0.32722000  0.99200000  1.0 -0.5404626704
O  O244  1  0.32722000  0.41628000  0.26450000  1.0 -0.5404626704
O  O245  1  0.41628000  0.99200000  0.26450000  1.0 -0.5404626704
O  O246  1  0.32722000  0.26450000  0.99200000  1.0 -0.5404626704
O  O247  1  0.99200000  0.41628000  0.32722000  1.0 -0.5404626704
O  O248  1  0.26450000  0.32722000  0.41628000  1.0 -0.5404626704
O  O249  1  0.26450000  0.41628000  0.99200000  1.0 -0.5404626704
O  O250  1  0.99200000  0.32722000  0.26450000  1.0 -0.5404626704
O  O251  1  0.32722000  0.99200000  0.41628000  1.0 -0.5404626704
O  O252  1  0.41628000  0.26450000  0.32722000  1.0 -0.5404626704
O  O253  1  0.25800000  0.98550000  0.92278000  1.0 -0.5404626704
O  O254  1  0.98550000  0.25800000  0.83372000  1.0 -0.5404626704
O  O255  1  0.83372000  0.92278000  0.98550000  1.0 -0.5404626704
O  O256  1  0.92278000  0.83372000  0.25800000  1.0 -0.5404626704
O  O257  1  0.83372000  0.25800000  0.92278000  1.0 -0.5404626704
O  O258  1  0.92278000  0.98550000  0.83372000  1.0 -0.5404626704
O  O259  1  0.25800000  0.83372000  0.98550000  1.0 -0.5404626704
O  O260  1  0.98550000  0.92278000  0.25800000  1.0 -0.5404626704
O  O261  1  0.98550000  0.83372000  0.92278000  1.0 -0.5404626704
O  O262  1  0.25800000  0.92278000  0.83372000  1.0 -0.5404626704
O  O263  1  0.92278000  0.25800000  0.98550000  1.0 -0.5404626704
O  O264  1  0.83372000  0.98550000  0.25800000  1.0 -0.5404626704
O  O265  1  0.25800000  0.98550000  0.83372000  1.0 -0.5404626704
O  O266  1  0.98550000  0.25800000  0.92278000  1.0 -0.5404626704
O  O267  1  0.83372000  0.92278000  0.25800000  1.0 -0.5404626704
O  O268  1  0.92278000  0.83372000  0.98550000  1.0 -0.5404626704
O  O269  1  0.83372000  0.25800000  0.98550000  1.0 -0.5404626704
O  O270  1  0.92278000  0.98550000  0.25800000  1.0 -0.5404626704
O  O271  1  0.25800000  0.83372000  0.92278000  1.0 -0.5404626704
O  O272  1  0.98550000  0.92278000  0.83372000  1.0 -0.5404626704
O  O273  1  0.98550000  0.83372000  0.25800000  1.0 -0.5404626704
O  O274  1  0.25800000  0.92278000  0.98550000  1.0 -0.5404626704
O  O275  1  0.92278000  0.25800000  0.83372000  1.0 -0.5404626704
O  O276  1  0.83372000  0.98550000  0.92278000  1.0 -0.5404626704
O  O277  1  0.99200000  0.26450000  0.32722000  1.0 -0.5404626704
O  O278  1  0.26450000  0.99200000  0.41628000  1.0 -0.5404626704
O  O279  1  0.41628000  0.32722000  0.26450000  1.0 -0.5404626704
O  O280  1  0.32722000  0.41628000  0.99200000  1.0 -0.5404626704
O  O281  1  0.41628000  0.99200000  0.32722000  1.0 -0.5404626704
O  O282  1  0.32722000  0.26450000  0.41628000  1.0 -0.5404626704
O  O283  1  0.99200000  0.41628000  0.26450000  1.0 -0.5404626704
O  O284  1  0.26450000  0.32722000  0.99200000  1.0 -0.5404626704
O  O285  1  0.26450000  0.41628000  0.32722000  1.0 -0.5404626704
O  O286  1  0.99200000  0.32722000  0.41628000  1.0 -0.5404626704
O  O287  1  0.32722000  0.99200000  0.26450000  1.0 -0.5404626704
O  O288  1  0.41628000  0.26450000  0.99200000  1.0 -0.5404626704
O  O289  1  0.03436000  0.32188000  0.32188000  1.0 -1.0935028994
O  O290  1  0.32188000  0.03436000  0.32188000  1.0 -1.0935028994
O  O291  1  0.32188000  0.32188000  0.03436000  1.0 -1.0935028994
O  O292  1  0.32188000  0.32188000  0.32188000  1.0 -1.0935028994
O  O293  1  0.21564000  0.92812000  0.92812000  1.0 -1.0935028994
O  O294  1  0.92812000  0.21564000  0.92812000  1.0 -1.0935028994
O  O295  1  0.92812000  0.92812000  0.92812000  1.0 -1.0935028994
O  O296  1  0.92812000  0.92812000  0.21564000  1.0 -1.0935028994
O  O297  1  0.09749000  0.23247000  0.29407000  1.0 -0.5404626704
O  O298  1  0.23247000  0.09749000  0.37597000  1.0 -0.5452730475
O  O299  1  0.29407000  0.37597000  0.09749000  1.0 -0.5404626704
O  O300  1  0.37597000  0.29407000  0.23247000  1.0 -0.5452730475
O  O301  1  0.29407000  0.09749000  0.23247000  1.0 -0.5404626704
O  O302  1  0.37597000  0.23247000  0.09749000  1.0 -0.5404626704
O  O303  1  0.09749000  0.29407000  0.37597000  1.0 -0.5404626704
O  O304  1  0.23247000  0.37597000  0.29407000  1.0 -0.5452730475
O  O305  1  0.23247000  0.29407000  0.09749000  1.0 -0.5452730475
O  O306  1  0.09749000  0.37597000  0.23247000  1.0 -0.5452730475
O  O307  1  0.37597000  0.09749000  0.29407000  1.0 -0.5404626704
O  O308  1  0.29407000  0.23247000  0.37597000  1.0 -0.5404626704
O  O309  1  0.15251000  0.01753000  0.87403000  1.0 -0.5404626704
O  O310  1  0.01753000  0.15251000  0.95593000  1.0 -0.5404626704
O  O311  1  0.95593000  0.87403000  0.01753000  1.0 -0.5452730475
O  O312  1  0.87403000  0.95593000  0.15251000  1.0 -0.5404626704
O  O313  1  0.95593000  0.15251000  0.87403000  1.0 -0.5452730475
O  O314  1  0.87403000  0.01753000  0.95593000  1.0 -0.5404626704
O  O315  1  0.15251000  0.95593000  0.01753000  1.0 -0.5404626704
O  O316  1  0.01753000  0.87403000  0.15251000  1.0 -0.5404626704
O  O317  1  0.01753000  0.95593000  0.87403000  1.0 -0.5404626704
O  O318  1  0.15251000  0.87403000  0.95593000  1.0 -0.5404626704
O  O319  1  0.87403000  0.15251000  0.01753000  1.0 -0.5452730475
O  O320  1  0.95593000  0.01753000  0.15251000  1.0 -0.5404626704
O  O321  1  0.15251000  0.01753000  0.95593000  1.0 -0.5404626704
O  O322  1  0.01753000  0.15251000  0.87403000  1.0 -0.5404626704
O  O323  1  0.95593000  0.87403000  0.15251000  1.0 -0.5404626704
O  O324  1  0.87403000  0.95593000  0.01753000  1.0 -0.5452730475
O  O325  1  0.95593000  0.15251000  0.01753000  1.0 -0.5404626704
O  O326  1  0.87403000  0.01753000  0.15251000  1.0 -0.5404626704
O  O327  1  0.15251000  0.95593000  0.87403000  1.0 -0.5404626704
O  O328  1  0.01753000  0.87403000  0.95593000  1.0 -0.5404626704
O  O329  1  0.01753000  0.95593000  0.15251000  1.0 -0.5404626704
O  O330  1  0.15251000  0.87403000  0.01753000  1.0 -0.5404626704
O  O331  1  0.87403000  0.15251000  0.95593000  1.0 -0.5404626704
O  O332  1  0.95593000  0.01753000  0.87403000  1.0 -0.5404626704
O  O333  1  0.09749000  0.23247000  0.37597000  1.0 -0.5404626704
O  O334  1  0.23247000  0.09749000  0.29407000  1.0 -0.5404626704
O  O335  1  0.29407000  0.37597000  0.23247000  1.0 -0.5452730475
O  O336  1  0.37597000  0.29407000  0.09749000  1.0 -0.5452730475
O  O337  1  0.29407000  0.09749000  0.37597000  1.0 -0.5452730475
O  O338  1  0.37597000  0.23247000  0.29407000  1.0 -0.5404626704
O  O339  1  0.09749000  0.29407000  0.23247000  1.0 -0.5452730475
O  O340  1  0.23247000  0.37597000  0.09749000  1.0 -0.5404626704
O  O341  1  0.23247000  0.29407000  0.37597000  1.0 -0.5404626704
O  O342  1  0.09749000  0.37597000  0.29407000  1.0 -0.5404626704
O  O343  1  0.37597000  0.09749000  0.23247000  1.0 -0.5404626704
O  O344  1  0.29407000  0.23247000  0.09749000  1.0 -0.5452730475
O  O345  1  0.67092000  0.67092000  0.67092000  1.0 0.0089382154
O  O346  1  0.67092000  0.67092000  0.98724000  1.0 0.0089382154
O  O347  1  0.67092000  0.98724000  0.67092000  1.0 -0.0398084612
O  O348  1  0.98724000  0.67092000  0.67092000  1.0 0.0089382154
O  O349  1  0.57908000  0.57908000  0.26276000  1.0 -0.0398084612
O  O350  1  0.57908000  0.57908000  0.57908000  1.0 0.0089382154
O  O351  1  0.57908000  0.26276000  0.57908000  1.0 0.0089382154
O  O352  1  0.26276000  0.57908000  0.57908000  1.0 0.0089382154
O  O353  1  0.74660000  0.74660000  0.57460000  1.0 -0.3312950026
O  O354  1  0.74660000  0.74660000  0.93220000  1.0 -0.3312950026
O  O355  1  0.57460000  0.93220000  0.74660000  1.0 -0.3312950026
O  O356  1  0.93220000  0.57460000  0.74660000  1.0 -0.3312950026
O  O357  1  0.57460000  0.74660000  0.74660000  1.0 -0.3312950026
O  O358  1  0.93220000  0.74660000  0.74660000  1.0 -0.3312950026
O  O359  1  0.74660000  0.57460000  0.93220000  1.0 -0.3312950026
O  O360  1  0.74660000  0.93220000  0.57460000  1.0 -0.3312950026
O  O361  1  0.74660000  0.57460000  0.74660000  1.0 -0.3312950026
O  O362  1  0.74660000  0.93220000  0.74660000  1.0 -0.3312950026
O  O363  1  0.93220000  0.74660000  0.57460000  1.0 -0.3312950026
O  O364  1  0.57460000  0.74660000  0.93220000  1.0 -0.3312950026
O  O365  1  0.50340000  0.50340000  0.31780000  1.0 -0.3312950026
O  O366  1  0.50340000  0.50340000  0.67540000  1.0 -0.3312950026
O  O367  1  0.67540000  0.31780000  0.50340000  1.0 -0.3312950026
O  O368  1  0.31780000  0.67540000  0.50340000  1.0 -0.3312950026
O  O369  1  0.67540000  0.50340000  0.31780000  1.0 -0.3312950026
O  O370  1  0.31780000  0.50340000  0.67540000  1.0 -0.3312950026
O  O371  1  0.50340000  0.67540000  0.50340000  1.0 -0.3312950026
O  O372  1  0.50340000  0.31780000  0.50340000  1.0 -0.3312950026
O  O373  1  0.50340000  0.67540000  0.31780000  1.0 -0.3312950026
O  O374  1  0.50340000  0.31780000  0.67540000  1.0 -0.3312950026
O  O375  1  0.31780000  0.50340000  0.50340000  1.0 -0.3312950026
O  O376  1  0.67540000  0.50340000  0.50340000  1.0 -0.3312950026
O  O377  1  0.73110000  0.73110000  0.65630000  1.0 -0.3437349384
O  O378  1  0.73110000  0.73110000  0.88150000  1.0 -0.3437349384
O  O379  1  0.65630000  0.88150000  0.73110000  1.0 -0.3437349384
O  O380  1  0.88150000  0.65630000  0.73110000  1.0 -0.3437349384
O  O381  1  0.65630000  0.73110000  0.73110000  1.0 -0.3437349384
O  O382  1  0.88150000  0.73110000  0.73110000  1.0 -0.3437349384
O  O383  1  0.73110000  0.65630000  0.88150000  1.0 -0.3437349384
O  O384  1  0.73110000  0.88150000  0.65630000  1.0 -0.3437349384
O  O385  1  0.73110000  0.65630000  0.73110000  1.0 -0.3437349384
O  O386  1  0.73110000  0.88150000  0.73110000  1.0 -0.3437349384
O  O387  1  0.88150000  0.73110000  0.65630000  1.0 -0.3437349384
O  O388  1  0.65630000  0.73110000  0.88150000  1.0 -0.3437349384
O  O389  1  0.51890000  0.51890000  0.36850000  1.0 -0.349082736
O  O390  1  0.51890000  0.51890000  0.59370000  1.0 -0.3437349384
O  O391  1  0.59370000  0.36850000  0.51890000  1.0 -0.349082736
O  O392  1  0.36850000  0.59370000  0.51890000  1.0 -0.349082736
O  O393  1  0.59370000  0.51890000  0.36850000  1.0 -0.349082736
O  O394  1  0.36850000  0.51890000  0.59370000  1.0 -0.3437349384
O  O395  1  0.51890000  0.59370000  0.51890000  1.0 -0.3437349384
O  O396  1  0.51890000  0.36850000  0.51890000  1.0 -0.349082736
O  O397  1  0.51890000  0.59370000  0.36850000  1.0 -0.349082736
O  O398  1  0.51890000  0.36850000  0.59370000  1.0 -0.349082736
O  O399  1  0.36850000  0.51890000  0.51890000  1.0 -0.3437349384
O  O400  1  0.59370000  0.51890000  0.51890000  1.0 -0.349082736
