# DDEC6 charges by PACMAN v1.1 (https://github.com/mtap-research/PACMAN-charge/)
data_HANKIS_ASR_pacman
_symmetry_space_group_name_H-M   'P 1'
_cell_length_a   35.72460000
_cell_length_b   35.72460000
_cell_length_c   35.72460000
_cell_angle_alpha   60.00000000
_cell_angle_beta   60.00000000
_cell_angle_gamma   60.00000000
_symmetry_Int_Tables_number   1
_chemical_formula_structural   In6Co6C63O50
_chemical_formula_sum   'In48 Co48 C504 O400'
_cell_volume   32239.41305797
_cell_formula_units_Z   8
loop_
 _symmetry_equiv_pos_site_id
 _symmetry_equiv_pos_as_xyz
  1  'x, y, z'
loop_
 _atom_site_type_symbol
 _atom_site_label
 _atom_site_symmetry_multiplicity
 _atom_site_fract_x
 _atom_site_fract_y
 _atom_site_fract_z
 _atom_site_occupancy
 _atom_site_charge
In  In1  1  0.86882000  0.38118000  0.62500000  1.0 1.2981234233
In  In2  1  0.38118000  0.86882000  0.12500000  1.0 1.3086454275
In  In3  1  0.62500000  0.12500000  0.86882000  1.0 1.3086454275
In  In4  1  0.12500000  0.62500000  0.38118000  1.0 1.2981234233
In  In5  1  0.62500000  0.86882000  0.38118000  1.0 1.3086454275
In  In6  1  0.12500000  0.38118000  0.86882000  1.0 1.2981234233
In  In7  1  0.86882000  0.62500000  0.12500000  1.0 1.2981234233
In  In8  1  0.38118000  0.12500000  0.62500000  1.0 1.2981234233
In  In9  1  0.38118000  0.62500000  0.86882000  1.0 1.3086454275
In  In10  1  0.86882000  0.12500000  0.38118000  1.0 1.2981234233
In  In11  1  0.12500000  0.86882000  0.62500000  1.0 1.2981234233
In  In12  1  0.62500000  0.38118000  0.12500000  1.0 1.3086454275
In  In13  1  0.38118000  0.86882000  0.62500000  1.0 1.2981234233
In  In14  1  0.86882000  0.38118000  0.12500000  1.0 1.2981234233
In  In15  1  0.62500000  0.12500000  0.38118000  1.0 1.3086454275
In  In16  1  0.12500000  0.62500000  0.86882000  1.0 1.2942928542
In  In17  1  0.62500000  0.38118000  0.86882000  1.0 1.2981234233
In  In18  1  0.12500000  0.86882000  0.38118000  1.0 1.3086454275
In  In19  1  0.38118000  0.62500000  0.12500000  1.0 1.2981234233
In  In20  1  0.86882000  0.12500000  0.62500000  1.0 1.2981234233
In  In21  1  0.86882000  0.62500000  0.38118000  1.0 1.2981234233
In  In22  1  0.38118000  0.12500000  0.86882000  1.0 1.3086454275
In  In23  1  0.12500000  0.38118000  0.62500000  1.0 1.2981234233
In  In24  1  0.62500000  0.86882000  0.12500000  1.0 1.3086454275
In  In25  1  0.04490000  0.25134000  0.35188000  1.0 1.5426020654
In  In26  1  0.25134000  0.04490000  0.35188000  1.0 1.5426020654
In  In27  1  0.35188000  0.35188000  0.04490000  1.0 1.5426020654
In  In28  1  0.35188000  0.35188000  0.25134000  1.0 1.5426020654
In  In29  1  0.35188000  0.04490000  0.25134000  1.0 1.5426020654
In  In30  1  0.35188000  0.25134000  0.04490000  1.0 1.5426020654
In  In31  1  0.04490000  0.35188000  0.35188000  1.0 1.5454978217
In  In32  1  0.25134000  0.35188000  0.35188000  1.0 1.5426020654
In  In33  1  0.25134000  0.35188000  0.04490000  1.0 1.5426020654
In  In34  1  0.04490000  0.35188000  0.25134000  1.0 1.5426020654
In  In35  1  0.35188000  0.04490000  0.35188000  1.0 1.5454978217
In  In36  1  0.35188000  0.25134000  0.35188000  1.0 1.5426020654
In  In37  1  0.20510000  0.99866000  0.89812000  1.0 1.5426020654
In  In38  1  0.99866000  0.20510000  0.89812000  1.0 1.5426020654
In  In39  1  0.89812000  0.89812000  0.99866000  1.0 1.5426020654
In  In40  1  0.89812000  0.89812000  0.20510000  1.0 1.5426020654
In  In41  1  0.89812000  0.20510000  0.89812000  1.0 1.5426020654
In  In42  1  0.89812000  0.99866000  0.89812000  1.0 1.5426020654
In  In43  1  0.20510000  0.89812000  0.99866000  1.0 1.5426020654
In  In44  1  0.99866000  0.89812000  0.20510000  1.0 1.5426020654
In  In45  1  0.99866000  0.89812000  0.89812000  1.0 1.5426020654
In  In46  1  0.20510000  0.89812000  0.89812000  1.0 1.5426020654
In  In47  1  0.89812000  0.20510000  0.99866000  1.0 1.5426020654
In  In48  1  0.89812000  0.99866000  0.20510000  1.0 1.5426020654
Co  Co1  1  0.71908000  0.71908000  0.61064000  1.0 0.361743765
Co  Co2  1  0.71908000  0.71908000  0.95120000  1.0 0.3668801406
Co  Co3  1  0.61064000  0.95120000  0.71908000  1.0 0.361743765
Co  Co4  1  0.95120000  0.61064000  0.71908000  1.0 0.361743765
Co  Co5  1  0.61064000  0.71908000  0.71908000  1.0 0.3519073098
Co  Co6  1  0.95120000  0.71908000  0.71908000  1.0 0.3519073098
Co  Co7  1  0.71908000  0.61064000  0.95120000  1.0 0.3668801406
Co  Co8  1  0.71908000  0.95120000  0.61064000  1.0 0.361743765
Co  Co9  1  0.71908000  0.61064000  0.71908000  1.0 0.3519073098
Co  Co10  1  0.71908000  0.95120000  0.71908000  1.0 0.3668801406
Co  Co11  1  0.95120000  0.71908000  0.61064000  1.0 0.3668801406
Co  Co12  1  0.61064000  0.71908000  0.95120000  1.0 0.361743765
Co  Co13  1  0.53092000  0.53092000  0.29880000  1.0 0.361743765
Co  Co14  1  0.53092000  0.53092000  0.63936000  1.0 0.3519073098
Co  Co15  1  0.63936000  0.29880000  0.53092000  1.0 0.361743765
Co  Co16  1  0.29880000  0.63936000  0.53092000  1.0 0.361743765
Co  Co17  1  0.63936000  0.53092000  0.29880000  1.0 0.361743765
Co  Co18  1  0.29880000  0.53092000  0.63936000  1.0 0.3668801406
Co  Co19  1  0.53092000  0.63936000  0.53092000  1.0 0.3519073098
Co  Co20  1  0.53092000  0.29880000  0.53092000  1.0 0.361743765
Co  Co21  1  0.53092000  0.63936000  0.29880000  1.0 0.3519073098
Co  Co22  1  0.53092000  0.29880000  0.63936000  1.0 0.361743765
Co  Co23  1  0.29880000  0.53092000  0.53092000  1.0 0.361743765
Co  Co24  1  0.63936000  0.53092000  0.53092000  1.0 0.3668801406
Co  Co25  1  0.71965000  0.71965000  0.63377000  1.0 0.2780294661
Co  Co26  1  0.71965000  0.71965000  0.92693000  1.0 0.2780294661
Co  Co27  1  0.63377000  0.92693000  0.71965000  1.0 0.2780294661
Co  Co28  1  0.92693000  0.63377000  0.71965000  1.0 0.2780294661
Co  Co29  1  0.63377000  0.71965000  0.71965000  1.0 0.285471635
Co  Co30  1  0.92693000  0.71965000  0.71965000  1.0 0.2780294661
Co  Co31  1  0.71965000  0.63377000  0.92693000  1.0 0.268450718
Co  Co32  1  0.71965000  0.92693000  0.63377000  1.0 0.2780294661
Co  Co33  1  0.71965000  0.63377000  0.71965000  1.0 0.2780294661
Co  Co34  1  0.71965000  0.92693000  0.71965000  1.0 0.268450718
Co  Co35  1  0.92693000  0.71965000  0.63377000  1.0 0.268450718
Co  Co36  1  0.63377000  0.71965000  0.92693000  1.0 0.2780294661
Co  Co37  1  0.53035000  0.53035000  0.32307000  1.0 0.2780294661
Co  Co38  1  0.53035000  0.53035000  0.61623000  1.0 0.268450718
Co  Co39  1  0.61623000  0.32307000  0.53035000  1.0 0.2780294661
Co  Co40  1  0.32307000  0.61623000  0.53035000  1.0 0.2780294661
Co  Co41  1  0.61623000  0.53035000  0.32307000  1.0 0.2780294661
Co  Co42  1  0.32307000  0.53035000  0.61623000  1.0 0.2639366258
Co  Co43  1  0.53035000  0.61623000  0.53035000  1.0 0.2780294661
Co  Co44  1  0.53035000  0.32307000  0.53035000  1.0 0.2780294661
Co  Co45  1  0.53035000  0.61623000  0.32307000  1.0 0.285471635
Co  Co46  1  0.53035000  0.32307000  0.61623000  1.0 0.2780294661
Co  Co47  1  0.32307000  0.53035000  0.53035000  1.0 0.2780294661
Co  Co48  1  0.61623000  0.53035000  0.53035000  1.0 0.268450718
C  C1  1  0.85150000  0.47090000  0.60650000  1.0 0.5937835702
C  C2  1  0.47090000  0.85150000  0.07110000  1.0 0.5977456181
C  C3  1  0.60650000  0.07110000  0.85150000  1.0 0.5977456181
C  C4  1  0.07110000  0.60650000  0.47090000  1.0 0.5937835702
C  C5  1  0.60650000  0.85150000  0.47090000  1.0 0.5977456181
C  C6  1  0.07110000  0.47090000  0.85150000  1.0 0.5977456181
C  C7  1  0.85150000  0.60650000  0.07110000  1.0 0.5977456181
C  C8  1  0.47090000  0.07110000  0.60650000  1.0 0.5977456181
C  C9  1  0.47090000  0.60650000  0.85150000  1.0 0.5937835702
C  C10  1  0.85150000  0.07110000  0.47090000  1.0 0.5977456181
C  C11  1  0.07110000  0.85150000  0.60650000  1.0 0.5977456181
C  C12  1  0.60650000  0.47090000  0.07110000  1.0 0.5977456181
C  C13  1  0.39850000  0.77910000  0.17890000  1.0 0.5937835702
C  C14  1  0.77910000  0.39850000  0.64350000  1.0 0.5977456181
C  C15  1  0.64350000  0.17890000  0.77910000  1.0 0.5977456181
C  C16  1  0.17890000  0.64350000  0.39850000  1.0 0.5937835702
C  C17  1  0.64350000  0.39850000  0.17890000  1.0 0.5977456181
C  C18  1  0.17890000  0.77910000  0.64350000  1.0 0.5937835702
C  C19  1  0.39850000  0.64350000  0.77910000  1.0 0.5977456181
C  C20  1  0.77910000  0.17890000  0.39850000  1.0 0.5977456181
C  C21  1  0.77910000  0.64350000  0.17890000  1.0 0.5937835702
C  C22  1  0.39850000  0.17890000  0.64350000  1.0 0.5977456181
C  C23  1  0.17890000  0.39850000  0.77910000  1.0 0.5977456181
C  C24  1  0.64350000  0.77910000  0.39850000  1.0 0.5977456181
C  C25  1  0.39850000  0.77910000  0.64350000  1.0 0.5937835702
C  C26  1  0.77910000  0.39850000  0.17890000  1.0 0.5977456181
C  C27  1  0.64350000  0.17890000  0.39850000  1.0 0.5977456181
C  C28  1  0.17890000  0.64350000  0.77910000  1.0 0.5937835702
C  C29  1  0.64350000  0.39850000  0.77910000  1.0 0.5937835702
C  C30  1  0.17890000  0.77910000  0.39850000  1.0 0.5937835702
C  C31  1  0.39850000  0.64350000  0.17890000  1.0 0.5977456181
C  C32  1  0.77910000  0.17890000  0.64350000  1.0 0.5937835702
C  C33  1  0.77910000  0.64350000  0.39850000  1.0 0.5937835702
C  C34  1  0.39850000  0.17890000  0.77910000  1.0 0.5937835702
C  C35  1  0.17890000  0.39850000  0.64350000  1.0 0.5977456181
C  C36  1  0.64350000  0.77910000  0.17890000  1.0 0.5977456181
C  C37  1  0.85150000  0.47090000  0.07110000  1.0 0.5977456181
C  C38  1  0.47090000  0.85150000  0.60650000  1.0 0.5937835702
C  C39  1  0.60650000  0.07110000  0.47090000  1.0 0.5977456181
C  C40  1  0.07110000  0.60650000  0.85150000  1.0 0.5977456181
C  C41  1  0.60650000  0.85150000  0.07110000  1.0 0.5937835702
C  C42  1  0.07110000  0.47090000  0.60650000  1.0 0.5977456181
C  C43  1  0.85150000  0.60650000  0.47090000  1.0 0.5977456181
C  C44  1  0.47090000  0.07110000  0.85150000  1.0 0.5977456181
C  C45  1  0.47090000  0.60650000  0.07110000  1.0 0.5937835702
C  C46  1  0.85150000  0.07110000  0.60650000  1.0 0.5937835702
C  C47  1  0.07110000  0.85150000  0.47090000  1.0 0.5977456181
C  C48  1  0.60650000  0.47090000  0.85150000  1.0 0.5937835702
C  C49  1  0.85252000  0.53990000  0.53990000  1.0 0.1324040063
C  C50  1  0.53990000  0.85252000  0.06768000  1.0 0.1143035324
C  C51  1  0.53990000  0.06768000  0.85252000  1.0 0.1190131597
C  C52  1  0.06768000  0.53990000  0.53990000  1.0 0.1190131597
C  C53  1  0.53990000  0.85252000  0.53990000  1.0 0.1143035324
C  C54  1  0.06768000  0.53990000  0.85252000  1.0 0.1190131597
C  C55  1  0.85252000  0.53990000  0.06768000  1.0 0.1190131597
C  C56  1  0.53990000  0.06768000  0.53990000  1.0 0.1190131597
C  C57  1  0.53990000  0.53990000  0.85252000  1.0 0.1190131597
C  C58  1  0.85252000  0.06768000  0.53990000  1.0 0.1190131597
C  C59  1  0.06768000  0.85252000  0.53990000  1.0 0.1143035324
C  C60  1  0.53990000  0.53990000  0.06768000  1.0 0.1190131597
C  C61  1  0.39748000  0.71010000  0.18232000  1.0 0.1190131597
C  C62  1  0.71010000  0.39748000  0.71010000  1.0 0.1324040063
C  C63  1  0.71010000  0.18232000  0.71010000  1.0 0.1190131597
C  C64  1  0.18232000  0.71010000  0.39748000  1.0 0.1190131597
C  C65  1  0.71010000  0.39748000  0.18232000  1.0 0.1190131597
C  C66  1  0.18232000  0.71010000  0.71010000  1.0 0.1190131597
C  C67  1  0.39748000  0.71010000  0.71010000  1.0 0.1190131597
C  C68  1  0.71010000  0.18232000  0.39748000  1.0 0.1190131597
C  C69  1  0.71010000  0.71010000  0.18232000  1.0 0.1190131597
C  C70  1  0.39748000  0.18232000  0.71010000  1.0 0.1190131597
C  C71  1  0.18232000  0.39748000  0.71010000  1.0 0.1190131597
C  C72  1  0.71010000  0.71010000  0.39748000  1.0 0.1190131597
C  C73  1  0.84120000  0.52100000  0.58820000  1.0 -0.111232304
C  C74  1  0.52100000  0.84120000  0.04960000  1.0 -0.111232304
C  C75  1  0.58820000  0.04960000  0.84120000  1.0 -0.111232304
C  C76  1  0.04960000  0.58820000  0.52100000  1.0 -0.111232304
C  C77  1  0.58820000  0.84120000  0.52100000  1.0 -0.111232304
C  C78  1  0.04960000  0.52100000  0.84120000  1.0 -0.111232304
C  C79  1  0.84120000  0.58820000  0.04960000  1.0 -0.111232304
C  C80  1  0.52100000  0.04960000  0.58820000  1.0 -0.111232304
C  C81  1  0.52100000  0.58820000  0.84120000  1.0 -0.111232304
C  C82  1  0.84120000  0.04960000  0.52100000  1.0 -0.111232304
C  C83  1  0.04960000  0.84120000  0.58820000  1.0 -0.111232304
C  C84  1  0.58820000  0.52100000  0.04960000  1.0 -0.111232304
C  C85  1  0.40880000  0.72900000  0.20040000  1.0 -0.111232304
C  C86  1  0.72900000  0.40880000  0.66180000  1.0 -0.111232304
C  C87  1  0.66180000  0.20040000  0.72900000  1.0 -0.111232304
C  C88  1  0.20040000  0.66180000  0.40880000  1.0 -0.111232304
C  C89  1  0.66180000  0.40880000  0.20040000  1.0 -0.111232304
C  C90  1  0.20040000  0.72900000  0.66180000  1.0 -0.111232304
C  C91  1  0.40880000  0.66180000  0.72900000  1.0 -0.111232304
C  C92  1  0.72900000  0.20040000  0.40880000  1.0 -0.111232304
C  C93  1  0.72900000  0.66180000  0.20040000  1.0 -0.111232304
C  C94  1  0.40880000  0.20040000  0.66180000  1.0 -0.111232304
C  C95  1  0.20040000  0.40880000  0.72900000  1.0 -0.111232304
C  C96  1  0.66180000  0.72900000  0.40880000  1.0 -0.111232304
C  C97  1  0.40880000  0.72900000  0.66180000  1.0 -0.111232304
C  C98  1  0.72900000  0.40880000  0.20040000  1.0 -0.111232304
C  C99  1  0.66180000  0.20040000  0.40880000  1.0 -0.111232304
C  C100  1  0.20040000  0.66180000  0.72900000  1.0 -0.111232304
C  C101  1  0.66180000  0.40880000  0.72900000  1.0 -0.111232304
C  C102  1  0.20040000  0.72900000  0.40880000  1.0 -0.111232304
C  C103  1  0.40880000  0.66180000  0.20040000  1.0 -0.111232304
C  C104  1  0.72900000  0.20040000  0.66180000  1.0 -0.111232304
C  C105  1  0.72900000  0.66180000  0.40880000  1.0 -0.111232304
C  C106  1  0.40880000  0.20040000  0.72900000  1.0 -0.111232304
C  C107  1  0.20040000  0.40880000  0.66180000  1.0 -0.111232304
C  C108  1  0.66180000  0.72900000  0.20040000  1.0 -0.111232304
C  C109  1  0.84120000  0.52100000  0.04960000  1.0 -0.111232304
C  C110  1  0.52100000  0.84120000  0.58820000  1.0 -0.111232304
C  C111  1  0.58820000  0.04960000  0.52100000  1.0 -0.111232304
C  C112  1  0.04960000  0.58820000  0.84120000  1.0 -0.111232304
C  C113  1  0.58820000  0.84120000  0.04960000  1.0 -0.111232304
C  C114  1  0.04960000  0.52100000  0.58820000  1.0 -0.111232304
C  C115  1  0.84120000  0.58820000  0.52100000  1.0 -0.111232304
C  C116  1  0.52100000  0.04960000  0.84120000  1.0 -0.111232304
C  C117  1  0.52100000  0.58820000  0.04960000  1.0 -0.111232304
C  C118  1  0.84120000  0.04960000  0.58820000  1.0 -0.111232304
C  C119  1  0.04960000  0.84120000  0.52100000  1.0 -0.111232304
C  C120  1  0.58820000  0.52100000  0.84120000  1.0 -0.111232304
C  C121  1  0.81780000  0.54780000  0.61580000  1.0 0.1324040063
C  C122  1  0.54780000  0.81780000  0.01860000  1.0 0.1324040063
C  C123  1  0.61580000  0.01860000  0.81780000  1.0 0.1374488961
C  C124  1  0.01860000  0.61580000  0.54780000  1.0 0.1374488961
C  C125  1  0.61580000  0.81780000  0.54780000  1.0 0.1374488961
C  C126  1  0.01860000  0.54780000  0.81780000  1.0 0.1374488961
C  C127  1  0.81780000  0.61580000  0.01860000  1.0 0.1324040063
C  C128  1  0.54780000  0.01860000  0.61580000  1.0 0.1374488961
C  C129  1  0.54780000  0.61580000  0.81780000  1.0 0.1324040063
C  C130  1  0.81780000  0.01860000  0.54780000  1.0 0.1374488961
C  C131  1  0.01860000  0.81780000  0.61580000  1.0 0.1374488961
C  C132  1  0.61580000  0.54780000  0.01860000  1.0 0.1324040063
C  C133  1  0.43220000  0.70220000  0.23140000  1.0 0.1324040063
C  C134  1  0.70220000  0.43220000  0.63420000  1.0 0.1374488961
C  C135  1  0.63420000  0.23140000  0.70220000  1.0 0.1374488961
C  C136  1  0.23140000  0.63420000  0.43220000  1.0 0.1374488961
C  C137  1  0.63420000  0.43220000  0.23140000  1.0 0.1324040063
C  C138  1  0.23140000  0.70220000  0.63420000  1.0 0.1374488961
C  C139  1  0.43220000  0.63420000  0.70220000  1.0 0.1374488961
C  C140  1  0.70220000  0.23140000  0.43220000  1.0 0.1374488961
C  C141  1  0.70220000  0.63420000  0.23140000  1.0 0.1324040063
C  C142  1  0.43220000  0.23140000  0.63420000  1.0 0.1324040063
C  C143  1  0.23140000  0.43220000  0.70220000  1.0 0.1324040063
C  C144  1  0.63420000  0.70220000  0.43220000  1.0 0.1374488961
C  C145  1  0.43220000  0.70220000  0.63420000  1.0 0.1374488961
C  C146  1  0.70220000  0.43220000  0.23140000  1.0 0.1324040063
C  C147  1  0.63420000  0.23140000  0.43220000  1.0 0.1374488961
C  C148  1  0.23140000  0.63420000  0.70220000  1.0 0.1374488961
C  C149  1  0.63420000  0.43220000  0.70220000  1.0 0.1324040063
C  C150  1  0.23140000  0.70220000  0.43220000  1.0 0.1374488961
C  C151  1  0.43220000  0.63420000  0.23140000  1.0 0.1374488961
C  C152  1  0.70220000  0.23140000  0.63420000  1.0 0.1324040063
C  C153  1  0.70220000  0.63420000  0.43220000  1.0 0.1324040063
C  C154  1  0.43220000  0.23140000  0.70220000  1.0 0.1374488961
C  C155  1  0.23140000  0.43220000  0.63420000  1.0 0.1324040063
C  C156  1  0.63420000  0.70220000  0.23140000  1.0 0.1324040063
C  C157  1  0.81780000  0.54780000  0.01860000  1.0 0.1324040063
C  C158  1  0.54780000  0.81780000  0.61580000  1.0 0.1374488961
C  C159  1  0.61580000  0.01860000  0.54780000  1.0 0.1374488961
C  C160  1  0.01860000  0.61580000  0.81780000  1.0 0.1324040063
C  C161  1  0.61580000  0.81780000  0.01860000  1.0 0.1324040063
C  C162  1  0.01860000  0.54780000  0.61580000  1.0 0.1374488961
C  C163  1  0.81780000  0.61580000  0.54780000  1.0 0.1374488961
C  C164  1  0.54780000  0.01860000  0.81780000  1.0 0.1324040063
C  C165  1  0.54780000  0.61580000  0.01860000  1.0 0.1324040063
C  C166  1  0.81780000  0.01860000  0.61580000  1.0 0.1374488961
C  C167  1  0.01860000  0.81780000  0.54780000  1.0 0.1374488961
C  C168  1  0.61580000  0.54780000  0.81780000  1.0 0.1374488961
C  C169  1  0.80650000  0.59450000  0.59450000  1.0 -0.3093293638
C  C170  1  0.59450000  0.80650000  0.00450000  1.0 -0.2999233717
C  C171  1  0.59450000  0.00450000  0.80650000  1.0 -0.2999233717
C  C172  1  0.00450000  0.59450000  0.59450000  1.0 -0.2999233717
C  C173  1  0.59450000  0.80650000  0.59450000  1.0 -0.3093293638
C  C174  1  0.00450000  0.59450000  0.80650000  1.0 -0.2999233717
C  C175  1  0.80650000  0.59450000  0.00450000  1.0 -0.2999233717
C  C176  1  0.59450000  0.00450000  0.59450000  1.0 -0.2999233717
C  C177  1  0.59450000  0.59450000  0.80650000  1.0 -0.3093293638
C  C178  1  0.80650000  0.00450000  0.59450000  1.0 -0.2999233717
C  C179  1  0.00450000  0.80650000  0.59450000  1.0 -0.2999233717
C  C180  1  0.59450000  0.59450000  0.00450000  1.0 -0.3093293638
C  C181  1  0.44350000  0.65550000  0.24550000  1.0 -0.2999233717
C  C182  1  0.65550000  0.44350000  0.65550000  1.0 -0.3093293638
C  C183  1  0.65550000  0.24550000  0.65550000  1.0 -0.2999233717
C  C184  1  0.24550000  0.65550000  0.44350000  1.0 -0.2999233717
C  C185  1  0.65550000  0.44350000  0.24550000  1.0 -0.2999233717
C  C186  1  0.24550000  0.65550000  0.65550000  1.0 -0.2999233717
C  C187  1  0.44350000  0.65550000  0.65550000  1.0 -0.2999233717
C  C188  1  0.65550000  0.24550000  0.44350000  1.0 -0.2999233717
C  C189  1  0.65550000  0.65550000  0.24550000  1.0 -0.2999233717
C  C190  1  0.44350000  0.24550000  0.65550000  1.0 -0.2999233717
C  C191  1  0.24550000  0.44350000  0.65550000  1.0 -0.2999233717
C  C192  1  0.65550000  0.65550000  0.44350000  1.0 -0.3093293638
C  C193  1  0.77970000  0.62550000  0.62550000  1.0 0.5977456181
C  C194  1  0.62550000  0.77970000  0.96930000  1.0 0.5977456181
C  C195  1  0.62550000  0.96930000  0.77970000  1.0 0.5977456181
C  C196  1  0.96930000  0.62550000  0.62550000  1.0 0.5977456181
C  C197  1  0.62550000  0.77970000  0.62550000  1.0 0.5977456181
C  C198  1  0.96930000  0.62550000  0.77970000  1.0 0.5977456181
C  C199  1  0.77970000  0.62550000  0.96930000  1.0 0.5977456181
C  C200  1  0.62550000  0.96930000  0.62550000  1.0 0.5977456181
C  C201  1  0.62550000  0.62550000  0.77970000  1.0 0.5977456181
C  C202  1  0.77970000  0.96930000  0.62550000  1.0 0.5977456181
C  C203  1  0.96930000  0.77970000  0.62550000  1.0 0.5977456181
C  C204  1  0.62550000  0.62550000  0.96930000  1.0 0.5977456181
C  C205  1  0.47030000  0.62450000  0.28070000  1.0 0.5977456181
C  C206  1  0.62450000  0.47030000  0.62450000  1.0 0.5977456181
C  C207  1  0.62450000  0.28070000  0.62450000  1.0 0.5977456181
C  C208  1  0.28070000  0.62450000  0.47030000  1.0 0.5977456181
C  C209  1  0.62450000  0.47030000  0.28070000  1.0 0.5977456181
C  C210  1  0.28070000  0.62450000  0.62450000  1.0 0.5977456181
C  C211  1  0.47030000  0.62450000  0.62450000  1.0 0.5977456181
C  C212  1  0.62450000  0.28070000  0.47030000  1.0 0.5977456181
C  C213  1  0.62450000  0.62450000  0.28070000  1.0 0.5977456181
C  C214  1  0.47030000  0.28070000  0.62450000  1.0 0.5977456181
C  C215  1  0.28070000  0.47030000  0.62450000  1.0 0.5977456181
C  C216  1  0.62450000  0.62450000  0.47030000  1.0 0.5977456181
C  C217  1  0.90398000  0.32902000  0.57706000  1.0 0.5977456181
C  C218  1  0.32902000  0.90398000  0.18994000  1.0 0.5937835702
C  C219  1  0.57706000  0.18994000  0.90398000  1.0 0.5977456181
C  C220  1  0.18994000  0.57706000  0.32902000  1.0 0.5977456181
C  C221  1  0.57706000  0.90398000  0.32902000  1.0 0.5977456181
C  C222  1  0.18994000  0.32902000  0.90398000  1.0 0.5977456181
C  C223  1  0.90398000  0.57706000  0.18994000  1.0 0.5977456181
C  C224  1  0.32902000  0.18994000  0.57706000  1.0 0.5977456181
C  C225  1  0.32902000  0.57706000  0.90398000  1.0 0.5977456181
C  C226  1  0.90398000  0.18994000  0.32902000  1.0 0.5937835702
C  C227  1  0.18994000  0.90398000  0.57706000  1.0 0.5937835702
C  C228  1  0.57706000  0.32902000  0.18994000  1.0 0.5977456181
C  C229  1  0.34602000  0.92098000  0.06006000  1.0 0.5937835702
C  C230  1  0.92098000  0.34602000  0.67294000  1.0 0.5937835702
C  C231  1  0.67294000  0.06006000  0.92098000  1.0 0.5977456181
C  C232  1  0.06006000  0.67294000  0.34602000  1.0 0.5977456181
C  C233  1  0.67294000  0.34602000  0.06006000  1.0 0.5977456181
C  C234  1  0.06006000  0.92098000  0.67294000  1.0 0.5937835702
C  C235  1  0.34602000  0.67294000  0.92098000  1.0 0.5977456181
C  C236  1  0.92098000  0.06006000  0.34602000  1.0 0.5937835702
C  C237  1  0.92098000  0.67294000  0.06006000  1.0 0.5937835702
C  C238  1  0.34602000  0.06006000  0.67294000  1.0 0.5977456181
C  C239  1  0.06006000  0.34602000  0.92098000  1.0 0.5977456181
C  C240  1  0.67294000  0.92098000  0.34602000  1.0 0.5977456181
C  C241  1  0.34602000  0.92098000  0.67294000  1.0 0.5937835702
C  C242  1  0.92098000  0.34602000  0.06006000  1.0 0.5937835702
C  C243  1  0.67294000  0.06006000  0.34602000  1.0 0.5937835702
C  C244  1  0.06006000  0.67294000  0.92098000  1.0 0.5977456181
C  C245  1  0.67294000  0.34602000  0.92098000  1.0 0.5977456181
C  C246  1  0.06006000  0.92098000  0.34602000  1.0 0.5977456181
C  C247  1  0.34602000  0.67294000  0.06006000  1.0 0.5977456181
C  C248  1  0.92098000  0.06006000  0.67294000  1.0 0.5977456181
C  C249  1  0.92098000  0.67294000  0.34602000  1.0 0.5937835702
C  C250  1  0.34602000  0.06006000  0.92098000  1.0 0.5977456181
C  C251  1  0.06006000  0.34602000  0.67294000  1.0 0.5977456181
C  C252  1  0.67294000  0.92098000  0.06006000  1.0 0.5977456181
C  C253  1  0.90398000  0.32902000  0.18994000  1.0 0.5937835702
C  C254  1  0.32902000  0.90398000  0.57706000  1.0 0.5937835702
C  C255  1  0.57706000  0.18994000  0.32902000  1.0 0.5977456181
C  C256  1  0.18994000  0.57706000  0.90398000  1.0 0.5977456181
C  C257  1  0.57706000  0.90398000  0.18994000  1.0 0.5937835702
C  C258  1  0.18994000  0.32902000  0.57706000  1.0 0.5977456181
C  C259  1  0.90398000  0.57706000  0.32902000  1.0 0.5977456181
C  C260  1  0.32902000  0.18994000  0.90398000  1.0 0.5977456181
C  C261  1  0.32902000  0.57706000  0.18994000  1.0 0.5937835702
C  C262  1  0.90398000  0.18994000  0.57706000  1.0 0.5937835702
C  C263  1  0.18994000  0.90398000  0.32902000  1.0 0.5977456181
C  C264  1  0.57706000  0.32902000  0.90398000  1.0 0.5937835702
C  C265  1  0.90770000  0.25830000  0.57570000  1.0 0.1190131597
C  C266  1  0.25830000  0.90770000  0.25830000  1.0 0.1190131597
C  C267  1  0.57570000  0.25830000  0.90770000  1.0 0.1190131597
C  C268  1  0.25830000  0.57570000  0.25830000  1.0 0.1190131597
C  C269  1  0.57570000  0.90770000  0.25830000  1.0 0.1143035324
C  C270  1  0.25830000  0.25830000  0.90770000  1.0 0.1143035324
C  C271  1  0.90770000  0.57570000  0.25830000  1.0 0.1190131597
C  C272  1  0.25830000  0.25830000  0.57570000  1.0 0.1143035324
C  C273  1  0.25830000  0.57570000  0.90770000  1.0 0.1190131597
C  C274  1  0.90770000  0.25830000  0.25830000  1.0 0.1190131597
C  C275  1  0.25830000  0.90770000  0.57570000  1.0 0.1143035324
C  C276  1  0.57570000  0.25830000  0.25830000  1.0 0.1190131597
C  C277  1  0.34230000  0.99170000  0.99170000  1.0 0.1190131597
C  C278  1  0.99170000  0.34230000  0.67430000  1.0 0.1190131597
C  C279  1  0.67430000  0.99170000  0.99170000  1.0 0.1143035324
C  C280  1  0.99170000  0.67430000  0.34230000  1.0 0.1190131597
C  C281  1  0.67430000  0.34230000  0.99170000  1.0 0.1190131597
C  C282  1  0.99170000  0.99170000  0.67430000  1.0 0.1190131597
C  C283  1  0.34230000  0.67430000  0.99170000  1.0 0.1143035324
C  C284  1  0.99170000  0.99170000  0.34230000  1.0 0.1143035324
C  C285  1  0.99170000  0.67430000  0.99170000  1.0 0.1190131597
C  C286  1  0.34230000  0.99170000  0.67430000  1.0 0.1143035324
C  C287  1  0.99170000  0.34230000  0.99170000  1.0 0.1190131597
C  C288  1  0.67430000  0.99170000  0.34230000  1.0 0.1143035324
C  C289  1  0.91969000  0.29833000  0.55129000  1.0 -0.0510447566
C  C290  1  0.29833000  0.91969000  0.23069000  1.0 -0.0510447566
C  C291  1  0.55129000  0.23069000  0.91969000  1.0 -0.0510447566
C  C292  1  0.23069000  0.55129000  0.29833000  1.0 -0.0510447566
C  C293  1  0.55129000  0.91969000  0.29833000  1.0 -0.0510447566
C  C294  1  0.23069000  0.29833000  0.91969000  1.0 -0.0510447566
C  C295  1  0.91969000  0.55129000  0.23069000  1.0 -0.0510447566
C  C296  1  0.29833000  0.23069000  0.55129000  1.0 -0.0510447566
C  C297  1  0.29833000  0.55129000  0.91969000  1.0 -0.0510447566
C  C298  1  0.91969000  0.23069000  0.29833000  1.0 -0.0510447566
C  C299  1  0.23069000  0.91969000  0.55129000  1.0 -0.0510447566
C  C300  1  0.55129000  0.29833000  0.23069000  1.0 -0.0510447566
C  C301  1  0.33031000  0.95167000  0.01931000  1.0 -0.0510447566
C  C302  1  0.95167000  0.33031000  0.69871000  1.0 -0.0510447566
C  C303  1  0.69871000  0.01931000  0.95167000  1.0 -0.0510447566
C  C304  1  0.01931000  0.69871000  0.33031000  1.0 -0.0510447566
C  C305  1  0.69871000  0.33031000  0.01931000  1.0 -0.0510447566
C  C306  1  0.01931000  0.95167000  0.69871000  1.0 -0.0558710278
C  C307  1  0.33031000  0.69871000  0.95167000  1.0 -0.0510447566
C  C308  1  0.95167000  0.01931000  0.33031000  1.0 -0.0510447566
C  C309  1  0.95167000  0.69871000  0.01931000  1.0 -0.0510447566
C  C310  1  0.33031000  0.01931000  0.69871000  1.0 -0.0510447566
C  C311  1  0.01931000  0.33031000  0.95167000  1.0 -0.0510447566
C  C312  1  0.69871000  0.95167000  0.33031000  1.0 -0.0510447566
C  C313  1  0.33031000  0.95167000  0.69871000  1.0 -0.0510447566
C  C314  1  0.95167000  0.33031000  0.01931000  1.0 -0.0510447566
C  C315  1  0.69871000  0.01931000  0.33031000  1.0 -0.0510447566
C  C316  1  0.01931000  0.69871000  0.95167000  1.0 -0.0558710278
C  C317  1  0.69871000  0.33031000  0.95167000  1.0 -0.0510447566
C  C318  1  0.01931000  0.95167000  0.33031000  1.0 -0.0510447566
C  C319  1  0.33031000  0.69871000  0.01931000  1.0 -0.0510447566
C  C320  1  0.95167000  0.01931000  0.69871000  1.0 -0.0510447566
C  C321  1  0.95167000  0.69871000  0.33031000  1.0 -0.0510447566
C  C322  1  0.33031000  0.01931000  0.95167000  1.0 -0.0510447566
C  C323  1  0.01931000  0.33031000  0.69871000  1.0 -0.0510447566
C  C324  1  0.69871000  0.95167000  0.01931000  1.0 -0.0510447566
C  C325  1  0.91969000  0.29833000  0.23069000  1.0 -0.0510447566
C  C326  1  0.29833000  0.91969000  0.55129000  1.0 -0.0510447566
C  C327  1  0.55129000  0.23069000  0.29833000  1.0 -0.0510447566
C  C328  1  0.23069000  0.55129000  0.91969000  1.0 -0.0558710278
C  C329  1  0.55129000  0.91969000  0.23069000  1.0 -0.0510447566
C  C330  1  0.23069000  0.29833000  0.55129000  1.0 -0.0510447566
C  C331  1  0.91969000  0.55129000  0.29833000  1.0 -0.0510447566
C  C332  1  0.29833000  0.23069000  0.91969000  1.0 -0.0510447566
C  C333  1  0.29833000  0.55129000  0.23069000  1.0 -0.0510447566
C  C334  1  0.91969000  0.23069000  0.55129000  1.0 -0.0510447566
C  C335  1  0.23069000  0.91969000  0.29833000  1.0 -0.0510447566
C  C336  1  0.55129000  0.29833000  0.91969000  1.0 -0.0510447566
C  C337  1  0.94412000  0.31026000  0.50402000  1.0 0.0888495485
C  C338  1  0.31026000  0.94412000  0.24160000  1.0 0.0888495485
C  C339  1  0.50402000  0.24160000  0.94412000  1.0 0.0888495485
C  C340  1  0.24160000  0.50402000  0.31026000  1.0 0.0888495485
C  C341  1  0.50402000  0.94412000  0.31026000  1.0 0.0888495485
C  C342  1  0.24160000  0.31026000  0.94412000  1.0 0.0888495485
C  C343  1  0.94412000  0.50402000  0.24160000  1.0 0.0835043017
C  C344  1  0.31026000  0.24160000  0.50402000  1.0 0.0835043017
C  C345  1  0.31026000  0.50402000  0.94412000  1.0 0.0888495485
C  C346  1  0.94412000  0.24160000  0.31026000  1.0 0.0888495485
C  C347  1  0.24160000  0.94412000  0.50402000  1.0 0.0888495485
C  C348  1  0.50402000  0.31026000  0.24160000  1.0 0.0888495485
C  C349  1  0.30588000  0.93974000  0.00840000  1.0 0.0835043017
C  C350  1  0.93974000  0.30588000  0.74598000  1.0 0.0888495485
C  C351  1  0.74598000  0.00840000  0.93974000  1.0 0.0888495485
C  C352  1  0.00840000  0.74598000  0.30588000  1.0 0.0888495485
C  C353  1  0.74598000  0.30588000  0.00840000  1.0 0.0835043017
C  C354  1  0.00840000  0.93974000  0.74598000  1.0 0.0888495485
C  C355  1  0.30588000  0.74598000  0.93974000  1.0 0.0835043017
C  C356  1  0.93974000  0.00840000  0.30588000  1.0 0.0888495485
C  C357  1  0.93974000  0.74598000  0.00840000  1.0 0.0888495485
C  C358  1  0.30588000  0.00840000  0.74598000  1.0 0.0888495485
C  C359  1  0.00840000  0.30588000  0.93974000  1.0 0.0888495485
C  C360  1  0.74598000  0.93974000  0.30588000  1.0 0.0888495485
C  C361  1  0.30588000  0.93974000  0.74598000  1.0 0.0888495485
C  C362  1  0.93974000  0.30588000  0.00840000  1.0 0.0888495485
C  C363  1  0.74598000  0.00840000  0.30588000  1.0 0.0888495485
C  C364  1  0.00840000  0.74598000  0.93974000  1.0 0.0888495485
C  C365  1  0.74598000  0.30588000  0.93974000  1.0 0.0888495485
C  C366  1  0.00840000  0.93974000  0.30588000  1.0 0.0888495485
C  C367  1  0.30588000  0.74598000  0.00840000  1.0 0.0888495485
C  C368  1  0.93974000  0.00840000  0.74598000  1.0 0.0888495485
C  C369  1  0.93974000  0.74598000  0.30588000  1.0 0.0888495485
C  C370  1  0.30588000  0.00840000  0.93974000  1.0 0.0888495485
C  C371  1  0.00840000  0.30588000  0.74598000  1.0 0.0888495485
C  C372  1  0.74598000  0.93974000  0.00840000  1.0 0.0888495485
C  C373  1  0.94412000  0.31026000  0.24160000  1.0 0.0888495485
C  C374  1  0.31026000  0.94412000  0.50402000  1.0 0.0888495485
C  C375  1  0.50402000  0.24160000  0.31026000  1.0 0.0888495485
C  C376  1  0.24160000  0.50402000  0.94412000  1.0 0.0888495485
C  C377  1  0.50402000  0.94412000  0.24160000  1.0 0.0888495485
C  C378  1  0.24160000  0.31026000  0.50402000  1.0 0.0888495485
C  C379  1  0.94412000  0.50402000  0.31026000  1.0 0.0888495485
C  C380  1  0.31026000  0.24160000  0.94412000  1.0 0.0888495485
C  C381  1  0.31026000  0.50402000  0.24160000  1.0 0.0888495485
C  C382  1  0.94412000  0.24160000  0.50402000  1.0 0.0888495485
C  C383  1  0.24160000  0.94412000  0.31026000  1.0 0.0888495485
C  C384  1  0.50402000  0.31026000  0.94412000  1.0 0.0888495485
C  C385  1  0.95670000  0.28100000  0.48130000  1.0 -0.0973212068
C  C386  1  0.28100000  0.95670000  0.28100000  1.0 -0.0973212068
C  C387  1  0.48130000  0.28100000  0.95670000  1.0 -0.0973212068
C  C388  1  0.28100000  0.48130000  0.28100000  1.0 -0.0973212068
C  C389  1  0.48130000  0.95670000  0.28100000  1.0 -0.0973212068
C  C390  1  0.28100000  0.28100000  0.95670000  1.0 -0.0973212068
C  C391  1  0.95670000  0.48130000  0.28100000  1.0 -0.091996186
C  C392  1  0.28100000  0.28100000  0.48130000  1.0 -0.0973212068
C  C393  1  0.28100000  0.48130000  0.95670000  1.0 -0.0973212068
C  C394  1  0.95670000  0.28100000  0.28100000  1.0 -0.0973212068
C  C395  1  0.28100000  0.95670000  0.48130000  1.0 -0.0973212068
C  C396  1  0.48130000  0.28100000  0.28100000  1.0 -0.0973212068
C  C397  1  0.29330000  0.96900000  0.96900000  1.0 -0.0973212068
C  C398  1  0.96900000  0.29330000  0.76870000  1.0 -0.0973212068
C  C399  1  0.76870000  0.96900000  0.96900000  1.0 -0.0973212068
C  C400  1  0.96900000  0.76870000  0.29330000  1.0 -0.0973212068
C  C401  1  0.76870000  0.29330000  0.96900000  1.0 -0.0973212068
C  C402  1  0.96900000  0.96900000  0.76870000  1.0 -0.0973212068
C  C403  1  0.29330000  0.76870000  0.96900000  1.0 -0.0973212068
C  C404  1  0.96900000  0.96900000  0.29330000  1.0 -0.0973212068
C  C405  1  0.96900000  0.76870000  0.96900000  1.0 -0.0973212068
C  C406  1  0.29330000  0.96900000  0.76870000  1.0 -0.0973212068
C  C407  1  0.96900000  0.29330000  0.96900000  1.0 -0.0973212068
C  C408  1  0.76870000  0.96900000  0.29330000  1.0 -0.0973212068
C  C409  1  0.98338000  0.29290000  0.43082000  1.0 0.6586398601
C  C410  1  0.29290000  0.98338000  0.29290000  1.0 0.6547026385
C  C411  1  0.43082000  0.29290000  0.98338000  1.0 0.6586398601
C  C412  1  0.29290000  0.43082000  0.29290000  1.0 0.6547026385
C  C413  1  0.43082000  0.98338000  0.29290000  1.0 0.6586398601
C  C414  1  0.29290000  0.29290000  0.98338000  1.0 0.6586398601
C  C415  1  0.98338000  0.43082000  0.29290000  1.0 0.6586398601
C  C416  1  0.29290000  0.29290000  0.43082000  1.0 0.6586398601
C  C417  1  0.29290000  0.43082000  0.98338000  1.0 0.6586398601
C  C418  1  0.98338000  0.29290000  0.29290000  1.0 0.6547026385
C  C419  1  0.29290000  0.98338000  0.43082000  1.0 0.6586398601
C  C420  1  0.43082000  0.29290000  0.29290000  1.0 0.6547026385
C  C421  1  0.26662000  0.95710000  0.95710000  1.0 0.6586398601
C  C422  1  0.95710000  0.26662000  0.81918000  1.0 0.6586398601
C  C423  1  0.81918000  0.95710000  0.95710000  1.0 0.6586398601
C  C424  1  0.95710000  0.81918000  0.26662000  1.0 0.6586398601
C  C425  1  0.81918000  0.26662000  0.95710000  1.0 0.6586398601
C  C426  1  0.95710000  0.95710000  0.81918000  1.0 0.6586398601
C  C427  1  0.26662000  0.81918000  0.95710000  1.0 0.6586398601
C  C428  1  0.95710000  0.95710000  0.26662000  1.0 0.6547026385
C  C429  1  0.95710000  0.81918000  0.95710000  1.0 0.6586398601
C  C430  1  0.26662000  0.95710000  0.81918000  1.0 0.6586398601
C  C431  1  0.95710000  0.26662000  0.95710000  1.0 0.6586398601
C  C432  1  0.81918000  0.95710000  0.26662000  1.0 0.6586398601
C  C433  1  0.11471000  0.25299000  0.25299000  1.0 0.6586398601
C  C434  1  0.25299000  0.11471000  0.37931000  1.0 0.6586398601
C  C435  1  0.25299000  0.37931000  0.11471000  1.0 0.6586398601
C  C436  1  0.37931000  0.25299000  0.25299000  1.0 0.6586398601
C  C437  1  0.25299000  0.11471000  0.25299000  1.0 0.6586398601
C  C438  1  0.37931000  0.25299000  0.11471000  1.0 0.6586398601
C  C439  1  0.11471000  0.25299000  0.37931000  1.0 0.6586398601
C  C440  1  0.25299000  0.37931000  0.25299000  1.0 0.6586398601
C  C441  1  0.25299000  0.25299000  0.11471000  1.0 0.6586398601
C  C442  1  0.11471000  0.37931000  0.25299000  1.0 0.6586398601
C  C443  1  0.37931000  0.11471000  0.25299000  1.0 0.6586398601
C  C444  1  0.25299000  0.25299000  0.37931000  1.0 0.6586398601
C  C445  1  0.13529000  0.99701000  0.87069000  1.0 0.6586398601
C  C446  1  0.99701000  0.13529000  0.99701000  1.0 0.6586398601
C  C447  1  0.99701000  0.87069000  0.99701000  1.0 0.6586398601
C  C448  1  0.87069000  0.99701000  0.13529000  1.0 0.6586398601
C  C449  1  0.99701000  0.13529000  0.87069000  1.0 0.6586398601
C  C450  1  0.87069000  0.99701000  0.99701000  1.0 0.6586398601
C  C451  1  0.13529000  0.99701000  0.99701000  1.0 0.6586398601
C  C452  1  0.99701000  0.87069000  0.13529000  1.0 0.6586398601
C  C453  1  0.99701000  0.99701000  0.87069000  1.0 0.6586398601
C  C454  1  0.13529000  0.87069000  0.99701000  1.0 0.6586398601
C  C455  1  0.87069000  0.13529000  0.99701000  1.0 0.6586398601
C  C456  1  0.99701000  0.99701000  0.13529000  1.0 0.6586398601
C  C457  1  0.15918000  0.22810000  0.22810000  1.0 -0.091996186
C  C458  1  0.22810000  0.15918000  0.38462000  1.0 -0.091996186
C  C459  1  0.22810000  0.38462000  0.15918000  1.0 -0.091996186
C  C460  1  0.38462000  0.22810000  0.22810000  1.0 -0.091996186
C  C461  1  0.22810000  0.15918000  0.22810000  1.0 -0.091996186
C  C462  1  0.38462000  0.22810000  0.15918000  1.0 -0.091996186
C  C463  1  0.15918000  0.22810000  0.38462000  1.0 -0.091996186
C  C464  1  0.22810000  0.38462000  0.22810000  1.0 -0.091996186
C  C465  1  0.22810000  0.22810000  0.15918000  1.0 -0.091996186
C  C466  1  0.15918000  0.38462000  0.22810000  1.0 -0.091996186
C  C467  1  0.38462000  0.15918000  0.22810000  1.0 -0.091996186
C  C468  1  0.22810000  0.22810000  0.38462000  1.0 -0.091996186
C  C469  1  0.09082000  0.02190000  0.86538000  1.0 -0.091996186
C  C470  1  0.02190000  0.09082000  0.02190000  1.0 -0.091996186
C  C471  1  0.02190000  0.86538000  0.02190000  1.0 -0.091996186
C  C472  1  0.86538000  0.02190000  0.09082000  1.0 -0.091996186
C  C473  1  0.02190000  0.09082000  0.86538000  1.0 -0.091996186
C  C474  1  0.86538000  0.02190000  0.02190000  1.0 -0.091996186
C  C475  1  0.09082000  0.02190000  0.02190000  1.0 -0.091996186
C  C476  1  0.02190000  0.86538000  0.09082000  1.0 -0.091996186
C  C477  1  0.02190000  0.02190000  0.86538000  1.0 -0.091996186
C  C478  1  0.09082000  0.86538000  0.02190000  1.0 -0.091996186
C  C479  1  0.86538000  0.09082000  0.02190000  1.0 -0.091996186
C  C480  1  0.02190000  0.02190000  0.09082000  1.0 -0.091996186
C  C481  1  0.18285000  0.18285000  0.24871000  1.0 0.0483094648
C  C482  1  0.18285000  0.18285000  0.38559000  1.0 0.0483094648
C  C483  1  0.24871000  0.38559000  0.18285000  1.0 0.0483094648
C  C484  1  0.38559000  0.24871000  0.18285000  1.0 0.0483094648
C  C485  1  0.24871000  0.18285000  0.18285000  1.0 0.0483094648
C  C486  1  0.38559000  0.18285000  0.18285000  1.0 0.0483094648
C  C487  1  0.18285000  0.24871000  0.38559000  1.0 0.0483094648
C  C488  1  0.18285000  0.38559000  0.24871000  1.0 0.0483094648
C  C489  1  0.18285000  0.24871000  0.18285000  1.0 0.0483094648
C  C490  1  0.18285000  0.38559000  0.18285000  1.0 0.0483094648
C  C491  1  0.38559000  0.18285000  0.24871000  1.0 0.0483094648
C  C492  1  0.24871000  0.18285000  0.38559000  1.0 0.0483094648
C  C493  1  0.06715000  0.06715000  0.86441000  1.0 0.0483094648
C  C494  1  0.06715000  0.06715000  0.00129000  1.0 0.0483094648
C  C495  1  0.00129000  0.86441000  0.06715000  1.0 0.0483094648
C  C496  1  0.86441000  0.00129000  0.06715000  1.0 0.0483094648
C  C497  1  0.00129000  0.06715000  0.86441000  1.0 0.0483094648
C  C498  1  0.86441000  0.06715000  0.00129000  1.0 0.0483094648
C  C499  1  0.06715000  0.00129000  0.06715000  1.0 0.0483094648
C  C500  1  0.06715000  0.86441000  0.06715000  1.0 0.0483094648
C  C501  1  0.06715000  0.00129000  0.86441000  1.0 0.0483094648
C  C502  1  0.06715000  0.86441000  0.00129000  1.0 0.0483094648
C  C503  1  0.86441000  0.06715000  0.06715000  1.0 0.0483094648
C  C504  1  0.00129000  0.06715000  0.06715000  1.0 0.0483094648
O  O1  1  0.86807000  0.44955000  0.58063000  1.0 -0.50970217
O  O2  1  0.44955000  0.86807000  0.10175000  1.0 -0.50970217
O  O3  1  0.58063000  0.10175000  0.86807000  1.0 -0.5032707149
O  O4  1  0.10175000  0.58063000  0.44955000  1.0 -0.5032707149
O  O5  1  0.58063000  0.86807000  0.44955000  1.0 -0.50970217
O  O6  1  0.10175000  0.44955000  0.86807000  1.0 -0.5032707149
O  O7  1  0.86807000  0.58063000  0.10175000  1.0 -0.50970217
O  O8  1  0.44955000  0.10175000  0.58063000  1.0 -0.50970217
O  O9  1  0.44955000  0.58063000  0.86807000  1.0 -0.5032707149
O  O10  1  0.86807000  0.10175000  0.44955000  1.0 -0.50970217
O  O11  1  0.10175000  0.86807000  0.58063000  1.0 -0.50970217
O  O12  1  0.58063000  0.44955000  0.10175000  1.0 -0.5032707149
O  O13  1  0.38193000  0.80045000  0.14825000  1.0 -0.5032707149
O  O14  1  0.80045000  0.38193000  0.66937000  1.0 -0.50970217
O  O15  1  0.66937000  0.14825000  0.80045000  1.0 -0.5032707149
O  O16  1  0.14825000  0.66937000  0.38193000  1.0 -0.5032707149
O  O17  1  0.66937000  0.38193000  0.14825000  1.0 -0.5032707149
O  O18  1  0.14825000  0.80045000  0.66937000  1.0 -0.5032707149
O  O19  1  0.38193000  0.66937000  0.80045000  1.0 -0.50970217
O  O20  1  0.80045000  0.14825000  0.38193000  1.0 -0.50970217
O  O21  1  0.80045000  0.66937000  0.14825000  1.0 -0.5032707149
O  O22  1  0.38193000  0.14825000  0.66937000  1.0 -0.50970217
O  O23  1  0.14825000  0.38193000  0.80045000  1.0 -0.50970217
O  O24  1  0.66937000  0.80045000  0.38193000  1.0 -0.50970217
O  O25  1  0.38193000  0.80045000  0.66937000  1.0 -0.5032707149
O  O26  1  0.80045000  0.38193000  0.14825000  1.0 -0.5032707149
O  O27  1  0.66937000  0.14825000  0.38193000  1.0 -0.50970217
O  O28  1  0.14825000  0.66937000  0.80045000  1.0 -0.5032707149
O  O29  1  0.66937000  0.38193000  0.80045000  1.0 -0.50970217
O  O30  1  0.14825000  0.80045000  0.38193000  1.0 -0.5032707149
O  O31  1  0.38193000  0.66937000  0.14825000  1.0 -0.50970217
O  O32  1  0.80045000  0.14825000  0.66937000  1.0 -0.50970217
O  O33  1  0.80045000  0.66937000  0.38193000  1.0 -0.5032707149
O  O34  1  0.38193000  0.14825000  0.80045000  1.0 -0.5032707149
O  O35  1  0.14825000  0.38193000  0.66937000  1.0 -0.50970217
O  O36  1  0.66937000  0.80045000  0.14825000  1.0 -0.50970217
O  O37  1  0.86807000  0.44955000  0.10175000  1.0 -0.5032707149
O  O38  1  0.44955000  0.86807000  0.58063000  1.0 -0.5032707149
O  O39  1  0.58063000  0.10175000  0.44955000  1.0 -0.50970217
O  O40  1  0.10175000  0.58063000  0.86807000  1.0 -0.5032707149
O  O41  1  0.58063000  0.86807000  0.10175000  1.0 -0.5032707149
O  O42  1  0.10175000  0.44955000  0.58063000  1.0 -0.50970217
O  O43  1  0.86807000  0.58063000  0.44955000  1.0 -0.50970217
O  O44  1  0.44955000  0.10175000  0.86807000  1.0 -0.50970217
O  O45  1  0.44955000  0.58063000  0.10175000  1.0 -0.5032707149
O  O46  1  0.86807000  0.10175000  0.58063000  1.0 -0.50970217
O  O47  1  0.10175000  0.86807000  0.44955000  1.0 -0.50970217
O  O48  1  0.58063000  0.44955000  0.86807000  1.0 -0.50970217
O  O49  1  0.84325000  0.44981000  0.64905000  1.0 -0.481173292
O  O50  1  0.44981000  0.84325000  0.05789000  1.0 -0.481173292
O  O51  1  0.64905000  0.05789000  0.84325000  1.0 -0.481173292
O  O52  1  0.05789000  0.64905000  0.44981000  1.0 -0.481173292
O  O53  1  0.64905000  0.84325000  0.44981000  1.0 -0.481173292
O  O54  1  0.05789000  0.44981000  0.84325000  1.0 -0.481173292
O  O55  1  0.84325000  0.64905000  0.05789000  1.0 -0.481173292
O  O56  1  0.44981000  0.05789000  0.64905000  1.0 -0.481173292
O  O57  1  0.44981000  0.64905000  0.84325000  1.0 -0.481173292
O  O58  1  0.84325000  0.05789000  0.44981000  1.0 -0.481173292
O  O59  1  0.05789000  0.84325000  0.64905000  1.0 -0.481173292
O  O60  1  0.64905000  0.44981000  0.05789000  1.0 -0.487824453
O  O61  1  0.40675000  0.80019000  0.19211000  1.0 -0.481173292
O  O62  1  0.80019000  0.40675000  0.60095000  1.0 -0.481173292
O  O63  1  0.60095000  0.19211000  0.80019000  1.0 -0.481173292
O  O64  1  0.19211000  0.60095000  0.40675000  1.0 -0.481173292
O  O65  1  0.60095000  0.40675000  0.19211000  1.0 -0.487824453
O  O66  1  0.19211000  0.80019000  0.60095000  1.0 -0.481173292
O  O67  1  0.40675000  0.60095000  0.80019000  1.0 -0.481173292
O  O68  1  0.80019000  0.19211000  0.40675000  1.0 -0.481173292
O  O69  1  0.80019000  0.60095000  0.19211000  1.0 -0.481173292
O  O70  1  0.40675000  0.19211000  0.60095000  1.0 -0.481173292
O  O71  1  0.19211000  0.40675000  0.80019000  1.0 -0.481173292
O  O72  1  0.60095000  0.80019000  0.40675000  1.0 -0.481173292
O  O73  1  0.40675000  0.80019000  0.60095000  1.0 -0.481173292
O  O74  1  0.80019000  0.40675000  0.19211000  1.0 -0.487824453
O  O75  1  0.60095000  0.19211000  0.40675000  1.0 -0.481173292
O  O76  1  0.19211000  0.60095000  0.80019000  1.0 -0.481173292
O  O77  1  0.60095000  0.40675000  0.80019000  1.0 -0.481173292
O  O78  1  0.19211000  0.80019000  0.40675000  1.0 -0.481173292
O  O79  1  0.40675000  0.60095000  0.19211000  1.0 -0.481173292
O  O80  1  0.80019000  0.19211000  0.60095000  1.0 -0.481173292
O  O81  1  0.80019000  0.60095000  0.40675000  1.0 -0.481173292
O  O82  1  0.40675000  0.19211000  0.80019000  1.0 -0.481173292
O  O83  1  0.19211000  0.40675000  0.60095000  1.0 -0.481173292
O  O84  1  0.60095000  0.80019000  0.19211000  1.0 -0.481173292
O  O85  1  0.84325000  0.44981000  0.05789000  1.0 -0.481173292
O  O86  1  0.44981000  0.84325000  0.64905000  1.0 -0.481173292
O  O87  1  0.64905000  0.05789000  0.44981000  1.0 -0.487824453
O  O88  1  0.05789000  0.64905000  0.84325000  1.0 -0.481173292
O  O89  1  0.64905000  0.84325000  0.05789000  1.0 -0.487824453
O  O90  1  0.05789000  0.44981000  0.64905000  1.0 -0.481173292
O  O91  1  0.84325000  0.64905000  0.44981000  1.0 -0.481173292
O  O92  1  0.44981000  0.05789000  0.84325000  1.0 -0.481173292
O  O93  1  0.44981000  0.64905000  0.05789000  1.0 -0.481173292
O  O94  1  0.84325000  0.05789000  0.64905000  1.0 -0.481173292
O  O95  1  0.05789000  0.84325000  0.44981000  1.0 -0.481173292
O  O96  1  0.64905000  0.44981000  0.84325000  1.0 -0.481173292
O  O97  1  0.76926000  0.66714000  0.60514000  1.0 -0.3427768815
O  O98  1  0.66714000  0.76926000  0.95846000  1.0 -0.3476244066
O  O99  1  0.60514000  0.95846000  0.76926000  1.0 -0.3476244066
O  O100  1  0.95846000  0.60514000  0.66714000  1.0 -0.3476244066
O  O101  1  0.60514000  0.76926000  0.66714000  1.0 -0.3427768815
O  O102  1  0.95846000  0.66714000  0.76926000  1.0 -0.3476244066
O  O103  1  0.76926000  0.60514000  0.95846000  1.0 -0.3427768815
O  O104  1  0.66714000  0.95846000  0.60514000  1.0 -0.3476244066
O  O105  1  0.66714000  0.60514000  0.76926000  1.0 -0.3427768815
O  O106  1  0.76926000  0.95846000  0.66714000  1.0 -0.3476244066
O  O107  1  0.95846000  0.76926000  0.60514000  1.0 -0.3476244066
O  O108  1  0.60514000  0.66714000  0.95846000  1.0 -0.3427768815
O  O109  1  0.48074000  0.58286000  0.29154000  1.0 -0.3476244066
O  O110  1  0.58286000  0.48074000  0.64486000  1.0 -0.3427768815
O  O111  1  0.64486000  0.29154000  0.58286000  1.0 -0.3476244066
O  O112  1  0.29154000  0.64486000  0.48074000  1.0 -0.3476244066
O  O113  1  0.64486000  0.48074000  0.29154000  1.0 -0.3476244066
O  O114  1  0.29154000  0.58286000  0.64486000  1.0 -0.3476244066
O  O115  1  0.48074000  0.64486000  0.58286000  1.0 -0.3476244066
O  O116  1  0.58286000  0.29154000  0.48074000  1.0 -0.3476244066
O  O117  1  0.58286000  0.64486000  0.29154000  1.0 -0.3476244066
O  O118  1  0.48074000  0.29154000  0.64486000  1.0 -0.3476244066
O  O119  1  0.29154000  0.48074000  0.58286000  1.0 -0.3476244066
O  O120  1  0.64486000  0.58286000  0.48074000  1.0 -0.3476244066
O  O121  1  0.48074000  0.58286000  0.64486000  1.0 -0.3476244066
O  O122  1  0.58286000  0.48074000  0.29154000  1.0 -0.3476244066
O  O123  1  0.64486000  0.29154000  0.48074000  1.0 -0.3476244066
O  O124  1  0.29154000  0.64486000  0.58286000  1.0 -0.3476244066
O  O125  1  0.64486000  0.48074000  0.58286000  1.0 -0.3476244066
O  O126  1  0.29154000  0.58286000  0.48074000  1.0 -0.3476244066
O  O127  1  0.48074000  0.64486000  0.29154000  1.0 -0.3476244066
O  O128  1  0.58286000  0.29154000  0.64486000  1.0 -0.3476244066
O  O129  1  0.58286000  0.64486000  0.48074000  1.0 -0.3476244066
O  O130  1  0.48074000  0.29154000  0.58286000  1.0 -0.3476244066
O  O131  1  0.29154000  0.48074000  0.64486000  1.0 -0.3476244066
O  O132  1  0.64486000  0.58286000  0.29154000  1.0 -0.3476244066
O  O133  1  0.76926000  0.66714000  0.95846000  1.0 -0.3476244066
O  O134  1  0.66714000  0.76926000  0.60514000  1.0 -0.3476244066
O  O135  1  0.60514000  0.95846000  0.66714000  1.0 -0.3476244066
O  O136  1  0.95846000  0.60514000  0.76926000  1.0 -0.3476244066
O  O137  1  0.60514000  0.76926000  0.95846000  1.0 -0.3427768815
O  O138  1  0.95846000  0.66714000  0.60514000  1.0 -0.3476244066
O  O139  1  0.76926000  0.60514000  0.66714000  1.0 -0.3427768815
O  O140  1  0.66714000  0.95846000  0.76926000  1.0 -0.3476244066
O  O141  1  0.66714000  0.60514000  0.95846000  1.0 -0.3476244066
O  O142  1  0.76926000  0.95846000  0.60514000  1.0 -0.3476244066
O  O143  1  0.95846000  0.76926000  0.66714000  1.0 -0.3476244066
O  O144  1  0.60514000  0.66714000  0.76926000  1.0 -0.3476244066
O  O145  1  0.90806000  0.36754000  0.55698000  1.0 -0.5170062911
O  O146  1  0.36754000  0.90806000  0.16742000  1.0 -0.5170062911
O  O147  1  0.55698000  0.16742000  0.90806000  1.0 -0.5170062911
O  O148  1  0.16742000  0.55698000  0.36754000  1.0 -0.5170062911
O  O149  1  0.55698000  0.90806000  0.36754000  1.0 -0.5170062911
O  O150  1  0.16742000  0.36754000  0.90806000  1.0 -0.5170062911
O  O151  1  0.90806000  0.55698000  0.16742000  1.0 -0.5170062911
O  O152  1  0.36754000  0.16742000  0.55698000  1.0 -0.5170062911
O  O153  1  0.36754000  0.55698000  0.90806000  1.0 -0.50970217
O  O154  1  0.90806000  0.16742000  0.36754000  1.0 -0.50970217
O  O155  1  0.16742000  0.90806000  0.55698000  1.0 -0.5170062911
O  O156  1  0.55698000  0.36754000  0.16742000  1.0 -0.5170062911
O  O157  1  0.34194000  0.88246000  0.08258000  1.0 -0.50970217
O  O158  1  0.88246000  0.34194000  0.69302000  1.0 -0.5170062911
O  O159  1  0.69302000  0.08258000  0.88246000  1.0 -0.50970217
O  O160  1  0.08258000  0.69302000  0.34194000  1.0 -0.50970217
O  O161  1  0.69302000  0.34194000  0.08258000  1.0 -0.5170062911
O  O162  1  0.08258000  0.88246000  0.69302000  1.0 -0.5170062911
O  O163  1  0.34194000  0.69302000  0.88246000  1.0 -0.50970217
O  O164  1  0.88246000  0.08258000  0.34194000  1.0 -0.50970217
O  O165  1  0.88246000  0.69302000  0.08258000  1.0 -0.5170062911
O  O166  1  0.34194000  0.08258000  0.69302000  1.0 -0.5170062911
O  O167  1  0.08258000  0.34194000  0.88246000  1.0 -0.5170062911
O  O168  1  0.69302000  0.88246000  0.34194000  1.0 -0.5170062911
O  O169  1  0.34194000  0.88246000  0.69302000  1.0 -0.5170062911
O  O170  1  0.88246000  0.34194000  0.08258000  1.0 -0.5170062911
O  O171  1  0.69302000  0.08258000  0.34194000  1.0 -0.50970217
O  O172  1  0.08258000  0.69302000  0.88246000  1.0 -0.50970217
O  O173  1  0.69302000  0.34194000  0.88246000  1.0 -0.5170062911
O  O174  1  0.08258000  0.88246000  0.34194000  1.0 -0.5170062911
O  O175  1  0.34194000  0.69302000  0.08258000  1.0 -0.5170062911
O  O176  1  0.88246000  0.08258000  0.69302000  1.0 -0.5170062911
O  O177  1  0.88246000  0.69302000  0.34194000  1.0 -0.50970217
O  O178  1  0.34194000  0.08258000  0.88246000  1.0 -0.5170062911
O  O179  1  0.08258000  0.34194000  0.69302000  1.0 -0.5170062911
O  O180  1  0.69302000  0.88246000  0.08258000  1.0 -0.5170062911
O  O181  1  0.90806000  0.36754000  0.16742000  1.0 -0.5170062911
O  O182  1  0.36754000  0.90806000  0.55698000  1.0 -0.5170062911
O  O183  1  0.55698000  0.16742000  0.36754000  1.0 -0.5170062911
O  O184  1  0.16742000  0.55698000  0.90806000  1.0 -0.5170062911
O  O185  1  0.55698000  0.90806000  0.16742000  1.0 -0.5170062911
O  O186  1  0.16742000  0.36754000  0.55698000  1.0 -0.5170062911
O  O187  1  0.90806000  0.55698000  0.36754000  1.0 -0.5170062911
O  O188  1  0.36754000  0.16742000  0.90806000  1.0 -0.5170062911
O  O189  1  0.36754000  0.55698000  0.16742000  1.0 -0.5170062911
O  O190  1  0.90806000  0.16742000  0.55698000  1.0 -0.50970217
O  O191  1  0.16742000  0.90806000  0.36754000  1.0 -0.5170062911
O  O192  1  0.55698000  0.36754000  0.90806000  1.0 -0.50970217
O  O193  1  0.88603000  0.31527000  0.61971000  1.0 -0.5357612204
O  O194  1  0.31527000  0.88603000  0.17899000  1.0 -0.529071581
O  O195  1  0.61971000  0.17899000  0.88603000  1.0 -0.529071581
O  O196  1  0.17899000  0.61971000  0.31527000  1.0 -0.529071581
O  O197  1  0.61971000  0.88603000  0.31527000  1.0 -0.529071581
O  O198  1  0.17899000  0.31527000  0.88603000  1.0 -0.529071581
O  O199  1  0.88603000  0.61971000  0.17899000  1.0 -0.5357612204
O  O200  1  0.31527000  0.17899000  0.61971000  1.0 -0.529071581
O  O201  1  0.31527000  0.61971000  0.88603000  1.0 -0.529071581
O  O202  1  0.88603000  0.17899000  0.31527000  1.0 -0.529071581
O  O203  1  0.17899000  0.88603000  0.61971000  1.0 -0.529071581
O  O204  1  0.61971000  0.31527000  0.17899000  1.0 -0.5357612204
O  O205  1  0.36397000  0.93473000  0.07101000  1.0 -0.529071581
O  O206  1  0.93473000  0.36397000  0.63029000  1.0 -0.529071581
O  O207  1  0.63029000  0.07101000  0.93473000  1.0 -0.529071581
O  O208  1  0.07101000  0.63029000  0.36397000  1.0 -0.529071581
O  O209  1  0.63029000  0.36397000  0.07101000  1.0 -0.5357612204
O  O210  1  0.07101000  0.93473000  0.63029000  1.0 -0.529071581
O  O211  1  0.36397000  0.63029000  0.93473000  1.0 -0.529071581
O  O212  1  0.93473000  0.07101000  0.36397000  1.0 -0.529071581
O  O213  1  0.93473000  0.63029000  0.07101000  1.0 -0.5357612204
O  O214  1  0.36397000  0.07101000  0.63029000  1.0 -0.529071581
O  O215  1  0.07101000  0.36397000  0.93473000  1.0 -0.529071581
O  O216  1  0.63029000  0.93473000  0.36397000  1.0 -0.5357612204
O  O217  1  0.36397000  0.93473000  0.63029000  1.0 -0.529071581
O  O218  1  0.93473000  0.36397000  0.07101000  1.0 -0.529071581
O  O219  1  0.63029000  0.07101000  0.36397000  1.0 -0.5357612204
O  O220  1  0.07101000  0.63029000  0.93473000  1.0 -0.529071581
O  O221  1  0.63029000  0.36397000  0.93473000  1.0 -0.5357612204
O  O222  1  0.07101000  0.93473000  0.36397000  1.0 -0.529071581
O  O223  1  0.36397000  0.63029000  0.07101000  1.0 -0.5357612204
O  O224  1  0.93473000  0.07101000  0.63029000  1.0 -0.529071581
O  O225  1  0.93473000  0.63029000  0.36397000  1.0 -0.529071581
O  O226  1  0.36397000  0.07101000  0.93473000  1.0 -0.529071581
O  O227  1  0.07101000  0.36397000  0.63029000  1.0 -0.529071581
O  O228  1  0.63029000  0.93473000  0.07101000  1.0 -0.5357612204
O  O229  1  0.88603000  0.31527000  0.17899000  1.0 -0.529071581
O  O230  1  0.31527000  0.88603000  0.61971000  1.0 -0.529071581
O  O231  1  0.61971000  0.17899000  0.31527000  1.0 -0.529071581
O  O232  1  0.17899000  0.61971000  0.88603000  1.0 -0.529071581
O  O233  1  0.61971000  0.88603000  0.17899000  1.0 -0.529071581
O  O234  1  0.17899000  0.31527000  0.61971000  1.0 -0.529071581
O  O235  1  0.88603000  0.61971000  0.31527000  1.0 -0.5357612204
O  O236  1  0.31527000  0.17899000  0.88603000  1.0 -0.529071581
O  O237  1  0.31527000  0.61971000  0.17899000  1.0 -0.529071581
O  O238  1  0.88603000  0.17899000  0.61971000  1.0 -0.529071581
O  O239  1  0.17899000  0.88603000  0.31527000  1.0 -0.5357612204
O  O240  1  0.61971000  0.31527000  0.88603000  1.0 -0.529071581
O  O241  1  0.99434000  0.26520000  0.41310000  1.0 -0.529071581
O  O242  1  0.26520000  0.99434000  0.32736000  1.0 -0.529071581
O  O243  1  0.41310000  0.32736000  0.99434000  1.0 -0.529071581
O  O244  1  0.32736000  0.41310000  0.26520000  1.0 -0.529071581
O  O245  1  0.41310000  0.99434000  0.26520000  1.0 -0.529071581
O  O246  1  0.32736000  0.26520000  0.99434000  1.0 -0.529071581
O  O247  1  0.99434000  0.41310000  0.32736000  1.0 -0.5170062911
O  O248  1  0.26520000  0.32736000  0.41310000  1.0 -0.529071581
O  O249  1  0.26520000  0.41310000  0.99434000  1.0 -0.529071581
O  O250  1  0.99434000  0.32736000  0.26520000  1.0 -0.529071581
O  O251  1  0.32736000  0.99434000  0.41310000  1.0 -0.529071581
O  O252  1  0.41310000  0.26520000  0.32736000  1.0 -0.529071581
O  O253  1  0.25566000  0.98480000  0.92264000  1.0 -0.529071581
O  O254  1  0.98480000  0.25566000  0.83690000  1.0 -0.529071581
O  O255  1  0.83690000  0.92264000  0.98480000  1.0 -0.529071581
O  O256  1  0.92264000  0.83690000  0.25566000  1.0 -0.529071581
O  O257  1  0.83690000  0.25566000  0.92264000  1.0 -0.529071581
O  O258  1  0.92264000  0.98480000  0.83690000  1.0 -0.529071581
O  O259  1  0.25566000  0.83690000  0.98480000  1.0 -0.529071581
O  O260  1  0.98480000  0.92264000  0.25566000  1.0 -0.529071581
O  O261  1  0.98480000  0.83690000  0.92264000  1.0 -0.529071581
O  O262  1  0.25566000  0.92264000  0.83690000  1.0 -0.529071581
O  O263  1  0.92264000  0.25566000  0.98480000  1.0 -0.529071581
O  O264  1  0.83690000  0.98480000  0.25566000  1.0 -0.529071581
O  O265  1  0.25566000  0.98480000  0.83690000  1.0 -0.529071581
O  O266  1  0.98480000  0.25566000  0.92264000  1.0 -0.529071581
O  O267  1  0.83690000  0.92264000  0.25566000  1.0 -0.529071581
O  O268  1  0.92264000  0.83690000  0.98480000  1.0 -0.529071581
O  O269  1  0.83690000  0.25566000  0.98480000  1.0 -0.529071581
O  O270  1  0.92264000  0.98480000  0.25566000  1.0 -0.529071581
O  O271  1  0.25566000  0.83690000  0.92264000  1.0 -0.529071581
O  O272  1  0.98480000  0.92264000  0.83690000  1.0 -0.529071581
O  O273  1  0.98480000  0.83690000  0.25566000  1.0 -0.529071581
O  O274  1  0.25566000  0.92264000  0.98480000  1.0 -0.529071581
O  O275  1  0.92264000  0.25566000  0.83690000  1.0 -0.529071581
O  O276  1  0.83690000  0.98480000  0.92264000  1.0 -0.529071581
O  O277  1  0.99434000  0.26520000  0.32736000  1.0 -0.529071581
O  O278  1  0.26520000  0.99434000  0.41310000  1.0 -0.529071581
O  O279  1  0.41310000  0.32736000  0.26520000  1.0 -0.529071581
O  O280  1  0.32736000  0.41310000  0.99434000  1.0 -0.529071581
O  O281  1  0.41310000  0.99434000  0.32736000  1.0 -0.529071581
O  O282  1  0.32736000  0.26520000  0.41310000  1.0 -0.529071581
O  O283  1  0.99434000  0.41310000  0.26520000  1.0 -0.529071581
O  O284  1  0.26520000  0.32736000  0.99434000  1.0 -0.529071581
O  O285  1  0.26520000  0.41310000  0.32736000  1.0 -0.529071581
O  O286  1  0.99434000  0.32736000  0.41310000  1.0 -0.529071581
O  O287  1  0.32736000  0.99434000  0.26520000  1.0 -0.529071581
O  O288  1  0.41310000  0.26520000  0.99434000  1.0 -0.529071581
O  O289  1  0.03889000  0.32037000  0.32037000  1.0 -1.0918644648
O  O290  1  0.32037000  0.03889000  0.32037000  1.0 -1.0918644648
O  O291  1  0.32037000  0.32037000  0.03889000  1.0 -1.0918644648
O  O292  1  0.32037000  0.32037000  0.32037000  1.0 -1.0918644648
O  O293  1  0.21111000  0.92963000  0.92963000  1.0 -1.0918644648
O  O294  1  0.92963000  0.21111000  0.92963000  1.0 -1.0918644648
O  O295  1  0.92963000  0.92963000  0.92963000  1.0 -1.0918644648
O  O296  1  0.92963000  0.92963000  0.21111000  1.0 -1.0918644648
O  O297  1  0.09617000  0.23225000  0.29447000  1.0 -0.5541931372
O  O298  1  0.23225000  0.09617000  0.37711000  1.0 -0.5558238264
O  O299  1  0.29447000  0.37711000  0.09617000  1.0 -0.5558238264
O  O300  1  0.37711000  0.29447000  0.23225000  1.0 -0.5558238264
O  O301  1  0.29447000  0.09617000  0.23225000  1.0 -0.5558238264
O  O302  1  0.37711000  0.23225000  0.09617000  1.0 -0.5558238264
O  O303  1  0.09617000  0.29447000  0.37711000  1.0 -0.5558238264
O  O304  1  0.23225000  0.37711000  0.29447000  1.0 -0.5541931372
O  O305  1  0.23225000  0.29447000  0.09617000  1.0 -0.5558238264
O  O306  1  0.09617000  0.37711000  0.23225000  1.0 -0.5558238264
O  O307  1  0.37711000  0.09617000  0.29447000  1.0 -0.5558238264
O  O308  1  0.29447000  0.23225000  0.37711000  1.0 -0.5558238264
O  O309  1  0.15383000  0.01775000  0.87289000  1.0 -0.5558238264
O  O310  1  0.01775000  0.15383000  0.95553000  1.0 -0.5541931372
O  O311  1  0.95553000  0.87289000  0.01775000  1.0 -0.5558238264
O  O312  1  0.87289000  0.95553000  0.15383000  1.0 -0.5558238264
O  O313  1  0.95553000  0.15383000  0.87289000  1.0 -0.5558238264
O  O314  1  0.87289000  0.01775000  0.95553000  1.0 -0.5558238264
O  O315  1  0.15383000  0.95553000  0.01775000  1.0 -0.5541931372
O  O316  1  0.01775000  0.87289000  0.15383000  1.0 -0.5558238264
O  O317  1  0.01775000  0.95553000  0.87289000  1.0 -0.5558238264
O  O318  1  0.15383000  0.87289000  0.95553000  1.0 -0.5558238264
O  O319  1  0.87289000  0.15383000  0.01775000  1.0 -0.5558238264
O  O320  1  0.95553000  0.01775000  0.15383000  1.0 -0.5558238264
O  O321  1  0.15383000  0.01775000  0.95553000  1.0 -0.5541931372
O  O322  1  0.01775000  0.15383000  0.87289000  1.0 -0.5558238264
O  O323  1  0.95553000  0.87289000  0.15383000  1.0 -0.5558238264
O  O324  1  0.87289000  0.95553000  0.01775000  1.0 -0.5558238264
O  O325  1  0.95553000  0.15383000  0.01775000  1.0 -0.5558238264
O  O326  1  0.87289000  0.01775000  0.15383000  1.0 -0.5558238264
O  O327  1  0.15383000  0.95553000  0.87289000  1.0 -0.5558238264
O  O328  1  0.01775000  0.87289000  0.95553000  1.0 -0.5558238264
O  O329  1  0.01775000  0.95553000  0.15383000  1.0 -0.5558238264
O  O330  1  0.15383000  0.87289000  0.01775000  1.0 -0.5558238264
O  O331  1  0.87289000  0.15383000  0.95553000  1.0 -0.5558238264
O  O332  1  0.95553000  0.01775000  0.87289000  1.0 -0.5558238264
O  O333  1  0.09617000  0.23225000  0.37711000  1.0 -0.5558238264
O  O334  1  0.23225000  0.09617000  0.29447000  1.0 -0.5558238264
O  O335  1  0.29447000  0.37711000  0.23225000  1.0 -0.5541931372
O  O336  1  0.37711000  0.29447000  0.09617000  1.0 -0.5558238264
O  O337  1  0.29447000  0.09617000  0.37711000  1.0 -0.5558238264
O  O338  1  0.37711000  0.23225000  0.29447000  1.0 -0.5541931372
O  O339  1  0.09617000  0.29447000  0.23225000  1.0 -0.5541931372
O  O340  1  0.23225000  0.37711000  0.09617000  1.0 -0.5558238264
O  O341  1  0.23225000  0.29447000  0.37711000  1.0 -0.5558238264
O  O342  1  0.09617000  0.37711000  0.29447000  1.0 -0.5558238264
O  O343  1  0.37711000  0.09617000  0.23225000  1.0 -0.5558238264
O  O344  1  0.29447000  0.23225000  0.09617000  1.0 -0.5558238264
O  O345  1  0.67716000  0.67716000  0.67716000  1.0 -0.5894259089
O  O346  1  0.67716000  0.67716000  0.96852000  1.0 -0.5894259089
O  O347  1  0.67716000  0.96852000  0.67716000  1.0 -0.5894259089
O  O348  1  0.96852000  0.67716000  0.67716000  1.0 -0.5894259089
O  O349  1  0.57284000  0.57284000  0.28148000  1.0 -0.5894259089
O  O350  1  0.57284000  0.57284000  0.57284000  1.0 -0.5894259089
O  O351  1  0.57284000  0.28148000  0.57284000  1.0 -0.5894259089
O  O352  1  0.28148000  0.57284000  0.57284000  1.0 -0.5816888343
O  O353  1  0.75780000  0.75780000  0.55660000  1.0 -0.013103094
O  O354  1  0.75780000  0.75780000  0.92780000  1.0 0.0302036743
O  O355  1  0.55660000  0.92780000  0.75780000  1.0 0.0600826908
O  O356  1  0.92780000  0.55660000  0.75780000  1.0 0.040042153
O  O357  1  0.55660000  0.75780000  0.75780000  1.0 -0.0019596396
O  O358  1  0.92780000  0.75780000  0.75780000  1.0 0.040042153
O  O359  1  0.75780000  0.55660000  0.92780000  1.0 0.0204708551
O  O360  1  0.75780000  0.92780000  0.55660000  1.0 0.040042153
O  O361  1  0.75780000  0.55660000  0.75780000  1.0 0.0204708551
O  O362  1  0.75780000  0.92780000  0.75780000  1.0 0.040042153
O  O363  1  0.92780000  0.75780000  0.55660000  1.0 0.0302036743
O  O364  1  0.55660000  0.75780000  0.92780000  1.0 -0.013103094
O  O365  1  0.49220000  0.49220000  0.32220000  1.0 0.0204708551
O  O366  1  0.49220000  0.49220000  0.69340000  1.0 0.0302036743
O  O367  1  0.69340000  0.32220000  0.49220000  1.0 0.0600826908
O  O368  1  0.32220000  0.69340000  0.49220000  1.0 0.040042153
O  O369  1  0.69340000  0.49220000  0.32220000  1.0 0.0302036743
O  O370  1  0.32220000  0.49220000  0.69340000  1.0 0.0204708551
O  O371  1  0.49220000  0.69340000  0.49220000  1.0 0.0204708551
O  O372  1  0.49220000  0.32220000  0.49220000  1.0 0.0483094648
O  O373  1  0.49220000  0.69340000  0.32220000  1.0 -0.0019596396
O  O374  1  0.49220000  0.32220000  0.69340000  1.0 0.040042153
O  O375  1  0.32220000  0.49220000  0.49220000  1.0 0.0302036743
O  O376  1  0.69340000  0.49220000  0.49220000  1.0 0.0302036743
O  O377  1  0.73580000  0.73580000  0.65360000  1.0 -0.2206262898
O  O378  1  0.73580000  0.73580000  0.87480000  1.0 -0.2392474941
O  O379  1  0.65360000  0.87480000  0.73580000  1.0 -0.2314569201
O  O380  1  0.87480000  0.65360000  0.73580000  1.0 -0.2314569201
O  O381  1  0.65360000  0.73580000  0.73580000  1.0 -0.2392474941
O  O382  1  0.87480000  0.73580000  0.73580000  1.0 -0.2392474941
O  O383  1  0.73580000  0.65360000  0.87480000  1.0 -0.2314569201
O  O384  1  0.73580000  0.87480000  0.65360000  1.0 -0.2392474941
O  O385  1  0.73580000  0.65360000  0.73580000  1.0 -0.2392474941
O  O386  1  0.73580000  0.87480000  0.73580000  1.0 -0.2314569201
O  O387  1  0.87480000  0.73580000  0.65360000  1.0 -0.2206262898
O  O388  1  0.65360000  0.73580000  0.87480000  1.0 -0.2314569201
O  O389  1  0.51420000  0.51420000  0.37520000  1.0 -0.2392474941
O  O390  1  0.51420000  0.51420000  0.59640000  1.0 -0.2206262898
O  O391  1  0.59640000  0.37520000  0.51420000  1.0 -0.2314569201
O  O392  1  0.37520000  0.59640000  0.51420000  1.0 -0.2314569201
O  O393  1  0.59640000  0.51420000  0.37520000  1.0 -0.2392474941
O  O394  1  0.37520000  0.51420000  0.59640000  1.0 -0.2206262898
O  O395  1  0.51420000  0.59640000  0.51420000  1.0 -0.2314569201
O  O396  1  0.51420000  0.37520000  0.51420000  1.0 -0.2314569201
O  O397  1  0.51420000  0.59640000  0.37520000  1.0 -0.2392474941
O  O398  1  0.51420000  0.37520000  0.59640000  1.0 -0.2392474941
O  O399  1  0.37520000  0.51420000  0.51420000  1.0 -0.2314569201
O  O400  1  0.59640000  0.51420000  0.51420000  1.0 -0.2206262898
