# DDEC6 charges by PACMAN v1.1 (https://github.com/mtap-research/PACMAN-charge/)
data_HANWAW_ASR_pacman
_symmetry_space_group_name_H-M   'P 1'
_cell_length_a   20.01570000
_cell_length_b   26.89320000
_cell_length_c   26.98900000
_cell_angle_alpha   90.00000000
_cell_angle_beta   90.00000000
_cell_angle_gamma   90.00000000
_symmetry_Int_Tables_number   1
_chemical_formula_structural   Cu3H16(C19O8)2
_chemical_formula_sum   'Cu24 H128 C304 O128'
_cell_volume   14527.80687902
_cell_formula_units_Z   8
loop_
 _symmetry_equiv_pos_site_id
 _symmetry_equiv_pos_as_xyz
  1  'x, y, z'
loop_
 _atom_site_type_symbol
 _atom_site_label
 _atom_site_symmetry_multiplicity
 _atom_site_fract_x
 _atom_site_fract_y
 _atom_site_fract_z
 _atom_site_occupancy
 _atom_site_charge
Cu  Cu1  1  0.94621000  0.75000000  0.76724000  1.0 0.8585323722
Cu  Cu2  1  0.55379000  0.25000000  0.26724000  1.0 0.8585323722
Cu  Cu3  1  0.44621000  0.75000000  0.73276000  1.0 0.8585323722
Cu  Cu4  1  0.05379000  0.25000000  0.23276000  1.0 0.8585323722
Cu  Cu5  1  0.03128000  0.75000000  0.69135000  1.0 0.8816437156
Cu  Cu6  1  0.46872000  0.25000000  0.19135000  1.0 0.8816437156
Cu  Cu7  1  0.53128000  0.75000000  0.80865000  1.0 0.8816437156
Cu  Cu8  1  0.96872000  0.25000000  0.30865000  1.0 0.8816437156
Cu  Cu9  1  0.55324000  0.25000000  0.73264000  1.0 0.8816437156
Cu  Cu10  1  0.94676000  0.75000000  0.23264000  1.0 0.8816437156
Cu  Cu11  1  0.05324000  0.25000000  0.76736000  1.0 0.8816437156
Cu  Cu12  1  0.44676000  0.75000000  0.26736000  1.0 0.8816437156
Cu  Cu13  1  0.46699000  0.25000000  0.80634000  1.0 0.8585323722
Cu  Cu14  1  0.03301000  0.75000000  0.30634000  1.0 0.8585323722
Cu  Cu15  1  0.96699000  0.25000000  0.69366000  1.0 0.8585323722
Cu  Cu16  1  0.53301000  0.75000000  0.19366000  1.0 0.8585323722
Cu  Cu17  1  0.04399000  0.53676000  0.50014000  1.0 0.8417597741
Cu  Cu18  1  0.45601000  0.46324000  0.00014000  1.0 0.8417597741
Cu  Cu19  1  0.54399000  0.96324000  0.99986000  1.0 0.8417597741
Cu  Cu20  1  0.95601000  0.03676000  0.49986000  1.0 0.8417597741
Cu  Cu21  1  0.95601000  0.46324000  0.49986000  1.0 0.8417597741
Cu  Cu22  1  0.54399000  0.53676000  0.99986000  1.0 0.8417597741
Cu  Cu23  1  0.45601000  0.03676000  0.00014000  1.0 0.8417597741
Cu  Cu24  1  0.04399000  0.96324000  0.50014000  1.0 0.8417597741
H  H1  1  0.67180000  0.57730000  0.51580000  1.0 0.3522722379
H  H2  1  0.82820000  0.42270000  0.01580000  1.0 0.3522722379
H  H3  1  0.17180000  0.92270000  0.98420000  1.0 0.3522722379
H  H4  1  0.32820000  0.07730000  0.48420000  1.0 0.3522722379
H  H5  1  0.32820000  0.42270000  0.48420000  1.0 0.3522722379
H  H6  1  0.17180000  0.57730000  0.98420000  1.0 0.3522722379
H  H7  1  0.82820000  0.07730000  0.01580000  1.0 0.3522722379
H  H8  1  0.67180000  0.92270000  0.51580000  1.0 0.3522722379
H  H9  1  0.91290000  0.37120000  0.98130000  1.0 0.3580265299
H  H10  1  0.58710000  0.62880000  0.48130000  1.0 0.3580265299
H  H11  1  0.41290000  0.12880000  0.51870000  1.0 0.3580265299
H  H12  1  0.08710000  0.87120000  0.01870000  1.0 0.3580265299
H  H13  1  0.08710000  0.62880000  0.01870000  1.0 0.3580265299
H  H14  1  0.41290000  0.37120000  0.51870000  1.0 0.3580265299
H  H15  1  0.58710000  0.87120000  0.48130000  1.0 0.3580265299
H  H16  1  0.91290000  0.12880000  0.98130000  1.0 0.3580265299
H  H17  1  0.92190000  0.32550000  0.86870000  1.0 0.1281777058
H  H18  1  0.57810000  0.67450000  0.36870000  1.0 0.1281777058
H  H19  1  0.42190000  0.17450000  0.63130000  1.0 0.1281777058
H  H20  1  0.07810000  0.82550000  0.13130000  1.0 0.1281777058
H  H21  1  0.07810000  0.67450000  0.13130000  1.0 0.1281777058
H  H22  1  0.42190000  0.32550000  0.63130000  1.0 0.1281777058
H  H23  1  0.57810000  0.82550000  0.36870000  1.0 0.1281777058
H  H24  1  0.92190000  0.17450000  0.86870000  1.0 0.1281777058
H  H25  1  0.78580000  0.43870000  0.86900000  1.0 0.1213764186
H  H26  1  0.71420000  0.56130000  0.36900000  1.0 0.1213764186
H  H27  1  0.28580000  0.06130000  0.63100000  1.0 0.1213764186
H  H28  1  0.21420000  0.93870000  0.13100000  1.0 0.1213764186
H  H29  1  0.21420000  0.56130000  0.13100000  1.0 0.1213764186
H  H30  1  0.28580000  0.43870000  0.63100000  1.0 0.1213764186
H  H31  1  0.71420000  0.93870000  0.36900000  1.0 0.1213764186
H  H32  1  0.78580000  0.06130000  0.86900000  1.0 0.1213764186
H  H33  1  0.85460000  0.38390000  0.73960000  1.0 0.1378602625
H  H34  1  0.64540000  0.61610000  0.23960000  1.0 0.1378602625
H  H35  1  0.35460000  0.11610000  0.76040000  1.0 0.1378602625
H  H36  1  0.14540000  0.88390000  0.26040000  1.0 0.1378602625
H  H37  1  0.14540000  0.61610000  0.26040000  1.0 0.1378602625
H  H38  1  0.35460000  0.38390000  0.76040000  1.0 0.1378602625
H  H39  1  0.64540000  0.88390000  0.23960000  1.0 0.1378602625
H  H40  1  0.85460000  0.11610000  0.73960000  1.0 0.1378602625
H  H41  1  0.64550000  0.52230000  0.77550000  1.0 0.1281777058
H  H42  1  0.85450000  0.47770000  0.27550000  1.0 0.1213764186
H  H43  1  0.14550000  0.97770000  0.72450000  1.0 0.1281777058
H  H44  1  0.35450000  0.02230000  0.22450000  1.0 0.1281777058
H  H45  1  0.35450000  0.47770000  0.22450000  1.0 0.1281777058
H  H46  1  0.14550000  0.52230000  0.72450000  1.0 0.1281777058
H  H47  1  0.85450000  0.02230000  0.27550000  1.0 0.1213764186
H  H48  1  0.64550000  0.97770000  0.77550000  1.0 0.1281777058
H  H49  1  0.86230000  0.47990000  0.73400000  1.0 0.1281777058
H  H50  1  0.63770000  0.52010000  0.23400000  1.0 0.1281777058
H  H51  1  0.36230000  0.02010000  0.76600000  1.0 0.1281777058
H  H52  1  0.13770000  0.97990000  0.26600000  1.0 0.1281777058
H  H53  1  0.13770000  0.52010000  0.26600000  1.0 0.1281777058
H  H54  1  0.36230000  0.47990000  0.76600000  1.0 0.1281777058
H  H55  1  0.63770000  0.97990000  0.23400000  1.0 0.1281777058
H  H56  1  0.86230000  0.02010000  0.73400000  1.0 0.1281777058
H  H57  1  0.83470000  0.62140000  0.72640000  1.0 0.1378602625
H  H58  1  0.66530000  0.37860000  0.22640000  1.0 0.1378602625
H  H59  1  0.33470000  0.87860000  0.77360000  1.0 0.1378602625
H  H60  1  0.16530000  0.12140000  0.27360000  1.0 0.1378602625
H  H61  1  0.16530000  0.37860000  0.27360000  1.0 0.1378602625
H  H62  1  0.33470000  0.62140000  0.77360000  1.0 0.1378602625
H  H63  1  0.66530000  0.12140000  0.22640000  1.0 0.1378602625
H  H64  1  0.83470000  0.87860000  0.72640000  1.0 0.1378602625
H  H65  1  0.95170000  0.62500000  0.60650000  1.0 0.1502866477
H  H66  1  0.54830000  0.37500000  0.10650000  1.0 0.1502866477
H  H67  1  0.45170000  0.87500000  0.89350000  1.0 0.1502866477
H  H68  1  0.04830000  0.12500000  0.39350000  1.0 0.1502866477
H  H69  1  0.04830000  0.37500000  0.39350000  1.0 0.1502866477
H  H70  1  0.45170000  0.62500000  0.89350000  1.0 0.1502866477
H  H71  1  0.54830000  0.12500000  0.10650000  1.0 0.1502866477
H  H72  1  0.95170000  0.87500000  0.60650000  1.0 0.1502866477
H  H73  1  0.84050000  0.50200000  0.62470000  1.0 0.1378602625
H  H74  1  0.65950000  0.49800000  0.12470000  1.0 0.1378602625
H  H75  1  0.34050000  0.99800000  0.87530000  1.0 0.1378602625
H  H76  1  0.15950000  0.00200000  0.37530000  1.0 0.1378602625
H  H77  1  0.15950000  0.49800000  0.37530000  1.0 0.1378602625
H  H78  1  0.34050000  0.50200000  0.87530000  1.0 0.1378602625
H  H79  1  0.65950000  0.00200000  0.12470000  1.0 0.1378602625
H  H80  1  0.84050000  0.99800000  0.62470000  1.0 0.1378602625
H  H81  1  0.64470000  0.61700000  0.75980000  1.0 0.1213764186
H  H82  1  0.85530000  0.38300000  0.25980000  1.0 0.1213764186
H  H83  1  0.14470000  0.88300000  0.74020000  1.0 0.1213764186
H  H84  1  0.35530000  0.11700000  0.24020000  1.0 0.1213764186
H  H85  1  0.35530000  0.38300000  0.24020000  1.0 0.1213764186
H  H86  1  0.14470000  0.61700000  0.74020000  1.0 0.1213764186
H  H87  1  0.85530000  0.11700000  0.25980000  1.0 0.1213764186
H  H88  1  0.64470000  0.88300000  0.75980000  1.0 0.1213764186
H  H89  1  0.70350000  0.55510000  0.62980000  1.0 0.1281777058
H  H90  1  0.79650000  0.44490000  0.12980000  1.0 0.1213764186
H  H91  1  0.20350000  0.94490000  0.87020000  1.0 0.1281777058
H  H92  1  0.29650000  0.05510000  0.37020000  1.0 0.1281777058
H  H93  1  0.29650000  0.44490000  0.37020000  1.0 0.1281777058
H  H94  1  0.20350000  0.55510000  0.87020000  1.0 0.1281777058
H  H95  1  0.79650000  0.05510000  0.12980000  1.0 0.1281777058
H  H96  1  0.70350000  0.94490000  0.62980000  1.0 0.1281777058
H  H97  1  0.56160000  0.66270000  0.62950000  1.0 0.1378602625
H  H98  1  0.93840000  0.33730000  0.12950000  1.0 0.1378602625
H  H99  1  0.06160000  0.83730000  0.87050000  1.0 0.1378602625
H  H100  1  0.43840000  0.16270000  0.37050000  1.0 0.1378602625
H  H101  1  0.43840000  0.33730000  0.37050000  1.0 0.1378602625
H  H102  1  0.06160000  0.66270000  0.87050000  1.0 0.1378602625
H  H103  1  0.93840000  0.16270000  0.12950000  1.0 0.1378602625
H  H104  1  0.56160000  0.83730000  0.62950000  1.0 0.1378602625
H  H105  1  0.54260000  0.36520000  0.88930000  1.0 0.1378602625
H  H106  1  0.95740000  0.63480000  0.38930000  1.0 0.1378602625
H  H107  1  0.04260000  0.13480000  0.61070000  1.0 0.1378602625
H  H108  1  0.45740000  0.86520000  0.11070000  1.0 0.1378602625
H  H109  1  0.45740000  0.63480000  0.11070000  1.0 0.1378602625
H  H110  1  0.04260000  0.36520000  0.61070000  1.0 0.1378602625
H  H111  1  0.95740000  0.86520000  0.38930000  1.0 0.1378602625
H  H112  1  0.54260000  0.13480000  0.88930000  1.0 0.1378602625
H  H113  1  0.65570000  0.49400000  0.86740000  1.0 0.1281777058
H  H114  1  0.84430000  0.50600000  0.36740000  1.0 0.1281777058
H  H115  1  0.15570000  0.00600000  0.63260000  1.0 0.1281777058
H  H116  1  0.34430000  0.99400000  0.13260000  1.0 0.1281777058
H  H117  1  0.34430000  0.50600000  0.13260000  1.0 0.1281777058
H  H118  1  0.15570000  0.49400000  0.63260000  1.0 0.1281777058
H  H119  1  0.84430000  0.99400000  0.36740000  1.0 0.1281777058
H  H120  1  0.65570000  0.00600000  0.86740000  1.0 0.1281777058
H  H121  1  0.68080000  0.37990000  0.77720000  1.0 0.1281777058
H  H122  1  0.81920000  0.62010000  0.27720000  1.0 0.1281777058
H  H123  1  0.18080000  0.12010000  0.72280000  1.0 0.1281777058
H  H124  1  0.31920000  0.87990000  0.22280000  1.0 0.1281777058
H  H125  1  0.31920000  0.62010000  0.22280000  1.0 0.1281777058
H  H126  1  0.18080000  0.37990000  0.72280000  1.0 0.1281777058
H  H127  1  0.81920000  0.87990000  0.27720000  1.0 0.1281777058
H  H128  1  0.68080000  0.12010000  0.77720000  1.0 0.1281777058
C  C1  1  0.57030000  0.32160000  0.81240000  1.0 0.5718331208
C  C2  1  0.92970000  0.67840000  0.31240000  1.0 0.5718331208
C  C3  1  0.07030000  0.17840000  0.68760000  1.0 0.5718331208
C  C4  1  0.42970000  0.82160000  0.18760000  1.0 0.5718331208
C  C5  1  0.42970000  0.67840000  0.18760000  1.0 0.5718331208
C  C6  1  0.07030000  0.32160000  0.68760000  1.0 0.5718331208
C  C7  1  0.92970000  0.82160000  0.31240000  1.0 0.5718331208
C  C8  1  0.57030000  0.17840000  0.81240000  1.0 0.5718331208
C  C9  1  0.92260000  0.68050000  0.69300000  1.0 0.5813777775
C  C10  1  0.57740000  0.31950000  0.19300000  1.0 0.5813777775
C  C11  1  0.42260000  0.81950000  0.80700000  1.0 0.5718331208
C  C12  1  0.07740000  0.18050000  0.30700000  1.0 0.5718331208
C  C13  1  0.07740000  0.31950000  0.30700000  1.0 0.5718331208
C  C14  1  0.42260000  0.68050000  0.80700000  1.0 0.5718331208
C  C15  1  0.57740000  0.18050000  0.19300000  1.0 0.5813777775
C  C16  1  0.92260000  0.81950000  0.69300000  1.0 0.5813777775
C  C17  1  0.89580000  0.63470000  0.67170000  1.0 -0.0106102037
C  C18  1  0.60420000  0.36530000  0.17170000  1.0 -0.0106102037
C  C19  1  0.39580000  0.86530000  0.82830000  1.0 -0.0106102037
C  C20  1  0.10420000  0.13470000  0.32830000  1.0 -0.0106102037
C  C21  1  0.10420000  0.36530000  0.32830000  1.0 -0.0106102037
C  C22  1  0.39580000  0.63470000  0.82830000  1.0 -0.0106102037
C  C23  1  0.60420000  0.13470000  0.17170000  1.0 -0.0106102037
C  C24  1  0.89580000  0.86530000  0.67170000  1.0 -0.0106102037
C  C25  1  0.94140000  0.53720000  0.56800000  1.0 0.5718331208
C  C26  1  0.55860000  0.46280000  0.06800000  1.0 0.5718331208
C  C27  1  0.44140000  0.96280000  0.93200000  1.0 0.5718331208
C  C28  1  0.05860000  0.03720000  0.43200000  1.0 0.5718331208
C  C29  1  0.05860000  0.46280000  0.43200000  1.0 0.5718331208
C  C30  1  0.44140000  0.53720000  0.93200000  1.0 0.5718331208
C  C31  1  0.55860000  0.03720000  0.06800000  1.0 0.5718331208
C  C32  1  0.94140000  0.96280000  0.56800000  1.0 0.5718331208
C  C33  1  0.56810000  0.45490000  0.93360000  1.0 0.5718331208
C  C34  1  0.93190000  0.54510000  0.43360000  1.0 0.5718331208
C  C35  1  0.06810000  0.04510000  0.56640000  1.0 0.5718331208
C  C36  1  0.43190000  0.95490000  0.06640000  1.0 0.5718331208
C  C37  1  0.43190000  0.54510000  0.06640000  1.0 0.5718331208
C  C38  1  0.06810000  0.45490000  0.56640000  1.0 0.5718331208
C  C39  1  0.93190000  0.95490000  0.43360000  1.0 0.5718331208
C  C40  1  0.56810000  0.04510000  0.93360000  1.0 0.5718331208
C  C41  1  0.94070000  0.31520000  0.77430000  1.0 0.5813777775
C  C42  1  0.55930000  0.68480000  0.27430000  1.0 0.5813777775
C  C43  1  0.44070000  0.18480000  0.72570000  1.0 0.5813777775
C  C44  1  0.05930000  0.81520000  0.22570000  1.0 0.5813777775
C  C45  1  0.05930000  0.68480000  0.22570000  1.0 0.5813777775
C  C46  1  0.44070000  0.31520000  0.72570000  1.0 0.5813777775
C  C47  1  0.55930000  0.81520000  0.27430000  1.0 0.5813777775
C  C48  1  0.94070000  0.18480000  0.77430000  1.0 0.5813777775
C  C49  1  0.89610000  0.35490000  0.79850000  1.0 0.0077750154
C  C50  1  0.60390000  0.64510000  0.29850000  1.0 0.0077750154
C  C51  1  0.39610000  0.14510000  0.70150000  1.0 0.0077750154
C  C52  1  0.10390000  0.85490000  0.20150000  1.0 0.0077750154
C  C53  1  0.10390000  0.64510000  0.20150000  1.0 0.0077750154
C  C54  1  0.39610000  0.35490000  0.70150000  1.0 0.0077750154
C  C55  1  0.60390000  0.85490000  0.29850000  1.0 0.0077750154
C  C56  1  0.89610000  0.14510000  0.79850000  1.0 0.0077750154
C  C57  1  0.89870000  0.35160000  0.85240000  1.0 -0.0914020824
C  C58  1  0.60130000  0.64840000  0.35240000  1.0 -0.0914020824
C  C59  1  0.39870000  0.14840000  0.64760000  1.0 -0.0914020824
C  C60  1  0.10130000  0.85160000  0.14760000  1.0 -0.0914020824
C  C61  1  0.10130000  0.64840000  0.14760000  1.0 -0.0914020824
C  C62  1  0.39870000  0.35160000  0.64760000  1.0 -0.0914020824
C  C63  1  0.60130000  0.85160000  0.35240000  1.0 -0.0914020824
C  C64  1  0.89870000  0.14840000  0.85240000  1.0 -0.0914020824
C  C65  1  0.86570000  0.38830000  0.87860000  1.0 -0.0651169911
C  C66  1  0.63430000  0.61170000  0.37860000  1.0 -0.0645372614
C  C67  1  0.36570000  0.11170000  0.62140000  1.0 -0.0651169911
C  C68  1  0.13430000  0.88830000  0.12140000  1.0 -0.0645372614
C  C69  1  0.13430000  0.61170000  0.12140000  1.0 -0.0651169911
C  C70  1  0.36570000  0.38830000  0.62140000  1.0 -0.0651169911
C  C71  1  0.63430000  0.88830000  0.37860000  1.0 -0.0645372614
C  C72  1  0.86570000  0.11170000  0.87860000  1.0 -0.0651169911
C  C73  1  0.81680000  0.41860000  0.85140000  1.0 -0.1282028125
C  C74  1  0.68320000  0.58140000  0.35140000  1.0 -0.1282028125
C  C75  1  0.31680000  0.08140000  0.64860000  1.0 -0.1282028125
C  C76  1  0.18320000  0.91860000  0.14860000  1.0 -0.1282028125
C  C77  1  0.18320000  0.58140000  0.14860000  1.0 -0.1282028125
C  C78  1  0.31680000  0.41860000  0.64860000  1.0 -0.1282028125
C  C79  1  0.68320000  0.91860000  0.35140000  1.0 -0.1282028125
C  C80  1  0.81680000  0.08140000  0.85140000  1.0 -0.1282028125
C  C81  1  0.81610000  0.41780000  0.79970000  1.0 0.0625537254
C  C82  1  0.68390000  0.58220000  0.29970000  1.0 0.0625537254
C  C83  1  0.31610000  0.08220000  0.70030000  1.0 0.0625537254
C  C84  1  0.18390000  0.91780000  0.20030000  1.0 0.0625537254
C  C85  1  0.18390000  0.58220000  0.20030000  1.0 0.0625537254
C  C86  1  0.31610000  0.41780000  0.70030000  1.0 0.0625537254
C  C87  1  0.68390000  0.91780000  0.29970000  1.0 0.0625537254
C  C88  1  0.81610000  0.08220000  0.79970000  1.0 0.0625537254
C  C89  1  0.85610000  0.38490000  0.77470000  1.0 -0.1194377255
C  C90  1  0.64390000  0.61510000  0.27470000  1.0 -0.1194377255
C  C91  1  0.35610000  0.11510000  0.72530000  1.0 -0.1194377255
C  C92  1  0.14390000  0.88490000  0.22530000  1.0 -0.1194377255
C  C93  1  0.14390000  0.61510000  0.22530000  1.0 -0.1194377255
C  C94  1  0.35610000  0.38490000  0.72530000  1.0 -0.1194377255
C  C95  1  0.64390000  0.88490000  0.27470000  1.0 -0.1194377255
C  C96  1  0.85610000  0.11510000  0.77470000  1.0 -0.1194377255
C  C97  1  0.78080000  0.45990000  0.77300000  1.0 0.040136256
C  C98  1  0.71920000  0.54010000  0.27300000  1.0 0.040136256
C  C99  1  0.28080000  0.04010000  0.72700000  1.0 0.040136256
C  C100  1  0.21920000  0.95990000  0.22700000  1.0 0.040136256
C  C101  1  0.21920000  0.54010000  0.22700000  1.0 0.040136256
C  C102  1  0.28080000  0.45990000  0.72700000  1.0 0.040136256
C  C103  1  0.71920000  0.95990000  0.27300000  1.0 0.040136256
C  C104  1  0.78080000  0.04010000  0.77300000  1.0 0.040136256
C  C105  1  0.71310000  0.47070000  0.78390000  1.0 0.0482018965
C  C106  1  0.78690000  0.52930000  0.28390000  1.0 0.0482018965
C  C107  1  0.21310000  0.02930000  0.71610000  1.0 0.0482018965
C  C108  1  0.28690000  0.97070000  0.21610000  1.0 0.0482018965
C  C109  1  0.28690000  0.52930000  0.21610000  1.0 0.0482018965
C  C110  1  0.21310000  0.47070000  0.71610000  1.0 0.0482018965
C  C111  1  0.78690000  0.97070000  0.28390000  1.0 0.0482018965
C  C112  1  0.71310000  0.02930000  0.78390000  1.0 0.0482018965
C  C113  1  0.68770000  0.51150000  0.76340000  1.0 -0.1967412464
C  C114  1  0.81230000  0.48850000  0.26340000  1.0 -0.1967412464
C  C115  1  0.18770000  0.98850000  0.73660000  1.0 -0.1967412464
C  C116  1  0.31230000  0.01150000  0.23660000  1.0 -0.1967412464
C  C117  1  0.31230000  0.48850000  0.23660000  1.0 -0.1967412464
C  C118  1  0.18770000  0.51150000  0.73660000  1.0 -0.1967412464
C  C119  1  0.81230000  0.01150000  0.26340000  1.0 -0.1967412464
C  C120  1  0.68770000  0.98850000  0.76340000  1.0 -0.1967412464
C  C121  1  0.71780000  0.54150000  0.72430000  1.0 0.0211736817
C  C122  1  0.78220000  0.45850000  0.22430000  1.0 0.0211736817
C  C123  1  0.21780000  0.95850000  0.77570000  1.0 0.0211736817
C  C124  1  0.28220000  0.04150000  0.27570000  1.0 0.0211736817
C  C125  1  0.28220000  0.45850000  0.27570000  1.0 0.0211736817
C  C126  1  0.21780000  0.54150000  0.77570000  1.0 0.0211736817
C  C127  1  0.78220000  0.04150000  0.22430000  1.0 0.0211736817
C  C128  1  0.71780000  0.95850000  0.72430000  1.0 0.0211736817
C  C129  1  0.78330000  0.52720000  0.71430000  1.0 0.0211736817
C  C130  1  0.71670000  0.47280000  0.21430000  1.0 0.0211736817
C  C131  1  0.28330000  0.97280000  0.78570000  1.0 0.0211736817
C  C132  1  0.21670000  0.02720000  0.28570000  1.0 0.0211736817
C  C133  1  0.21670000  0.47280000  0.28570000  1.0 0.0211736817
C  C134  1  0.28330000  0.52720000  0.78570000  1.0 0.0211736817
C  C135  1  0.71670000  0.02720000  0.21430000  1.0 0.0211736817
C  C136  1  0.78330000  0.97280000  0.71430000  1.0 0.0211736817
C  C137  1  0.81650000  0.48710000  0.74010000  1.0 -0.1945697616
C  C138  1  0.68350000  0.51290000  0.24010000  1.0 -0.1945697616
C  C139  1  0.31650000  0.01290000  0.75990000  1.0 -0.1945697616
C  C140  1  0.18350000  0.98710000  0.25990000  1.0 -0.1945697616
C  C141  1  0.18350000  0.51290000  0.25990000  1.0 -0.1945697616
C  C142  1  0.31650000  0.48710000  0.75990000  1.0 -0.1945697616
C  C143  1  0.68350000  0.98710000  0.24010000  1.0 -0.1945697616
C  C144  1  0.81650000  0.01290000  0.74010000  1.0 -0.1945697616
C  C145  1  0.83390000  0.55580000  0.68270000  1.0 0.0983143237
C  C146  1  0.66610000  0.44420000  0.18270000  1.0 0.0983143237
C  C147  1  0.33390000  0.94420000  0.81730000  1.0 0.0983143237
C  C148  1  0.16610000  0.05580000  0.31730000  1.0 0.0983143237
C  C149  1  0.16610000  0.44420000  0.31730000  1.0 0.0983143237
C  C150  1  0.33390000  0.55580000  0.81730000  1.0 0.0983143237
C  C151  1  0.66610000  0.05580000  0.18270000  1.0 0.0983143237
C  C152  1  0.83390000  0.94420000  0.68270000  1.0 0.0983143237
C  C153  1  0.85360000  0.60760000  0.69720000  1.0 -0.1282028125
C  C154  1  0.64640000  0.39240000  0.19720000  1.0 -0.1282028125
C  C155  1  0.35360000  0.89240000  0.80280000  1.0 -0.1282028125
C  C156  1  0.14640000  0.10760000  0.30280000  1.0 -0.1282028125
C  C157  1  0.14640000  0.39240000  0.30280000  1.0 -0.1282028125
C  C158  1  0.35360000  0.60760000  0.80280000  1.0 -0.1282028125
C  C159  1  0.64640000  0.10760000  0.19720000  1.0 -0.1282028125
C  C160  1  0.85360000  0.89240000  0.69720000  1.0 -0.1282028125
C  C161  1  0.91990000  0.60780000  0.62630000  1.0 -0.1012520015
C  C162  1  0.58010000  0.39220000  0.12630000  1.0 -0.1012520015
C  C163  1  0.41990000  0.89220000  0.87370000  1.0 -0.1012520015
C  C164  1  0.08010000  0.10780000  0.37370000  1.0 -0.1012520015
C  C165  1  0.08010000  0.39220000  0.37370000  1.0 -0.1012520015
C  C166  1  0.41990000  0.60780000  0.87370000  1.0 -0.1012520015
C  C167  1  0.58010000  0.10780000  0.12630000  1.0 -0.1012520015
C  C168  1  0.91990000  0.89220000  0.62630000  1.0 -0.1012520015
C  C169  1  0.85580000  0.53340000  0.63620000  1.0 -0.1729830846
C  C170  1  0.64420000  0.46660000  0.13620000  1.0 -0.1729830846
C  C171  1  0.35580000  0.96660000  0.86380000  1.0 -0.1729830846
C  C172  1  0.14420000  0.03340000  0.36380000  1.0 -0.1729830846
C  C173  1  0.14420000  0.46660000  0.36380000  1.0 -0.1729830846
C  C174  1  0.35580000  0.53340000  0.86380000  1.0 -0.1729830846
C  C175  1  0.64420000  0.03340000  0.13620000  1.0 -0.1729830846
C  C176  1  0.85580000  0.96660000  0.63620000  1.0 -0.1729830846
C  C177  1  0.56040000  0.68590000  0.72870000  1.0 0.5513508201
C  C178  1  0.93960000  0.31410000  0.22870000  1.0 0.5513508201
C  C179  1  0.06040000  0.81410000  0.77130000  1.0 0.5513508201
C  C180  1  0.43960000  0.18590000  0.27130000  1.0 0.5513508201
C  C181  1  0.43960000  0.31410000  0.27130000  1.0 0.5513508201
C  C182  1  0.06040000  0.68590000  0.77130000  1.0 0.5513508201
C  C183  1  0.93960000  0.18590000  0.22870000  1.0 0.5513508201
C  C184  1  0.56040000  0.81410000  0.72870000  1.0 0.5513508201
C  C185  1  0.67990000  0.57910000  0.69940000  1.0 0.0625537254
C  C186  1  0.82010000  0.42090000  0.19940000  1.0 0.0625537254
C  C187  1  0.17990000  0.92090000  0.80060000  1.0 0.0625537254
C  C188  1  0.32010000  0.07910000  0.30060000  1.0 0.0625537254
C  C189  1  0.32010000  0.42090000  0.30060000  1.0 0.0625537254
C  C190  1  0.17990000  0.57910000  0.80060000  1.0 0.0625537254
C  C191  1  0.82010000  0.07910000  0.19940000  1.0 0.0625537254
C  C192  1  0.67990000  0.92090000  0.69940000  1.0 0.0625537254
C  C193  1  0.64140000  0.61600000  0.72470000  1.0 -0.1194377255
C  C194  1  0.85860000  0.38400000  0.22470000  1.0 -0.1194377255
C  C195  1  0.14140000  0.88400000  0.77530000  1.0 -0.1194377255
C  C196  1  0.35860000  0.11600000  0.27530000  1.0 -0.1194377255
C  C197  1  0.35860000  0.38400000  0.27530000  1.0 -0.1194377255
C  C198  1  0.14140000  0.61600000  0.77530000  1.0 -0.1194377255
C  C199  1  0.85860000  0.11600000  0.22470000  1.0 -0.1194377255
C  C200  1  0.64140000  0.88400000  0.72470000  1.0 -0.1194377255
C  C201  1  0.59770000  0.65220000  0.70120000  1.0 -0.1012520015
C  C202  1  0.90230000  0.34780000  0.20120000  1.0 -0.1012520015
C  C203  1  0.09770000  0.84780000  0.79880000  1.0 -0.1012520015
C  C204  1  0.40230000  0.15220000  0.29880000  1.0 -0.1012520015
C  C205  1  0.40230000  0.34780000  0.29880000  1.0 -0.1012520015
C  C206  1  0.09770000  0.65220000  0.79880000  1.0 -0.1012520015
C  C207  1  0.90230000  0.15220000  0.20120000  1.0 -0.1012520015
C  C208  1  0.59770000  0.84780000  0.70120000  1.0 -0.1012520015
C  C209  1  0.67850000  0.57880000  0.64820000  1.0 -0.1413862631
C  C210  1  0.82150000  0.42120000  0.14820000  1.0 -0.1413862631
C  C211  1  0.17850000  0.92120000  0.85180000  1.0 -0.1413862631
C  C212  1  0.32150000  0.07880000  0.35180000  1.0 -0.1413862631
C  C213  1  0.32150000  0.42120000  0.35180000  1.0 -0.1413862631
C  C214  1  0.17850000  0.57880000  0.85180000  1.0 -0.1413862631
C  C215  1  0.82150000  0.07880000  0.14820000  1.0 -0.1413862631
C  C216  1  0.67850000  0.92120000  0.64820000  1.0 -0.1413862631
C  C217  1  0.59430000  0.64560000  0.64850000  1.0 -0.0651169911
C  C218  1  0.90570000  0.35440000  0.14850000  1.0 -0.0645372614
C  C219  1  0.09430000  0.85440000  0.85150000  1.0 -0.0651169911
C  C220  1  0.40570000  0.14560000  0.35150000  1.0 -0.0645372614
C  C221  1  0.40570000  0.35440000  0.35150000  1.0 -0.0645372614
C  C222  1  0.09430000  0.64560000  0.85150000  1.0 -0.0651169911
C  C223  1  0.90570000  0.14560000  0.14850000  1.0 -0.0645372614
C  C224  1  0.59430000  0.85440000  0.64850000  1.0 -0.0651169911
C  C225  1  0.64040000  0.61350000  0.62520000  1.0 -0.0023518419
C  C226  1  0.85960000  0.38650000  0.12520000  1.0 -0.0023518419
C  C227  1  0.14040000  0.88650000  0.87480000  1.0 -0.0023518419
C  C228  1  0.35960000  0.11350000  0.37480000  1.0 -0.0023518419
C  C229  1  0.35960000  0.38650000  0.37480000  1.0 -0.0023518419
C  C230  1  0.14040000  0.61350000  0.87480000  1.0 -0.0023518419
C  C231  1  0.85960000  0.11350000  0.12520000  1.0 -0.0023518419
C  C232  1  0.64040000  0.88650000  0.62520000  1.0 -0.0023518419
C  C233  1  0.63630000  0.60880000  0.56560000  1.0 0.5643472801
C  C234  1  0.86370000  0.39120000  0.06560000  1.0 0.5643472801
C  C235  1  0.13630000  0.89120000  0.93440000  1.0 0.5718331208
C  C236  1  0.36370000  0.10880000  0.43440000  1.0 0.5643472801
C  C237  1  0.36370000  0.39120000  0.43440000  1.0 0.5643472801
C  C238  1  0.13630000  0.60880000  0.93440000  1.0 0.5718331208
C  C239  1  0.86370000  0.10880000  0.06560000  1.0 0.5643472801
C  C240  1  0.63630000  0.89120000  0.56560000  1.0 0.5643472801
C  C241  1  0.86910000  0.39040000  0.92710000  1.0 0.4582246125
C  C242  1  0.63090000  0.60960000  0.42710000  1.0 0.4582246125
C  C243  1  0.36910000  0.10960000  0.57290000  1.0 0.4582246125
C  C244  1  0.13090000  0.89040000  0.07290000  1.0 0.4582246125
C  C245  1  0.13090000  0.60960000  0.07290000  1.0 0.4582246125
C  C246  1  0.36910000  0.39040000  0.57290000  1.0 0.4582246125
C  C247  1  0.63090000  0.89040000  0.42710000  1.0 0.4582246125
C  C248  1  0.86910000  0.10960000  0.92710000  1.0 0.4582246125
C  C249  1  0.90230000  0.56320000  0.61040000  1.0 -0.0023518419
C  C250  1  0.59770000  0.43680000  0.11040000  1.0 -0.0023518419
C  C251  1  0.40230000  0.93680000  0.88960000  1.0 -0.0023518419
C  C252  1  0.09770000  0.06320000  0.38960000  1.0 -0.0023518419
C  C253  1  0.09770000  0.43680000  0.38960000  1.0 -0.0023518419
C  C254  1  0.40230000  0.56320000  0.88960000  1.0 -0.0023518419
C  C255  1  0.59770000  0.06320000  0.11040000  1.0 -0.0023518419
C  C256  1  0.90230000  0.93680000  0.61040000  1.0 -0.0023518419
C  C257  1  0.60350000  0.36860000  0.82890000  1.0 0.0077750154
C  C258  1  0.89650000  0.63140000  0.32890000  1.0 0.0077750154
C  C259  1  0.10350000  0.13140000  0.67110000  1.0 0.0077750154
C  C260  1  0.39650000  0.86860000  0.17110000  1.0 0.0077750154
C  C261  1  0.39650000  0.63140000  0.17110000  1.0 0.0077750154
C  C262  1  0.10350000  0.36860000  0.67110000  1.0 0.0077750154
C  C263  1  0.89650000  0.86860000  0.32890000  1.0 0.0077750154
C  C264  1  0.60350000  0.13140000  0.82890000  1.0 0.0077750154
C  C265  1  0.57400000  0.38450000  0.87140000  1.0 -0.1413862631
C  C266  1  0.92600000  0.61550000  0.37140000  1.0 -0.1413862631
C  C267  1  0.07400000  0.11550000  0.62860000  1.0 -0.1413862631
C  C268  1  0.42600000  0.88450000  0.12860000  1.0 -0.1413862631
C  C269  1  0.42600000  0.61550000  0.12860000  1.0 -0.1413862631
C  C270  1  0.07400000  0.38450000  0.62860000  1.0 -0.1413862631
C  C271  1  0.92600000  0.88450000  0.37140000  1.0 -0.1413862631
C  C272  1  0.57400000  0.11550000  0.87140000  1.0 -0.1413862631
C  C273  1  0.59500000  0.43380000  0.88680000  1.0 -0.0106102037
C  C274  1  0.90500000  0.56620000  0.38680000  1.0 -0.0106102037
C  C275  1  0.09500000  0.06620000  0.61320000  1.0 -0.0106102037
C  C276  1  0.40500000  0.93380000  0.11320000  1.0 -0.0106102037
C  C277  1  0.40500000  0.56620000  0.11320000  1.0 -0.0106102037
C  C278  1  0.09500000  0.43380000  0.61320000  1.0 -0.0106102037
C  C279  1  0.90500000  0.93380000  0.38680000  1.0 -0.0106102037
C  C280  1  0.59500000  0.06620000  0.88680000  1.0 -0.0106102037
C  C281  1  0.67490000  0.43930000  0.82010000  1.0 0.0684372738
C  C282  1  0.82510000  0.56070000  0.32010000  1.0 0.0684372738
C  C283  1  0.17490000  0.06070000  0.67990000  1.0 0.0684372738
C  C284  1  0.32510000  0.93930000  0.17990000  1.0 0.0684372738
C  C285  1  0.32510000  0.56070000  0.17990000  1.0 0.0684372738
C  C286  1  0.17490000  0.43930000  0.67990000  1.0 0.0684372738
C  C287  1  0.82510000  0.93930000  0.32010000  1.0 0.0684372738
C  C288  1  0.67490000  0.06070000  0.82010000  1.0 0.0684372738
C  C289  1  0.64470000  0.46090000  0.85850000  1.0 -0.1485763833
C  C290  1  0.85530000  0.53910000  0.35850000  1.0 -0.1485763833
C  C291  1  0.14470000  0.03910000  0.64150000  1.0 -0.1485763833
C  C292  1  0.35530000  0.96090000  0.14150000  1.0 -0.1485763833
C  C293  1  0.35530000  0.53910000  0.14150000  1.0 -0.1485763833
C  C294  1  0.14470000  0.46090000  0.64150000  1.0 -0.1485763833
C  C295  1  0.85530000  0.96090000  0.35850000  1.0 -0.1485763833
C  C296  1  0.64470000  0.03910000  0.85850000  1.0 -0.1485763833
C  C297  1  0.65800000  0.39470000  0.80430000  1.0 -0.1413862631
C  C298  1  0.84200000  0.60530000  0.30430000  1.0 -0.1413862631
C  C299  1  0.15800000  0.10530000  0.69570000  1.0 -0.1413862631
C  C300  1  0.34200000  0.89470000  0.19570000  1.0 -0.1413862631
C  C301  1  0.34200000  0.60530000  0.19570000  1.0 -0.1413862631
C  C302  1  0.15800000  0.39470000  0.69570000  1.0 -0.1413862631
C  C303  1  0.84200000  0.89470000  0.30430000  1.0 -0.1413862631
C  C304  1  0.65800000  0.10530000  0.80430000  1.0 -0.1413862631
O  O1  1  0.59850000  0.30350000  0.77050000  1.0 -0.5690698668
O  O2  1  0.90150000  0.69650000  0.27050000  1.0 -0.5690698668
O  O3  1  0.09850000  0.19650000  0.72950000  1.0 -0.5690698668
O  O4  1  0.40150000  0.80350000  0.22950000  1.0 -0.5690698668
O  O5  1  0.40150000  0.69650000  0.22950000  1.0 -0.5690698668
O  O6  1  0.09850000  0.30350000  0.72950000  1.0 -0.5690698668
O  O7  1  0.90150000  0.80350000  0.27050000  1.0 -0.5690698668
O  O8  1  0.59850000  0.19650000  0.77050000  1.0 -0.5690698668
O  O9  1  0.52440000  0.30190000  0.83560000  1.0 -0.4574553862
O  O10  1  0.97560000  0.69810000  0.33560000  1.0 -0.4574553862
O  O11  1  0.02440000  0.19810000  0.66440000  1.0 -0.4574553862
O  O12  1  0.47560000  0.80190000  0.16440000  1.0 -0.4574553862
O  O13  1  0.47560000  0.69810000  0.16440000  1.0 -0.4574553862
O  O14  1  0.02440000  0.30190000  0.66440000  1.0 -0.4574553862
O  O15  1  0.97560000  0.80190000  0.33560000  1.0 -0.4574553862
O  O16  1  0.52440000  0.19810000  0.83560000  1.0 -0.4574553862
O  O17  1  0.99280000  0.30080000  0.79320000  1.0 -0.4745880633
O  O18  1  0.50720000  0.69920000  0.29320000  1.0 -0.4745880633
O  O19  1  0.49280000  0.19920000  0.70680000  1.0 -0.4745880633
O  O20  1  0.00720000  0.80080000  0.20680000  1.0 -0.4752690464
O  O21  1  0.00720000  0.69920000  0.20680000  1.0 -0.4752690464
O  O22  1  0.49280000  0.30080000  0.70680000  1.0 -0.4745880633
O  O23  1  0.50720000  0.80080000  0.29320000  1.0 -0.4745880633
O  O24  1  0.99280000  0.19920000  0.79320000  1.0 -0.4745880633
O  O25  1  0.91850000  0.30260000  0.73040000  1.0 -0.5403327912
O  O26  1  0.58150000  0.69740000  0.23040000  1.0 -0.5403327912
O  O27  1  0.41850000  0.19740000  0.76960000  1.0 -0.5403327912
O  O28  1  0.08150000  0.80260000  0.26960000  1.0 -0.5403327912
O  O29  1  0.08150000  0.69740000  0.26960000  1.0 -0.5403327912
O  O30  1  0.41850000  0.30260000  0.76960000  1.0 -0.5403327912
O  O31  1  0.58150000  0.80260000  0.23040000  1.0 -0.5403327912
O  O32  1  0.91850000  0.19740000  0.73040000  1.0 -0.5403327912
O  O33  1  0.97310000  0.69920000  0.66760000  1.0 -0.5461055606
O  O34  1  0.52690000  0.30080000  0.16760000  1.0 -0.5461055606
O  O35  1  0.47310000  0.80080000  0.83240000  1.0 -0.5461055606
O  O36  1  0.02690000  0.19920000  0.33240000  1.0 -0.5461055606
O  O37  1  0.02690000  0.30080000  0.33240000  1.0 -0.5461055606
O  O38  1  0.47310000  0.69920000  0.83240000  1.0 -0.5461055606
O  O39  1  0.52690000  0.19920000  0.16760000  1.0 -0.5461055606
O  O40  1  0.97310000  0.80080000  0.66760000  1.0 -0.5461055606
O  O41  1  0.89860000  0.69780000  0.73060000  1.0 -0.4487889081
O  O42  1  0.60140000  0.30220000  0.23060000  1.0 -0.4487889081
O  O43  1  0.39860000  0.80220000  0.76940000  1.0 -0.4487889081
O  O44  1  0.10140000  0.19780000  0.26940000  1.0 -0.4487889081
O  O45  1  0.10140000  0.30220000  0.26940000  1.0 -0.4487889081
O  O46  1  0.39860000  0.69780000  0.76940000  1.0 -0.4487889081
O  O47  1  0.60140000  0.19780000  0.23060000  1.0 -0.4487889081
O  O48  1  0.89860000  0.80220000  0.73060000  1.0 -0.4487889081
O  O49  1  0.57700000  0.69980000  0.77050000  1.0 -0.4920596897
O  O50  1  0.92300000  0.30020000  0.27050000  1.0 -0.4920596897
O  O51  1  0.07700000  0.80020000  0.72950000  1.0 -0.4920596897
O  O52  1  0.42300000  0.19980000  0.22950000  1.0 -0.4920596897
O  O53  1  0.42300000  0.30020000  0.22950000  1.0 -0.4920596897
O  O54  1  0.07700000  0.69980000  0.72950000  1.0 -0.4920596897
O  O55  1  0.92300000  0.19980000  0.27050000  1.0 -0.4920596897
O  O56  1  0.57700000  0.80020000  0.77050000  1.0 -0.4920596897
O  O57  1  0.50760000  0.70130000  0.70630000  1.0 -0.524229151
O  O58  1  0.99240000  0.29870000  0.20630000  1.0 -0.524229151
O  O59  1  0.00760000  0.79870000  0.79370000  1.0 -0.524229151
O  O60  1  0.49240000  0.20130000  0.29370000  1.0 -0.524229151
O  O61  1  0.49240000  0.29870000  0.29370000  1.0 -0.524229151
O  O62  1  0.00760000  0.70130000  0.79370000  1.0 -0.524229151
O  O63  1  0.99240000  0.20130000  0.20630000  1.0 -0.524229151
O  O64  1  0.50760000  0.79870000  0.70630000  1.0 -0.524229151
O  O65  1  0.98400000  0.56580000  0.55060000  1.0 -0.4752690464
O  O66  1  0.51600000  0.43420000  0.05060000  1.0 -0.4752690464
O  O67  1  0.48400000  0.93420000  0.94940000  1.0 -0.4752690464
O  O68  1  0.01600000  0.06580000  0.44940000  1.0 -0.4752690464
O  O69  1  0.01600000  0.43420000  0.44940000  1.0 -0.4752690464
O  O70  1  0.48400000  0.56580000  0.94940000  1.0 -0.4752690464
O  O71  1  0.51600000  0.06580000  0.05060000  1.0 -0.4752690464
O  O72  1  0.98400000  0.93420000  0.55060000  1.0 -0.4752690464
O  O73  1  0.51260000  0.43720000  0.94890000  1.0 -0.5403327912
O  O74  1  0.98740000  0.56280000  0.44890000  1.0 -0.5403327912
O  O75  1  0.01260000  0.06280000  0.55110000  1.0 -0.5403327912
O  O76  1  0.48740000  0.93720000  0.05110000  1.0 -0.5403327912
O  O77  1  0.48740000  0.56280000  0.05110000  1.0 -0.5403327912
O  O78  1  0.01260000  0.43720000  0.55110000  1.0 -0.5403327912
O  O79  1  0.98740000  0.93720000  0.44890000  1.0 -0.5403327912
O  O80  1  0.51260000  0.06280000  0.94890000  1.0 -0.5403327912
O  O81  1  0.58720000  0.49690000  0.94820000  1.0 -0.5311676532
O  O82  1  0.91280000  0.50310000  0.44820000  1.0 -0.5311676532
O  O83  1  0.08720000  0.00310000  0.55180000  1.0 -0.5311676532
O  O84  1  0.41280000  0.99690000  0.05180000  1.0 -0.5311676532
O  O85  1  0.41280000  0.50310000  0.05180000  1.0 -0.5311676532
O  O86  1  0.08720000  0.49690000  0.55180000  1.0 -0.5311676532
O  O87  1  0.91280000  0.99690000  0.44820000  1.0 -0.5311676532
O  O88  1  0.58720000  0.00310000  0.94820000  1.0 -0.5311676532
O  O89  1  0.66590000  0.57190000  0.54620000  1.0 -0.4380679584
O  O90  1  0.83410000  0.42810000  0.04620000  1.0 -0.4380679584
O  O91  1  0.16590000  0.92810000  0.95380000  1.0 -0.4380679584
O  O92  1  0.33410000  0.07190000  0.45380000  1.0 -0.4380679584
O  O93  1  0.33410000  0.42810000  0.45380000  1.0 -0.4380679584
O  O94  1  0.16590000  0.57190000  0.95380000  1.0 -0.4380679584
O  O95  1  0.83410000  0.07190000  0.04620000  1.0 -0.4380679584
O  O96  1  0.66590000  0.92810000  0.54620000  1.0 -0.4380679584
O  O97  1  0.60250000  0.64570000  0.54710000  1.0 -0.5115433305
O  O98  1  0.89750000  0.35430000  0.04710000  1.0 -0.5115433305
O  O99  1  0.10250000  0.85430000  0.95290000  1.0 -0.5115433305
O  O100  1  0.39750000  0.14570000  0.45290000  1.0 -0.5115433305
O  O101  1  0.39750000  0.35430000  0.45290000  1.0 -0.5115433305
O  O102  1  0.10250000  0.64570000  0.95290000  1.0 -0.5115433305
O  O103  1  0.89750000  0.14570000  0.04710000  1.0 -0.5115433305
O  O104  1  0.60250000  0.85430000  0.54710000  1.0 -0.5115433305
O  O105  1  0.81560000  0.40950000  0.95440000  1.0 -0.581223075
O  O106  1  0.68440000  0.59050000  0.45440000  1.0 -0.581223075
O  O107  1  0.31560000  0.09050000  0.54560000  1.0 -0.581223075
O  O108  1  0.18440000  0.90950000  0.04560000  1.0 -0.581223075
O  O109  1  0.18440000  0.59050000  0.04560000  1.0 -0.581223075
O  O110  1  0.31560000  0.40950000  0.54560000  1.0 -0.581223075
O  O111  1  0.68440000  0.90950000  0.45440000  1.0 -0.581223075
O  O112  1  0.81560000  0.09050000  0.95440000  1.0 -0.581223075
O  O113  1  0.92290000  0.37680000  0.95160000  1.0 -0.4258656819
O  O114  1  0.57710000  0.62320000  0.45160000  1.0 -0.4258656819
O  O115  1  0.42290000  0.12320000  0.54840000  1.0 -0.4258656819
O  O116  1  0.07710000  0.87680000  0.04840000  1.0 -0.4243175059
O  O117  1  0.07710000  0.62320000  0.04840000  1.0 -0.4243175059
O  O118  1  0.42290000  0.37680000  0.54840000  1.0 -0.4258656819
O  O119  1  0.57710000  0.87680000  0.45160000  1.0 -0.4258656819
O  O120  1  0.92290000  0.12320000  0.95160000  1.0 -0.4258656819
O  O121  1  0.91410000  0.50420000  0.55250000  1.0 -0.3907131448
O  O122  1  0.58590000  0.49580000  0.05250000  1.0 -0.3907131448
O  O123  1  0.41410000  0.99580000  0.94750000  1.0 -0.3907131448
O  O124  1  0.08590000  0.00420000  0.44750000  1.0 -0.3907131448
O  O125  1  0.08590000  0.49580000  0.44750000  1.0 -0.3907131448
O  O126  1  0.41410000  0.50420000  0.94750000  1.0 -0.3907131448
O  O127  1  0.58590000  0.00420000  0.05250000  1.0 -0.3907131448
O  O128  1  0.91410000  0.99580000  0.55250000  1.0 -0.3907131448
