# DDEC6 charges by PACMAN v1.1 (https://github.com/mtap-research/PACMAN-charge/)
data_HAPBIM_ASR_pacman
_symmetry_space_group_name_H-M   'P 1'
_cell_length_a   26.67280000
_cell_length_b   26.67280000
_cell_length_c   26.67280000
_cell_angle_alpha   60.14930000
_cell_angle_beta   60.14930000
_cell_angle_gamma   60.14930000
_symmetry_Int_Tables_number   1
_chemical_formula_structural   Ti9Cu4P3H30C57I4N4O27
_chemical_formula_sum   'Ti36 Cu16 P12 H120 C228 I16 N16 O108'
_cell_volume   13463.47129608
_cell_formula_units_Z   4
loop_
 _symmetry_equiv_pos_site_id
 _symmetry_equiv_pos_as_xyz
  1  'x, y, z'
loop_
 _atom_site_type_symbol
 _atom_site_label
 _atom_site_symmetry_multiplicity
 _atom_site_fract_x
 _atom_site_fract_y
 _atom_site_fract_z
 _atom_site_occupancy
 _atom_site_charge
Ti  Ti1  1  0.92871000  0.33079000  0.63151000  1.0 1.9722035648
Ti  Ti2  1  0.33079000  0.63151000  0.92871000  1.0 1.9722035648
Ti  Ti3  1  0.63151000  0.92871000  0.33079000  1.0 1.9722035648
Ti  Ti4  1  0.16921000  0.57129000  0.86849000  1.0 1.9722035648
Ti  Ti5  1  0.86849000  0.16921000  0.57129000  1.0 1.9722035648
Ti  Ti6  1  0.57129000  0.86849000  0.16921000  1.0 1.9758193733
Ti  Ti7  1  0.94421000  0.33080000  0.50680000  1.0 2.121145034
Ti  Ti8  1  0.33080000  0.50680000  0.94421000  1.0 2.121145034
Ti  Ti9  1  0.50680000  0.94421000  0.33080000  1.0 2.1279091598
Ti  Ti10  1  0.16920000  0.55579000  0.99320000  1.0 2.121145034
Ti  Ti11  1  0.99320000  0.16920000  0.55579000  1.0 2.1279091598
Ti  Ti12  1  0.55579000  0.99320000  0.16920000  1.0 2.1279091598
Ti  Ti13  1  0.80794000  0.32427000  0.64939000  1.0 2.0598679623
Ti  Ti14  1  0.32427000  0.64939000  0.80794000  1.0 2.0598679623
Ti  Ti15  1  0.64939000  0.80794000  0.32427000  1.0 2.0598679623
Ti  Ti16  1  0.17573000  0.69206000  0.85061000  1.0 2.0598679623
Ti  Ti17  1  0.85061000  0.17573000  0.69206000  1.0 2.0598679623
Ti  Ti18  1  0.69206000  0.85061000  0.17573000  1.0 2.0598679623
Ti  Ti19  1  0.07129000  0.66921000  0.36849000  1.0 1.9722035648
Ti  Ti20  1  0.66921000  0.36849000  0.07129000  1.0 1.9722035648
Ti  Ti21  1  0.36849000  0.07129000  0.66921000  1.0 1.9722035648
Ti  Ti22  1  0.83079000  0.42871000  0.13151000  1.0 1.9758193733
Ti  Ti23  1  0.13151000  0.83079000  0.42871000  1.0 1.9722035648
Ti  Ti24  1  0.42871000  0.13151000  0.83079000  1.0 1.9722035648
Ti  Ti25  1  0.05579000  0.66920000  0.49320000  1.0 2.1279091598
Ti  Ti26  1  0.66920000  0.49320000  0.05579000  1.0 2.121145034
Ti  Ti27  1  0.49320000  0.05579000  0.66920000  1.0 2.121145034
Ti  Ti28  1  0.83080000  0.44421000  0.00680000  1.0 2.1279091598
Ti  Ti29  1  0.00680000  0.83080000  0.44421000  1.0 2.121145034
Ti  Ti30  1  0.44421000  0.00680000  0.83080000  1.0 2.121145034
Ti  Ti31  1  0.19206000  0.67573000  0.35061000  1.0 2.0598679623
Ti  Ti32  1  0.67573000  0.35061000  0.19206000  1.0 2.0598679623
Ti  Ti33  1  0.35061000  0.19206000  0.67573000  1.0 2.0598679623
Ti  Ti34  1  0.82427000  0.30794000  0.14939000  1.0 2.0598679623
Ti  Ti35  1  0.14939000  0.82427000  0.30794000  1.0 2.0598679623
Ti  Ti36  1  0.30794000  0.14939000  0.82427000  1.0 2.0598679623
Cu  Cu1  1  0.73026000  0.64521000  0.61994000  1.0 0.1461579841
Cu  Cu2  1  0.64521000  0.61994000  0.73026000  1.0 0.1444391053
Cu  Cu3  1  0.61994000  0.73026000  0.64521000  1.0 0.1444391053
Cu  Cu4  1  0.85479000  0.76974000  0.88006000  1.0 0.1461579841
Cu  Cu5  1  0.88006000  0.85479000  0.76974000  1.0 0.1461579841
Cu  Cu6  1  0.76974000  0.88006000  0.85479000  1.0 0.1461579841
Cu  Cu7  1  0.69811000  0.69811000  0.69811000  1.0 0.1272394887
Cu  Cu8  1  0.80189000  0.80189000  0.80189000  1.0 0.1272394887
Cu  Cu9  1  0.26974000  0.35479000  0.38006000  1.0 0.1461579841
Cu  Cu10  1  0.35479000  0.38006000  0.26974000  1.0 0.1444391053
Cu  Cu11  1  0.38006000  0.26974000  0.35479000  1.0 0.1444391053
Cu  Cu12  1  0.14521000  0.23026000  0.11994000  1.0 0.1444391053
Cu  Cu13  1  0.11994000  0.14521000  0.23026000  1.0 0.1444391053
Cu  Cu14  1  0.23026000  0.11994000  0.14521000  1.0 0.1461579841
Cu  Cu15  1  0.30189000  0.30189000  0.30189000  1.0 0.1217172237
Cu  Cu16  1  0.19811000  0.19811000  0.19811000  1.0 0.1272394887
P  P1  1  0.82079000  0.32074000  0.52337000  1.0 1.3955907664
P  P2  1  0.32074000  0.52337000  0.82079000  1.0 1.3937711161
P  P3  1  0.52337000  0.82079000  0.32074000  1.0 1.3955907664
P  P4  1  0.17926000  0.67921000  0.97663000  1.0 1.3937711161
P  P5  1  0.97663000  0.17926000  0.67921000  1.0 1.3955907664
P  P6  1  0.67921000  0.97663000  0.17926000  1.0 1.3955907664
P  P7  1  0.17921000  0.67926000  0.47663000  1.0 1.3955907664
P  P8  1  0.67926000  0.47663000  0.17921000  1.0 1.3937711161
P  P9  1  0.47663000  0.17921000  0.67926000  1.0 1.3955907664
P  P10  1  0.82074000  0.32079000  0.02337000  1.0 1.3955907664
P  P11  1  0.02337000  0.82074000  0.32079000  1.0 1.3955907664
P  P12  1  0.32079000  0.02337000  0.82074000  1.0 1.3955907664
H  H1  1  0.81900000  0.52160000  0.60600000  1.0 0.1079901228
H  H2  1  0.52160000  0.60600000  0.81900000  1.0 0.1079901228
H  H3  1  0.60600000  0.81900000  0.52160000  1.0 0.1079901228
H  H4  1  0.97840000  0.68100000  0.89400000  1.0 0.1079901228
H  H5  1  0.89400000  0.97840000  0.68100000  1.0 0.1079901228
H  H6  1  0.68100000  0.89400000  0.97840000  1.0 0.1079901228
H  H7  1  0.77740000  0.68460000  0.48520000  1.0 0.0949804799
H  H8  1  0.68460000  0.48520000  0.77740000  1.0 0.0949804799
H  H9  1  0.48520000  0.77740000  0.68460000  1.0 0.0949804799
H  H10  1  0.81540000  0.72260000  0.01480000  1.0 0.0949804799
H  H11  1  0.01480000  0.81540000  0.72260000  1.0 0.1016123622
H  H12  1  0.72260000  0.01480000  0.81540000  1.0 0.1016123622
H  H13  1  0.64900000  0.78110000  0.76940000  1.0 0.1079901228
H  H14  1  0.78110000  0.76940000  0.64900000  1.0 0.1079901228
H  H15  1  0.76940000  0.64900000  0.78110000  1.0 0.1079901228
H  H16  1  0.71890000  0.85100000  0.73060000  1.0 0.1079901228
H  H17  1  0.73060000  0.71890000  0.85100000  1.0 0.1079901228
H  H18  1  0.85100000  0.73060000  0.71890000  1.0 0.1079901228
H  H19  1  0.82720000  0.64410000  0.40750000  1.0 0.1217172237
H  H20  1  0.64410000  0.40750000  0.82720000  1.0 0.1217172237
H  H21  1  0.40750000  0.82720000  0.64410000  1.0 0.1217172237
H  H22  1  0.85590000  0.67280000  0.09250000  1.0 0.1217172237
H  H23  1  0.09250000  0.85590000  0.67280000  1.0 0.1217172237
H  H24  1  0.67280000  0.09250000  0.85590000  1.0 0.1217172237
H  H25  1  0.87550000  0.53700000  0.43030000  1.0 0.1079901228
H  H26  1  0.53700000  0.43030000  0.87550000  1.0 0.1079901228
H  H27  1  0.43030000  0.87550000  0.53700000  1.0 0.1079901228
H  H28  1  0.96300000  0.62450000  0.06970000  1.0 0.1079901228
H  H29  1  0.06970000  0.96300000  0.62450000  1.0 0.1079901228
H  H30  1  0.62450000  0.06970000  0.96300000  1.0 0.1079901228
H  H31  1  0.75030000  0.30820000  0.48400000  1.0 0.1272394887
H  H32  1  0.30820000  0.48400000  0.75030000  1.0 0.1272394887
H  H33  1  0.48400000  0.75030000  0.30820000  1.0 0.1272394887
H  H34  1  0.19180000  0.74970000  0.01600000  1.0 0.1272394887
H  H35  1  0.01600000  0.19180000  0.74970000  1.0 0.1272394887
H  H36  1  0.74970000  0.01600000  0.19180000  1.0 0.1272394887
H  H37  1  0.80170000  0.44130000  0.44200000  1.0 0.1217172237
H  H38  1  0.44130000  0.44200000  0.80170000  1.0 0.1217172237
H  H39  1  0.44200000  0.80170000  0.44130000  1.0 0.1217172237
H  H40  1  0.05870000  0.69830000  0.05800000  1.0 0.1217172237
H  H41  1  0.05800000  0.05870000  0.69830000  1.0 0.1217172237
H  H42  1  0.69830000  0.05800000  0.05870000  1.0 0.1217172237
H  H43  1  0.67660000  0.37560000  0.43540000  1.0 0.1016123622
H  H44  1  0.37560000  0.43540000  0.67660000  1.0 0.1016123622
H  H45  1  0.43540000  0.67660000  0.37560000  1.0 0.1016123622
H  H46  1  0.12440000  0.82340000  0.06460000  1.0 0.1016123622
H  H47  1  0.06460000  0.12440000  0.82340000  1.0 0.1016123622
H  H48  1  0.82340000  0.06460000  0.12440000  1.0 0.1016123622
H  H49  1  0.75640000  0.49100000  0.36950000  1.0 0.1016123622
H  H50  1  0.49100000  0.36950000  0.75640000  1.0 0.1016123622
H  H51  1  0.36950000  0.75640000  0.49100000  1.0 0.1016123622
H  H52  1  0.00900000  0.74360000  0.13050000  1.0 0.1016123622
H  H53  1  0.13050000  0.00900000  0.74360000  1.0 0.1016123622
H  H54  1  0.74360000  0.13050000  0.00900000  1.0 0.1016123622
H  H55  1  0.68160000  0.46440000  0.37430000  1.0 0.1016123622
H  H56  1  0.46440000  0.37430000  0.68160000  1.0 0.1016123622
H  H57  1  0.37430000  0.68160000  0.46440000  1.0 0.1016123622
H  H58  1  0.03560000  0.81840000  0.12570000  1.0 0.1016123622
H  H59  1  0.12570000  0.03560000  0.81840000  1.0 0.1016123622
H  H60  1  0.81840000  0.12570000  0.03560000  1.0 0.1016123622
H  H61  1  0.18100000  0.47840000  0.39400000  1.0 0.1079901228
H  H62  1  0.47840000  0.39400000  0.18100000  1.0 0.1079901228
H  H63  1  0.39400000  0.18100000  0.47840000  1.0 0.1079901228
H  H64  1  0.02160000  0.31900000  0.10600000  1.0 0.1079901228
H  H65  1  0.10600000  0.02160000  0.31900000  1.0 0.1079901228
H  H66  1  0.31900000  0.10600000  0.02160000  1.0 0.1079901228
H  H67  1  0.22260000  0.31540000  0.51480000  1.0 0.0949804799
H  H68  1  0.31540000  0.51480000  0.22260000  1.0 0.0949804799
H  H69  1  0.51480000  0.22260000  0.31540000  1.0 0.0949804799
H  H70  1  0.18460000  0.27740000  0.98520000  1.0 0.1016123622
H  H71  1  0.98520000  0.18460000  0.27740000  1.0 0.0949804799
H  H72  1  0.27740000  0.98520000  0.18460000  1.0 0.0949804799
H  H73  1  0.35100000  0.21890000  0.23060000  1.0 0.1079901228
H  H74  1  0.21890000  0.23060000  0.35100000  1.0 0.1079901228
H  H75  1  0.23060000  0.35100000  0.21890000  1.0 0.1079901228
H  H76  1  0.28110000  0.14900000  0.26940000  1.0 0.1079901228
H  H77  1  0.26940000  0.28110000  0.14900000  1.0 0.1079901228
H  H78  1  0.14900000  0.26940000  0.28110000  1.0 0.1079901228
H  H79  1  0.17280000  0.35590000  0.59250000  1.0 0.1217172237
H  H80  1  0.35590000  0.59250000  0.17280000  1.0 0.1217172237
H  H81  1  0.59250000  0.17280000  0.35590000  1.0 0.1217172237
H  H82  1  0.14410000  0.32720000  0.90750000  1.0 0.1217172237
H  H83  1  0.90750000  0.14410000  0.32720000  1.0 0.1217172237
H  H84  1  0.32720000  0.90750000  0.14410000  1.0 0.1217172237
H  H85  1  0.12450000  0.46300000  0.56970000  1.0 0.1079901228
H  H86  1  0.46300000  0.56970000  0.12450000  1.0 0.1079901228
H  H87  1  0.56970000  0.12450000  0.46300000  1.0 0.1079901228
H  H88  1  0.03700000  0.37550000  0.93030000  1.0 0.1079901228
H  H89  1  0.93030000  0.03700000  0.37550000  1.0 0.1079901228
H  H90  1  0.37550000  0.93030000  0.03700000  1.0 0.1079901228
H  H91  1  0.24970000  0.69180000  0.51600000  1.0 0.1272394887
H  H92  1  0.69180000  0.51600000  0.24970000  1.0 0.1272394887
H  H93  1  0.51600000  0.24970000  0.69180000  1.0 0.1272394887
H  H94  1  0.80820000  0.25030000  0.98400000  1.0 0.1272394887
H  H95  1  0.98400000  0.80820000  0.25030000  1.0 0.1272394887
H  H96  1  0.25030000  0.98400000  0.80820000  1.0 0.1272394887
H  H97  1  0.19830000  0.55870000  0.55800000  1.0 0.1217172237
H  H98  1  0.55870000  0.55800000  0.19830000  1.0 0.1217172237
H  H99  1  0.55800000  0.19830000  0.55870000  1.0 0.1217172237
H  H100  1  0.94130000  0.30170000  0.94200000  1.0 0.1217172237
H  H101  1  0.94200000  0.94130000  0.30170000  1.0 0.1217172237
H  H102  1  0.30170000  0.94200000  0.94130000  1.0 0.1217172237
H  H103  1  0.32340000  0.62440000  0.56460000  1.0 0.1016123622
H  H104  1  0.62440000  0.56460000  0.32340000  1.0 0.1016123622
H  H105  1  0.56460000  0.32340000  0.62440000  1.0 0.1016123622
H  H106  1  0.87560000  0.17660000  0.93540000  1.0 0.1016123622
H  H107  1  0.93540000  0.87560000  0.17660000  1.0 0.1016123622
H  H108  1  0.17660000  0.93540000  0.87560000  1.0 0.1016123622
H  H109  1  0.24360000  0.50900000  0.63050000  1.0 0.1016123622
H  H110  1  0.50900000  0.63050000  0.24360000  1.0 0.1016123622
H  H111  1  0.63050000  0.24360000  0.50900000  1.0 0.1016123622
H  H112  1  0.99100000  0.25640000  0.86950000  1.0 0.1016123622
H  H113  1  0.86950000  0.99100000  0.25640000  1.0 0.1016123622
H  H114  1  0.25640000  0.86950000  0.99100000  1.0 0.1016123622
H  H115  1  0.31840000  0.53560000  0.62570000  1.0 0.1016123622
H  H116  1  0.53560000  0.62570000  0.31840000  1.0 0.1016123622
H  H117  1  0.62570000  0.31840000  0.53560000  1.0 0.1016123622
H  H118  1  0.96440000  0.18160000  0.87430000  1.0 0.1016123622
H  H119  1  0.87430000  0.96440000  0.18160000  1.0 0.1016123622
H  H120  1  0.18160000  0.87430000  0.96440000  1.0 0.1016123622
C  C1  1  0.82050000  0.54680000  0.56490000  1.0 0.0459122417
C  C2  1  0.54680000  0.56490000  0.82050000  1.0 0.0459122417
C  C3  1  0.56490000  0.82050000  0.54680000  1.0 0.0459122417
C  C4  1  0.95320000  0.67950000  0.93510000  1.0 0.0459122417
C  C5  1  0.93510000  0.95320000  0.67950000  1.0 0.0459122417
C  C6  1  0.67950000  0.93510000  0.95320000  1.0 0.0444189848
C  C7  1  0.79609000  0.64149000  0.49489000  1.0 0.0788306126
C  C8  1  0.64149000  0.49489000  0.79609000  1.0 0.0788306126
C  C9  1  0.49489000  0.79609000  0.64149000  1.0 0.0788306126
C  C10  1  0.85851000  0.70391000  0.00511000  1.0 0.0788306126
C  C11  1  0.00511000  0.85851000  0.70391000  1.0 0.0788306126
C  C12  1  0.70391000  0.00511000  0.85851000  1.0 0.0788306126
C  C13  1  0.68682000  0.78752000  0.73932000  1.0 -0.0112525921
C  C14  1  0.78752000  0.73932000  0.68682000  1.0 -0.0112525921
C  C15  1  0.73932000  0.68682000  0.78752000  1.0 -0.0112525921
C  C16  1  0.71248000  0.81318000  0.76068000  1.0 -0.0112525921
C  C17  1  0.76068000  0.71248000  0.81318000  1.0 -0.0112525921
C  C18  1  0.81318000  0.76068000  0.71248000  1.0 -0.0112525921
C  C19  1  0.85112000  0.52022000  0.52132000  1.0 -0.0934296457
C  C20  1  0.52022000  0.52132000  0.85112000  1.0 -0.0934296457
C  C21  1  0.52132000  0.85112000  0.52022000  1.0 -0.0934296457
C  C22  1  0.97978000  0.64888000  0.97868000  1.0 -0.0934296457
C  C23  1  0.97868000  0.97978000  0.64888000  1.0 -0.0934296457
C  C24  1  0.64888000  0.97868000  0.97978000  1.0 -0.0934296457
C  C25  1  0.82596000  0.61786000  0.44836000  1.0 -0.1558718193
C  C26  1  0.61786000  0.44836000  0.82596000  1.0 -0.1558718193
C  C27  1  0.44836000  0.82596000  0.61786000  1.0 -0.1558718193
C  C28  1  0.88214000  0.67404000  0.05164000  1.0 -0.1558718193
C  C29  1  0.05164000  0.88214000  0.67404000  1.0 -0.1558718193
C  C30  1  0.67404000  0.05164000  0.88214000  1.0 -0.1558718193
C  C31  1  0.85452000  0.55512000  0.46142000  1.0 -0.0607395954
C  C32  1  0.55512000  0.46142000  0.85452000  1.0 -0.0607395954
C  C33  1  0.46142000  0.85452000  0.55512000  1.0 -0.0607395954
C  C34  1  0.94488000  0.64548000  0.03858000  1.0 -0.0607395954
C  C35  1  0.03858000  0.94488000  0.64548000  1.0 -0.0607395954
C  C36  1  0.64548000  0.03858000  0.94488000  1.0 -0.0607395954
C  C37  1  0.88119000  0.45139000  0.53809000  1.0 0.6515971314
C  C38  1  0.45139000  0.53809000  0.88119000  1.0 0.6515971314
C  C39  1  0.53809000  0.88119000  0.45139000  1.0 0.6515971314
C  C40  1  0.04861000  0.61881000  0.96191000  1.0 0.6515971314
C  C41  1  0.96191000  0.04861000  0.61881000  1.0 0.6515971314
C  C42  1  0.61881000  0.96191000  0.04861000  1.0 0.6515971314
C  C43  1  0.05174000  0.33194000  0.52314000  1.0 0.3172893198
C  C44  1  0.33194000  0.52314000  0.05174000  1.0 0.3140770437
C  C45  1  0.52314000  0.05174000  0.33194000  1.0 0.3172893198
C  C46  1  0.16806000  0.44826000  0.97686000  1.0 0.3140770437
C  C47  1  0.97686000  0.16806000  0.44826000  1.0 0.3140770437
C  C48  1  0.44826000  0.97686000  0.16806000  1.0 0.3172893198
C  C49  1  0.82367000  0.32817000  0.75627000  1.0 0.3172893198
C  C50  1  0.32817000  0.75627000  0.82367000  1.0 0.3172893198
C  C51  1  0.75627000  0.82367000  0.32817000  1.0 0.3172893198
C  C52  1  0.17183000  0.67633000  0.74373000  1.0 0.3172893198
C  C53  1  0.74373000  0.17183000  0.67633000  1.0 0.3172893198
C  C54  1  0.67633000  0.74373000  0.17183000  1.0 0.3172893198
C  C55  1  0.09310000  0.27660000  0.54120000  1.0 -0.2413923203
C  C56  1  0.27660000  0.54120000  0.09310000  1.0 -0.2340328156
C  C57  1  0.54120000  0.09310000  0.27660000  1.0 -0.2413923203
C  C58  1  0.22340000  0.40690000  0.95880000  1.0 -0.2413923203
C  C59  1  0.95880000  0.22340000  0.40690000  1.0 -0.2413923203
C  C60  1  0.40690000  0.95880000  0.22340000  1.0 -0.2340328156
C  C61  1  0.05260000  0.39540000  0.48750000  1.0 -0.2726659585
C  C62  1  0.39540000  0.48750000  0.05260000  1.0 -0.2821101485
C  C63  1  0.48750000  0.05260000  0.39540000  1.0 -0.2821101485
C  C64  1  0.10460000  0.44740000  0.01250000  1.0 -0.2875295147
C  C65  1  0.01250000  0.10460000  0.44740000  1.0 -0.2726659585
C  C66  1  0.44740000  0.01250000  0.10460000  1.0 -0.2726659585
C  C67  1  0.83090000  0.27410000  0.80140000  1.0 -0.3270936567
C  C68  1  0.27410000  0.80140000  0.83090000  1.0 -0.3270936567
C  C69  1  0.80140000  0.83090000  0.27410000  1.0 -0.335743251
C  C70  1  0.22590000  0.66910000  0.69860000  1.0 -0.335743251
C  C71  1  0.69860000  0.22590000  0.66910000  1.0 -0.335743251
C  C72  1  0.66910000  0.69860000  0.22590000  1.0 -0.335743251
C  C73  1  0.80120000  0.39130000  0.75560000  1.0 -0.2585914257
C  C74  1  0.39130000  0.75560000  0.80120000  1.0 -0.2509294985
C  C75  1  0.75560000  0.80120000  0.39130000  1.0 -0.2509294985
C  C76  1  0.10870000  0.69880000  0.74440000  1.0 -0.2585914257
C  C77  1  0.74440000  0.10870000  0.69880000  1.0 -0.2585914257
C  C78  1  0.69880000  0.74440000  0.10870000  1.0 -0.2585914257
C  C79  1  0.77279000  0.37019000  0.47779000  1.0 -0.1482000943
C  C80  1  0.37019000  0.47779000  0.77279000  1.0 -0.1482000943
C  C81  1  0.47779000  0.77279000  0.37019000  1.0 -0.1482000943
C  C82  1  0.12981000  0.72721000  0.02221000  1.0 -0.1482000943
C  C83  1  0.02221000  0.12981000  0.72721000  1.0 -0.1482000943
C  C84  1  0.72721000  0.02221000  0.12981000  1.0 -0.1482000943
C  C85  1  0.74390000  0.35090000  0.46780000  1.0 -0.0987443255
C  C86  1  0.35090000  0.46780000  0.74390000  1.0 -0.0934296457
C  C87  1  0.46780000  0.74390000  0.35090000  1.0 -0.0934296457
C  C88  1  0.14910000  0.75610000  0.03220000  1.0 -0.0934296457
C  C89  1  0.03220000  0.14910000  0.75610000  1.0 -0.0934296457
C  C90  1  0.75610000  0.03220000  0.14910000  1.0 -0.0934296457
C  C91  1  0.77320000  0.42890000  0.44330000  1.0 -0.0987443255
C  C92  1  0.42890000  0.44330000  0.77320000  1.0 -0.0987443255
C  C93  1  0.44330000  0.77320000  0.42890000  1.0 -0.0987443255
C  C94  1  0.07110000  0.72680000  0.05670000  1.0 -0.0987443255
C  C95  1  0.05670000  0.07110000  0.72680000  1.0 -0.0987443255
C  C96  1  0.72680000  0.05670000  0.07110000  1.0 -0.0987443255
C  C97  1  0.70350000  0.39030000  0.43400000  1.0 -0.0843456372
C  C98  1  0.39030000  0.43400000  0.70350000  1.0 -0.0843456372
C  C99  1  0.43400000  0.70350000  0.39030000  1.0 -0.0843456372
C  C100  1  0.10970000  0.79650000  0.06600000  1.0 -0.0843456372
C  C101  1  0.06600000  0.10970000  0.79650000  1.0 -0.0843456372
C  C102  1  0.79650000  0.06600000  0.10970000  1.0 -0.0843456372
C  C103  1  0.73290000  0.47130000  0.41000000  1.0 -0.0987443255
C  C104  1  0.47130000  0.41000000  0.73290000  1.0 -0.0987443255
C  C105  1  0.41000000  0.73290000  0.47130000  1.0 -0.0987443255
C  C106  1  0.02870000  0.76710000  0.09000000  1.0 -0.0987443255
C  C107  1  0.09000000  0.02870000  0.76710000  1.0 -0.0987443255
C  C108  1  0.76710000  0.09000000  0.02870000  1.0 -0.0987443255
C  C109  1  0.70240000  0.44170000  0.40350000  1.0 -0.0987443255
C  C110  1  0.44170000  0.40350000  0.70240000  1.0 -0.0987443255
C  C111  1  0.40350000  0.70240000  0.44170000  1.0 -0.0987443255
C  C112  1  0.05830000  0.79760000  0.09650000  1.0 -0.0987443255
C  C113  1  0.09650000  0.05830000  0.79760000  1.0 -0.0987443255
C  C114  1  0.79760000  0.09650000  0.05830000  1.0 -0.0987443255
C  C115  1  0.17950000  0.45320000  0.43510000  1.0 0.0459122417
C  C116  1  0.45320000  0.43510000  0.17950000  1.0 0.0459122417
C  C117  1  0.43510000  0.17950000  0.45320000  1.0 0.0459122417
C  C118  1  0.04680000  0.32050000  0.06490000  1.0 0.0459122417
C  C119  1  0.06490000  0.04680000  0.32050000  1.0 0.0459122417
C  C120  1  0.32050000  0.06490000  0.04680000  1.0 0.0459122417
C  C121  1  0.20391000  0.35851000  0.50511000  1.0 0.0788306126
C  C122  1  0.35851000  0.50511000  0.20391000  1.0 0.0788306126
C  C123  1  0.50511000  0.20391000  0.35851000  1.0 0.0788306126
C  C124  1  0.14149000  0.29609000  0.99489000  1.0 0.0788306126
C  C125  1  0.99489000  0.14149000  0.29609000  1.0 0.0788306126
C  C126  1  0.29609000  0.99489000  0.14149000  1.0 0.0788306126
C  C127  1  0.31318000  0.21248000  0.26068000  1.0 -0.0112525921
C  C128  1  0.21248000  0.26068000  0.31318000  1.0 -0.0112525921
C  C129  1  0.26068000  0.31318000  0.21248000  1.0 -0.0112525921
C  C130  1  0.28752000  0.18682000  0.23932000  1.0 -0.0177361518
C  C131  1  0.23932000  0.28752000  0.18682000  1.0 -0.0177361518
C  C132  1  0.18682000  0.23932000  0.28752000  1.0 -0.0177361518
C  C133  1  0.14888000  0.47978000  0.47868000  1.0 -0.0934296457
C  C134  1  0.47978000  0.47868000  0.14888000  1.0 -0.0934296457
C  C135  1  0.47868000  0.14888000  0.47978000  1.0 -0.0934296457
C  C136  1  0.02022000  0.35112000  0.02132000  1.0 -0.0934296457
C  C137  1  0.02132000  0.02022000  0.35112000  1.0 -0.0934296457
C  C138  1  0.35112000  0.02132000  0.02022000  1.0 -0.0934296457
C  C139  1  0.17404000  0.38214000  0.55164000  1.0 -0.1558718193
C  C140  1  0.38214000  0.55164000  0.17404000  1.0 -0.1558718193
C  C141  1  0.55164000  0.17404000  0.38214000  1.0 -0.1558718193
C  C142  1  0.11786000  0.32596000  0.94836000  1.0 -0.1558718193
C  C143  1  0.94836000  0.11786000  0.32596000  1.0 -0.1558718193
C  C144  1  0.32596000  0.94836000  0.11786000  1.0 -0.1558718193
C  C145  1  0.14548000  0.44488000  0.53858000  1.0 -0.0607395954
C  C146  1  0.44488000  0.53858000  0.14548000  1.0 -0.0607395954
C  C147  1  0.53858000  0.14548000  0.44488000  1.0 -0.0607395954
C  C148  1  0.05512000  0.35452000  0.96142000  1.0 -0.0607395954
C  C149  1  0.96142000  0.05512000  0.35452000  1.0 -0.0607395954
C  C150  1  0.35452000  0.96142000  0.05512000  1.0 -0.0607395954
C  C151  1  0.11881000  0.54861000  0.46191000  1.0 0.6515971314
C  C152  1  0.54861000  0.46191000  0.11881000  1.0 0.6515971314
C  C153  1  0.46191000  0.11881000  0.54861000  1.0 0.6515971314
C  C154  1  0.95139000  0.38119000  0.03809000  1.0 0.6515971314
C  C155  1  0.03809000  0.95139000  0.38119000  1.0 0.6515971314
C  C156  1  0.38119000  0.03809000  0.95139000  1.0 0.6515971314
C  C157  1  0.94826000  0.66806000  0.47686000  1.0 0.3172893198
C  C158  1  0.66806000  0.47686000  0.94826000  1.0 0.3172893198
C  C159  1  0.47686000  0.94826000  0.66806000  1.0 0.3172893198
C  C160  1  0.83194000  0.55174000  0.02314000  1.0 0.3172893198
C  C161  1  0.02314000  0.83194000  0.55174000  1.0 0.3140770437
C  C162  1  0.55174000  0.02314000  0.83194000  1.0 0.3172893198
C  C163  1  0.17633000  0.67183000  0.24373000  1.0 0.3172893198
C  C164  1  0.67183000  0.24373000  0.17633000  1.0 0.3172893198
C  C165  1  0.24373000  0.17633000  0.67183000  1.0 0.3172893198
C  C166  1  0.82817000  0.32367000  0.25627000  1.0 0.3172893198
C  C167  1  0.25627000  0.82817000  0.32367000  1.0 0.3172893198
C  C168  1  0.32367000  0.25627000  0.82817000  1.0 0.3172893198
C  C169  1  0.90690000  0.72340000  0.45880000  1.0 -0.2413923203
C  C170  1  0.72340000  0.45880000  0.90690000  1.0 -0.2413923203
C  C171  1  0.45880000  0.90690000  0.72340000  1.0 -0.2413923203
C  C172  1  0.77660000  0.59310000  0.04120000  1.0 -0.2413923203
C  C173  1  0.04120000  0.77660000  0.59310000  1.0 -0.2413923203
C  C174  1  0.59310000  0.04120000  0.77660000  1.0 -0.2413923203
C  C175  1  0.94740000  0.60460000  0.51250000  1.0 -0.2726659585
C  C176  1  0.60460000  0.51250000  0.94740000  1.0 -0.2875295147
C  C177  1  0.51250000  0.94740000  0.60460000  1.0 -0.2875295147
C  C178  1  0.89540000  0.55260000  0.98750000  1.0 -0.2875295147
C  C179  1  0.98750000  0.89540000  0.55260000  1.0 -0.2726659585
C  C180  1  0.55260000  0.98750000  0.89540000  1.0 -0.2726659585
C  C181  1  0.16910000  0.72590000  0.19860000  1.0 -0.335743251
C  C182  1  0.72590000  0.19860000  0.16910000  1.0 -0.335743251
C  C183  1  0.19860000  0.16910000  0.72590000  1.0 -0.3270936567
C  C184  1  0.77410000  0.33090000  0.30140000  1.0 -0.335743251
C  C185  1  0.30140000  0.77410000  0.33090000  1.0 -0.335743251
C  C186  1  0.33090000  0.30140000  0.77410000  1.0 -0.335743251
C  C187  1  0.19880000  0.60870000  0.24440000  1.0 -0.2509294985
C  C188  1  0.60870000  0.24440000  0.19880000  1.0 -0.2585914257
C  C189  1  0.24440000  0.19880000  0.60870000  1.0 -0.2509294985
C  C190  1  0.89130000  0.30120000  0.25560000  1.0 -0.2585914257
C  C191  1  0.25560000  0.89130000  0.30120000  1.0 -0.2585914257
C  C192  1  0.30120000  0.25560000  0.89130000  1.0 -0.2509294985
C  C193  1  0.22721000  0.62981000  0.52221000  1.0 -0.1482000943
C  C194  1  0.62981000  0.52221000  0.22721000  1.0 -0.1482000943
C  C195  1  0.52221000  0.22721000  0.62981000  1.0 -0.1482000943
C  C196  1  0.87019000  0.27279000  0.97779000  1.0 -0.1482000943
C  C197  1  0.97779000  0.87019000  0.27279000  1.0 -0.1482000943
C  C198  1  0.27279000  0.97779000  0.87019000  1.0 -0.1482000943
C  C199  1  0.25610000  0.64910000  0.53220000  1.0 -0.0934296457
C  C200  1  0.64910000  0.53220000  0.25610000  1.0 -0.0934296457
C  C201  1  0.53220000  0.25610000  0.64910000  1.0 -0.0934296457
C  C202  1  0.85090000  0.24390000  0.96780000  1.0 -0.0934296457
C  C203  1  0.96780000  0.85090000  0.24390000  1.0 -0.0934296457
C  C204  1  0.24390000  0.96780000  0.85090000  1.0 -0.0987443255
C  C205  1  0.22680000  0.57110000  0.55670000  1.0 -0.0987443255
C  C206  1  0.57110000  0.55670000  0.22680000  1.0 -0.0987443255
C  C207  1  0.55670000  0.22680000  0.57110000  1.0 -0.0987443255
C  C208  1  0.92890000  0.27320000  0.94330000  1.0 -0.0987443255
C  C209  1  0.94330000  0.92890000  0.27320000  1.0 -0.0987443255
C  C210  1  0.27320000  0.94330000  0.92890000  1.0 -0.0987443255
C  C211  1  0.29650000  0.60970000  0.56600000  1.0 -0.0843456372
C  C212  1  0.60970000  0.56600000  0.29650000  1.0 -0.0843456372
C  C213  1  0.56600000  0.29650000  0.60970000  1.0 -0.0843456372
C  C214  1  0.89030000  0.20350000  0.93400000  1.0 -0.0843456372
C  C215  1  0.93400000  0.89030000  0.20350000  1.0 -0.0843456372
C  C216  1  0.20350000  0.93400000  0.89030000  1.0 -0.0843456372
C  C217  1  0.26710000  0.52870000  0.59000000  1.0 -0.0987443255
C  C218  1  0.52870000  0.59000000  0.26710000  1.0 -0.0987443255
C  C219  1  0.59000000  0.26710000  0.52870000  1.0 -0.0987443255
C  C220  1  0.97130000  0.23290000  0.91000000  1.0 -0.0987443255
C  C221  1  0.91000000  0.97130000  0.23290000  1.0 -0.0987443255
C  C222  1  0.23290000  0.91000000  0.97130000  1.0 -0.0987443255
C  C223  1  0.29760000  0.55830000  0.59650000  1.0 -0.0987443255
C  C224  1  0.55830000  0.59650000  0.29760000  1.0 -0.0987443255
C  C225  1  0.59650000  0.29760000  0.55830000  1.0 -0.0987443255
C  C226  1  0.94170000  0.20240000  0.90350000  1.0 -0.0987443255
C  C227  1  0.90350000  0.94170000  0.20240000  1.0 -0.0987443255
C  C228  1  0.20240000  0.90350000  0.94170000  1.0 -0.0987443255
I  I1  1  0.76439000  0.57707000  0.71831000  1.0 -0.2821101485
I  I2  1  0.57707000  0.71831000  0.76439000  1.0 -0.2821101485
I  I3  1  0.71831000  0.76439000  0.57707000  1.0 -0.2821101485
I  I4  1  0.92293000  0.73561000  0.78169000  1.0 -0.2875295147
I  I5  1  0.78169000  0.92293000  0.73561000  1.0 -0.2875295147
I  I6  1  0.73561000  0.78169000  0.92293000  1.0 -0.2875295147
I  I7  1  0.63083000  0.63083000  0.63083000  1.0 -0.2875295147
I  I8  1  0.86917000  0.86917000  0.86917000  1.0 -0.2875295147
I  I9  1  0.23561000  0.42293000  0.28169000  1.0 -0.2875295147
I  I10  1  0.42293000  0.28169000  0.23561000  1.0 -0.2875295147
I  I11  1  0.28169000  0.23561000  0.42293000  1.0 -0.2875295147
I  I12  1  0.07707000  0.26439000  0.21831000  1.0 -0.2875295147
I  I13  1  0.21831000  0.07707000  0.26439000  1.0 -0.2875295147
I  I14  1  0.26439000  0.21831000  0.07707000  1.0 -0.2875295147
I  I15  1  0.36917000  0.36917000  0.36917000  1.0 -0.2875295147
I  I16  1  0.13083000  0.13083000  0.13083000  1.0 -0.2875295147
N  N1  1  0.79204000  0.60764000  0.55214000  1.0 -0.1768312587
N  N2  1  0.60764000  0.55214000  0.79204000  1.0 -0.1768312587
N  N3  1  0.55214000  0.79204000  0.60764000  1.0 -0.1768312587
N  N4  1  0.89236000  0.70796000  0.94786000  1.0 -0.1768312587
N  N5  1  0.94786000  0.89236000  0.70796000  1.0 -0.1768312587
N  N6  1  0.70796000  0.94786000  0.89236000  1.0 -0.1768312587
N  N7  1  0.73020000  0.73020000  0.73020000  1.0 -0.0307173992
N  N8  1  0.76980000  0.76980000  0.76980000  1.0 -0.0307173992
N  N9  1  0.20796000  0.39236000  0.44786000  1.0 -0.1768312587
N  N10  1  0.39236000  0.44786000  0.20796000  1.0 -0.1768312587
N  N11  1  0.44786000  0.20796000  0.39236000  1.0 -0.1768312587
N  N12  1  0.10764000  0.29204000  0.05214000  1.0 -0.1768312587
N  N13  1  0.05214000  0.10764000  0.29204000  1.0 -0.1768312587
N  N14  1  0.29204000  0.05214000  0.10764000  1.0 -0.1768312587
N  N15  1  0.26980000  0.26980000  0.26980000  1.0 -0.0177361518
N  N16  1  0.23020000  0.23020000  0.23020000  1.0 -0.0307173992
O  O1  1  0.88685000  0.42375000  0.59115000  1.0 -0.6320837646
O  O2  1  0.42375000  0.59115000  0.88685000  1.0 -0.6320837646
O  O3  1  0.59115000  0.88685000  0.42375000  1.0 -0.6320837646
O  O4  1  0.07625000  0.61315000  0.90885000  1.0 -0.6320837646
O  O5  1  0.90885000  0.07625000  0.61315000  1.0 -0.6320837646
O  O6  1  0.61315000  0.90885000  0.07625000  1.0 -0.6320837646
O  O7  1  0.89871000  0.42693000  0.50042000  1.0 -0.5980927953
O  O8  1  0.42693000  0.50042000  0.89871000  1.0 -0.5980927953
O  O9  1  0.50042000  0.89871000  0.42693000  1.0 -0.5980927953
O  O10  1  0.07307000  0.60129000  0.99958000  1.0 -0.5980927953
O  O11  1  0.99958000  0.07307000  0.60129000  1.0 -0.5980927953
O  O12  1  0.60129000  0.99958000  0.07307000  1.0 -0.5980927953
O  O13  1  0.98878000  0.33198000  0.54958000  1.0 -0.8514164049
O  O14  1  0.33198000  0.54958000  0.98878000  1.0 -0.8514164049
O  O15  1  0.54958000  0.98878000  0.33198000  1.0 -0.8514164049
O  O16  1  0.16802000  0.51122000  0.95042000  1.0 -0.8514164049
O  O17  1  0.95042000  0.16802000  0.51122000  1.0 -0.8514164049
O  O18  1  0.51122000  0.95042000  0.16802000  1.0 -0.8514164049
O  O19  1  0.84824000  0.32784000  0.69504000  1.0 -0.8273439896
O  O20  1  0.32784000  0.69504000  0.84824000  1.0 -0.8244823375
O  O21  1  0.69504000  0.84824000  0.32784000  1.0 -0.8244823375
O  O22  1  0.17216000  0.65176000  0.80496000  1.0 -0.8273439896
O  O23  1  0.80496000  0.17216000  0.65176000  1.0 -0.8273439896
O  O24  1  0.65176000  0.80496000  0.17216000  1.0 -0.8273439896
O  O25  1  0.88684000  0.32125000  0.59421000  1.0 -1.2338020264
O  O26  1  0.32125000  0.59421000  0.88684000  1.0 -1.2401291488
O  O27  1  0.59421000  0.88684000  0.32125000  1.0 -1.2338020264
O  O28  1  0.17875000  0.61316000  0.90579000  1.0 -1.2401291488
O  O29  1  0.90579000  0.17875000  0.61316000  1.0 -1.2401291488
O  O30  1  0.61316000  0.90579000  0.17875000  1.0 -1.2401291488
O  O31  1  0.96917000  0.24397000  0.66677000  1.0 -0.7961614555
O  O32  1  0.24397000  0.66677000  0.96917000  1.0 -0.7961614555
O  O33  1  0.66677000  0.96917000  0.24397000  1.0 -0.7934800842
O  O34  1  0.25603000  0.53083000  0.83323000  1.0 -0.7961614555
O  O35  1  0.83323000  0.25603000  0.53083000  1.0 -0.7961614555
O  O36  1  0.53083000  0.83323000  0.25603000  1.0 -0.7934800842
O  O37  1  0.87808000  0.33883000  0.48780000  1.0 -0.8124226787
O  O38  1  0.33883000  0.48780000  0.87808000  1.0 -0.8124226787
O  O39  1  0.48780000  0.87808000  0.33883000  1.0 -0.8124226787
O  O40  1  0.16117000  0.62192000  0.01220000  1.0 -0.8124226787
O  O41  1  0.01220000  0.16117000  0.62192000  1.0 -0.8124226787
O  O42  1  0.62192000  0.01220000  0.16117000  1.0 -0.8124226787
O  O43  1  0.98095000  0.25000000  0.51905000  1.0 -1.038760209
O  O44  1  0.25000000  0.51905000  0.98095000  1.0 -1.038760209
O  O45  1  0.51905000  0.98095000  0.25000000  1.0 -1.0299653767
O  O46  1  0.78676000  0.33094000  0.58512000  1.0 -0.7961614555
O  O47  1  0.33094000  0.58512000  0.78676000  1.0 -0.7961614555
O  O48  1  0.58512000  0.78676000  0.33094000  1.0 -0.7934800842
O  O49  1  0.16906000  0.71324000  0.91488000  1.0 -0.7961614555
O  O50  1  0.91488000  0.16906000  0.71324000  1.0 -0.7934800842
O  O51  1  0.71324000  0.91488000  0.16906000  1.0 -0.7934800842
O  O52  1  0.79975000  0.25000000  0.70025000  1.0 -1.1084385473
O  O53  1  0.25000000  0.70025000  0.79975000  1.0 -1.1084385473
O  O54  1  0.70025000  0.79975000  0.25000000  1.0 -1.1084385473
O  O55  1  0.11315000  0.57625000  0.40885000  1.0 -0.6320837646
O  O56  1  0.57625000  0.40885000  0.11315000  1.0 -0.6320837646
O  O57  1  0.40885000  0.11315000  0.57625000  1.0 -0.6320837646
O  O58  1  0.92375000  0.38685000  0.09115000  1.0 -0.6320837646
O  O59  1  0.09115000  0.92375000  0.38685000  1.0 -0.6320837646
O  O60  1  0.38685000  0.09115000  0.92375000  1.0 -0.6320837646
O  O61  1  0.10129000  0.57307000  0.49958000  1.0 -0.5980927953
O  O62  1  0.57307000  0.49958000  0.10129000  1.0 -0.5980927953
O  O63  1  0.49958000  0.10129000  0.57307000  1.0 -0.5980927953
O  O64  1  0.92693000  0.39871000  0.00042000  1.0 -0.5980927953
O  O65  1  0.00042000  0.92693000  0.39871000  1.0 -0.5980927953
O  O66  1  0.39871000  0.00042000  0.92693000  1.0 -0.5980927953
O  O67  1  0.01122000  0.66802000  0.45042000  1.0 -0.8514164049
O  O68  1  0.66802000  0.45042000  0.01122000  1.0 -0.8514164049
O  O69  1  0.45042000  0.01122000  0.66802000  1.0 -0.8514164049
O  O70  1  0.83198000  0.48878000  0.04958000  1.0 -0.8514164049
O  O71  1  0.04958000  0.83198000  0.48878000  1.0 -0.8514164049
O  O72  1  0.48878000  0.04958000  0.83198000  1.0 -0.8514164049
O  O73  1  0.15176000  0.67216000  0.30496000  1.0 -0.8244823375
O  O74  1  0.67216000  0.30496000  0.15176000  1.0 -0.8273439896
O  O75  1  0.30496000  0.15176000  0.67216000  1.0 -0.8273439896
O  O76  1  0.82784000  0.34824000  0.19504000  1.0 -0.8273439896
O  O77  1  0.19504000  0.82784000  0.34824000  1.0 -0.8273439896
O  O78  1  0.34824000  0.19504000  0.82784000  1.0 -0.8273439896
O  O79  1  0.11316000  0.67875000  0.40579000  1.0 -1.2401291488
O  O80  1  0.67875000  0.40579000  0.11316000  1.0 -1.2401291488
O  O81  1  0.40579000  0.11316000  0.67875000  1.0 -1.2401291488
O  O82  1  0.82125000  0.38684000  0.09421000  1.0 -1.2338020264
O  O83  1  0.09421000  0.82125000  0.38684000  1.0 -1.2338020264
O  O84  1  0.38684000  0.09421000  0.82125000  1.0 -1.2401291488
O  O85  1  0.03083000  0.75603000  0.33323000  1.0 -0.7961614555
O  O86  1  0.75603000  0.33323000  0.03083000  1.0 -0.7961614555
O  O87  1  0.33323000  0.03083000  0.75603000  1.0 -0.7961614555
O  O88  1  0.74397000  0.46917000  0.16677000  1.0 -0.7961614555
O  O89  1  0.16677000  0.74397000  0.46917000  1.0 -0.7961614555
O  O90  1  0.46917000  0.16677000  0.74397000  1.0 -0.7961614555
O  O91  1  0.12192000  0.66117000  0.51220000  1.0 -0.8124226787
O  O92  1  0.66117000  0.51220000  0.12192000  1.0 -0.8124226787
O  O93  1  0.51220000  0.12192000  0.66117000  1.0 -0.8124226787
O  O94  1  0.83883000  0.37808000  0.98780000  1.0 -0.8124226787
O  O95  1  0.98780000  0.83883000  0.37808000  1.0 -0.8124226787
O  O96  1  0.37808000  0.98780000  0.83883000  1.0 -0.8124226787
O  O97  1  0.01905000  0.75000000  0.48095000  1.0 -1.038760209
O  O98  1  0.75000000  0.48095000  0.01905000  1.0 -1.038760209
O  O99  1  0.48095000  0.01905000  0.75000000  1.0 -1.038760209
O  O100  1  0.21324000  0.66906000  0.41488000  1.0 -0.7934800842
O  O101  1  0.66906000  0.41488000  0.21324000  1.0 -0.7961614555
O  O102  1  0.41488000  0.21324000  0.66906000  1.0 -0.7961614555
O  O103  1  0.83094000  0.28676000  0.08512000  1.0 -0.7961614555
O  O104  1  0.08512000  0.83094000  0.28676000  1.0 -0.7961614555
O  O105  1  0.28676000  0.08512000  0.83094000  1.0 -0.7961614555
O  O106  1  0.20025000  0.75000000  0.29975000  1.0 -1.1084385473
O  O107  1  0.75000000  0.29975000  0.20025000  1.0 -1.1084385473
O  O108  1  0.29975000  0.20025000  0.75000000  1.0 -1.1084385473
