# DDEC6 charges by PACMAN v1.1 (https://github.com/mtap-research/PACMAN-charge/)
data_HAPNUK_ASR_pacman
_symmetry_space_group_name_H-M   'P 1'
_cell_length_a   11.70870000
_cell_length_b   11.70870000
_cell_length_c   23.20340000
_cell_angle_alpha   80.60680000
_cell_angle_beta   99.39320000
_cell_angle_gamma   138.44900000
_symmetry_Int_Tables_number   1
_chemical_formula_structural   TmH7C14(NO3)2
_chemical_formula_sum   'Tm4 H28 C56 N8 O24'
_cell_volume   2077.54543582
_cell_formula_units_Z   4
loop_
 _symmetry_equiv_pos_site_id
 _symmetry_equiv_pos_as_xyz
  1  'x, y, z'
loop_
 _atom_site_type_symbol
 _atom_site_label
 _atom_site_symmetry_multiplicity
 _atom_site_fract_x
 _atom_site_fract_y
 _atom_site_fract_z
 _atom_site_occupancy
 _atom_site_charge
Tm  Tm1  1  0.78230000  0.28720000  0.72838000  1.0 2.0666537573
Tm  Tm2  1  0.28720000  0.78230000  0.77162000  1.0 2.0666537573
Tm  Tm3  1  0.21770000  0.71280000  0.27162000  1.0 2.0666537573
Tm  Tm4  1  0.71280000  0.21770000  0.22838000  1.0 2.0666537573
H  H1  1  0.19480000  0.34160000  0.83310000  1.0 0.1400910978
H  H2  1  0.34160000  0.19480000  0.66690000  1.0 0.1400910978
H  H3  1  0.80520000  0.65840000  0.16690000  1.0 0.1400910978
H  H4  1  0.65840000  0.80520000  0.33310000  1.0 0.1400910978
H  H5  1  0.68550000  0.87690000  0.92090000  1.0 0.1290777018
H  H6  1  0.87690000  0.68550000  0.57910000  1.0 0.1290777018
H  H7  1  0.31450000  0.12310000  0.07910000  1.0 0.1290777018
H  H8  1  0.12310000  0.31450000  0.42090000  1.0 0.1290777018
H  H9  1  0.19830000  0.22990000  0.92240000  1.0 0.1194927384
H  H10  1  0.22990000  0.19830000  0.57760000  1.0 0.1194927384
H  H11  1  0.80170000  0.77010000  0.07760000  1.0 0.1194927384
H  H12  1  0.77010000  0.80170000  0.42240000  1.0 0.1194927384
H  H13  1  0.12030000  0.38170000  0.04270000  1.0 0.1400910978
H  H14  1  0.38170000  0.12030000  0.45730000  1.0 0.1400910978
H  H15  1  0.87970000  0.61830000  0.95730000  1.0 0.1400910978
H  H16  1  0.61830000  0.87970000  0.54270000  1.0 0.1400910978
H  H17  1  0.84370000  0.16710000  0.07090000  1.0 0.1290777018
H  H18  1  0.16710000  0.84370000  0.42910000  1.0 0.1290777018
H  H19  1  0.15630000  0.83290000  0.92910000  1.0 0.1290777018
H  H20  1  0.83290000  0.15630000  0.57090000  1.0 0.1290777018
H  H21  1  0.67440000  0.20160000  0.91240000  1.0 0.1290777018
H  H22  1  0.20160000  0.67440000  0.58760000  1.0 0.1290777018
H  H23  1  0.32560000  0.79840000  0.08760000  1.0 0.1290777018
H  H24  1  0.79840000  0.32560000  0.41240000  1.0 0.1290777018
H  H25  1  0.23990000  0.57910000  0.91060000  1.0 0.35140857
H  H26  1  0.57910000  0.23990000  0.58940000  1.0 0.35140857
H  H27  1  0.76010000  0.42090000  0.08940000  1.0 0.35140857
H  H28  1  0.42090000  0.76010000  0.41060000  1.0 0.35140857
C  C1  1  0.09120000  0.24880000  0.85080000  1.0 -0.1954459484
C  C2  1  0.24880000  0.09120000  0.64920000  1.0 -0.1954459484
C  C3  1  0.90880000  0.75120000  0.14920000  1.0 -0.1954459484
C  C4  1  0.75120000  0.90880000  0.35080000  1.0 -0.1954459484
C  C5  1  0.93870000  0.18370000  0.82130000  1.0 0.3413394977
C  C6  1  0.18370000  0.93870000  0.67870000  1.0 0.3413394977
C  C7  1  0.06130000  0.81630000  0.17870000  1.0 0.3413394977
C  C8  1  0.81630000  0.06130000  0.32130000  1.0 0.3413394977
C  C9  1  0.78470000  0.04050000  0.84850000  1.0 -0.1783455769
C  C10  1  0.04050000  0.78470000  0.65150000  1.0 -0.1783455769
C  C11  1  0.21530000  0.95950000  0.15150000  1.0 -0.1783455769
C  C12  1  0.95950000  0.21530000  0.34850000  1.0 -0.1783455769
C  C13  1  0.61310000  0.95490000  0.82320000  1.0 0.6235753586
C  C14  1  0.95490000  0.61310000  0.67680000  1.0 0.6235753586
C  C15  1  0.38690000  0.04510000  0.17680000  1.0 0.6235753586
C  C16  1  0.04510000  0.38690000  0.32320000  1.0 0.6235753586
C  C17  1  0.78860000  0.97200000  0.90330000  1.0 -0.1383656888
C  C18  1  0.97200000  0.78860000  0.59670000  1.0 -0.1383656888
C  C19  1  0.21140000  0.02800000  0.09670000  1.0 -0.1383656888
C  C20  1  0.02800000  0.21140000  0.40330000  1.0 -0.1383656888
C  C21  1  0.93960000  0.04080000  0.93160000  1.0 0.1400910978
C  C22  1  0.04080000  0.93960000  0.56840000  1.0 0.1400910978
C  C23  1  0.06040000  0.95920000  0.06840000  1.0 0.1400910978
C  C24  1  0.95920000  0.06040000  0.43160000  1.0 0.1400910978
C  C25  1  0.09410000  0.18210000  0.90420000  1.0 -0.1172984383
C  C26  1  0.18210000  0.09410000  0.59580000  1.0 -0.1172984383
C  C27  1  0.90590000  0.81790000  0.09580000  1.0 -0.1172984383
C  C28  1  0.81790000  0.90590000  0.40420000  1.0 -0.1172984383
C  C29  1  0.96250000  0.44270000  0.85820000  1.0 0.6552135637
C  C30  1  0.44270000  0.96250000  0.64180000  1.0 0.6552135637
C  C31  1  0.03750000  0.55730000  0.14180000  1.0 0.6552135637
C  C32  1  0.55730000  0.03750000  0.35820000  1.0 0.6552135637
C  C33  1  0.93000000  0.36840000  0.92040000  1.0 -0.1682913164
C  C34  1  0.36840000  0.93000000  0.57960000  1.0 -0.1682913164
C  C35  1  0.07000000  0.63160000  0.07960000  1.0 -0.1682913164
C  C36  1  0.63160000  0.07000000  0.42040000  1.0 -0.1682913164
C  C37  1  0.06720000  0.42540000  0.96020000  1.0 0.2755346884
C  C38  1  0.42540000  0.06720000  0.53980000  1.0 0.2755346884
C  C39  1  0.93280000  0.57460000  0.03980000  1.0 0.2755346884
C  C40  1  0.57460000  0.93280000  0.46020000  1.0 0.2755346884
C  C41  1  0.03110000  0.34670000  0.01640000  1.0 -0.2109528194
C  C42  1  0.34670000  0.03110000  0.48360000  1.0 -0.2109528194
C  C43  1  0.96890000  0.65330000  0.98360000  1.0 -0.2109528194
C  C44  1  0.65330000  0.96890000  0.51640000  1.0 -0.2109528194
C  C45  1  0.86550000  0.21830000  0.03320000  1.0 -0.1172984383
C  C46  1  0.21830000  0.86550000  0.46680000  1.0 -0.1172984383
C  C47  1  0.13450000  0.78170000  0.96680000  1.0 -0.1172984383
C  C48  1  0.78170000  0.13450000  0.53320000  1.0 -0.1172984383
C  C49  1  0.72870000  0.16250000  0.99500000  1.0 0.1400910978
C  C50  1  0.16250000  0.72870000  0.50500000  1.0 0.1400910978
C  C51  1  0.27130000  0.83750000  0.00500000  1.0 0.1400910978
C  C52  1  0.83750000  0.27130000  0.49500000  1.0 0.1400910978
C  C53  1  0.76470000  0.23890000  0.93864000  1.0 -0.1292032311
C  C54  1  0.23890000  0.76470000  0.56136000  1.0 -0.1292032311
C  C55  1  0.23530000  0.76110000  0.06136000  1.0 -0.1292032311
C  C56  1  0.76110000  0.23530000  0.43864000  1.0 -0.1292032311
N  N1  1  0.56150000  0.03150000  0.01813000  1.0 -0.1034150059
N  N2  1  0.03150000  0.56150000  0.48187000  1.0 -0.1034150059
N  N3  1  0.43850000  0.96850000  0.98187000  1.0 -0.1034150059
N  N4  1  0.96850000  0.43850000  0.51813000  1.0 -0.1034150059
N  N5  1  0.92840000  0.96420000  0.98770000  1.0 -0.1383656888
N  N6  1  0.96420000  0.92840000  0.51230000  1.0 -0.1383656888
N  N7  1  0.07160000  0.03580000  0.01230000  1.0 -0.1383656888
N  N8  1  0.03580000  0.07160000  0.48770000  1.0 -0.1383656888
O  O1  1  0.83334000  0.36446000  0.82302000  1.0 -0.6376482407
O  O2  1  0.36446000  0.83334000  0.67698000  1.0 -0.6376482407
O  O3  1  0.16666000  0.63554000  0.17698000  1.0 -0.6376482407
O  O4  1  0.63554000  0.16666000  0.32302000  1.0 -0.6376482407
O  O5  1  0.11630000  0.57450000  0.84518000  1.0 -0.6802984486
O  O6  1  0.57450000  0.11630000  0.65482000  1.0 -0.6802984486
O  O7  1  0.88370000  0.42550000  0.15482000  1.0 -0.6802984486
O  O8  1  0.42550000  0.88370000  0.34518000  1.0 -0.6802984486
O  O9  1  0.47769000  0.81671000  0.84612000  1.0 -0.6202906678
O  O10  1  0.81671000  0.47769000  0.65388000  1.0 -0.6202906678
O  O11  1  0.52231000  0.18329000  0.15388000  1.0 -0.6202906678
O  O12  1  0.18329000  0.52231000  0.34612000  1.0 -0.6202906678
O  O13  1  0.59769000  0.01931000  0.77569000  1.0 -0.8180890093
O  O14  1  0.01931000  0.59769000  0.72431000  1.0 -0.8180890093
O  O15  1  0.40231000  0.98069000  0.22431000  1.0 -0.8180890093
O  O16  1  0.98069000  0.40231000  0.27569000  1.0 -0.8180890093
O  O17  1  0.94806000  0.25974000  0.77050000  1.0 -0.7021245668
O  O18  1  0.25974000  0.94806000  0.72950000  1.0 -0.7021245668
O  O19  1  0.05194000  0.74026000  0.22950000  1.0 -0.7021245668
O  O20  1  0.74026000  0.05194000  0.27050000  1.0 -0.7021245668
O  O21  1  0.23520000  0.55360000  0.94721000  1.0 -0.4253825853
O  O22  1  0.55360000  0.23520000  0.55279000  1.0 -0.4253825853
O  O23  1  0.76480000  0.44640000  0.05279000  1.0 -0.4253825853
O  O24  1  0.44640000  0.76480000  0.44721000  1.0 -0.4253825853
