# DDEC6 charges by PACMAN v1.1 (https://github.com/mtap-research/PACMAN-charge/)
data_HAQKES_ASR_pacman
_symmetry_space_group_name_H-M   'P 1'
_cell_length_a   26.34300000
_cell_length_b   27.15800000
_cell_length_c   27.15800000
_cell_angle_alpha   90.00000000
_cell_angle_beta   90.00000000
_cell_angle_gamma   90.00000000
_symmetry_Int_Tables_number   1
_chemical_formula_structural   Cd4Cu6H61C50(N2O13)2
_chemical_formula_sum   'Cd32 Cu48 H488 C400 N32 O208'
_cell_volume   19429.46310265
_cell_formula_units_Z   8
loop_
 _symmetry_equiv_pos_site_id
 _symmetry_equiv_pos_as_xyz
  1  'x, y, z'
loop_
 _atom_site_type_symbol
 _atom_site_label
 _atom_site_symmetry_multiplicity
 _atom_site_fract_x
 _atom_site_fract_y
 _atom_site_fract_z
 _atom_site_occupancy
 _atom_site_charge
Cd  Cd1  1  0.63420000  0.34021000  0.18752000  1.0 0.8947357679
Cd  Cd2  1  0.86580000  0.65979000  0.68752000  1.0 0.8947357679
Cd  Cd3  1  0.36580000  0.84021000  0.31248000  1.0 0.8947357679
Cd  Cd4  1  0.13420000  0.15979000  0.81248000  1.0 0.8947357679
Cd  Cd5  1  0.36580000  0.65979000  0.81248000  1.0 0.8947357679
Cd  Cd6  1  0.13420000  0.34021000  0.31248000  1.0 0.8947357679
Cd  Cd7  1  0.63420000  0.15979000  0.68752000  1.0 0.8947357679
Cd  Cd8  1  0.86580000  0.84021000  0.18752000  1.0 0.8947357679
Cd  Cd9  1  0.69828000  0.14219000  0.32525000  1.0 0.8825524892
Cd  Cd10  1  0.80172000  0.85781000  0.82525000  1.0 0.8825524892
Cd  Cd11  1  0.30172000  0.64219000  0.17475000  1.0 0.8825524892
Cd  Cd12  1  0.19828000  0.35781000  0.67475000  1.0 0.8825524892
Cd  Cd13  1  0.30172000  0.85781000  0.67475000  1.0 0.8825524892
Cd  Cd14  1  0.19828000  0.14219000  0.17475000  1.0 0.8825524892
Cd  Cd15  1  0.69828000  0.35781000  0.82525000  1.0 0.8825524892
Cd  Cd16  1  0.80172000  0.64219000  0.32525000  1.0 0.8825524892
Cd  Cd17  1  0.83183000  0.19919000  0.12433000  1.0 0.9017684083
Cd  Cd18  1  0.66817000  0.80081000  0.62433000  1.0 0.9017684083
Cd  Cd19  1  0.16817000  0.69919000  0.37567000  1.0 0.9017684083
Cd  Cd20  1  0.33183000  0.30081000  0.87567000  1.0 0.9017684083
Cd  Cd21  1  0.16817000  0.80081000  0.87567000  1.0 0.9017684083
Cd  Cd22  1  0.33183000  0.19919000  0.37567000  1.0 0.9017684083
Cd  Cd23  1  0.83183000  0.30081000  0.62433000  1.0 0.9017684083
Cd  Cd24  1  0.66817000  0.69919000  0.12433000  1.0 0.9017684083
Cd  Cd25  1  0.59635000  0.11147000  0.09902000  1.0 0.9768110658
Cd  Cd26  1  0.90365000  0.88853000  0.59902000  1.0 0.9768110658
Cd  Cd27  1  0.40365000  0.61147000  0.40098000  1.0 0.9768110658
Cd  Cd28  1  0.09635000  0.38853000  0.90098000  1.0 0.9768110658
Cd  Cd29  1  0.40365000  0.88853000  0.90098000  1.0 0.9768110658
Cd  Cd30  1  0.09635000  0.11147000  0.40098000  1.0 0.9768110658
Cd  Cd31  1  0.59635000  0.38853000  0.59902000  1.0 0.9768110658
Cd  Cd32  1  0.90365000  0.61147000  0.09902000  1.0 0.9768110658
Cu  Cu1  1  0.61871000  0.22366000  0.14530000  1.0 0.7051878716
Cu  Cu2  1  0.88129000  0.77634000  0.64530000  1.0 0.7051878716
Cu  Cu3  1  0.38129000  0.72366000  0.35470000  1.0 0.7039403821
Cu  Cu4  1  0.11871000  0.27634000  0.85470000  1.0 0.7039403821
Cu  Cu5  1  0.38129000  0.77634000  0.85470000  1.0 0.7039403821
Cu  Cu6  1  0.11871000  0.22366000  0.35470000  1.0 0.7039403821
Cu  Cu7  1  0.61871000  0.27634000  0.64530000  1.0 0.7039403821
Cu  Cu8  1  0.88129000  0.72366000  0.14530000  1.0 0.7051878716
Cu  Cu9  1  0.75809000  0.17162000  0.22526000  1.0 0.8188960015
Cu  Cu10  1  0.74191000  0.82838000  0.72526000  1.0 0.8188960015
Cu  Cu11  1  0.24191000  0.67162000  0.27474000  1.0 0.8188960015
Cu  Cu12  1  0.25809000  0.32838000  0.77474000  1.0 0.8188960015
Cu  Cu13  1  0.24191000  0.82838000  0.77474000  1.0 0.8188960015
Cu  Cu14  1  0.25809000  0.17162000  0.27474000  1.0 0.8188960015
Cu  Cu15  1  0.75809000  0.32838000  0.72526000  1.0 0.8188960015
Cu  Cu16  1  0.74191000  0.67162000  0.22526000  1.0 0.8188960015
Cu  Cu17  1  0.66542000  0.24166000  0.25134000  1.0 0.8188960015
Cu  Cu18  1  0.83458000  0.75834000  0.75134000  1.0 0.8188960015
Cu  Cu19  1  0.33458000  0.74166000  0.24866000  1.0 0.8188960015
Cu  Cu20  1  0.16542000  0.25834000  0.74866000  1.0 0.8075278844
Cu  Cu21  1  0.33458000  0.75834000  0.74866000  1.0 0.8188960015
Cu  Cu22  1  0.16542000  0.24166000  0.24866000  1.0 0.8075278844
Cu  Cu23  1  0.66542000  0.25834000  0.75134000  1.0 0.8188960015
Cu  Cu24  1  0.83458000  0.74166000  0.25134000  1.0 0.8188960015
Cu  Cu25  1  0.64530000  0.13232000  0.21278000  1.0 0.6892483263
Cu  Cu26  1  0.85470000  0.86768000  0.71278000  1.0 0.6892483263
Cu  Cu27  1  0.35470000  0.63232000  0.28722000  1.0 0.6892483263
Cu  Cu28  1  0.14530000  0.36768000  0.78722000  1.0 0.6843712474
Cu  Cu29  1  0.35470000  0.86768000  0.78722000  1.0 0.6892483263
Cu  Cu30  1  0.14530000  0.13232000  0.28722000  1.0 0.6892483263
Cu  Cu31  1  0.64530000  0.36768000  0.71278000  1.0 0.6892483263
Cu  Cu32  1  0.85470000  0.63232000  0.21278000  1.0 0.6892483263
Cu  Cu33  1  0.73205000  0.26345000  0.15721000  1.0 0.8075278844
Cu  Cu34  1  0.76795000  0.73655000  0.65721000  1.0 0.8075278844
Cu  Cu35  1  0.26795000  0.76345000  0.34279000  1.0 0.8075278844
Cu  Cu36  1  0.23205000  0.23655000  0.84279000  1.0 0.8042508508
Cu  Cu37  1  0.26795000  0.73655000  0.84279000  1.0 0.8075278844
Cu  Cu38  1  0.23205000  0.26345000  0.34279000  1.0 0.8042508508
Cu  Cu39  1  0.73205000  0.23655000  0.65721000  1.0 0.8075278844
Cu  Cu40  1  0.76795000  0.76345000  0.15721000  1.0 0.8075278844
Cu  Cu41  1  0.71188000  0.15427000  0.11866000  1.0 0.8262163917
Cu  Cu42  1  0.78812000  0.84573000  0.61866000  1.0 0.8262163917
Cu  Cu43  1  0.28812000  0.65427000  0.38134000  1.0 0.8262163917
Cu  Cu44  1  0.21188000  0.34573000  0.88134000  1.0 0.8262163917
Cu  Cu45  1  0.28812000  0.84573000  0.88134000  1.0 0.8262163917
Cu  Cu46  1  0.21188000  0.15427000  0.38134000  1.0 0.8262163917
Cu  Cu47  1  0.71188000  0.34573000  0.61866000  1.0 0.8262163917
Cu  Cu48  1  0.78812000  0.65427000  0.11866000  1.0 0.8262163917
H  H1  1  0.64430000  0.26430000  0.88010000  1.0 0.1208864951
H  H2  1  0.85570000  0.73570000  0.38010000  1.0 0.1208864951
H  H3  1  0.35570000  0.76430000  0.61990000  1.0 0.1208864951
H  H4  1  0.14430000  0.23570000  0.11990000  1.0 0.1208864951
H  H5  1  0.35570000  0.73570000  0.11990000  1.0 0.1208864951
H  H6  1  0.14430000  0.26430000  0.61990000  1.0 0.1208864951
H  H7  1  0.64430000  0.23570000  0.38010000  1.0 0.1208864951
H  H8  1  0.85570000  0.76430000  0.88010000  1.0 0.1208864951
H  H9  1  0.73900000  0.35850000  0.92800000  1.0 0.1208864951
H  H10  1  0.76100000  0.64150000  0.42800000  1.0 0.1208864951
H  H11  1  0.26100000  0.85850000  0.57200000  1.0 0.1208864951
H  H12  1  0.23900000  0.14150000  0.07200000  1.0 0.1208864951
H  H13  1  0.26100000  0.64150000  0.07200000  1.0 0.1208864951
H  H14  1  0.23900000  0.35850000  0.57200000  1.0 0.1208864951
H  H15  1  0.73900000  0.14150000  0.42800000  1.0 0.1208864951
H  H16  1  0.76100000  0.85850000  0.92800000  1.0 0.1208864951
H  H17  1  0.73510000  0.32930000  0.00500000  1.0 0.150932903
H  H18  1  0.76490000  0.67070000  0.50500000  1.0 0.150932903
H  H19  1  0.26490000  0.82930000  0.49500000  1.0 0.150932903
H  H20  1  0.23510000  0.17070000  0.99500000  1.0 0.150932903
H  H21  1  0.26490000  0.67070000  0.99500000  1.0 0.150932903
H  H22  1  0.23510000  0.32930000  0.49500000  1.0 0.150932903
H  H23  1  0.73510000  0.17070000  0.50500000  1.0 0.150932903
H  H24  1  0.76490000  0.82930000  0.00500000  1.0 0.150932903
H  H25  1  0.78650000  0.22850000  0.31970000  1.0 0.1091247926
H  H26  1  0.71350000  0.77150000  0.81970000  1.0 0.1091247926
H  H27  1  0.21350000  0.72850000  0.18030000  1.0 0.1091247926
H  H28  1  0.28650000  0.27150000  0.68030000  1.0 0.1091247926
H  H29  1  0.21350000  0.77150000  0.68030000  1.0 0.1091247926
H  H30  1  0.28650000  0.22850000  0.18030000  1.0 0.1091247926
H  H31  1  0.78650000  0.27150000  0.81970000  1.0 0.1091247926
H  H32  1  0.71350000  0.72850000  0.31970000  1.0 0.1091247926
H  H33  1  0.73990000  0.26320000  0.32890000  1.0 0.0999075447
H  H34  1  0.76010000  0.73680000  0.82890000  1.0 0.0999075447
H  H35  1  0.26010000  0.76320000  0.17110000  1.0 0.0999075447
H  H36  1  0.23990000  0.23680000  0.67110000  1.0 0.0999075447
H  H37  1  0.26010000  0.73680000  0.67110000  1.0 0.0999075447
H  H38  1  0.23990000  0.26320000  0.17110000  1.0 0.0999075447
H  H39  1  0.73990000  0.23680000  0.82890000  1.0 0.0999075447
H  H40  1  0.76010000  0.76320000  0.32890000  1.0 0.0999075447
H  H41  1  0.53050000  0.13590000  0.20920000  1.0 0.0917786876
H  H42  1  0.96950000  0.86410000  0.70920000  1.0 0.0917786876
H  H43  1  0.46950000  0.63590000  0.29080000  1.0 0.0917786876
H  H44  1  0.03050000  0.36410000  0.79080000  1.0 0.0917786876
H  H45  1  0.46950000  0.86410000  0.79080000  1.0 0.0917786876
H  H46  1  0.03050000  0.13590000  0.29080000  1.0 0.0917786876
H  H47  1  0.53050000  0.36410000  0.70920000  1.0 0.0917786876
H  H48  1  0.96950000  0.63590000  0.20920000  1.0 0.0917786876
H  H49  1  0.51840000  0.18170000  0.17620000  1.0 0.1091247926
H  H50  1  0.98160000  0.81830000  0.67620000  1.0 0.1091247926
H  H51  1  0.48160000  0.68170000  0.32380000  1.0 0.1091247926
H  H52  1  0.01840000  0.31830000  0.82380000  1.0 0.1091247926
H  H53  1  0.48160000  0.81830000  0.82380000  1.0 0.1091247926
H  H54  1  0.01840000  0.18170000  0.32380000  1.0 0.1091247926
H  H55  1  0.51840000  0.31830000  0.67620000  1.0 0.1091247926
H  H56  1  0.98160000  0.68170000  0.17620000  1.0 0.1091247926
H  H57  1  0.58070000  0.20420000  0.31170000  1.0 0.1091247926
H  H58  1  0.91930000  0.79580000  0.81170000  1.0 0.1091247926
H  H59  1  0.41930000  0.70420000  0.18830000  1.0 0.1091247926
H  H60  1  0.08070000  0.29580000  0.68830000  1.0 0.1091247926
H  H61  1  0.41930000  0.79580000  0.68830000  1.0 0.1091247926
H  H62  1  0.08070000  0.20420000  0.18830000  1.0 0.1091247926
H  H63  1  0.58070000  0.29580000  0.81170000  1.0 0.1091247926
H  H64  1  0.91930000  0.70420000  0.31170000  1.0 0.1091247926
H  H65  1  0.57060000  0.15030000  0.29430000  1.0 0.0999075447
H  H66  1  0.92940000  0.84970000  0.79430000  1.0 0.0999075447
H  H67  1  0.42940000  0.65030000  0.20570000  1.0 0.0999075447
H  H68  1  0.07060000  0.34970000  0.70570000  1.0 0.0999075447
H  H69  1  0.42940000  0.84970000  0.70570000  1.0 0.0999075447
H  H70  1  0.07060000  0.15030000  0.20570000  1.0 0.0999075447
H  H71  1  0.57060000  0.34970000  0.79430000  1.0 0.0999075447
H  H72  1  0.92940000  0.65030000  0.29430000  1.0 0.0999075447
H  H73  1  0.61680000  0.21620000  0.03630000  1.0 0.0999075447
H  H74  1  0.88320000  0.78380000  0.53630000  1.0 0.0999075447
H  H75  1  0.38320000  0.71620000  0.46370000  1.0 0.0999075447
H  H76  1  0.11680000  0.28380000  0.96370000  1.0 0.0999075447
H  H77  1  0.38320000  0.78380000  0.96370000  1.0 0.0999075447
H  H78  1  0.11680000  0.21620000  0.46370000  1.0 0.0999075447
H  H79  1  0.61680000  0.28380000  0.53630000  1.0 0.0999075447
H  H80  1  0.88320000  0.71620000  0.03630000  1.0 0.0999075447
H  H81  1  0.66230000  0.18220000  0.02160000  1.0 0.0999075447
H  H82  1  0.83770000  0.81780000  0.52160000  1.0 0.0999075447
H  H83  1  0.33770000  0.68220000  0.47840000  1.0 0.0999075447
H  H84  1  0.16230000  0.31780000  0.97840000  1.0 0.0999075447
H  H85  1  0.33770000  0.81780000  0.97840000  1.0 0.0999075447
H  H86  1  0.16230000  0.18220000  0.47840000  1.0 0.0999075447
H  H87  1  0.66230000  0.31780000  0.52160000  1.0 0.0999075447
H  H88  1  0.83770000  0.68220000  0.02160000  1.0 0.0999075447
H  H89  1  0.63990000  0.22570000  0.95670000  1.0 0.1329949158
H  H90  1  0.86010000  0.77430000  0.45670000  1.0 0.1329949158
H  H91  1  0.36010000  0.72570000  0.54330000  1.0 0.1329949158
H  H92  1  0.13990000  0.27430000  0.04330000  1.0 0.1329949158
H  H93  1  0.36010000  0.77430000  0.04330000  1.0 0.1329949158
H  H94  1  0.13990000  0.22570000  0.54330000  1.0 0.1329949158
H  H95  1  0.63990000  0.27430000  0.45670000  1.0 0.1329949158
H  H96  1  0.86010000  0.72570000  0.95670000  1.0 0.1329949158
H  H97  1  0.72700000  0.33880000  0.27080000  1.0 0.0917786876
H  H98  1  0.77300000  0.66120000  0.77080000  1.0 0.0917786876
H  H99  1  0.27300000  0.83880000  0.22920000  1.0 0.0917786876
H  H100  1  0.22700000  0.16120000  0.72920000  1.0 0.0917786876
H  H101  1  0.27300000  0.66120000  0.72920000  1.0 0.0917786876
H  H102  1  0.22700000  0.33880000  0.22920000  1.0 0.0917786876
H  H103  1  0.72700000  0.16120000  0.77080000  1.0 0.0917786876
H  H104  1  0.77300000  0.83880000  0.27080000  1.0 0.0917786876
H  H105  1  0.76120000  0.34230000  0.22370000  1.0 0.1091247926
H  H106  1  0.73880000  0.65770000  0.72370000  1.0 0.1091247926
H  H107  1  0.23880000  0.84230000  0.27630000  1.0 0.1091247926
H  H108  1  0.26120000  0.15770000  0.77630000  1.0 0.1091247926
H  H109  1  0.23880000  0.65770000  0.77630000  1.0 0.1091247926
H  H110  1  0.26120000  0.34230000  0.27630000  1.0 0.1091247926
H  H111  1  0.76120000  0.15770000  0.72370000  1.0 0.1091247926
H  H112  1  0.73880000  0.84230000  0.22370000  1.0 0.1091247926
H  H113  1  0.83080000  0.28620000  0.20900000  1.0 0.0999075447
H  H114  1  0.66920000  0.71380000  0.70900000  1.0 0.0999075447
H  H115  1  0.16920000  0.78620000  0.29100000  1.0 0.0999075447
H  H116  1  0.33080000  0.21380000  0.79100000  1.0 0.0999075447
H  H117  1  0.16920000  0.71380000  0.79100000  1.0 0.0999075447
H  H118  1  0.33080000  0.28620000  0.29100000  1.0 0.0999075447
H  H119  1  0.83080000  0.21380000  0.70900000  1.0 0.0999075447
H  H120  1  0.66920000  0.78620000  0.20900000  1.0 0.0999075447
H  H121  1  0.84100000  0.24070000  0.24300000  1.0 0.0917786876
H  H122  1  0.65900000  0.75930000  0.74300000  1.0 0.0917786876
H  H123  1  0.15900000  0.74070000  0.25700000  1.0 0.0917786876
H  H124  1  0.34100000  0.25930000  0.75700000  1.0 0.0917786876
H  H125  1  0.15900000  0.75930000  0.75700000  1.0 0.0917786876
H  H126  1  0.34100000  0.24070000  0.25700000  1.0 0.0917786876
H  H127  1  0.84100000  0.25930000  0.74300000  1.0 0.0917786876
H  H128  1  0.65900000  0.74070000  0.24300000  1.0 0.0917786876
H  H129  1  0.70370000  0.04320000  0.12240000  1.0 0.0999075447
H  H130  1  0.79630000  0.95680000  0.62240000  1.0 0.0999075447
H  H131  1  0.29630000  0.54320000  0.37760000  1.0 0.0999075447
H  H132  1  0.20370000  0.45680000  0.87760000  1.0 0.0999075447
H  H133  1  0.29630000  0.95680000  0.87760000  1.0 0.0999075447
H  H134  1  0.20370000  0.04320000  0.37760000  1.0 0.0999075447
H  H135  1  0.70370000  0.45680000  0.62240000  1.0 0.0999075447
H  H136  1  0.79630000  0.54320000  0.12240000  1.0 0.0999075447
H  H137  1  0.67100000  0.03160000  0.16910000  1.0 0.0999075447
H  H138  1  0.82900000  0.96840000  0.66910000  1.0 0.0999075447
H  H139  1  0.32900000  0.53160000  0.33090000  1.0 0.0999075447
H  H140  1  0.17100000  0.46840000  0.83090000  1.0 0.0999075447
H  H141  1  0.32900000  0.96840000  0.83090000  1.0 0.0999075447
H  H142  1  0.17100000  0.03160000  0.33090000  1.0 0.0999075447
H  H143  1  0.67100000  0.46840000  0.66910000  1.0 0.0999075447
H  H144  1  0.82900000  0.53160000  0.16910000  1.0 0.0999075447
H  H145  1  0.70530000  0.04560000  0.25110000  1.0 0.0999075447
H  H146  1  0.79470000  0.95440000  0.75110000  1.0 0.0999075447
H  H147  1  0.29470000  0.54560000  0.24890000  1.0 0.0999075447
H  H148  1  0.20530000  0.45440000  0.74890000  1.0 0.0999075447
H  H149  1  0.29470000  0.95440000  0.74890000  1.0 0.0999075447
H  H150  1  0.20530000  0.04560000  0.24890000  1.0 0.0999075447
H  H151  1  0.70530000  0.45440000  0.75110000  1.0 0.0999075447
H  H152  1  0.79470000  0.54560000  0.25110000  1.0 0.0999075447
H  H153  1  0.76060000  0.06560000  0.25760000  1.0 0.0999075447
H  H154  1  0.73940000  0.93440000  0.75760000  1.0 0.0999075447
H  H155  1  0.23940000  0.56560000  0.24240000  1.0 0.0999075447
H  H156  1  0.26060000  0.43440000  0.74240000  1.0 0.0999075447
H  H157  1  0.23940000  0.93440000  0.74240000  1.0 0.0999075447
H  H158  1  0.26060000  0.06560000  0.24240000  1.0 0.0999075447
H  H159  1  0.76060000  0.43440000  0.75760000  1.0 0.0999075447
H  H160  1  0.73940000  0.56560000  0.25760000  1.0 0.0999075447
H  H161  1  0.81430000  0.08390000  0.18540000  1.0 0.1091247926
H  H162  1  0.68570000  0.91610000  0.68540000  1.0 0.1091247926
H  H163  1  0.18570000  0.58390000  0.31460000  1.0 0.1091247926
H  H164  1  0.31430000  0.41610000  0.81460000  1.0 0.1091247926
H  H165  1  0.18570000  0.91610000  0.81460000  1.0 0.1091247926
H  H166  1  0.31430000  0.08390000  0.31460000  1.0 0.1091247926
H  H167  1  0.81430000  0.41610000  0.68540000  1.0 0.1091247926
H  H168  1  0.68570000  0.58390000  0.18540000  1.0 0.1091247926
H  H169  1  0.79330000  0.07490000  0.13210000  1.0 0.1091247926
H  H170  1  0.70670000  0.92510000  0.63210000  1.0 0.1091247926
H  H171  1  0.20670000  0.57490000  0.36790000  1.0 0.1091247926
H  H172  1  0.29330000  0.42510000  0.86790000  1.0 0.1091247926
H  H173  1  0.20670000  0.92510000  0.86790000  1.0 0.1091247926
H  H174  1  0.29330000  0.07490000  0.36790000  1.0 0.1091247926
H  H175  1  0.79330000  0.42510000  0.63210000  1.0 0.1091247926
H  H176  1  0.70670000  0.57490000  0.13210000  1.0 0.1091247926
H  H177  1  0.53430000  0.26530000  0.20670000  1.0 0.1091247926
H  H178  1  0.96570000  0.73470000  0.70670000  1.0 0.1091247926
H  H179  1  0.46570000  0.76530000  0.29330000  1.0 0.1091247926
H  H180  1  0.03430000  0.23470000  0.79330000  1.0 0.1091247926
H  H181  1  0.46570000  0.73470000  0.79330000  1.0 0.1091247926
H  H182  1  0.03430000  0.26530000  0.29330000  1.0 0.1091247926
H  H183  1  0.53430000  0.23470000  0.70670000  1.0 0.1091247926
H  H184  1  0.96570000  0.76530000  0.20670000  1.0 0.1091247926
H  H185  1  0.55840000  0.27400000  0.25860000  1.0 0.0999075447
H  H186  1  0.94160000  0.72600000  0.75860000  1.0 0.0999075447
H  H187  1  0.44160000  0.77400000  0.24140000  1.0 0.0999075447
H  H188  1  0.05840000  0.22600000  0.74140000  1.0 0.0999075447
H  H189  1  0.44160000  0.72600000  0.74140000  1.0 0.0999075447
H  H190  1  0.05840000  0.27400000  0.24140000  1.0 0.0999075447
H  H191  1  0.55840000  0.22600000  0.75860000  1.0 0.0999075447
H  H192  1  0.94160000  0.77400000  0.25860000  1.0 0.0999075447
H  H193  1  0.75090000  0.20940000  0.03150000  1.0 0.1091247926
H  H194  1  0.74910000  0.79060000  0.53150000  1.0 0.1091247926
H  H195  1  0.24910000  0.70940000  0.46850000  1.0 0.1091247926
H  H196  1  0.25090000  0.29060000  0.96850000  1.0 0.1091247926
H  H197  1  0.24910000  0.79060000  0.96850000  1.0 0.1091247926
H  H198  1  0.25090000  0.20940000  0.46850000  1.0 0.1091247926
H  H199  1  0.75090000  0.29060000  0.53150000  1.0 0.1091247926
H  H200  1  0.74910000  0.70940000  0.03150000  1.0 0.1091247926
H  H201  1  0.76330000  0.26250000  0.05070000  1.0 0.0999075447
H  H202  1  0.73670000  0.73750000  0.55070000  1.0 0.0999075447
H  H203  1  0.23670000  0.76250000  0.44930000  1.0 0.0999075447
H  H204  1  0.26330000  0.23750000  0.94930000  1.0 0.0999075447
H  H205  1  0.23670000  0.73750000  0.94930000  1.0 0.0999075447
H  H206  1  0.26330000  0.26250000  0.44930000  1.0 0.0999075447
H  H207  1  0.76330000  0.23750000  0.55070000  1.0 0.0999075447
H  H208  1  0.73670000  0.76250000  0.05070000  1.0 0.0999075447
H  H209  1  0.76890000  0.35250000  0.33600000  1.0 0.1329949158
H  H210  1  0.73110000  0.64750000  0.83600000  1.0 0.1329949158
H  H211  1  0.23110000  0.85250000  0.16400000  1.0 0.1329949158
H  H212  1  0.26890000  0.14750000  0.66400000  1.0 0.1329949158
H  H213  1  0.23110000  0.64750000  0.66400000  1.0 0.1329949158
H  H214  1  0.26890000  0.35250000  0.16400000  1.0 0.1329949158
H  H215  1  0.76890000  0.14750000  0.83600000  1.0 0.1329949158
H  H216  1  0.73110000  0.85250000  0.33600000  1.0 0.1329949158
H  H217  1  0.93460000  0.33040000  0.33590000  1.0 0.1091247926
H  H218  1  0.56540000  0.66960000  0.83590000  1.0 0.1091247926
H  H219  1  0.06540000  0.83040000  0.16410000  1.0 0.1091247926
H  H220  1  0.43460000  0.16960000  0.66410000  1.0 0.1091247926
H  H221  1  0.06540000  0.66960000  0.66410000  1.0 0.1091247926
H  H222  1  0.43460000  0.33040000  0.16410000  1.0 0.1091247926
H  H223  1  0.93460000  0.16960000  0.83590000  1.0 0.1091247926
H  H224  1  0.56540000  0.83040000  0.33590000  1.0 0.1091247926
H  H225  1  0.88350000  0.29090000  0.28250000  1.0 0.1329949158
H  H226  1  0.61650000  0.70910000  0.78250000  1.0 0.1329949158
H  H227  1  0.11650000  0.79090000  0.21750000  1.0 0.1329949158
H  H228  1  0.38350000  0.20910000  0.71750000  1.0 0.1329949158
H  H229  1  0.11650000  0.70910000  0.71750000  1.0 0.1329949158
H  H230  1  0.38350000  0.29090000  0.21750000  1.0 0.1329949158
H  H231  1  0.88350000  0.20910000  0.78250000  1.0 0.1329949158
H  H232  1  0.61650000  0.79090000  0.28250000  1.0 0.1329949158
H  H233  1  0.81910000  0.39130000  0.39290000  1.0 0.0999075447
H  H234  1  0.68090000  0.60870000  0.89290000  1.0 0.0999075447
H  H235  1  0.18090000  0.89130000  0.10710000  1.0 0.0999075447
H  H236  1  0.31910000  0.10870000  0.60710000  1.0 0.0999075447
H  H237  1  0.18090000  0.60870000  0.60710000  1.0 0.0999075447
H  H238  1  0.31910000  0.39130000  0.10710000  1.0 0.0999075447
H  H239  1  0.81910000  0.10870000  0.89290000  1.0 0.0999075447
H  H240  1  0.68090000  0.89130000  0.39290000  1.0 0.0999075447
H  H241  1  0.61140000  0.39310000  0.35050000  1.0 0.150932903
H  H242  1  0.88860000  0.60690000  0.85050000  1.0 0.150932903
H  H243  1  0.38860000  0.89310000  0.14950000  1.0 0.150932903
H  H244  1  0.11140000  0.10690000  0.64950000  1.0 0.150932903
H  H245  1  0.38860000  0.60690000  0.64950000  1.0 0.150932903
H  H246  1  0.11140000  0.39310000  0.14950000  1.0 0.150932903
H  H247  1  0.61140000  0.10690000  0.85050000  1.0 0.150932903
H  H248  1  0.88860000  0.89310000  0.35050000  1.0 0.150932903
H  H249  1  0.65220000  0.35880000  0.37470000  1.0 0.1329949158
H  H250  1  0.84780000  0.64120000  0.87470000  1.0 0.1329949158
H  H251  1  0.34780000  0.85880000  0.12530000  1.0 0.1329949158
H  H252  1  0.15220000  0.14120000  0.62530000  1.0 0.1329949158
H  H253  1  0.34780000  0.64120000  0.62530000  1.0 0.1329949158
H  H254  1  0.15220000  0.35880000  0.12530000  1.0 0.1329949158
H  H255  1  0.65220000  0.14120000  0.87470000  1.0 0.1329949158
H  H256  1  0.84780000  0.85880000  0.37470000  1.0 0.1329949158
H  H257  1  0.59490000  0.34340000  0.37500000  1.0 0.150932903
H  H258  1  0.90510000  0.65660000  0.87500000  1.0 0.150932903
H  H259  1  0.40510000  0.84340000  0.12500000  1.0 0.150932903
H  H260  1  0.09490000  0.15660000  0.62500000  1.0 0.150932903
H  H261  1  0.40510000  0.65660000  0.62500000  1.0 0.150932903
H  H262  1  0.09490000  0.34340000  0.12500000  1.0 0.150932903
H  H263  1  0.59490000  0.15660000  0.87500000  1.0 0.150932903
H  H264  1  0.90510000  0.84340000  0.37500000  1.0 0.150932903
H  H265  1  0.47690000  0.13200000  0.26600000  1.0 0.1329949158
H  H266  1  0.02310000  0.86800000  0.76600000  1.0 0.1329949158
H  H267  1  0.52310000  0.63200000  0.23400000  1.0 0.1329949158
H  H268  1  0.97690000  0.36800000  0.73400000  1.0 0.1329949158
H  H269  1  0.52310000  0.86800000  0.73400000  1.0 0.1329949158
H  H270  1  0.97690000  0.13200000  0.23400000  1.0 0.1329949158
H  H271  1  0.47690000  0.36800000  0.76600000  1.0 0.1329949158
H  H272  1  0.02310000  0.63200000  0.26600000  1.0 0.1329949158
H  H273  1  0.49200000  0.27290000  0.29210000  1.0 0.1395045193
H  H274  1  0.00800000  0.72710000  0.79210000  1.0 0.1395045193
H  H275  1  0.50800000  0.77290000  0.20790000  1.0 0.1395045193
H  H276  1  0.99200000  0.22710000  0.70790000  1.0 0.1395045193
H  H277  1  0.50800000  0.72710000  0.70790000  1.0 0.1395045193
H  H278  1  0.99200000  0.27290000  0.20790000  1.0 0.1395045193
H  H279  1  0.49200000  0.22710000  0.79210000  1.0 0.1395045193
H  H280  1  0.00800000  0.77290000  0.29210000  1.0 0.1395045193
H  H281  1  0.48110000  0.39080000  0.11830000  1.0 0.1208864951
H  H282  1  0.01890000  0.60920000  0.61830000  1.0 0.1208864951
H  H283  1  0.51890000  0.89080000  0.38170000  1.0 0.1208864951
H  H284  1  0.98110000  0.10920000  0.88170000  1.0 0.1208864951
H  H285  1  0.51890000  0.60920000  0.88170000  1.0 0.1208864951
H  H286  1  0.98110000  0.39080000  0.38170000  1.0 0.1208864951
H  H287  1  0.48110000  0.10920000  0.61830000  1.0 0.1208864951
H  H288  1  0.01890000  0.89080000  0.11830000  1.0 0.1208864951
H  H289  1  0.51020000  0.37920000  0.06920000  1.0 0.1395045193
H  H290  1  0.98980000  0.62080000  0.56920000  1.0 0.1395045193
H  H291  1  0.48980000  0.87920000  0.43080000  1.0 0.1395045193
H  H292  1  0.01020000  0.12080000  0.93080000  1.0 0.1395045193
H  H293  1  0.48980000  0.62080000  0.93080000  1.0 0.1395045193
H  H294  1  0.01020000  0.37920000  0.43080000  1.0 0.1395045193
H  H295  1  0.51020000  0.12080000  0.56920000  1.0 0.1395045193
H  H296  1  0.98980000  0.87920000  0.06920000  1.0 0.1395045193
H  H297  1  0.51590000  0.43100000  0.09410000  1.0 0.1395045193
H  H298  1  0.98410000  0.56900000  0.59410000  1.0 0.1395045193
H  H299  1  0.48410000  0.93100000  0.40590000  1.0 0.1395045193
H  H300  1  0.01590000  0.06900000  0.90590000  1.0 0.1395045193
H  H301  1  0.48410000  0.56900000  0.90590000  1.0 0.1395045193
H  H302  1  0.01590000  0.43100000  0.40590000  1.0 0.1395045193
H  H303  1  0.51590000  0.06900000  0.59410000  1.0 0.1395045193
H  H304  1  0.98410000  0.93100000  0.09410000  1.0 0.1395045193
H  H305  1  0.87360000  0.36000000  0.07420000  1.0 0.1563196863
H  H306  1  0.62640000  0.64000000  0.57420000  1.0 0.1563196863
H  H307  1  0.12640000  0.86000000  0.42580000  1.0 0.150932903
H  H308  1  0.37360000  0.14000000  0.92580000  1.0 0.1563196863
H  H309  1  0.12640000  0.64000000  0.92580000  1.0 0.1563196863
H  H310  1  0.37360000  0.36000000  0.42580000  1.0 0.1563196863
H  H311  1  0.87360000  0.14000000  0.57420000  1.0 0.1563196863
H  H312  1  0.62640000  0.86000000  0.07420000  1.0 0.1563196863
H  H313  1  0.84260000  0.39240000  0.11130000  1.0 0.150932903
H  H314  1  0.65740000  0.60760000  0.61130000  1.0 0.150932903
H  H315  1  0.15740000  0.89240000  0.38870000  1.0 0.150932903
H  H316  1  0.34260000  0.10760000  0.88870000  1.0 0.150932903
H  H317  1  0.15740000  0.60760000  0.88870000  1.0 0.150932903
H  H318  1  0.34260000  0.39240000  0.38870000  1.0 0.150932903
H  H319  1  0.84260000  0.10760000  0.61130000  1.0 0.150932903
H  H320  1  0.65740000  0.89240000  0.11130000  1.0 0.150932903
H  H321  1  0.81900000  0.37800000  0.06030000  1.0 0.1395045193
H  H322  1  0.68100000  0.62200000  0.56030000  1.0 0.1395045193
H  H323  1  0.18100000  0.87800000  0.43970000  1.0 0.1395045193
H  H324  1  0.31900000  0.12200000  0.93970000  1.0 0.1395045193
H  H325  1  0.18100000  0.62200000  0.93970000  1.0 0.1395045193
H  H326  1  0.31900000  0.37800000  0.43970000  1.0 0.1395045193
H  H327  1  0.81900000  0.12200000  0.56030000  1.0 0.1395045193
H  H328  1  0.68100000  0.87800000  0.06030000  1.0 0.1395045193
H  H329  1  0.41810000  0.26860000  0.33460000  1.0 0.1208864951
H  H330  1  0.08190000  0.73140000  0.83460000  1.0 0.1208864951
H  H331  1  0.58190000  0.76860000  0.16540000  1.0 0.1208864951
H  H332  1  0.91810000  0.23140000  0.66540000  1.0 0.1208864951
H  H333  1  0.58190000  0.73140000  0.66540000  1.0 0.1208864951
H  H334  1  0.91810000  0.26860000  0.16540000  1.0 0.1208864951
H  H335  1  0.41810000  0.23140000  0.83460000  1.0 0.1208864951
H  H336  1  0.08190000  0.76860000  0.33460000  1.0 0.1208864951
H  H337  1  0.40070000  0.13210000  0.30610000  1.0 0.1208864951
H  H338  1  0.09930000  0.86790000  0.80610000  1.0 0.1208864951
H  H339  1  0.59930000  0.63210000  0.19390000  1.0 0.1208864951
H  H340  1  0.90070000  0.36790000  0.69390000  1.0 0.1208864951
H  H341  1  0.59930000  0.86790000  0.69390000  1.0 0.1208864951
H  H342  1  0.90070000  0.13210000  0.19390000  1.0 0.1208864951
H  H343  1  0.40070000  0.36790000  0.80610000  1.0 0.1208864951
H  H344  1  0.09930000  0.63210000  0.30610000  1.0 0.1208864951
H  H345  1  0.75430000  0.98710000  0.11680000  1.0 0.1395045193
H  H346  1  0.74570000  0.01290000  0.61680000  1.0 0.1395045193
H  H347  1  0.24570000  0.48710000  0.38320000  1.0 0.1395045193
H  H348  1  0.25430000  0.51290000  0.88320000  1.0 0.1395045193
H  H349  1  0.24570000  0.01290000  0.88320000  1.0 0.1395045193
H  H350  1  0.25430000  0.98710000  0.38320000  1.0 0.1395045193
H  H351  1  0.75430000  0.51290000  0.61680000  1.0 0.1395045193
H  H352  1  0.74570000  0.48710000  0.11680000  1.0 0.1395045193
H  H353  1  0.77810000  0.99730000  0.25730000  1.0 0.1395045193
H  H354  1  0.72190000  0.00270000  0.75730000  1.0 0.1395045193
H  H355  1  0.22190000  0.49730000  0.24270000  1.0 0.1395045193
H  H356  1  0.27810000  0.50270000  0.74270000  1.0 0.1395045193
H  H357  1  0.22190000  0.00270000  0.74270000  1.0 0.1395045193
H  H358  1  0.27810000  0.99730000  0.24270000  1.0 0.1395045193
H  H359  1  0.77810000  0.50270000  0.75730000  1.0 0.1395045193
H  H360  1  0.72190000  0.49730000  0.25730000  1.0 0.1395045193
H  H361  1  0.82340000  0.92130000  0.25570000  1.0 0.1091247926
H  H362  1  0.67660000  0.07870000  0.75570000  1.0 0.1091247926
H  H363  1  0.17660000  0.42130000  0.24430000  1.0 0.1091247926
H  H364  1  0.32340000  0.57870000  0.74430000  1.0 0.1091247926
H  H365  1  0.17660000  0.07870000  0.74430000  1.0 0.1091247926
H  H366  1  0.32340000  0.92130000  0.24430000  1.0 0.1091247926
H  H367  1  0.82340000  0.57870000  0.75570000  1.0 0.1091247926
H  H368  1  0.67660000  0.42130000  0.25570000  1.0 0.1091247926
H  H369  1  0.78880000  0.90710000  0.12130000  1.0 0.1208864951
H  H370  1  0.71120000  0.09290000  0.62130000  1.0 0.1208864951
H  H371  1  0.21120000  0.40710000  0.37870000  1.0 0.1208864951
H  H372  1  0.28880000  0.59290000  0.87870000  1.0 0.1208864951
H  H373  1  0.21120000  0.09290000  0.87870000  1.0 0.1208864951
H  H374  1  0.28880000  0.90710000  0.37870000  1.0 0.1208864951
H  H375  1  0.78880000  0.59290000  0.62130000  1.0 0.1208864951
H  H376  1  0.71120000  0.40710000  0.12130000  1.0 0.1208864951
H  H377  1  0.86510000  0.08420000  0.99610000  1.0 0.1329949158
H  H378  1  0.63490000  0.91580000  0.49610000  1.0 0.1329949158
H  H379  1  0.13490000  0.58420000  0.50390000  1.0 0.1329949158
H  H380  1  0.36510000  0.41580000  0.00390000  1.0 0.1329949158
H  H381  1  0.13490000  0.91580000  0.00390000  1.0 0.1329949158
H  H382  1  0.36510000  0.08420000  0.50390000  1.0 0.1329949158
H  H383  1  0.86510000  0.41580000  0.49610000  1.0 0.1329949158
H  H384  1  0.63490000  0.58420000  0.99610000  1.0 0.1329949158
H  H385  1  0.91950000  0.10010000  0.01330000  1.0 0.150932903
H  H386  1  0.58050000  0.89990000  0.51330000  1.0 0.150932903
H  H387  1  0.08050000  0.60010000  0.48670000  1.0 0.150932903
H  H388  1  0.41950000  0.39990000  0.98670000  1.0 0.150932903
H  H389  1  0.08050000  0.89990000  0.98670000  1.0 0.150932903
H  H390  1  0.41950000  0.10010000  0.48670000  1.0 0.150932903
H  H391  1  0.91950000  0.39990000  0.51330000  1.0 0.150932903
H  H392  1  0.58050000  0.60010000  0.01330000  1.0 0.150932903
H  H393  1  0.88930000  0.13280000  0.97580000  1.0 0.1395045193
H  H394  1  0.61070000  0.86720000  0.47580000  1.0 0.1395045193
H  H395  1  0.11070000  0.63280000  0.52420000  1.0 0.1395045193
H  H396  1  0.38930000  0.36720000  0.02420000  1.0 0.1395045193
H  H397  1  0.11070000  0.86720000  0.02420000  1.0 0.1395045193
H  H398  1  0.38930000  0.13280000  0.52420000  1.0 0.1395045193
H  H399  1  0.88930000  0.36720000  0.47580000  1.0 0.1395045193
H  H400  1  0.61070000  0.63280000  0.97580000  1.0 0.1395045193
H  H401  1  0.87220000  0.12240000  0.37070000  1.0 0.1563196863
H  H402  1  0.62780000  0.87760000  0.87070000  1.0 0.1563196863
H  H403  1  0.12780000  0.62240000  0.12930000  1.0 0.1563196863
H  H404  1  0.37220000  0.37760000  0.62930000  1.0 0.1563196863
H  H405  1  0.12780000  0.87760000  0.62930000  1.0 0.1563196863
H  H406  1  0.37220000  0.12240000  0.12930000  1.0 0.1563196863
H  H407  1  0.87220000  0.37760000  0.87070000  1.0 0.1563196863
H  H408  1  0.62780000  0.62240000  0.37070000  1.0 0.1563196863
H  H409  1  0.89490000  0.16020000  0.33290000  1.0 0.1395045193
H  H410  1  0.60510000  0.83980000  0.83290000  1.0 0.1395045193
H  H411  1  0.10510000  0.66020000  0.16710000  1.0 0.1395045193
H  H412  1  0.39490000  0.33980000  0.66710000  1.0 0.1395045193
H  H413  1  0.10510000  0.83980000  0.66710000  1.0 0.1395045193
H  H414  1  0.39490000  0.16020000  0.16710000  1.0 0.1395045193
H  H415  1  0.89490000  0.33980000  0.83290000  1.0 0.1395045193
H  H416  1  0.60510000  0.66020000  0.33290000  1.0 0.1395045193
H  H417  1  0.89550000  0.10370000  0.32090000  1.0 0.150932903
H  H418  1  0.60450000  0.89630000  0.82090000  1.0 0.150932903
H  H419  1  0.10450000  0.60370000  0.17910000  1.0 0.150932903
H  H420  1  0.39550000  0.39630000  0.67910000  1.0 0.150932903
H  H421  1  0.10450000  0.89630000  0.67910000  1.0 0.150932903
H  H422  1  0.39550000  0.10370000  0.17910000  1.0 0.150932903
H  H423  1  0.89550000  0.39630000  0.82090000  1.0 0.150932903
H  H424  1  0.60450000  0.60370000  0.32090000  1.0 0.150932903
H  H425  1  0.63880000  0.98510000  0.36930000  1.0 0.1329949158
H  H426  1  0.86120000  0.01490000  0.86930000  1.0 0.1329949158
H  H427  1  0.36120000  0.48510000  0.13070000  1.0 0.1329949158
H  H428  1  0.13880000  0.51490000  0.63070000  1.0 0.1329949158
H  H429  1  0.36120000  0.01490000  0.63070000  1.0 0.1329949158
H  H430  1  0.13880000  0.98510000  0.13070000  1.0 0.1329949158
H  H431  1  0.63880000  0.51490000  0.86930000  1.0 0.1329949158
H  H432  1  0.86120000  0.48510000  0.36930000  1.0 0.1329949158
H  H433  1  0.59700000  0.01850000  0.39320000  1.0 0.1395045193
H  H434  1  0.90300000  0.98150000  0.89320000  1.0 0.1395045193
H  H435  1  0.40300000  0.51850000  0.10680000  1.0 0.1395045193
H  H436  1  0.09700000  0.48150000  0.60680000  1.0 0.1395045193
H  H437  1  0.40300000  0.98150000  0.60680000  1.0 0.1395045193
H  H438  1  0.09700000  0.01850000  0.10680000  1.0 0.1395045193
H  H439  1  0.59700000  0.48150000  0.89320000  1.0 0.1395045193
H  H440  1  0.90300000  0.51850000  0.39320000  1.0 0.1395045193
H  H441  1  0.64890000  0.01040000  0.42020000  1.0 0.1329949158
H  H442  1  0.85110000  0.98960000  0.92020000  1.0 0.1329949158
H  H443  1  0.35110000  0.51040000  0.07980000  1.0 0.1329949158
H  H444  1  0.14890000  0.48960000  0.57980000  1.0 0.1329949158
H  H445  1  0.35110000  0.98960000  0.57980000  1.0 0.1329949158
H  H446  1  0.14890000  0.01040000  0.07980000  1.0 0.1329949158
H  H447  1  0.64890000  0.48960000  0.92020000  1.0 0.1329949158
H  H448  1  0.85110000  0.51040000  0.42020000  1.0 0.1329949158
H  H449  1  0.68990000  0.32030000  0.07400000  1.0 0.0999075447
H  H450  1  0.81010000  0.67970000  0.57400000  1.0 0.0999075447
H  H451  1  0.31010000  0.82030000  0.42600000  1.0 0.0999075447
H  H452  1  0.18990000  0.17970000  0.92600000  1.0 0.0999075447
H  H453  1  0.31010000  0.67970000  0.92600000  1.0 0.0999075447
H  H454  1  0.18990000  0.32030000  0.42600000  1.0 0.0999075447
H  H455  1  0.68990000  0.17970000  0.57400000  1.0 0.0999075447
H  H456  1  0.81010000  0.82030000  0.07400000  1.0 0.0999075447
H  H457  1  0.63370000  0.30270000  0.06680000  1.0 0.1091247926
H  H458  1  0.86630000  0.69730000  0.56680000  1.0 0.1091247926
H  H459  1  0.36630000  0.80270000  0.43320000  1.0 0.1091247926
H  H460  1  0.13370000  0.19730000  0.93320000  1.0 0.1091247926
H  H461  1  0.36630000  0.69730000  0.93320000  1.0 0.1091247926
H  H462  1  0.13370000  0.30270000  0.43320000  1.0 0.1091247926
H  H463  1  0.63370000  0.19730000  0.56680000  1.0 0.1091247926
H  H464  1  0.86630000  0.80270000  0.06680000  1.0 0.1091247926
H  H465  1  0.75900000  0.09270000  0.97100000  1.0 0.150932903
H  H466  1  0.74100000  0.90730000  0.47100000  1.0 0.150932903
H  H467  1  0.24100000  0.59270000  0.52900000  1.0 0.150932903
H  H468  1  0.25900000  0.40730000  0.02900000  1.0 0.150932903
H  H469  1  0.24100000  0.90730000  0.02900000  1.0 0.150932903
H  H470  1  0.25900000  0.09270000  0.52900000  1.0 0.150932903
H  H471  1  0.75900000  0.40730000  0.47100000  1.0 0.150932903
H  H472  1  0.74100000  0.59270000  0.97100000  1.0 0.150932903
H  H473  1  0.70500000  0.10210000  0.94860000  1.0 0.150932903
H  H474  1  0.79500000  0.89790000  0.44860000  1.0 0.150932903
H  H475  1  0.29500000  0.60210000  0.55140000  1.0 0.150932903
H  H476  1  0.20500000  0.39790000  0.05140000  1.0 0.150932903
H  H477  1  0.29500000  0.89790000  0.05140000  1.0 0.150932903
H  H478  1  0.20500000  0.10210000  0.55140000  1.0 0.150932903
H  H479  1  0.70500000  0.39790000  0.44860000  1.0 0.150932903
H  H480  1  0.79500000  0.60210000  0.94860000  1.0 0.150932903
H  H481  1  0.72110000  0.04880000  0.96440000  1.0 0.1674170731
H  H482  1  0.77890000  0.95120000  0.46440000  1.0 0.1674170731
H  H483  1  0.27890000  0.54880000  0.53560000  1.0 0.1674170731
H  H484  1  0.22110000  0.45120000  0.03560000  1.0 0.1674170731
H  H485  1  0.27890000  0.95120000  0.03560000  1.0 0.1674170731
H  H486  1  0.22110000  0.04880000  0.53560000  1.0 0.1674170731
H  H487  1  0.72110000  0.45120000  0.46440000  1.0 0.1674170731
H  H488  1  0.77890000  0.54880000  0.96440000  1.0 0.1674170731
C  C1  1  0.66350000  0.27700000  0.90590000  1.0 0.0999075447
C  C2  1  0.83650000  0.72300000  0.40590000  1.0 0.0999075447
C  C3  1  0.33650000  0.77700000  0.59410000  1.0 0.0999075447
C  C4  1  0.16350000  0.22300000  0.09410000  1.0 0.0999075447
C  C5  1  0.33650000  0.72300000  0.09410000  1.0 0.0999075447
C  C6  1  0.16350000  0.27700000  0.59410000  1.0 0.0999075447
C  C7  1  0.66350000  0.22300000  0.40590000  1.0 0.0999075447
C  C8  1  0.83650000  0.77700000  0.90590000  1.0 0.0999075447
C  C9  1  0.71770000  0.33180000  0.93400000  1.0 0.0675219687
C  C10  1  0.78230000  0.66820000  0.43400000  1.0 0.0675219687
C  C11  1  0.28230000  0.83180000  0.56600000  1.0 0.0675219687
C  C12  1  0.21770000  0.16820000  0.06600000  1.0 0.0675219687
C  C13  1  0.28230000  0.66820000  0.06600000  1.0 0.0675219687
C  C14  1  0.21770000  0.33180000  0.56600000  1.0 0.0675219687
C  C15  1  0.71770000  0.16820000  0.43400000  1.0 0.0675219687
C  C16  1  0.78230000  0.83180000  0.93400000  1.0 0.0675219687
C  C17  1  0.71640000  0.31420000  0.98010000  1.0 -0.209548702
C  C18  1  0.78360000  0.68580000  0.48010000  1.0 -0.209548702
C  C19  1  0.28360000  0.81420000  0.51990000  1.0 -0.209548702
C  C20  1  0.21640000  0.18580000  0.01990000  1.0 -0.209548702
C  C21  1  0.28360000  0.68580000  0.01990000  1.0 -0.209548702
C  C22  1  0.21640000  0.31420000  0.51990000  1.0 -0.209548702
C  C23  1  0.71640000  0.18580000  0.48010000  1.0 -0.209548702
C  C24  1  0.78360000  0.81420000  0.98010000  1.0 -0.209548702
C  C25  1  0.68660000  0.27280000  0.99010000  1.0 0.1208864951
C  C26  1  0.81340000  0.72720000  0.49010000  1.0 0.1208864951
C  C27  1  0.31340000  0.77280000  0.50990000  1.0 0.1208864951
C  C28  1  0.18660000  0.22720000  0.00990000  1.0 0.1208864951
C  C29  1  0.31340000  0.72720000  0.00990000  1.0 0.1208864951
C  C30  1  0.18660000  0.27280000  0.50990000  1.0 0.1208864951
C  C31  1  0.68660000  0.22720000  0.49010000  1.0 0.1208864951
C  C32  1  0.81340000  0.77280000  0.99010000  1.0 0.1208864951
C  C33  1  0.75930000  0.24640000  0.30360000  1.0 -0.0691554849
C  C34  1  0.74070000  0.75360000  0.80360000  1.0 -0.0691554849
C  C35  1  0.24070000  0.74640000  0.19640000  1.0 -0.0691554849
C  C36  1  0.25930000  0.25360000  0.69640000  1.0 -0.0691554849
C  C37  1  0.24070000  0.75360000  0.69640000  1.0 -0.0691554849
C  C38  1  0.25930000  0.24640000  0.19640000  1.0 -0.0691554849
C  C39  1  0.75930000  0.25360000  0.80360000  1.0 -0.0691554849
C  C40  1  0.74070000  0.74640000  0.30360000  1.0 -0.0691554849
C  C41  1  0.54290000  0.16810000  0.19910000  1.0 -0.0504870398
C  C42  1  0.95710000  0.83190000  0.69910000  1.0 -0.0504870398
C  C43  1  0.45710000  0.66810000  0.30090000  1.0 -0.0504870398
C  C44  1  0.04290000  0.33190000  0.80090000  1.0 -0.0504870398
C  C45  1  0.45710000  0.83190000  0.80090000  1.0 -0.0504870398
C  C46  1  0.04290000  0.16810000  0.30090000  1.0 -0.0504870398
C  C47  1  0.54290000  0.33190000  0.69910000  1.0 -0.0504870398
C  C48  1  0.95710000  0.66810000  0.19910000  1.0 -0.0504870398
C  C49  1  0.54560000  0.20150000  0.24450000  1.0 0.0397355389
C  C50  1  0.95440000  0.79850000  0.74450000  1.0 0.0397355389
C  C51  1  0.45440000  0.70150000  0.25550000  1.0 0.0397355389
C  C52  1  0.04560000  0.29850000  0.75550000  1.0 0.0397355389
C  C53  1  0.45440000  0.79850000  0.75550000  1.0 0.0397355389
C  C54  1  0.04560000  0.20150000  0.25550000  1.0 0.0397355389
C  C55  1  0.54560000  0.29850000  0.74450000  1.0 0.0397355389
C  C56  1  0.95440000  0.70150000  0.24450000  1.0 0.0397355389
C  C57  1  0.58250000  0.18240000  0.28350000  1.0 -0.0429328722
C  C58  1  0.91750000  0.81760000  0.78350000  1.0 -0.0429328722
C  C59  1  0.41750000  0.68240000  0.21650000  1.0 -0.0429328722
C  C60  1  0.08250000  0.31760000  0.71650000  1.0 -0.0429328722
C  C61  1  0.41750000  0.81760000  0.71650000  1.0 -0.0429328722
C  C62  1  0.08250000  0.18240000  0.21650000  1.0 -0.0429328722
C  C63  1  0.58250000  0.31760000  0.78350000  1.0 -0.0429328722
C  C64  1  0.91750000  0.68240000  0.28350000  1.0 -0.0429328722
C  C65  1  0.68560000  0.25060000  0.04430000  1.0 0.0397355389
C  C66  1  0.81440000  0.74940000  0.54430000  1.0 0.0397355389
C  C67  1  0.31440000  0.75060000  0.45570000  1.0 0.0397355389
C  C68  1  0.18560000  0.24940000  0.95570000  1.0 0.0397355389
C  C69  1  0.31440000  0.74940000  0.95570000  1.0 0.0397355389
C  C70  1  0.18560000  0.25060000  0.45570000  1.0 0.0397355389
C  C71  1  0.68560000  0.24940000  0.54430000  1.0 0.0397355389
C  C72  1  0.81440000  0.75060000  0.04430000  1.0 0.0397355389
C  C73  1  0.65070000  0.20600000  0.04580000  1.0 -0.0593517488
C  C74  1  0.84930000  0.79400000  0.54580000  1.0 -0.0593517488
C  C75  1  0.34930000  0.70600000  0.45420000  1.0 -0.0593517488
C  C76  1  0.15070000  0.29400000  0.95420000  1.0 -0.0593517488
C  C77  1  0.34930000  0.79400000  0.95420000  1.0 -0.0593517488
C  C78  1  0.15070000  0.20600000  0.45420000  1.0 -0.0593517488
C  C79  1  0.65070000  0.29400000  0.54580000  1.0 -0.0593517488
C  C80  1  0.84930000  0.70600000  0.04580000  1.0 -0.0593517488
C  C81  1  0.66000000  0.25350000  0.95240000  1.0 -0.2183006007
C  C82  1  0.84000000  0.74650000  0.45240000  1.0 -0.2183006007
C  C83  1  0.34000000  0.75350000  0.54760000  1.0 -0.2183006007
C  C84  1  0.16000000  0.24650000  0.04760000  1.0 -0.2183006007
C  C85  1  0.34000000  0.74650000  0.04760000  1.0 -0.2183006007
C  C86  1  0.16000000  0.25350000  0.54760000  1.0 -0.2183006007
C  C87  1  0.66000000  0.24650000  0.45240000  1.0 -0.2183006007
C  C88  1  0.84000000  0.75350000  0.95240000  1.0 -0.2183006007
C  C89  1  0.74350000  0.31960000  0.24530000  1.0 -0.0691554849
C  C90  1  0.75650000  0.68040000  0.74530000  1.0 -0.0691554849
C  C91  1  0.25650000  0.81960000  0.25470000  1.0 -0.0691554849
C  C92  1  0.24350000  0.18040000  0.75470000  1.0 -0.0691554849
C  C93  1  0.25650000  0.68040000  0.75470000  1.0 -0.0691554849
C  C94  1  0.24350000  0.31960000  0.25470000  1.0 -0.0691554849
C  C95  1  0.74350000  0.18040000  0.74530000  1.0 -0.0691554849
C  C96  1  0.75650000  0.81960000  0.24530000  1.0 -0.0691554849
C  C97  1  0.78210000  0.28430000  0.26910000  1.0 0.0675219687
C  C98  1  0.71790000  0.71570000  0.76910000  1.0 0.0675219687
C  C99  1  0.21790000  0.78430000  0.23090000  1.0 0.0675219687
C  C100  1  0.28210000  0.21570000  0.73090000  1.0 0.0675219687
C  C101  1  0.21790000  0.71570000  0.73090000  1.0 0.0675219687
C  C102  1  0.28210000  0.28430000  0.23090000  1.0 0.0675219687
C  C103  1  0.78210000  0.21570000  0.76910000  1.0 0.0675219687
C  C104  1  0.71790000  0.78430000  0.26910000  1.0 0.0675219687
C  C105  1  0.81440000  0.26030000  0.22790000  1.0 -0.0593517488
C  C106  1  0.68560000  0.73970000  0.72790000  1.0 -0.0593517488
C  C107  1  0.18560000  0.76030000  0.27210000  1.0 -0.0593517488
C  C108  1  0.31440000  0.23970000  0.77210000  1.0 -0.0593517488
C  C109  1  0.18560000  0.73970000  0.77210000  1.0 -0.0593517488
C  C110  1  0.31440000  0.26030000  0.27210000  1.0 -0.0593517488
C  C111  1  0.81440000  0.23970000  0.72790000  1.0 -0.0593517488
C  C112  1  0.68560000  0.76030000  0.22790000  1.0 -0.0593517488
C  C113  1  0.69490000  0.05480000  0.15510000  1.0 -0.0504870398
C  C114  1  0.80510000  0.94520000  0.65510000  1.0 -0.0504870398
C  C115  1  0.30510000  0.55480000  0.34490000  1.0 -0.0504870398
C  C116  1  0.19490000  0.44520000  0.84490000  1.0 -0.0504870398
C  C117  1  0.30510000  0.94520000  0.84490000  1.0 -0.0504870398
C  C118  1  0.19490000  0.05480000  0.34490000  1.0 -0.0504870398
C  C119  1  0.69490000  0.44520000  0.65510000  1.0 -0.0504870398
C  C120  1  0.80510000  0.55480000  0.15510000  1.0 -0.0504870398
C  C121  1  0.74160000  0.05510000  0.18590000  1.0 0.056595877
C  C122  1  0.75840000  0.94490000  0.68590000  1.0 0.056595877
C  C123  1  0.25840000  0.55510000  0.31410000  1.0 0.056595877
C  C124  1  0.24160000  0.44490000  0.81410000  1.0 0.056595877
C  C125  1  0.25840000  0.94490000  0.81410000  1.0 0.056595877
C  C126  1  0.24160000  0.05510000  0.31410000  1.0 0.056595877
C  C127  1  0.74160000  0.44490000  0.68590000  1.0 0.056595877
C  C128  1  0.75840000  0.55510000  0.18590000  1.0 0.056595877
C  C129  1  0.72990000  0.06880000  0.23820000  1.0 -0.0593517488
C  C130  1  0.77010000  0.93120000  0.73820000  1.0 -0.0593517488
C  C131  1  0.27010000  0.56880000  0.26180000  1.0 -0.0593517488
C  C132  1  0.22990000  0.43120000  0.76180000  1.0 -0.0593517488
C  C133  1  0.27010000  0.93120000  0.76180000  1.0 -0.0593517488
C  C134  1  0.22990000  0.06880000  0.26180000  1.0 -0.0593517488
C  C135  1  0.72990000  0.43120000  0.73820000  1.0 -0.0593517488
C  C136  1  0.77010000  0.56880000  0.23820000  1.0 -0.0593517488
C  C137  1  0.78450000  0.08690000  0.16460000  1.0 -0.0429328722
C  C138  1  0.71550000  0.91310000  0.66460000  1.0 -0.0429328722
C  C139  1  0.21550000  0.58690000  0.33540000  1.0 -0.0429328722
C  C140  1  0.28450000  0.41310000  0.83540000  1.0 -0.0429328722
C  C141  1  0.21550000  0.91310000  0.83540000  1.0 -0.0429328722
C  C142  1  0.28450000  0.08690000  0.33540000  1.0 -0.0429328722
C  C143  1  0.78450000  0.41310000  0.66460000  1.0 -0.0429328722
C  C144  1  0.71550000  0.58690000  0.16460000  1.0 -0.0429328722
C  C145  1  0.55970000  0.25320000  0.22960000  1.0 -0.0691554849
C  C146  1  0.94030000  0.74680000  0.72960000  1.0 -0.0691554849
C  C147  1  0.44030000  0.75320000  0.27040000  1.0 -0.0691554849
C  C148  1  0.05970000  0.24680000  0.77040000  1.0 -0.0691554849
C  C149  1  0.44030000  0.74680000  0.77040000  1.0 -0.0691554849
C  C150  1  0.05970000  0.25320000  0.27040000  1.0 -0.0691554849
C  C151  1  0.55970000  0.24680000  0.72960000  1.0 -0.0691554849
C  C152  1  0.94030000  0.75320000  0.22960000  1.0 -0.0691554849
C  C153  1  0.74090000  0.23450000  0.05500000  1.0 -0.0504870398
C  C154  1  0.75910000  0.76550000  0.55500000  1.0 -0.0504870398
C  C155  1  0.25910000  0.73450000  0.44500000  1.0 -0.0504870398
C  C156  1  0.24090000  0.26550000  0.94500000  1.0 -0.0504870398
C  C157  1  0.25910000  0.76550000  0.94500000  1.0 -0.0504870398
C  C158  1  0.24090000  0.23450000  0.44500000  1.0 -0.0504870398
C  C159  1  0.74090000  0.26550000  0.55500000  1.0 -0.0504870398
C  C160  1  0.75910000  0.73450000  0.05500000  1.0 -0.0504870398
C  C161  1  0.49390000  0.20320000  0.27150000  1.0 0.0999075447
C  C162  1  0.00610000  0.79680000  0.77150000  1.0 0.0999075447
C  C163  1  0.50610000  0.70320000  0.22850000  1.0 0.0999075447
C  C164  1  0.99390000  0.29680000  0.72850000  1.0 0.0999075447
C  C165  1  0.50610000  0.79680000  0.72850000  1.0 0.0999075447
C  C166  1  0.99390000  0.20320000  0.22850000  1.0 0.0999075447
C  C167  1  0.49390000  0.29680000  0.77150000  1.0 0.0999075447
C  C168  1  0.00610000  0.70320000  0.27150000  1.0 0.0999075447
C  C169  1  0.81690000  0.31870000  0.11060000  1.0 0.6681850921
C  C170  1  0.68310000  0.68130000  0.61060000  1.0 0.6681850921
C  C171  1  0.18310000  0.81870000  0.38940000  1.0 0.6681850921
C  C172  1  0.31690000  0.18130000  0.88940000  1.0 0.6681850921
C  C173  1  0.18310000  0.68130000  0.88940000  1.0 0.6681850921
C  C174  1  0.31690000  0.31870000  0.38940000  1.0 0.6681850921
C  C175  1  0.81690000  0.18130000  0.61060000  1.0 0.6681850921
C  C176  1  0.68310000  0.81870000  0.11060000  1.0 0.6681850921
C  C177  1  0.76450000  0.00340000  0.18630000  1.0 0.0999075447
C  C178  1  0.73550000  0.99660000  0.68630000  1.0 0.0999075447
C  C179  1  0.23550000  0.50340000  0.31370000  1.0 0.0999075447
C  C180  1  0.26450000  0.49660000  0.81370000  1.0 0.0999075447
C  C181  1  0.23550000  0.99660000  0.81370000  1.0 0.0999075447
C  C182  1  0.26450000  0.00340000  0.31370000  1.0 0.0999075447
C  C183  1  0.76450000  0.49660000  0.68630000  1.0 0.0999075447
C  C184  1  0.73550000  0.50340000  0.18630000  1.0 0.0999075447
C  C185  1  0.62820000  0.33333333  0.30780000  1.0 0.6892483263
C  C186  1  0.87180000  0.66666667  0.80780000  1.0 0.6892483263
C  C187  1  0.37180000  0.83333000  0.19220000  1.0 0.6892483263
C  C188  1  0.12820000  0.16667000  0.69220000  1.0 0.6892483263
C  C189  1  0.37180000  0.66666667  0.69220000  1.0 0.6892483263
C  C190  1  0.12820000  0.33333333  0.19220000  1.0 0.6892483263
C  C191  1  0.62820000  0.16667000  0.80780000  1.0 0.6892483263
C  C192  1  0.87180000  0.83333000  0.30780000  1.0 0.6892483263
C  C193  1  0.81920000  0.31760000  0.30110000  1.0 0.0999075447
C  C194  1  0.68080000  0.68240000  0.80110000  1.0 0.0999075447
C  C195  1  0.18080000  0.81760000  0.19890000  1.0 0.0999075447
C  C196  1  0.31920000  0.18240000  0.69890000  1.0 0.0999075447
C  C197  1  0.18080000  0.68240000  0.69890000  1.0 0.0999075447
C  C198  1  0.31920000  0.31760000  0.19890000  1.0 0.0999075447
C  C199  1  0.81920000  0.18240000  0.80110000  1.0 0.0999075447
C  C200  1  0.68080000  0.81760000  0.30110000  1.0 0.0999075447
C  C201  1  0.80370000  0.34710000  0.33430000  1.0 -0.209548702
C  C202  1  0.69630000  0.65290000  0.83430000  1.0 -0.209548702
C  C203  1  0.19630000  0.84710000  0.16570000  1.0 -0.209548702
C  C204  1  0.30370000  0.15290000  0.66570000  1.0 -0.209548702
C  C205  1  0.19630000  0.65290000  0.66570000  1.0 -0.209548702
C  C206  1  0.30370000  0.34710000  0.16570000  1.0 -0.209548702
C  C207  1  0.80370000  0.15290000  0.83430000  1.0 -0.209548702
C  C208  1  0.69630000  0.84710000  0.33430000  1.0 -0.209548702
C  C209  1  0.89990000  0.33710000  0.33610000  1.0 0.0675219687
C  C210  1  0.60010000  0.66290000  0.83610000  1.0 0.0675219687
C  C211  1  0.10010000  0.83710000  0.16390000  1.0 0.0675219687
C  C212  1  0.39990000  0.16290000  0.66390000  1.0 0.0675219687
C  C213  1  0.10010000  0.66290000  0.66390000  1.0 0.0675219687
C  C214  1  0.39990000  0.33710000  0.16390000  1.0 0.0675219687
C  C215  1  0.89990000  0.16290000  0.83610000  1.0 0.0675219687
C  C216  1  0.60010000  0.83710000  0.33610000  1.0 0.0675219687
C  C217  1  0.86830000  0.31290000  0.30420000  1.0 -0.230726433
C  C218  1  0.63170000  0.68710000  0.80420000  1.0 -0.230726433
C  C219  1  0.13170000  0.81290000  0.19580000  1.0 -0.230726433
C  C220  1  0.36830000  0.18710000  0.69580000  1.0 -0.230726433
C  C221  1  0.13170000  0.68710000  0.69580000  1.0 -0.230726433
C  C222  1  0.36830000  0.31290000  0.19580000  1.0 -0.230726433
C  C223  1  0.86830000  0.18710000  0.80420000  1.0 -0.230726433
C  C224  1  0.63170000  0.81290000  0.30420000  1.0 -0.230726433
C  C225  1  0.83410000  0.37220000  0.36850000  1.0 0.056595877
C  C226  1  0.66590000  0.62780000  0.86850000  1.0 0.056595877
C  C227  1  0.16590000  0.87220000  0.13150000  1.0 0.056595877
C  C228  1  0.33410000  0.12780000  0.63150000  1.0 0.056595877
C  C229  1  0.16590000  0.62780000  0.63150000  1.0 0.056595877
C  C230  1  0.33410000  0.37220000  0.13150000  1.0 0.056595877
C  C231  1  0.83410000  0.12780000  0.86850000  1.0 0.056595877
C  C232  1  0.66590000  0.87220000  0.36850000  1.0 0.056595877
C  C233  1  0.62100000  0.35950000  0.35640000  1.0 -0.5970031227
C  C234  1  0.87900000  0.64050000  0.85640000  1.0 -0.5970031227
C  C235  1  0.37900000  0.85950000  0.14360000  1.0 -0.5970031227
C  C236  1  0.12100000  0.14050000  0.64360000  1.0 -0.5970031227
C  C237  1  0.37900000  0.64050000  0.64360000  1.0 -0.5970031227
C  C238  1  0.12100000  0.35950000  0.14360000  1.0 -0.5970031227
C  C239  1  0.62100000  0.14050000  0.85640000  1.0 -0.5970031227
C  C240  1  0.87900000  0.85950000  0.35640000  1.0 -0.5970031227
C  C241  1  0.46520000  0.16150000  0.27910000  1.0 -0.2407528436
C  C242  1  0.03480000  0.83850000  0.77910000  1.0 -0.2407528436
C  C243  1  0.53480000  0.66150000  0.22090000  1.0 -0.2407528436
C  C244  1  0.96520000  0.33850000  0.72090000  1.0 -0.2407528436
C  C245  1  0.53480000  0.83850000  0.72090000  1.0 -0.2407528436
C  C246  1  0.96520000  0.16150000  0.22090000  1.0 -0.2407528436
C  C247  1  0.46520000  0.33850000  0.77910000  1.0 -0.2407528436
C  C248  1  0.03480000  0.66150000  0.27910000  1.0 -0.2407528436
C  C249  1  0.55690000  0.37750000  0.12970000  1.0 0.5951745058
C  C250  1  0.94310000  0.62250000  0.62970000  1.0 0.5951745058
C  C251  1  0.44310000  0.87750000  0.37030000  1.0 0.5951745058
C  C252  1  0.05690000  0.12250000  0.87030000  1.0 0.5951745058
C  C253  1  0.44310000  0.62250000  0.87030000  1.0 0.5951745058
C  C254  1  0.05690000  0.37750000  0.37030000  1.0 0.5951745058
C  C255  1  0.55690000  0.12250000  0.62970000  1.0 0.5951745058
C  C256  1  0.94310000  0.87750000  0.12970000  1.0 0.5951745058
C  C257  1  0.47500000  0.24300000  0.29420000  1.0 -0.230726433
C  C258  1  0.02500000  0.75700000  0.79420000  1.0 -0.230726433
C  C259  1  0.52500000  0.74300000  0.20580000  1.0 -0.230726433
C  C260  1  0.97500000  0.25700000  0.70580000  1.0 -0.230726433
C  C261  1  0.52500000  0.75700000  0.70580000  1.0 -0.230726433
C  C262  1  0.97500000  0.24300000  0.20580000  1.0 -0.230726433
C  C263  1  0.47500000  0.25700000  0.79420000  1.0 -0.230726433
C  C264  1  0.02500000  0.74300000  0.29420000  1.0 -0.230726433
C  C265  1  0.51190000  0.39640000  0.10010000  1.0 -0.5782219529
C  C266  1  0.98810000  0.60360000  0.60010000  1.0 -0.5782219529
C  C267  1  0.48810000  0.89640000  0.39990000  1.0 -0.5683419946
C  C268  1  0.01190000  0.10360000  0.89990000  1.0 -0.5683419946
C  C269  1  0.48810000  0.60360000  0.89990000  1.0 -0.5683419946
C  C270  1  0.01190000  0.39640000  0.39990000  1.0 -0.5683419946
C  C271  1  0.51190000  0.10360000  0.60010000  1.0 -0.5683419946
C  C272  1  0.98810000  0.89640000  0.10010000  1.0 -0.5782219529
C  C273  1  0.84040000  0.36710000  0.08680000  1.0 -0.5782219529
C  C274  1  0.65960000  0.63290000  0.58680000  1.0 -0.5782219529
C  C275  1  0.15960000  0.86710000  0.41320000  1.0 -0.5782219529
C  C276  1  0.34040000  0.13290000  0.91320000  1.0 -0.5782219529
C  C277  1  0.15960000  0.63290000  0.91320000  1.0 -0.5782219529
C  C278  1  0.34040000  0.36710000  0.41320000  1.0 -0.5782219529
C  C279  1  0.84040000  0.13290000  0.58680000  1.0 -0.5782219529
C  C280  1  0.65960000  0.86710000  0.08680000  1.0 -0.5782219529
C  C281  1  0.43030000  0.23970000  0.32060000  1.0 0.0765238958
C  C282  1  0.06970000  0.76030000  0.82060000  1.0 0.0765238958
C  C283  1  0.56970000  0.73970000  0.17940000  1.0 0.0765238958
C  C284  1  0.93030000  0.26030000  0.67940000  1.0 0.0765238958
C  C285  1  0.56970000  0.76030000  0.67940000  1.0 0.0765238958
C  C286  1  0.93030000  0.23970000  0.17940000  1.0 0.0765238958
C  C287  1  0.43030000  0.26030000  0.82060000  1.0 0.0765238958
C  C288  1  0.06970000  0.73970000  0.32060000  1.0 0.0765238958
C  C289  1  0.41980000  0.16080000  0.30500000  1.0 0.1091247926
C  C290  1  0.08020000  0.83920000  0.80500000  1.0 0.1091247926
C  C291  1  0.58020000  0.66080000  0.19500000  1.0 0.1091247926
C  C292  1  0.91980000  0.33920000  0.69500000  1.0 0.1091247926
C  C293  1  0.58020000  0.83920000  0.69500000  1.0 0.1091247926
C  C294  1  0.91980000  0.16080000  0.19500000  1.0 0.1091247926
C  C295  1  0.41980000  0.33920000  0.80500000  1.0 0.1091247926
C  C296  1  0.08020000  0.66080000  0.30500000  1.0 0.1091247926
C  C297  1  0.76740000  0.97570000  0.14650000  1.0 -0.230726433
C  C298  1  0.73260000  0.02430000  0.64650000  1.0 -0.230726433
C  C299  1  0.23260000  0.47570000  0.35350000  1.0 -0.230726433
C  C300  1  0.26740000  0.52430000  0.85350000  1.0 -0.230726433
C  C301  1  0.23260000  0.02430000  0.85350000  1.0 -0.230726433
C  C302  1  0.26740000  0.97570000  0.35350000  1.0 -0.230726433
C  C303  1  0.76740000  0.52430000  0.64650000  1.0 -0.230726433
C  C304  1  0.73260000  0.47570000  0.14650000  1.0 -0.230726433
C  C305  1  0.78280000  0.98160000  0.22720000  1.0 -0.2407528436
C  C306  1  0.71720000  0.01840000  0.72720000  1.0 -0.2407528436
C  C307  1  0.21720000  0.48160000  0.27280000  1.0 -0.2407528436
C  C308  1  0.28280000  0.51840000  0.77280000  1.0 -0.2407528436
C  C309  1  0.21720000  0.01840000  0.77280000  1.0 -0.2407528436
C  C310  1  0.28280000  0.98160000  0.27280000  1.0 -0.2407528436
C  C311  1  0.78280000  0.51840000  0.72720000  1.0 -0.2407528436
C  C312  1  0.71720000  0.48160000  0.22720000  1.0 -0.2407528436
C  C313  1  0.80990000  0.93410000  0.22670000  1.0 0.0999075447
C  C314  1  0.69010000  0.06590000  0.72670000  1.0 0.0999075447
C  C315  1  0.19010000  0.43410000  0.27330000  1.0 0.0999075447
C  C316  1  0.30990000  0.56590000  0.77330000  1.0 0.0999075447
C  C317  1  0.19010000  0.06590000  0.77330000  1.0 0.0999075447
C  C318  1  0.30990000  0.93410000  0.27330000  1.0 0.0999075447
C  C319  1  0.80990000  0.56590000  0.72670000  1.0 0.0999075447
C  C320  1  0.69010000  0.43410000  0.22670000  1.0 0.0999075447
C  C321  1  0.79120000  0.92710000  0.14900000  1.0 0.1208864951
C  C322  1  0.70880000  0.07290000  0.64900000  1.0 0.1208864951
C  C323  1  0.20880000  0.42710000  0.35100000  1.0 0.1208864951
C  C324  1  0.29120000  0.57290000  0.85100000  1.0 0.1208864951
C  C325  1  0.20880000  0.07290000  0.85100000  1.0 0.1208864951
C  C326  1  0.29120000  0.92710000  0.35100000  1.0 0.1208864951
C  C327  1  0.79120000  0.57290000  0.64900000  1.0 0.1208864951
C  C328  1  0.70880000  0.42710000  0.14900000  1.0 0.1208864951
C  C329  1  0.86130000  0.14260000  0.05010000  1.0 0.6286305184
C  C330  1  0.63870000  0.85740000  0.55010000  1.0 0.6286305184
C  C331  1  0.13870000  0.64260000  0.44990000  1.0 0.6286305184
C  C332  1  0.36130000  0.35740000  0.94990000  1.0 0.6286305184
C  C333  1  0.13870000  0.85740000  0.94990000  1.0 0.6286305184
C  C334  1  0.36130000  0.14260000  0.44990000  1.0 0.6286305184
C  C335  1  0.86130000  0.35740000  0.55010000  1.0 0.6286305184
C  C336  1  0.63870000  0.64260000  0.05010000  1.0 0.6286305184
C  C337  1  0.82170000  0.13470000  0.31030000  1.0 0.6892483263
C  C338  1  0.67830000  0.86530000  0.81030000  1.0 0.6892483263
C  C339  1  0.17830000  0.63470000  0.18970000  1.0 0.6892483263
C  C340  1  0.32170000  0.36530000  0.68970000  1.0 0.6892483263
C  C341  1  0.17830000  0.86530000  0.68970000  1.0 0.6892483263
C  C342  1  0.32170000  0.13470000  0.18970000  1.0 0.6892483263
C  C343  1  0.82170000  0.36530000  0.81030000  1.0 0.6892483263
C  C344  1  0.67830000  0.63470000  0.31030000  1.0 0.6892483263
C  C345  1  0.88640000  0.11170000  0.00400000  1.0 -0.5911566049
C  C346  1  0.61360000  0.88830000  0.50400000  1.0 -0.5911566049
C  C347  1  0.11360000  0.61170000  0.49600000  1.0 -0.5911566049
C  C348  1  0.38640000  0.38830000  0.99600000  1.0 -0.5911566049
C  C349  1  0.11360000  0.88830000  0.99600000  1.0 -0.5911566049
C  C350  1  0.38640000  0.11170000  0.49600000  1.0 -0.5911566049
C  C351  1  0.88640000  0.38830000  0.50400000  1.0 -0.5911566049
C  C352  1  0.61360000  0.61170000  0.00400000  1.0 -0.5911566049
C  C353  1  0.87670000  0.12970000  0.33630000  1.0 -0.5970031227
C  C354  1  0.62330000  0.87030000  0.83630000  1.0 -0.5970031227
C  C355  1  0.12330000  0.62970000  0.16370000  1.0 -0.5970031227
C  C356  1  0.37670000  0.37030000  0.66370000  1.0 -0.5970031227
C  C357  1  0.12330000  0.87030000  0.66370000  1.0 -0.5970031227
C  C358  1  0.37670000  0.12970000  0.16370000  1.0 -0.5970031227
C  C359  1  0.87670000  0.37030000  0.83630000  1.0 -0.5970031227
C  C360  1  0.62330000  0.62970000  0.33630000  1.0 -0.5970031227
C  C361  1  0.65450000  0.05800000  0.36280000  1.0 0.5495638693
C  C362  1  0.84550000  0.94200000  0.86280000  1.0 0.5495638693
C  C363  1  0.34550000  0.55800000  0.13720000  1.0 0.5495638693
C  C364  1  0.15450000  0.44200000  0.63720000  1.0 0.5495638693
C  C365  1  0.34550000  0.94200000  0.63720000  1.0 0.5495638693
C  C366  1  0.15450000  0.05800000  0.13720000  1.0 0.5495638693
C  C367  1  0.65450000  0.44200000  0.86280000  1.0 0.5495638693
C  C368  1  0.84550000  0.55800000  0.36280000  1.0 0.5495638693
C  C369  1  0.63290000  0.01410000  0.38870000  1.0 -0.5683419946
C  C370  1  0.86710000  0.98590000  0.88870000  1.0 -0.5596364384
C  C371  1  0.36710000  0.51410000  0.11130000  1.0 -0.5683419946
C  C372  1  0.13290000  0.48590000  0.61130000  1.0 -0.5596364384
C  C373  1  0.36710000  0.98590000  0.61130000  1.0 -0.5596364384
C  C374  1  0.13290000  0.01410000  0.11130000  1.0 -0.5683419946
C  C375  1  0.63290000  0.48590000  0.88870000  1.0 -0.5596364384
C  C376  1  0.86710000  0.51410000  0.38870000  1.0 -0.5683419946
C  C377  1  0.70130000  0.09320000  0.02770000  1.0 0.6892483263
C  C378  1  0.79870000  0.90680000  0.52770000  1.0 0.6892483263
C  C379  1  0.29870000  0.59320000  0.47230000  1.0 0.6892483263
C  C380  1  0.20130000  0.40680000  0.97230000  1.0 0.6892483263
C  C381  1  0.29870000  0.90680000  0.97230000  1.0 0.6892483263
C  C382  1  0.20130000  0.09320000  0.47230000  1.0 0.6892483263
C  C383  1  0.70130000  0.40680000  0.52770000  1.0 0.6892483263
C  C384  1  0.79870000  0.59320000  0.02770000  1.0 0.6892483263
C  C385  1  0.66720000  0.29240000  0.07750000  1.0 -0.0593517488
C  C386  1  0.83280000  0.70760000  0.57750000  1.0 -0.0593517488
C  C387  1  0.33280000  0.79240000  0.42250000  1.0 -0.0593517488
C  C388  1  0.16720000  0.20760000  0.92250000  1.0 -0.0593517488
C  C389  1  0.33280000  0.70760000  0.92250000  1.0 -0.0593517488
C  C390  1  0.16720000  0.29240000  0.42250000  1.0 -0.0593517488
C  C391  1  0.66720000  0.20760000  0.57750000  1.0 -0.0593517488
C  C392  1  0.83280000  0.79240000  0.07750000  1.0 -0.0593517488
C  C393  1  0.72400000  0.08310000  0.97210000  1.0 -0.5970031227
C  C394  1  0.77600000  0.91690000  0.47210000  1.0 -0.5970031227
C  C395  1  0.27600000  0.58310000  0.52790000  1.0 -0.5970031227
C  C396  1  0.22400000  0.41690000  0.02790000  1.0 -0.5970031227
C  C397  1  0.27600000  0.91690000  0.02790000  1.0 -0.5970031227
C  C398  1  0.22400000  0.08310000  0.52790000  1.0 -0.5970031227
C  C399  1  0.72400000  0.41690000  0.47210000  1.0 -0.5970031227
C  C400  1  0.77600000  0.58310000  0.97210000  1.0 -0.5970031227
N  N1  1  0.69160000  0.31490000  0.89690000  1.0 -0.230726433
N  N2  1  0.80840000  0.68510000  0.39690000  1.0 -0.230726433
N  N3  1  0.30840000  0.81490000  0.60310000  1.0 -0.230726433
N  N4  1  0.19160000  0.18510000  0.10310000  1.0 -0.230726433
N  N5  1  0.30840000  0.68510000  0.10310000  1.0 -0.230726433
N  N6  1  0.19160000  0.31490000  0.60310000  1.0 -0.230726433
N  N7  1  0.69160000  0.18510000  0.39690000  1.0 -0.230726433
N  N8  1  0.80840000  0.81490000  0.89690000  1.0 -0.230726433
N  N9  1  0.88210000  0.36890000  0.36600000  1.0 -0.253604312
N  N10  1  0.61790000  0.63110000  0.86600000  1.0 -0.253604312
N  N11  1  0.11790000  0.86890000  0.13400000  1.0 -0.253604312
N  N12  1  0.38210000  0.13110000  0.63400000  1.0 -0.253604312
N  N13  1  0.11790000  0.63110000  0.63400000  1.0 -0.253604312
N  N14  1  0.38210000  0.36890000  0.13400000  1.0 -0.253604312
N  N15  1  0.88210000  0.13110000  0.86600000  1.0 -0.253604312
N  N16  1  0.61790000  0.86890000  0.36600000  1.0 -0.253604312
N  N17  1  0.40380000  0.20010000  0.32780000  1.0 -0.2183006007
N  N18  1  0.09620000  0.79990000  0.82780000  1.0 -0.2183006007
N  N19  1  0.59620000  0.70010000  0.17220000  1.0 -0.2183006007
N  N20  1  0.90380000  0.29990000  0.67220000  1.0 -0.2183006007
N  N21  1  0.59620000  0.79990000  0.67220000  1.0 -0.2183006007
N  N22  1  0.90380000  0.20010000  0.17220000  1.0 -0.2183006007
N  N23  1  0.40380000  0.29990000  0.82780000  1.0 -0.2183006007
N  N24  1  0.09620000  0.70010000  0.32780000  1.0 -0.2183006007
N  N25  1  0.81460000  0.91030000  0.18560000  1.0 -0.2183006007
N  N26  1  0.68540000  0.08970000  0.68560000  1.0 -0.2183006007
N  N27  1  0.18540000  0.41030000  0.31440000  1.0 -0.2183006007
N  N28  1  0.31460000  0.58970000  0.81440000  1.0 -0.2183006007
N  N29  1  0.18540000  0.08970000  0.81440000  1.0 -0.2183006007
N  N30  1  0.31460000  0.91030000  0.31440000  1.0 -0.2183006007
N  N31  1  0.81460000  0.58970000  0.68560000  1.0 -0.2183006007
N  N32  1  0.68540000  0.41030000  0.18560000  1.0 -0.2183006007
O  O1  1  0.66470000  0.27880000  0.12870000  1.0 -0.5495519618
O  O2  1  0.83530000  0.72120000  0.62870000  1.0 -0.5495519618
O  O3  1  0.33530000  0.77880000  0.37130000  1.0 -0.5495519618
O  O4  1  0.16470000  0.22120000  0.87130000  1.0 -0.5495519618
O  O5  1  0.33530000  0.72120000  0.87130000  1.0 -0.5495519618
O  O6  1  0.16470000  0.27880000  0.37130000  1.0 -0.5495519618
O  O7  1  0.66470000  0.22120000  0.62870000  1.0 -0.5495519618
O  O8  1  0.83530000  0.77880000  0.12870000  1.0 -0.5495519618
O  O9  1  0.70550000  0.29300000  0.21740000  1.0 -0.5396963244
O  O10  1  0.79450000  0.70700000  0.71740000  1.0 -0.5396963244
O  O11  1  0.29450000  0.79300000  0.28260000  1.0 -0.5396963244
O  O12  1  0.20550000  0.20700000  0.78260000  1.0 -0.5396963244
O  O13  1  0.29450000  0.70700000  0.78260000  1.0 -0.5396963244
O  O14  1  0.20550000  0.29300000  0.28260000  1.0 -0.5396963244
O  O15  1  0.70550000  0.20700000  0.71740000  1.0 -0.5396963244
O  O16  1  0.79450000  0.79300000  0.21740000  1.0 -0.5396963244
O  O17  1  0.60870000  0.25840000  0.20730000  1.0 -0.5396963244
O  O18  1  0.89130000  0.74160000  0.70730000  1.0 -0.5396963244
O  O19  1  0.39130000  0.75840000  0.29270000  1.0 -0.5396963244
O  O20  1  0.10870000  0.24160000  0.79270000  1.0 -0.5396963244
O  O21  1  0.39130000  0.74160000  0.79270000  1.0 -0.5396963244
O  O22  1  0.10870000  0.25840000  0.29270000  1.0 -0.5396963244
O  O23  1  0.60870000  0.24160000  0.70730000  1.0 -0.5396963244
O  O24  1  0.89130000  0.75840000  0.20730000  1.0 -0.5396963244
O  O25  1  0.72690000  0.21200000  0.27850000  1.0 -0.5396963244
O  O26  1  0.77310000  0.78800000  0.77850000  1.0 -0.5396963244
O  O27  1  0.27310000  0.71200000  0.22150000  1.0 -0.5396963244
O  O28  1  0.22690000  0.28800000  0.72150000  1.0 -0.5396963244
O  O29  1  0.27310000  0.78800000  0.72150000  1.0 -0.5396963244
O  O30  1  0.22690000  0.21200000  0.22150000  1.0 -0.5396963244
O  O31  1  0.72690000  0.28800000  0.77850000  1.0 -0.5396963244
O  O32  1  0.77310000  0.71200000  0.27850000  1.0 -0.5396963244
O  O33  1  0.64120000  0.28800000  0.31050000  1.0 -0.6171442722
O  O34  1  0.85880000  0.71200000  0.81050000  1.0 -0.6171442722
O  O35  1  0.35880000  0.78800000  0.18950000  1.0 -0.6171442722
O  O36  1  0.14120000  0.21200000  0.68950000  1.0 -0.6171442722
O  O37  1  0.35880000  0.71200000  0.68950000  1.0 -0.6171442722
O  O38  1  0.14120000  0.28800000  0.18950000  1.0 -0.6171442722
O  O39  1  0.64120000  0.21200000  0.81050000  1.0 -0.6171442722
O  O40  1  0.85880000  0.78800000  0.31050000  1.0 -0.6171442722
O  O41  1  0.64800000  0.18240000  0.09280000  1.0 -0.5495519618
O  O42  1  0.85200000  0.81760000  0.59280000  1.0 -0.5495519618
O  O43  1  0.35200000  0.68240000  0.40720000  1.0 -0.5495519618
O  O44  1  0.14800000  0.31760000  0.90720000  1.0 -0.5495519618
O  O45  1  0.35200000  0.81760000  0.90720000  1.0 -0.5495519618
O  O46  1  0.14800000  0.18240000  0.40720000  1.0 -0.5495519618
O  O47  1  0.64800000  0.31760000  0.59280000  1.0 -0.5495519618
O  O48  1  0.85200000  0.68240000  0.09280000  1.0 -0.5495519618
O  O49  1  0.78680000  0.23040000  0.19560000  1.0 -0.5330211153
O  O50  1  0.71320000  0.76960000  0.69560000  1.0 -0.5330211153
O  O51  1  0.21320000  0.73040000  0.30440000  1.0 -0.5330211153
O  O52  1  0.28680000  0.26960000  0.80440000  1.0 -0.5330211153
O  O53  1  0.21320000  0.76960000  0.80440000  1.0 -0.5330211153
O  O54  1  0.28680000  0.23040000  0.30440000  1.0 -0.5330211153
O  O55  1  0.78680000  0.26960000  0.69560000  1.0 -0.5330211153
O  O56  1  0.71320000  0.73040000  0.19560000  1.0 -0.5330211153
O  O57  1  0.59020000  0.16200000  0.17440000  1.0 -0.5495519618
O  O58  1  0.90980000  0.83800000  0.67440000  1.0 -0.5495519618
O  O59  1  0.40980000  0.66200000  0.32560000  1.0 -0.5495519618
O  O60  1  0.09020000  0.33800000  0.82560000  1.0 -0.5495519618
O  O61  1  0.40980000  0.83800000  0.82560000  1.0 -0.5495519618
O  O62  1  0.09020000  0.16200000  0.32560000  1.0 -0.5495519618
O  O63  1  0.59020000  0.33800000  0.67440000  1.0 -0.5495519618
O  O64  1  0.90980000  0.66200000  0.17440000  1.0 -0.5495519618
O  O65  1  0.77470000  0.32300000  0.12760000  1.0 -0.5683419946
O  O66  1  0.72530000  0.67700000  0.62760000  1.0 -0.5683419946
O  O67  1  0.22530000  0.82300000  0.37240000  1.0 -0.5683419946
O  O68  1  0.27470000  0.17700000  0.87240000  1.0 -0.5683419946
O  O69  1  0.22530000  0.67700000  0.87240000  1.0 -0.5683419946
O  O70  1  0.27470000  0.32300000  0.37240000  1.0 -0.5683419946
O  O71  1  0.77470000  0.17700000  0.62760000  1.0 -0.5683419946
O  O72  1  0.72530000  0.82300000  0.12760000  1.0 -0.5683419946
O  O73  1  0.77020000  0.13960000  0.16100000  1.0 -0.5495519618
O  O74  1  0.72980000  0.86040000  0.66100000  1.0 -0.5495519618
O  O75  1  0.22980000  0.63960000  0.33900000  1.0 -0.5495519618
O  O76  1  0.27020000  0.36040000  0.83900000  1.0 -0.5495519618
O  O77  1  0.22980000  0.86040000  0.83900000  1.0 -0.5495519618
O  O78  1  0.27020000  0.13960000  0.33900000  1.0 -0.5495519618
O  O79  1  0.77020000  0.36040000  0.66100000  1.0 -0.5495519618
O  O80  1  0.72980000  0.63960000  0.16100000  1.0 -0.5495519618
O  O81  1  0.63350000  0.17780000  0.26990000  1.0 -0.5396963244
O  O82  1  0.86650000  0.82220000  0.76990000  1.0 -0.5396963244
O  O83  1  0.36650000  0.67780000  0.23010000  1.0 -0.5396963244
O  O84  1  0.13350000  0.32220000  0.73010000  1.0 -0.5396963244
O  O85  1  0.36650000  0.82220000  0.73010000  1.0 -0.5396963244
O  O86  1  0.13350000  0.17780000  0.23010000  1.0 -0.5396963244
O  O87  1  0.63350000  0.32220000  0.76990000  1.0 -0.5396963244
O  O88  1  0.86650000  0.67780000  0.26990000  1.0 -0.5396963244
O  O89  1  0.74660000  0.21580000  0.10340000  1.0 -0.5396963244
O  O90  1  0.75340000  0.78420000  0.60340000  1.0 -0.5396963244
O  O91  1  0.25340000  0.71580000  0.39660000  1.0 -0.5396963244
O  O92  1  0.24660000  0.28420000  0.89660000  1.0 -0.5396963244
O  O93  1  0.25340000  0.78420000  0.89660000  1.0 -0.5396963244
O  O94  1  0.24660000  0.21580000  0.39660000  1.0 -0.5396963244
O  O95  1  0.74660000  0.28420000  0.60340000  1.0 -0.5396963244
O  O96  1  0.75340000  0.71580000  0.10340000  1.0 -0.5396963244
O  O97  1  0.66980000  0.10320000  0.15060000  1.0 -0.5596364384
O  O98  1  0.83020000  0.89680000  0.65060000  1.0 -0.5596364384
O  O99  1  0.33020000  0.60320000  0.34940000  1.0 -0.5596364384
O  O100  1  0.16980000  0.39680000  0.84940000  1.0 -0.5596364384
O  O101  1  0.33020000  0.89680000  0.84940000  1.0 -0.5596364384
O  O102  1  0.16980000  0.10320000  0.34940000  1.0 -0.5596364384
O  O103  1  0.66980000  0.39680000  0.65060000  1.0 -0.5596364384
O  O104  1  0.83020000  0.60320000  0.15060000  1.0 -0.5596364384
O  O105  1  0.82130000  0.14640000  0.26490000  1.0 -0.6076851343
O  O106  1  0.67870000  0.85360000  0.76490000  1.0 -0.6076851343
O  O107  1  0.17870000  0.64640000  0.23510000  1.0 -0.6076851343
O  O108  1  0.32130000  0.35360000  0.73510000  1.0 -0.6076851343
O  O109  1  0.17870000  0.85360000  0.73510000  1.0 -0.6076851343
O  O110  1  0.32130000  0.14640000  0.23510000  1.0 -0.6076851343
O  O111  1  0.82130000  0.35360000  0.76490000  1.0 -0.6076851343
O  O112  1  0.67870000  0.64640000  0.26490000  1.0 -0.6076851343
O  O113  1  0.62010000  0.35700000  0.26920000  1.0 -0.5782219529
O  O114  1  0.87990000  0.64300000  0.76920000  1.0 -0.5782219529
O  O115  1  0.37990000  0.85700000  0.23080000  1.0 -0.5782219529
O  O116  1  0.12010000  0.14300000  0.73080000  1.0 -0.5782219529
O  O117  1  0.37990000  0.64300000  0.73080000  1.0 -0.5782219529
O  O118  1  0.12010000  0.35700000  0.23080000  1.0 -0.5782219529
O  O119  1  0.62010000  0.14300000  0.76920000  1.0 -0.5782219529
O  O120  1  0.87990000  0.85700000  0.26920000  1.0 -0.5782219529
O  O121  1  0.73410000  0.11270000  0.05460000  1.0 -0.5596364384
O  O122  1  0.76590000  0.88730000  0.55460000  1.0 -0.5596364384
O  O123  1  0.26590000  0.61270000  0.44540000  1.0 -0.5596364384
O  O124  1  0.23410000  0.38730000  0.94540000  1.0 -0.5596364384
O  O125  1  0.26590000  0.88730000  0.94540000  1.0 -0.5596364384
O  O126  1  0.23410000  0.11270000  0.44540000  1.0 -0.5596364384
O  O127  1  0.73410000  0.38730000  0.55460000  1.0 -0.5596364384
O  O128  1  0.76590000  0.61270000  0.05460000  1.0 -0.5596364384
O  O129  1  0.71030000  0.11800000  0.24440000  1.0 -0.5495519618
O  O130  1  0.78970000  0.88200000  0.74440000  1.0 -0.5495519618
O  O131  1  0.28970000  0.61800000  0.25560000  1.0 -0.5495519618
O  O132  1  0.21030000  0.38200000  0.75560000  1.0 -0.5495519618
O  O133  1  0.28970000  0.88200000  0.75560000  1.0 -0.5495519618
O  O134  1  0.21030000  0.11800000  0.25560000  1.0 -0.5495519618
O  O135  1  0.71030000  0.38200000  0.74440000  1.0 -0.5495519618
O  O136  1  0.78970000  0.61800000  0.24440000  1.0 -0.5495519618
O  O137  1  0.84540000  0.28220000  0.10720000  1.0 -0.5911566049
O  O138  1  0.65460000  0.71780000  0.60720000  1.0 -0.5911566049
O  O139  1  0.15460000  0.78220000  0.39280000  1.0 -0.5911566049
O  O140  1  0.34540000  0.21780000  0.89280000  1.0 -0.5911566049
O  O141  1  0.15460000  0.71780000  0.89280000  1.0 -0.5911566049
O  O142  1  0.34540000  0.28220000  0.39280000  1.0 -0.5911566049
O  O143  1  0.84540000  0.21780000  0.60720000  1.0 -0.5911566049
O  O144  1  0.65460000  0.78220000  0.10720000  1.0 -0.5911566049
O  O145  1  0.78410000  0.13200000  0.33800000  1.0 -0.5911566049
O  O146  1  0.71590000  0.86800000  0.83800000  1.0 -0.5911566049
O  O147  1  0.21590000  0.63200000  0.16200000  1.0 -0.5911566049
O  O148  1  0.28410000  0.36800000  0.66200000  1.0 -0.5911566049
O  O149  1  0.21590000  0.86800000  0.66200000  1.0 -0.5911566049
O  O150  1  0.28410000  0.13200000  0.16200000  1.0 -0.5911566049
O  O151  1  0.78410000  0.36800000  0.83800000  1.0 -0.5911566049
O  O152  1  0.71590000  0.63200000  0.33800000  1.0 -0.5911566049
O  O153  1  0.59950000  0.37870000  0.11450000  1.0 -0.4825189417
O  O154  1  0.90050000  0.62130000  0.61450000  1.0 -0.4825189417
O  O155  1  0.40050000  0.87870000  0.38550000  1.0 -0.4825189417
O  O156  1  0.09950000  0.12130000  0.88550000  1.0 -0.4825189417
O  O157  1  0.40050000  0.62130000  0.88550000  1.0 -0.4825189417
O  O158  1  0.09950000  0.37870000  0.38550000  1.0 -0.4825189417
O  O159  1  0.59950000  0.12130000  0.61450000  1.0 -0.4825189417
O  O160  1  0.90050000  0.87870000  0.11450000  1.0 -0.4825189417
O  O161  1  0.54970000  0.35710000  0.16630000  1.0 -0.4527274673
O  O162  1  0.95030000  0.64290000  0.66630000  1.0 -0.4527274673
O  O163  1  0.45030000  0.85710000  0.33370000  1.0 -0.4527274673
O  O164  1  0.04970000  0.14290000  0.83370000  1.0 -0.4527274673
O  O165  1  0.45030000  0.64290000  0.83370000  1.0 -0.4527274673
O  O166  1  0.04970000  0.35710000  0.33370000  1.0 -0.4527274673
O  O167  1  0.54970000  0.14290000  0.66630000  1.0 -0.4527274673
O  O168  1  0.95030000  0.85710000  0.16630000  1.0 -0.4527274673
O  O169  1  0.84780000  0.18440000  0.04390000  1.0 -0.5115718399
O  O170  1  0.65220000  0.81560000  0.54390000  1.0 -0.5115718399
O  O171  1  0.15220000  0.68440000  0.45610000  1.0 -0.5115718399
O  O172  1  0.34780000  0.31560000  0.95610000  1.0 -0.5115718399
O  O173  1  0.15220000  0.81560000  0.95610000  1.0 -0.5115718399
O  O174  1  0.34780000  0.18440000  0.45610000  1.0 -0.5115718399
O  O175  1  0.84780000  0.31560000  0.54390000  1.0 -0.5115718399
O  O176  1  0.65220000  0.68440000  0.04390000  1.0 -0.5115718399
O  O177  1  0.86930000  0.12450000  0.09050000  1.0 -0.5495519618
O  O178  1  0.63070000  0.87550000  0.59050000  1.0 -0.5495519618
O  O179  1  0.13070000  0.62450000  0.40950000  1.0 -0.5495519618
O  O180  1  0.36930000  0.37550000  0.90950000  1.0 -0.5495519618
O  O181  1  0.13070000  0.87550000  0.90950000  1.0 -0.5495519618
O  O182  1  0.36930000  0.12450000  0.40950000  1.0 -0.5495519618
O  O183  1  0.86930000  0.37550000  0.59050000  1.0 -0.5495519618
O  O184  1  0.63070000  0.62450000  0.09050000  1.0 -0.5495519618
O  O185  1  0.63200000  0.08460000  0.34240000  1.0 -0.3703865041
O  O186  1  0.86800000  0.91540000  0.84240000  1.0 -0.3703865041
O  O187  1  0.36800000  0.58460000  0.15760000  1.0 -0.3703865041
O  O188  1  0.13200000  0.41540000  0.65760000  1.0 -0.3703865041
O  O189  1  0.36800000  0.91540000  0.65760000  1.0 -0.3703865041
O  O190  1  0.13200000  0.08460000  0.15760000  1.0 -0.3703865041
O  O191  1  0.63200000  0.41540000  0.84240000  1.0 -0.3703865041
O  O192  1  0.86800000  0.58460000  0.34240000  1.0 -0.3703865041
O  O193  1  0.69740000  0.06520000  0.36750000  1.0 -0.4039838952
O  O194  1  0.80260000  0.93480000  0.86750000  1.0 -0.4039838952
O  O195  1  0.30260000  0.56520000  0.13250000  1.0 -0.4039838952
O  O196  1  0.19740000  0.43480000  0.63250000  1.0 -0.4039838952
O  O197  1  0.30260000  0.93480000  0.63250000  1.0 -0.4039838952
O  O198  1  0.19740000  0.06520000  0.13250000  1.0 -0.4039838952
O  O199  1  0.69740000  0.43480000  0.86750000  1.0 -0.4039838952
O  O200  1  0.80260000  0.56520000  0.36750000  1.0 -0.4039838952
O  O201  1  0.64530000  0.08090000  0.03780000  1.0 -0.7208268945
O  O202  1  0.85470000  0.91910000  0.53780000  1.0 -0.7208268945
O  O203  1  0.35470000  0.58090000  0.46220000  1.0 -0.7208268945
O  O204  1  0.14530000  0.41910000  0.96220000  1.0 -0.7208268945
O  O205  1  0.35470000  0.91910000  0.96220000  1.0 -0.7208268945
O  O206  1  0.14530000  0.08090000  0.46220000  1.0 -0.7208268945
O  O207  1  0.64530000  0.41910000  0.53780000  1.0 -0.7208268945
O  O208  1  0.85470000  0.58090000  0.03780000  1.0 -0.7208268945
