# DDEC6 charges by PACMAN v1.1 (https://github.com/mtap-research/PACMAN-charge/)
data_HAQTIF_ASR_pacman
_symmetry_space_group_name_H-M   'P 1'
_cell_length_a   17.11840000
_cell_length_b   17.11840000
_cell_length_c   42.73400000
_cell_angle_alpha   90.00000000
_cell_angle_beta   90.00000000
_cell_angle_gamma   120.00000000
_symmetry_Int_Tables_number   1
_chemical_formula_structural   Mn4Cu7H63C47N5O21
_chemical_formula_sum   'Mn16 Cu28 H252 C188 N20 O84'
_cell_volume   10845.02400693
_cell_formula_units_Z   4
loop_
 _symmetry_equiv_pos_site_id
 _symmetry_equiv_pos_as_xyz
  1  'x, y, z'
loop_
 _atom_site_type_symbol
 _atom_site_label
 _atom_site_symmetry_multiplicity
 _atom_site_fract_x
 _atom_site_fract_y
 _atom_site_fract_z
 _atom_site_occupancy
 _atom_site_charge
Mn  Mn1  1  0.66666667  0.33333333  0.20323000  1.0 0.9577410647
Mn  Mn2  1  0.66666667  0.33333333  0.29677000  1.0 0.9577410647
Mn  Mn3  1  0.79135000  0.58270000  0.08054000  1.0 0.9287333815
Mn  Mn4  1  0.79135000  0.20865000  0.08054000  1.0 0.9287333815
Mn  Mn5  1  0.41730000  0.20865000  0.08054000  1.0 0.9287333815
Mn  Mn6  1  0.79135000  0.58270000  0.41946000  1.0 0.9287333815
Mn  Mn7  1  0.41730000  0.20865000  0.41946000  1.0 0.9287333815
Mn  Mn8  1  0.79135000  0.20865000  0.41946000  1.0 0.9287333815
Mn  Mn9  1  0.33333333  0.66666667  0.70323000  1.0 0.9577410647
Mn  Mn10  1  0.33333333  0.66666667  0.79677000  1.0 0.9577410647
Mn  Mn11  1  0.20865000  0.41730000  0.58054000  1.0 0.9287333815
Mn  Mn12  1  0.20865000  0.79135000  0.58054000  1.0 0.9287333815
Mn  Mn13  1  0.58270000  0.79135000  0.58054000  1.0 0.9287333815
Mn  Mn14  1  0.20865000  0.41730000  0.91946000  1.0 0.9287333815
Mn  Mn15  1  0.58270000  0.79135000  0.91946000  1.0 0.9287333815
Mn  Mn16  1  0.20865000  0.79135000  0.91946000  1.0 0.9287333815
Cu  Cu1  1  0.72845000  0.45690000  0.14063000  1.0 0.8014532753
Cu  Cu2  1  0.72845000  0.27155000  0.14063000  1.0 0.8014532753
Cu  Cu3  1  0.54310000  0.27155000  0.14063000  1.0 0.8014532753
Cu  Cu4  1  0.72845000  0.45690000  0.35937000  1.0 0.8014532753
Cu  Cu5  1  0.54310000  0.27155000  0.35937000  1.0 0.8014532753
Cu  Cu6  1  0.72845000  0.27155000  0.35937000  1.0 0.8014532753
Cu  Cu7  1  0.60452000  0.39548000  0.07952000  1.0 0.6498899686
Cu  Cu8  1  0.79096000  0.39548000  0.07952000  1.0 0.6498899686
Cu  Cu9  1  0.60452000  0.20904000  0.07952000  1.0 0.6498899686
Cu  Cu10  1  0.79096000  0.39548000  0.42048000  1.0 0.6498899686
Cu  Cu11  1  0.60452000  0.39548000  0.42048000  1.0 0.6498899686
Cu  Cu12  1  0.60452000  0.20904000  0.42048000  1.0 0.6498899686
Cu  Cu13  1  0.33333333  0.66666667  0.19201000  1.0 0.277491396
Cu  Cu14  1  0.33333333  0.66666667  0.30799000  1.0 0.277491396
Cu  Cu15  1  0.27155000  0.54310000  0.64063000  1.0 0.8014532753
Cu  Cu16  1  0.27155000  0.72845000  0.64063000  1.0 0.8014532753
Cu  Cu17  1  0.45690000  0.72845000  0.64063000  1.0 0.8014532753
Cu  Cu18  1  0.27155000  0.54310000  0.85937000  1.0 0.8014532753
Cu  Cu19  1  0.45690000  0.72845000  0.85937000  1.0 0.8014532753
Cu  Cu20  1  0.27155000  0.72845000  0.85937000  1.0 0.8014532753
Cu  Cu21  1  0.39548000  0.60452000  0.57952000  1.0 0.6498899686
Cu  Cu22  1  0.20904000  0.60452000  0.57952000  1.0 0.6498899686
Cu  Cu23  1  0.39548000  0.79096000  0.57952000  1.0 0.6498899686
Cu  Cu24  1  0.20904000  0.60452000  0.92048000  1.0 0.6498899686
Cu  Cu25  1  0.39548000  0.60452000  0.92048000  1.0 0.6498899686
Cu  Cu26  1  0.39548000  0.79096000  0.92048000  1.0 0.6498899686
Cu  Cu27  1  0.66666667  0.33333333  0.69201000  1.0 0.277491396
Cu  Cu28  1  0.66666667  0.33333333  0.80799000  1.0 0.277491396
H  H1  1  0.77740000  0.46320000  0.01650000  1.0 0.0820940404
H  H2  1  0.87860000  0.39360000  0.18320000  1.0 0.1118822138
H  H3  1  0.92700000  0.58130000  0.13630000  1.0 0.1118822138
H  H4  1  0.95930000  0.55310000  0.10620000  1.0 0.0820940404
H  H5  1  0.85940000  0.72100000  0.19140000  1.0 0.1916154062
H  H6  1  0.84180000  0.77410000  0.16500000  1.0 0.1285039202
H  H7  1  0.84180000  0.77410000  0.33500000  1.0 0.1285039202
H  H8  1  0.86160000  0.72100000  0.19140000  1.0 0.1916154062
H  H9  1  0.85580000  0.23630000  0.23960000  1.0 0.0389411255
H  H10  1  0.68580000  0.22260000  0.01650000  1.0 0.0820940404
H  H11  1  0.51500000  0.12140000  0.18320000  1.0 0.1118822138
H  H12  1  0.65430000  0.07300000  0.13630000  1.0 0.1118822138
H  H13  1  0.59380000  0.04070000  0.10620000  1.0 0.0820940404
H  H14  1  0.86160000  0.14060000  0.19140000  1.0 0.1916154062
H  H15  1  0.93230000  0.15820000  0.16500000  1.0 0.1285039202
H  H16  1  0.93230000  0.15820000  0.33500000  1.0 0.1285039202
H  H17  1  0.85940000  0.13840000  0.19140000  1.0 0.1916154062
H  H18  1  0.38050000  0.14420000  0.23960000  1.0 0.0389411255
H  H19  1  0.53680000  0.31420000  0.01650000  1.0 0.0820940404
H  H20  1  0.60640000  0.48500000  0.18320000  1.0 0.1118822138
H  H21  1  0.41870000  0.34570000  0.13630000  1.0 0.1118822138
H  H22  1  0.44690000  0.40620000  0.10620000  1.0 0.0820940404
H  H23  1  0.27900000  0.13840000  0.19140000  1.0 0.1916154062
H  H24  1  0.22590000  0.06770000  0.16500000  1.0 0.1285039202
H  H25  1  0.22590000  0.06770000  0.33500000  1.0 0.1285039202
H  H26  1  0.27900000  0.14060000  0.19140000  1.0 0.1916154062
H  H27  1  0.76370000  0.61950000  0.23960000  1.0 0.0389411255
H  H28  1  0.68580000  0.46320000  0.48350000  1.0 0.0820940404
H  H29  1  0.51500000  0.39360000  0.31680000  1.0 0.1118822138
H  H30  1  0.65430000  0.58130000  0.36370000  1.0 0.1118822138
H  H31  1  0.59380000  0.55310000  0.39380000  1.0 0.0820940404
H  H32  1  0.86160000  0.72100000  0.30860000  1.0 0.1916154062
H  H33  1  0.93230000  0.77410000  0.33500000  1.0 0.1285039202
H  H34  1  0.93230000  0.77410000  0.16500000  1.0 0.1285039202
H  H35  1  0.85940000  0.72100000  0.30860000  1.0 0.1916154062
H  H36  1  0.38050000  0.23630000  0.26040000  1.0 0.030502247
H  H37  1  0.53680000  0.22260000  0.48350000  1.0 0.0820940404
H  H38  1  0.60640000  0.12140000  0.31680000  1.0 0.1118822138
H  H39  1  0.41870000  0.07300000  0.36370000  1.0 0.1118822138
H  H40  1  0.44690000  0.04070000  0.39380000  1.0 0.0820940404
H  H41  1  0.27900000  0.14060000  0.30860000  1.0 0.1916154062
H  H42  1  0.22590000  0.15820000  0.33500000  1.0 0.1285039202
H  H43  1  0.22590000  0.15820000  0.16500000  1.0 0.1285039202
H  H44  1  0.27900000  0.13840000  0.30860000  1.0 0.1916154062
H  H45  1  0.76370000  0.14420000  0.26040000  1.0 0.030502247
H  H46  1  0.77740000  0.31420000  0.48350000  1.0 0.0820940404
H  H47  1  0.87860000  0.48500000  0.31680000  1.0 0.1118822138
H  H48  1  0.92700000  0.34570000  0.36370000  1.0 0.1118822138
H  H49  1  0.95930000  0.40620000  0.39380000  1.0 0.0820940404
H  H50  1  0.85940000  0.13840000  0.30860000  1.0 0.1916154062
H  H51  1  0.84180000  0.06770000  0.33500000  1.0 0.1285039202
H  H52  1  0.84180000  0.06770000  0.16500000  1.0 0.1285039202
H  H53  1  0.86160000  0.14060000  0.30860000  1.0 0.1916154062
H  H54  1  0.85580000  0.61950000  0.26040000  1.0 0.030502247
H  H55  1  0.77740000  0.46320000  0.48350000  1.0 0.0820940404
H  H56  1  0.87860000  0.39360000  0.31680000  1.0 0.1118822138
H  H57  1  0.92700000  0.58130000  0.36370000  1.0 0.1118822138
H  H58  1  0.95930000  0.55310000  0.39380000  1.0 0.0820940404
H  H59  1  0.85580000  0.23630000  0.26040000  1.0 0.030502247
H  H60  1  0.68580000  0.22260000  0.48350000  1.0 0.0820940404
H  H61  1  0.51500000  0.12140000  0.31680000  1.0 0.1118822138
H  H62  1  0.65430000  0.07300000  0.36370000  1.0 0.1118822138
H  H63  1  0.59380000  0.04070000  0.39380000  1.0 0.0820940404
H  H64  1  0.38050000  0.14420000  0.26040000  1.0 0.0389411255
H  H65  1  0.53680000  0.31420000  0.48350000  1.0 0.0820940404
H  H66  1  0.60640000  0.48500000  0.31680000  1.0 0.1118822138
H  H67  1  0.41870000  0.34570000  0.36370000  1.0 0.1118822138
H  H68  1  0.44690000  0.40620000  0.39380000  1.0 0.0820940404
H  H69  1  0.76370000  0.61950000  0.26040000  1.0 0.030502247
H  H70  1  0.68580000  0.46320000  0.01650000  1.0 0.0820940404
H  H71  1  0.51500000  0.39360000  0.18320000  1.0 0.1118822138
H  H72  1  0.65430000  0.58130000  0.13630000  1.0 0.1118822138
H  H73  1  0.59380000  0.55310000  0.10620000  1.0 0.0820940404
H  H74  1  0.38050000  0.23630000  0.23960000  1.0 0.0389411255
H  H75  1  0.53680000  0.22260000  0.01650000  1.0 0.0820940404
H  H76  1  0.60640000  0.12140000  0.18320000  1.0 0.1118822138
H  H77  1  0.41870000  0.07300000  0.13630000  1.0 0.1118822138
H  H78  1  0.44690000  0.04070000  0.10620000  1.0 0.0820940404
H  H79  1  0.76370000  0.14420000  0.23960000  1.0 0.0389411255
H  H80  1  0.77740000  0.31420000  0.01650000  1.0 0.0820940404
H  H81  1  0.87860000  0.48500000  0.18320000  1.0 0.1118822138
H  H82  1  0.92700000  0.34570000  0.13630000  1.0 0.1118822138
H  H83  1  0.95930000  0.40620000  0.10620000  1.0 0.0820940404
H  H84  1  0.85580000  0.61950000  0.23960000  1.0 0.0389411255
H  H85  1  0.80975000  0.19025000  0.27120000  1.0 0.0452381847
H  H86  1  0.72965000  0.27035000  0.91410000  1.0 0.098244046
H  H87  1  0.73300000  0.26700000  0.97030000  1.0 0.098244046
H  H88  1  0.38050000  0.19025000  0.27120000  1.0 0.0452381847
H  H89  1  0.54070000  0.27035000  0.91410000  1.0 0.098244046
H  H90  1  0.53400000  0.26700000  0.97030000  1.0 0.098244046
H  H91  1  0.80975000  0.61950000  0.27120000  1.0 0.0452381847
H  H92  1  0.72965000  0.45930000  0.91410000  1.0 0.098244046
H  H93  1  0.73300000  0.46600000  0.97030000  1.0 0.098244046
H  H94  1  0.38050000  0.19025000  0.22880000  1.0 0.0452381847
H  H95  1  0.54070000  0.27035000  0.58590000  1.0 0.0939169579
H  H96  1  0.53400000  0.26700000  0.52970000  1.0 0.098244046
H  H97  1  0.80975000  0.19025000  0.22880000  1.0 0.0452381847
H  H98  1  0.72965000  0.27035000  0.58590000  1.0 0.0939169579
H  H99  1  0.73300000  0.26700000  0.52970000  1.0 0.098244046
H  H100  1  0.80975000  0.61950000  0.22880000  1.0 0.0452381847
H  H101  1  0.72965000  0.45930000  0.58590000  1.0 0.0939169579
H  H102  1  0.73300000  0.46600000  0.52970000  1.0 0.098244046
H  H103  1  0.00300000  0.50150000  0.20190000  1.0 0.1540917335
H  H104  1  0.08070000  0.54035000  0.11230000  1.0 0.1118822138
H  H105  1  0.15210000  0.57605000  0.21740000  1.0 0.0939169579
H  H106  1  0.22980000  0.61490000  0.12790000  1.0 0.0694417612
H  H107  1  0.49850000  0.99700000  0.20190000  1.0 0.1540917335
H  H108  1  0.45965000  0.91930000  0.11230000  1.0 0.1118822138
H  H109  1  0.42395000  0.84790000  0.21740000  1.0 0.0939169579
H  H110  1  0.38510000  0.77020000  0.12790000  1.0 0.0694417612
H  H111  1  0.49850000  0.50150000  0.20190000  1.0 0.1540917335
H  H112  1  0.45965000  0.54035000  0.11230000  1.0 0.1118822138
H  H113  1  0.42395000  0.57605000  0.21740000  1.0 0.0939169579
H  H114  1  0.38510000  0.61490000  0.12790000  1.0 0.0694417612
H  H115  1  0.49850000  0.50150000  0.29810000  1.0 0.1540917335
H  H116  1  0.45965000  0.54035000  0.38770000  1.0 0.1118822138
H  H117  1  0.42395000  0.57605000  0.28260000  1.0 0.0939169579
H  H118  1  0.38510000  0.61490000  0.37210000  1.0 0.0694417612
H  H119  1  0.49850000  0.99700000  0.29810000  1.0 0.1540917335
H  H120  1  0.45965000  0.91930000  0.38770000  1.0 0.1118822138
H  H121  1  0.42395000  0.84790000  0.28260000  1.0 0.0939169579
H  H122  1  0.38510000  0.77020000  0.37210000  1.0 0.0694417612
H  H123  1  0.00300000  0.50150000  0.29810000  1.0 0.1540917335
H  H124  1  0.08070000  0.54035000  0.38770000  1.0 0.1118822138
H  H125  1  0.15210000  0.57605000  0.28260000  1.0 0.0939169579
H  H126  1  0.22980000  0.61490000  0.37210000  1.0 0.0694417612
H  H127  1  0.22260000  0.53680000  0.51650000  1.0 0.0820940404
H  H128  1  0.12140000  0.60640000  0.68320000  1.0 0.1118822138
H  H129  1  0.07300000  0.41870000  0.63630000  1.0 0.1118822138
H  H130  1  0.04070000  0.44690000  0.60620000  1.0 0.0820940404
H  H131  1  0.14060000  0.27900000  0.69140000  1.0 0.1916154062
H  H132  1  0.15820000  0.22590000  0.66500000  1.0 0.1285039202
H  H133  1  0.15820000  0.22590000  0.83500000  1.0 0.1285039202
H  H134  1  0.13840000  0.27900000  0.69140000  1.0 0.1916154062
H  H135  1  0.14420000  0.76370000  0.73960000  1.0 0.0389411255
H  H136  1  0.31420000  0.77740000  0.51650000  1.0 0.0820940404
H  H137  1  0.48500000  0.87860000  0.68320000  1.0 0.1118822138
H  H138  1  0.34570000  0.92700000  0.63630000  1.0 0.1118822138
H  H139  1  0.40620000  0.95930000  0.60620000  1.0 0.0820940404
H  H140  1  0.13840000  0.85940000  0.69140000  1.0 0.1916154062
H  H141  1  0.06770000  0.84180000  0.66500000  1.0 0.1285039202
H  H142  1  0.06770000  0.84180000  0.83500000  1.0 0.1285039202
H  H143  1  0.14060000  0.86160000  0.69140000  1.0 0.1916154062
H  H144  1  0.61950000  0.85580000  0.73960000  1.0 0.0389411255
H  H145  1  0.46320000  0.68580000  0.51650000  1.0 0.0820940404
H  H146  1  0.39360000  0.51500000  0.68320000  1.0 0.1118822138
H  H147  1  0.58130000  0.65430000  0.63630000  1.0 0.1118822138
H  H148  1  0.55310000  0.59380000  0.60620000  1.0 0.0820940404
H  H149  1  0.72100000  0.86160000  0.69140000  1.0 0.1916154062
H  H150  1  0.77410000  0.93230000  0.66500000  1.0 0.1285039202
H  H151  1  0.77410000  0.93230000  0.83500000  1.0 0.1285039202
H  H152  1  0.72100000  0.85940000  0.69140000  1.0 0.1916154062
H  H153  1  0.23630000  0.38050000  0.73960000  1.0 0.0389411255
H  H154  1  0.31420000  0.53680000  0.98350000  1.0 0.0820940404
H  H155  1  0.48500000  0.60640000  0.81680000  1.0 0.1118822138
H  H156  1  0.34570000  0.41870000  0.86370000  1.0 0.1118822138
H  H157  1  0.40620000  0.44690000  0.89380000  1.0 0.0820940404
H  H158  1  0.13840000  0.27900000  0.80860000  1.0 0.1916154062
H  H159  1  0.06770000  0.22590000  0.83500000  1.0 0.1285039202
H  H160  1  0.06770000  0.22590000  0.66500000  1.0 0.1285039202
H  H161  1  0.14060000  0.27900000  0.80860000  1.0 0.1916154062
H  H162  1  0.61950000  0.76370000  0.76040000  1.0 0.030502247
H  H163  1  0.46320000  0.77740000  0.98350000  1.0 0.0820940404
H  H164  1  0.39360000  0.87860000  0.81680000  1.0 0.1118822138
H  H165  1  0.58130000  0.92700000  0.86370000  1.0 0.1118822138
H  H166  1  0.55310000  0.95930000  0.89380000  1.0 0.0820940404
H  H167  1  0.72100000  0.85940000  0.80860000  1.0 0.1916154062
H  H168  1  0.77410000  0.84180000  0.83500000  1.0 0.1285039202
H  H169  1  0.77410000  0.84180000  0.66500000  1.0 0.1285039202
H  H170  1  0.72100000  0.86160000  0.80860000  1.0 0.1916154062
H  H171  1  0.23630000  0.85580000  0.76040000  1.0 0.0389411255
H  H172  1  0.22260000  0.68580000  0.98350000  1.0 0.0820940404
H  H173  1  0.12140000  0.51500000  0.81680000  1.0 0.1118822138
H  H174  1  0.07300000  0.65430000  0.86370000  1.0 0.1118822138
H  H175  1  0.04070000  0.59380000  0.89380000  1.0 0.0820940404
H  H176  1  0.14060000  0.86160000  0.80860000  1.0 0.1916154062
H  H177  1  0.15820000  0.93230000  0.83500000  1.0 0.1285039202
H  H178  1  0.15820000  0.93230000  0.66500000  1.0 0.1285039202
H  H179  1  0.13840000  0.85940000  0.80860000  1.0 0.1916154062
H  H180  1  0.14420000  0.38050000  0.76040000  1.0 0.0389411255
H  H181  1  0.22260000  0.53680000  0.98350000  1.0 0.0820940404
H  H182  1  0.12140000  0.60640000  0.81680000  1.0 0.1118822138
H  H183  1  0.07300000  0.41870000  0.86370000  1.0 0.1118822138
H  H184  1  0.04070000  0.44690000  0.89380000  1.0 0.0820940404
H  H185  1  0.14420000  0.76370000  0.76040000  1.0 0.030502247
H  H186  1  0.31420000  0.77740000  0.98350000  1.0 0.0820940404
H  H187  1  0.48500000  0.87860000  0.81680000  1.0 0.1118822138
H  H188  1  0.34570000  0.92700000  0.86370000  1.0 0.1118822138
H  H189  1  0.40620000  0.95930000  0.89380000  1.0 0.0820940404
H  H190  1  0.61950000  0.85580000  0.76040000  1.0 0.0389411255
H  H191  1  0.46320000  0.68580000  0.98350000  1.0 0.0820940404
H  H192  1  0.39360000  0.51500000  0.81680000  1.0 0.1118822138
H  H193  1  0.58130000  0.65430000  0.86370000  1.0 0.1118822138
H  H194  1  0.55310000  0.59380000  0.89380000  1.0 0.0820940404
H  H195  1  0.23630000  0.38050000  0.76040000  1.0 0.0389411255
H  H196  1  0.31420000  0.53680000  0.51650000  1.0 0.0820940404
H  H197  1  0.48500000  0.60640000  0.68320000  1.0 0.1118822138
H  H198  1  0.34570000  0.41870000  0.63630000  1.0 0.1118822138
H  H199  1  0.40620000  0.44690000  0.60620000  1.0 0.0820940404
H  H200  1  0.61950000  0.76370000  0.73960000  1.0 0.0389411255
H  H201  1  0.46320000  0.77740000  0.51650000  1.0 0.0820940404
H  H202  1  0.39360000  0.87860000  0.68320000  1.0 0.1118822138
H  H203  1  0.58130000  0.92700000  0.63630000  1.0 0.1118822138
H  H204  1  0.55310000  0.95930000  0.60620000  1.0 0.0820940404
H  H205  1  0.23630000  0.85580000  0.73960000  1.0 0.0389411255
H  H206  1  0.22260000  0.68580000  0.51650000  1.0 0.0820940404
H  H207  1  0.12140000  0.51500000  0.68320000  1.0 0.1118822138
H  H208  1  0.07300000  0.65430000  0.63630000  1.0 0.1118822138
H  H209  1  0.04070000  0.59380000  0.60620000  1.0 0.0820940404
H  H210  1  0.14420000  0.38050000  0.73960000  1.0 0.0389411255
H  H211  1  0.19025000  0.80975000  0.77120000  1.0 0.0389411255
H  H212  1  0.27035000  0.72965000  0.41410000  1.0 0.0939169579
H  H213  1  0.26700000  0.73300000  0.47030000  1.0 0.098244046
H  H214  1  0.61950000  0.80975000  0.77120000  1.0 0.0389411255
H  H215  1  0.45930000  0.72965000  0.41410000  1.0 0.0939169579
H  H216  1  0.46600000  0.73300000  0.47030000  1.0 0.098244046
H  H217  1  0.19025000  0.38050000  0.77120000  1.0 0.0452381847
H  H218  1  0.27035000  0.54070000  0.41410000  1.0 0.0939169579
H  H219  1  0.26700000  0.53400000  0.47030000  1.0 0.098244046
H  H220  1  0.61950000  0.80975000  0.72880000  1.0 0.0452381847
H  H221  1  0.45930000  0.72965000  0.08590000  1.0 0.0939169579
H  H222  1  0.46600000  0.73300000  0.02970000  1.0 0.098244046
H  H223  1  0.19025000  0.80975000  0.72880000  1.0 0.0452381847
H  H224  1  0.27035000  0.72965000  0.08590000  1.0 0.0939169579
H  H225  1  0.26700000  0.73300000  0.02970000  1.0 0.098244046
H  H226  1  0.19025000  0.38050000  0.72880000  1.0 0.0452381847
H  H227  1  0.27035000  0.54070000  0.08590000  1.0 0.0939169579
H  H228  1  0.26700000  0.53400000  0.02970000  1.0 0.098244046
H  H229  1  0.99700000  0.49850000  0.70190000  1.0 0.1540917335
H  H230  1  0.91930000  0.45965000  0.61230000  1.0 0.1118822138
H  H231  1  0.84790000  0.42395000  0.71740000  1.0 0.0939169579
H  H232  1  0.77020000  0.38510000  0.62790000  1.0 0.0694417612
H  H233  1  0.50150000  0.00300000  0.70190000  1.0 0.1540917335
H  H234  1  0.54035000  0.08070000  0.61230000  1.0 0.1118822138
H  H235  1  0.57605000  0.15210000  0.71740000  1.0 0.0939169579
H  H236  1  0.61490000  0.22980000  0.62790000  1.0 0.0694417612
H  H237  1  0.50150000  0.49850000  0.70190000  1.0 0.1540917335
H  H238  1  0.54035000  0.45965000  0.61230000  1.0 0.1118822138
H  H239  1  0.57605000  0.42395000  0.71740000  1.0 0.0939169579
H  H240  1  0.61490000  0.38510000  0.62790000  1.0 0.0694417612
H  H241  1  0.50150000  0.49850000  0.79810000  1.0 0.1540917335
H  H242  1  0.54035000  0.45965000  0.88770000  1.0 0.1118822138
H  H243  1  0.57605000  0.42395000  0.78260000  1.0 0.0939169579
H  H244  1  0.61490000  0.38510000  0.87210000  1.0 0.0694417612
H  H245  1  0.50150000  0.00300000  0.79810000  1.0 0.1540917335
H  H246  1  0.54035000  0.08070000  0.88770000  1.0 0.1118822138
H  H247  1  0.57605000  0.15210000  0.78260000  1.0 0.0939169579
H  H248  1  0.61490000  0.22980000  0.87210000  1.0 0.0694417612
H  H249  1  0.99700000  0.49850000  0.79810000  1.0 0.1540917335
H  H250  1  0.91930000  0.45965000  0.88770000  1.0 0.1118822138
H  H251  1  0.84790000  0.42395000  0.78260000  1.0 0.0939169579
H  H252  1  0.77020000  0.38510000  0.87210000  1.0 0.0694417612
C  C1  1  0.91500000  0.53070000  0.12290000  1.0 -0.0645929789
C  C2  1  0.61570000  0.08500000  0.12290000  1.0 -0.0645929789
C  C3  1  0.46930000  0.38430000  0.12290000  1.0 -0.0645929789
C  C4  1  0.61570000  0.53070000  0.37710000  1.0 -0.0645929789
C  C5  1  0.46930000  0.08500000  0.37710000  1.0 -0.0645929789
C  C6  1  0.91500000  0.38430000  0.37710000  1.0 -0.0645929789
C  C7  1  0.91500000  0.53070000  0.37710000  1.0 -0.0645929789
C  C8  1  0.61570000  0.08500000  0.37710000  1.0 -0.0645929789
C  C9  1  0.46930000  0.38430000  0.37710000  1.0 -0.0645929789
C  C10  1  0.61570000  0.53070000  0.12290000  1.0 -0.0645929789
C  C11  1  0.46930000  0.08500000  0.12290000  1.0 -0.0645929789
C  C12  1  0.91500000  0.38430000  0.12290000  1.0 -0.0645929789
C  C13  1  0.66666667  0.33333333  0.01460000  1.0 0.0389411255
C  C14  1  0.66666667  0.33333333  0.97800000  1.0 0.0820940404
C  C15  1  0.66666667  0.33333333  0.48540000  1.0 0.0389411255
C  C16  1  0.66666667  0.33333333  0.52200000  1.0 0.0820940404
C  C17  1  0.71670000  0.43340000  0.02490000  1.0 -0.0862514522
C  C18  1  0.82880000  0.65760000  0.15010000  1.0 0.6300758152
C  C19  1  0.86920000  0.73840000  0.16970000  1.0 -0.5917541392
C  C20  1  0.71670000  0.28330000  0.02490000  1.0 -0.0862514522
C  C21  1  0.82880000  0.17120000  0.15010000  1.0 0.6300758152
C  C22  1  0.86920000  0.13080000  0.16970000  1.0 -0.5917541392
C  C23  1  0.56660000  0.28330000  0.02490000  1.0 -0.0862514522
C  C24  1  0.34240000  0.17120000  0.15010000  1.0 0.6300758152
C  C25  1  0.26160000  0.13080000  0.16970000  1.0 -0.5917541392
C  C26  1  0.71670000  0.43340000  0.47510000  1.0 -0.0862514522
C  C27  1  0.82880000  0.65760000  0.34990000  1.0 0.6300758152
C  C28  1  0.86920000  0.73840000  0.33030000  1.0 -0.5917541392
C  C29  1  0.56660000  0.28330000  0.47510000  1.0 -0.0862514522
C  C30  1  0.34240000  0.17120000  0.34990000  1.0 0.6300758152
C  C31  1  0.26160000  0.13080000  0.33030000  1.0 -0.5917541392
C  C32  1  0.71670000  0.28330000  0.47510000  1.0 -0.0862514522
C  C33  1  0.82880000  0.17120000  0.34990000  1.0 0.6300758152
C  C34  1  0.86920000  0.13080000  0.33030000  1.0 -0.5917541392
C  C35  1  0.70150000  0.29850000  0.92480000  1.0 0.030502247
C  C36  1  0.70500000  0.29500000  0.96050000  1.0 -0.2666403036
C  C37  1  0.59700000  0.29850000  0.92480000  1.0 0.030502247
C  C38  1  0.59000000  0.29500000  0.96050000  1.0 -0.2643593124
C  C39  1  0.70150000  0.40300000  0.92480000  1.0 0.030502247
C  C40  1  0.70500000  0.41000000  0.96050000  1.0 -0.2666403036
C  C41  1  0.59700000  0.29850000  0.57520000  1.0 0.030502247
C  C42  1  0.59000000  0.29500000  0.53950000  1.0 -0.2666403036
C  C43  1  0.70150000  0.29850000  0.57520000  1.0 0.030502247
C  C44  1  0.70500000  0.29500000  0.53950000  1.0 -0.2666403036
C  C45  1  0.70150000  0.40300000  0.57520000  1.0 0.030502247
C  C46  1  0.70500000  0.41000000  0.53950000  1.0 -0.2666403036
C  C47  1  0.04860000  0.52430000  0.18700000  1.0 -0.1933686183
C  C48  1  0.09500000  0.54750000  0.13350000  1.0 -0.2181811047
C  C49  1  0.13770000  0.56885000  0.19621000  1.0 0.0389411255
C  C50  1  0.92670000  0.46335000  0.14180000  1.0 0.0205699871
C  C51  1  0.86510000  0.43255000  0.17060000  1.0 -0.0440523603
C  C52  1  0.02690000  0.51345000  0.15550000  1.0 0.098244046
C  C53  1  0.18410000  0.59205000  0.14280000  1.0 -0.004227721
C  C54  1  0.47570000  0.95140000  0.18700000  1.0 -0.1933686183
C  C55  1  0.45250000  0.90500000  0.13350000  1.0 -0.2181811047
C  C56  1  0.43115000  0.86230000  0.19621000  1.0 0.0389411255
C  C57  1  0.53665000  0.07330000  0.14180000  1.0 0.0205699871
C  C58  1  0.56745000  0.13490000  0.17060000  1.0 -0.0440523603
C  C59  1  0.48655000  0.97310000  0.15550000  1.0 0.098244046
C  C60  1  0.40795000  0.81590000  0.14280000  1.0 -0.004227721
C  C61  1  0.47570000  0.52430000  0.18700000  1.0 -0.1933686183
C  C62  1  0.45250000  0.54750000  0.13350000  1.0 -0.2181811047
C  C63  1  0.43115000  0.56885000  0.19621000  1.0 0.0389411255
C  C64  1  0.53665000  0.46335000  0.14180000  1.0 0.0205699871
C  C65  1  0.56745000  0.43255000  0.17060000  1.0 -0.0440523603
C  C66  1  0.48655000  0.51345000  0.15550000  1.0 0.098244046
C  C67  1  0.40795000  0.59205000  0.14280000  1.0 -0.004227721
C  C68  1  0.47570000  0.52430000  0.31300000  1.0 -0.1933686183
C  C69  1  0.45250000  0.54750000  0.36650000  1.0 -0.2181811047
C  C70  1  0.43115000  0.56885000  0.30379000  1.0 0.0389411255
C  C71  1  0.53665000  0.46335000  0.35820000  1.0 0.0205699871
C  C72  1  0.56745000  0.43255000  0.32940000  1.0 -0.0440523603
C  C73  1  0.48655000  0.51345000  0.34450000  1.0 0.098244046
C  C74  1  0.40795000  0.59205000  0.35720000  1.0 -0.004227721
C  C75  1  0.47570000  0.95140000  0.31300000  1.0 -0.1933686183
C  C76  1  0.45250000  0.90500000  0.36650000  1.0 -0.2181811047
C  C77  1  0.43115000  0.86230000  0.30379000  1.0 0.0389411255
C  C78  1  0.53665000  0.07330000  0.35820000  1.0 0.0205699871
C  C79  1  0.56745000  0.13490000  0.32940000  1.0 -0.0440523603
C  C80  1  0.48655000  0.97310000  0.34450000  1.0 0.098244046
C  C81  1  0.40795000  0.81590000  0.35720000  1.0 -0.004227721
C  C82  1  0.04860000  0.52430000  0.31300000  1.0 -0.1933686183
C  C83  1  0.09500000  0.54750000  0.36650000  1.0 -0.2181811047
C  C84  1  0.13770000  0.56885000  0.30379000  1.0 0.0389411255
C  C85  1  0.92670000  0.46335000  0.35820000  1.0 0.0205699871
C  C86  1  0.86510000  0.43255000  0.32940000  1.0 -0.0440523603
C  C87  1  0.02690000  0.51345000  0.34450000  1.0 0.098244046
C  C88  1  0.18410000  0.59205000  0.35720000  1.0 -0.004227721
C  C89  1  0.74300000  0.25700000  0.25000000  1.0 0.5436198342
C  C90  1  0.79900000  0.20100000  0.25000000  1.0 -0.40059221
C  C91  1  0.51400000  0.25700000  0.25000000  1.0 0.5436198342
C  C92  1  0.40200000  0.20100000  0.25000000  1.0 -0.40059221
C  C93  1  0.74300000  0.48600000  0.25000000  1.0 0.5436198342
C  C94  1  0.79900000  0.59800000  0.25000000  1.0 -0.40059221
C  C95  1  0.08500000  0.46930000  0.62290000  1.0 -0.0645929789
C  C96  1  0.38430000  0.91500000  0.62290000  1.0 -0.0645929789
C  C97  1  0.53070000  0.61570000  0.62290000  1.0 -0.0645929789
C  C98  1  0.38430000  0.46930000  0.87710000  1.0 -0.0645929789
C  C99  1  0.53070000  0.91500000  0.87710000  1.0 -0.0645929789
C  C100  1  0.08500000  0.61570000  0.87710000  1.0 -0.0645929789
C  C101  1  0.08500000  0.46930000  0.87710000  1.0 -0.0645929789
C  C102  1  0.38430000  0.91500000  0.87710000  1.0 -0.0645929789
C  C103  1  0.53070000  0.61570000  0.87710000  1.0 -0.0645929789
C  C104  1  0.38430000  0.46930000  0.62290000  1.0 -0.0645929789
C  C105  1  0.53070000  0.91500000  0.62290000  1.0 -0.0645929789
C  C106  1  0.08500000  0.61570000  0.62290000  1.0 -0.0645929789
C  C107  1  0.33333333  0.66666667  0.51460000  1.0 0.0389411255
C  C108  1  0.33333333  0.66666667  0.47800000  1.0 0.0694417612
C  C109  1  0.33333333  0.66666667  0.98540000  1.0 0.0389411255
C  C110  1  0.33333333  0.66666667  0.02200000  1.0 0.0694417612
C  C111  1  0.28330000  0.56660000  0.52490000  1.0 -0.0862514522
C  C112  1  0.17120000  0.34240000  0.65010000  1.0 0.6300758152
C  C113  1  0.13080000  0.26160000  0.66970000  1.0 -0.5917541392
C  C114  1  0.28330000  0.71670000  0.52490000  1.0 -0.0862514522
C  C115  1  0.17120000  0.82880000  0.65010000  1.0 0.6300758152
C  C116  1  0.13080000  0.86920000  0.66970000  1.0 -0.5917541392
C  C117  1  0.43340000  0.71670000  0.52490000  1.0 -0.0862514522
C  C118  1  0.65760000  0.82880000  0.65010000  1.0 0.6300758152
C  C119  1  0.73840000  0.86920000  0.66970000  1.0 -0.5917541392
C  C120  1  0.28330000  0.56660000  0.97510000  1.0 -0.0862514522
C  C121  1  0.17120000  0.34240000  0.84990000  1.0 0.6300758152
C  C122  1  0.13080000  0.26160000  0.83030000  1.0 -0.5917541392
C  C123  1  0.43340000  0.71670000  0.97510000  1.0 -0.0862514522
C  C124  1  0.65760000  0.82880000  0.84990000  1.0 0.6300758152
C  C125  1  0.73840000  0.86920000  0.83030000  1.0 -0.5952816776
C  C126  1  0.28330000  0.71670000  0.97510000  1.0 -0.0862514522
C  C127  1  0.17120000  0.82880000  0.84990000  1.0 0.6300758152
C  C128  1  0.13080000  0.86920000  0.83030000  1.0 -0.5917541392
C  C129  1  0.29850000  0.70150000  0.42480000  1.0 0.030502247
C  C130  1  0.29500000  0.70500000  0.46050000  1.0 -0.2666403036
C  C131  1  0.40300000  0.70150000  0.42480000  1.0 0.030502247
C  C132  1  0.41000000  0.70500000  0.46050000  1.0 -0.2666403036
C  C133  1  0.29850000  0.59700000  0.42480000  1.0 0.030502247
C  C134  1  0.29500000  0.59000000  0.46050000  1.0 -0.2666403036
C  C135  1  0.40300000  0.70150000  0.07520000  1.0 0.030502247
C  C136  1  0.41000000  0.70500000  0.03950000  1.0 -0.2666403036
C  C137  1  0.29850000  0.70150000  0.07520000  1.0 0.030502247
C  C138  1  0.29500000  0.70500000  0.03950000  1.0 -0.2666403036
C  C139  1  0.29850000  0.59700000  0.07520000  1.0 0.030502247
C  C140  1  0.29500000  0.59000000  0.03950000  1.0 -0.2666403036
C  C141  1  0.95140000  0.47570000  0.68700000  1.0 -0.1933686183
C  C142  1  0.90500000  0.45250000  0.63350000  1.0 -0.2181811047
C  C143  1  0.86230000  0.43115000  0.69621000  1.0 0.0389411255
C  C144  1  0.07330000  0.53665000  0.64180000  1.0 0.0205699871
C  C145  1  0.13490000  0.56745000  0.67060000  1.0 -0.0440523603
C  C146  1  0.97310000  0.48655000  0.65550000  1.0 0.098244046
C  C147  1  0.81590000  0.40795000  0.64280000  1.0 -0.004227721
C  C148  1  0.52430000  0.04860000  0.68700000  1.0 -0.1933686183
C  C149  1  0.54750000  0.09500000  0.63350000  1.0 -0.2181811047
C  C150  1  0.56885000  0.13770000  0.69621000  1.0 0.0389411255
C  C151  1  0.46335000  0.92670000  0.64180000  1.0 0.0205699871
C  C152  1  0.43255000  0.86510000  0.67060000  1.0 -0.0440523603
C  C153  1  0.51345000  0.02690000  0.65550000  1.0 0.098244046
C  C154  1  0.59205000  0.18410000  0.64280000  1.0 -0.004227721
C  C155  1  0.52430000  0.47570000  0.68700000  1.0 -0.1933686183
C  C156  1  0.54750000  0.45250000  0.63350000  1.0 -0.2181811047
C  C157  1  0.56885000  0.43115000  0.69621000  1.0 0.0389411255
C  C158  1  0.46335000  0.53665000  0.64180000  1.0 0.0205699871
C  C159  1  0.43255000  0.56745000  0.67060000  1.0 -0.0440523603
C  C160  1  0.51345000  0.48655000  0.65550000  1.0 0.098244046
C  C161  1  0.59205000  0.40795000  0.64280000  1.0 -0.004227721
C  C162  1  0.52430000  0.47570000  0.81300000  1.0 -0.1933686183
C  C163  1  0.54750000  0.45250000  0.86650000  1.0 -0.2181811047
C  C164  1  0.56885000  0.43115000  0.80379000  1.0 0.0389411255
C  C165  1  0.46335000  0.53665000  0.85820000  1.0 0.0205699871
C  C166  1  0.43255000  0.56745000  0.82940000  1.0 -0.0440523603
C  C167  1  0.51345000  0.48655000  0.84450000  1.0 0.098244046
C  C168  1  0.59205000  0.40795000  0.85720000  1.0 -0.004227721
C  C169  1  0.52430000  0.04860000  0.81300000  1.0 -0.1933686183
C  C170  1  0.54750000  0.09500000  0.86650000  1.0 -0.2181811047
C  C171  1  0.56885000  0.13770000  0.80379000  1.0 0.0389411255
C  C172  1  0.46335000  0.92670000  0.85820000  1.0 0.0205699871
C  C173  1  0.43255000  0.86510000  0.82940000  1.0 -0.0440523603
C  C174  1  0.51345000  0.02690000  0.84450000  1.0 0.098244046
C  C175  1  0.59205000  0.18410000  0.85720000  1.0 -0.004227721
C  C176  1  0.95140000  0.47570000  0.81300000  1.0 -0.1933686183
C  C177  1  0.90500000  0.45250000  0.86650000  1.0 -0.2181811047
C  C178  1  0.86230000  0.43115000  0.80379000  1.0 0.0389411255
C  C179  1  0.07330000  0.53665000  0.85820000  1.0 0.0205699871
C  C180  1  0.13490000  0.56745000  0.82940000  1.0 -0.0440523603
C  C181  1  0.97310000  0.48655000  0.84450000  1.0 0.098244046
C  C182  1  0.81590000  0.40795000  0.85720000  1.0 -0.004227721
C  C183  1  0.25700000  0.74300000  0.75000000  1.0 0.5436198342
C  C184  1  0.20100000  0.79900000  0.75000000  1.0 -0.40059221
C  C185  1  0.48600000  0.74300000  0.75000000  1.0 0.5436198342
C  C186  1  0.59800000  0.79900000  0.75000000  1.0 -0.40059221
C  C187  1  0.25700000  0.51400000  0.75000000  1.0 0.5436198342
C  C188  1  0.20100000  0.40200000  0.75000000  1.0 -0.40059221
N  N1  1  0.66666667  0.33333333  0.91320000  1.0 -0.0492929763
N  N2  1  0.66666667  0.33333333  0.58680000  1.0 -0.0492929763
N  N3  1  0.33333333  0.66666667  0.23530000  1.0 -0.2181811047
N  N4  1  0.33333333  0.66666667  0.26470000  1.0 -0.2181811047
N  N5  1  0.20560000  0.60280000  0.17420000  1.0 -0.2289131727
N  N6  1  0.39720000  0.79440000  0.17420000  1.0 -0.2289131727
N  N7  1  0.39720000  0.60280000  0.17420000  1.0 -0.2289131727
N  N8  1  0.39720000  0.60280000  0.32580000  1.0 -0.2289131727
N  N9  1  0.39720000  0.79440000  0.32580000  1.0 -0.2289131727
N  N10  1  0.20560000  0.60280000  0.32580000  1.0 -0.2289131727
N  N11  1  0.33333333  0.66666667  0.41320000  1.0 -0.0492929763
N  N12  1  0.33333333  0.66666667  0.08680000  1.0 -0.0492929763
N  N13  1  0.66666667  0.33333333  0.73530000  1.0 -0.2181811047
N  N14  1  0.66666667  0.33333333  0.76470000  1.0 -0.2181811047
N  N15  1  0.79440000  0.39720000  0.67420000  1.0 -0.2289131727
N  N16  1  0.60280000  0.20560000  0.67420000  1.0 -0.2289131727
N  N17  1  0.60280000  0.39720000  0.67420000  1.0 -0.2289131727
N  N18  1  0.60280000  0.39720000  0.82580000  1.0 -0.2289131727
N  N19  1  0.60280000  0.20560000  0.82580000  1.0 -0.2289131727
N  N20  1  0.79440000  0.39720000  0.82580000  1.0 -0.2289131727
O  O1  1  0.82610000  0.49490000  0.10943000  1.0 -0.5503247534
O  O2  1  0.66880000  0.17390000  0.10943000  1.0 -0.5503247534
O  O3  1  0.50510000  0.33120000  0.10943000  1.0 -0.5503247534
O  O4  1  0.66880000  0.49490000  0.39057000  1.0 -0.5503247534
O  O5  1  0.50510000  0.17390000  0.39057000  1.0 -0.5503247534
O  O6  1  0.82610000  0.33120000  0.39057000  1.0 -0.5503247534
O  O7  1  0.82610000  0.49490000  0.39057000  1.0 -0.5503247534
O  O8  1  0.66880000  0.17390000  0.39057000  1.0 -0.5503247534
O  O9  1  0.50510000  0.33120000  0.39057000  1.0 -0.5503247534
O  O10  1  0.66880000  0.49490000  0.10943000  1.0 -0.5503247534
O  O11  1  0.50510000  0.17390000  0.10943000  1.0 -0.5503247534
O  O12  1  0.82610000  0.33120000  0.10943000  1.0 -0.5503247534
O  O13  1  0.79120000  0.58240000  0.16460000  1.0 -0.6059246233
O  O14  1  0.83840000  0.67680000  0.11760000  1.0 -0.6691834501
O  O15  1  0.72140000  0.44280000  0.05840000  1.0 -0.5569502683
O  O16  1  0.79120000  0.20880000  0.16460000  1.0 -0.6059246233
O  O17  1  0.83840000  0.16160000  0.11760000  1.0 -0.6691834501
O  O18  1  0.72140000  0.27860000  0.05840000  1.0 -0.5569502683
O  O19  1  0.41760000  0.20880000  0.16460000  1.0 -0.6059246233
O  O20  1  0.32320000  0.16160000  0.11760000  1.0 -0.6691834501
O  O21  1  0.55720000  0.27860000  0.05840000  1.0 -0.5569502683
O  O22  1  0.79120000  0.58240000  0.33540000  1.0 -0.6059246233
O  O23  1  0.83840000  0.67680000  0.38240000  1.0 -0.6691834501
O  O24  1  0.72140000  0.44280000  0.44160000  1.0 -0.5569502683
O  O25  1  0.41760000  0.20880000  0.33540000  1.0 -0.6059246233
O  O26  1  0.32320000  0.16160000  0.38240000  1.0 -0.6691834501
O  O27  1  0.55720000  0.27860000  0.44160000  1.0 -0.5569502683
O  O28  1  0.79120000  0.20880000  0.33540000  1.0 -0.6059246233
O  O29  1  0.83840000  0.16160000  0.38240000  1.0 -0.6691834501
O  O30  1  0.72140000  0.27860000  0.44160000  1.0 -0.5569502683
O  O31  1  0.72950000  0.27050000  0.22360000  1.0 -0.5409021747
O  O32  1  0.54100000  0.27050000  0.22360000  1.0 -0.5409021747
O  O33  1  0.72950000  0.45900000  0.22360000  1.0 -0.5409021747
O  O34  1  0.54100000  0.27050000  0.27640000  1.0 -0.5409021747
O  O35  1  0.72950000  0.27050000  0.27640000  1.0 -0.5409021747
O  O36  1  0.72950000  0.45900000  0.27640000  1.0 -0.5409021747
O  O37  1  0.77110000  0.38555000  0.16336000  1.0 -0.5503247534
O  O38  1  0.61445000  0.22890000  0.16336000  1.0 -0.5503247534
O  O39  1  0.61445000  0.38555000  0.16336000  1.0 -0.5503247534
O  O40  1  0.61445000  0.38555000  0.33664000  1.0 -0.5503247534
O  O41  1  0.61445000  0.22890000  0.33664000  1.0 -0.5503247534
O  O42  1  0.77110000  0.38555000  0.33664000  1.0 -0.5503247534
O  O43  1  0.17390000  0.50510000  0.60943000  1.0 -0.5503247534
O  O44  1  0.33120000  0.82610000  0.60943000  1.0 -0.5503247534
O  O45  1  0.49490000  0.66880000  0.60943000  1.0 -0.5503247534
O  O46  1  0.33120000  0.50510000  0.89057000  1.0 -0.5503247534
O  O47  1  0.49490000  0.82610000  0.89057000  1.0 -0.5503247534
O  O48  1  0.17390000  0.66880000  0.89057000  1.0 -0.5503247534
O  O49  1  0.17390000  0.50510000  0.89057000  1.0 -0.5503247534
O  O50  1  0.33120000  0.82610000  0.89057000  1.0 -0.5503247534
O  O51  1  0.49490000  0.66880000  0.89057000  1.0 -0.5503247534
O  O52  1  0.33120000  0.50510000  0.60943000  1.0 -0.5503247534
O  O53  1  0.49490000  0.82610000  0.60943000  1.0 -0.5503247534
O  O54  1  0.17390000  0.66880000  0.60943000  1.0 -0.5503247534
O  O55  1  0.20880000  0.41760000  0.66460000  1.0 -0.6059246233
O  O56  1  0.16160000  0.32320000  0.61760000  1.0 -0.6691834501
O  O57  1  0.27860000  0.55720000  0.55840000  1.0 -0.5569502683
O  O58  1  0.20880000  0.79120000  0.66460000  1.0 -0.6059246233
O  O59  1  0.16160000  0.83840000  0.61760000  1.0 -0.6691834501
O  O60  1  0.27860000  0.72140000  0.55840000  1.0 -0.5569502683
O  O61  1  0.58240000  0.79120000  0.66460000  1.0 -0.6059246233
O  O62  1  0.67680000  0.83840000  0.61760000  1.0 -0.6691834501
O  O63  1  0.44280000  0.72140000  0.55840000  1.0 -0.5569502683
O  O64  1  0.20880000  0.41760000  0.83540000  1.0 -0.6059246233
O  O65  1  0.16160000  0.32320000  0.88240000  1.0 -0.6691834501
O  O66  1  0.27860000  0.55720000  0.94160000  1.0 -0.5569502683
O  O67  1  0.58240000  0.79120000  0.83540000  1.0 -0.6059246233
O  O68  1  0.67680000  0.83840000  0.88240000  1.0 -0.6691834501
O  O69  1  0.44280000  0.72140000  0.94160000  1.0 -0.5569502683
O  O70  1  0.20880000  0.79120000  0.83540000  1.0 -0.6059246233
O  O71  1  0.16160000  0.83840000  0.88240000  1.0 -0.6691834501
O  O72  1  0.27860000  0.72140000  0.94160000  1.0 -0.5569502683
O  O73  1  0.27050000  0.72950000  0.72360000  1.0 -0.5409021747
O  O74  1  0.45900000  0.72950000  0.72360000  1.0 -0.5409021747
O  O75  1  0.27050000  0.54100000  0.72360000  1.0 -0.5409021747
O  O76  1  0.45900000  0.72950000  0.77640000  1.0 -0.5409021747
O  O77  1  0.27050000  0.72950000  0.77640000  1.0 -0.5409021747
O  O78  1  0.27050000  0.54100000  0.77640000  1.0 -0.5409021747
O  O79  1  0.22890000  0.61445000  0.66336000  1.0 -0.5503247534
O  O80  1  0.38555000  0.77110000  0.66336000  1.0 -0.5503247534
O  O81  1  0.38555000  0.61445000  0.66336000  1.0 -0.5503247534
O  O82  1  0.38555000  0.61445000  0.83664000  1.0 -0.5503247534
O  O83  1  0.38555000  0.77110000  0.83664000  1.0 -0.5503247534
O  O84  1  0.22890000  0.61445000  0.83664000  1.0 -0.5503247534
