# DDEC6 charges by PACMAN v1.1 (https://github.com/mtap-research/PACMAN-charge/)
data_HARGUC_FSR_pacman
_symmetry_space_group_name_H-M   'P 1'
_cell_length_a   10.92300000
_cell_length_b   15.42400000
_cell_length_c   16.02180000
_cell_angle_alpha   90.00000000
_cell_angle_beta   115.35700000
_cell_angle_gamma   90.00000000
_symmetry_Int_Tables_number   1
_chemical_formula_structural   KBi2C12O17
_chemical_formula_sum   'K4 Bi8 C48 O68'
_cell_volume   2439.23616128
_cell_formula_units_Z   4
loop_
 _symmetry_equiv_pos_site_id
 _symmetry_equiv_pos_as_xyz
  1  'x, y, z'
loop_
 _atom_site_type_symbol
 _atom_site_label
 _atom_site_symmetry_multiplicity
 _atom_site_fract_x
 _atom_site_fract_y
 _atom_site_fract_z
 _atom_site_occupancy
 _atom_site_charge
K  K1  1  0.05560000  0.19070000  0.27460000  1.0 0.8424395543
K  K2  1  0.94440000  0.69070000  0.22540000  1.0 0.8424395543
K  K3  1  0.94440000  0.80930000  0.72540000  1.0 0.8424395543
K  K4  1  0.05560000  0.30930000  0.77460000  1.0 0.8424395543
Bi  Bi1  1  0.49663000  0.34960000  0.96746000  1.0 1.4022464078
Bi  Bi2  1  0.50337000  0.84960000  0.53254000  1.0 1.4022464078
Bi  Bi3  1  0.50337000  0.65040000  0.03254000  1.0 1.4103206914
Bi  Bi4  1  0.49663000  0.15040000  0.46746000  1.0 1.4022464078
Bi  Bi5  1  0.88717000  0.53525000  0.84458000  1.0 1.4232147854
Bi  Bi6  1  0.11283000  0.03525000  0.65542000  1.0 1.4232147854
Bi  Bi7  1  0.11283000  0.46475000  0.15542000  1.0 1.4232147854
Bi  Bi8  1  0.88717000  0.96475000  0.34458000  1.0 1.4232147854
C  C1  1  0.87800000  0.37200000  0.92000000  1.0 0.5912802737
C  C2  1  0.12200000  0.87200000  0.58000000  1.0 0.5912802737
C  C3  1  0.12200000  0.62800000  0.08000000  1.0 0.5912802737
C  C4  1  0.87800000  0.12800000  0.42000000  1.0 0.5912802737
C  C5  1  0.87400000  0.28200000  0.95800000  1.0 -0.0084343259
C  C6  1  0.12600000  0.78200000  0.54200000  1.0 -0.0084343259
C  C7  1  0.12600000  0.71800000  0.04200000  1.0 -0.0084343259
C  C8  1  0.87400000  0.21800000  0.45800000  1.0 -0.0084343259
C  C9  1  0.76300000  0.27600000  0.99200000  1.0 0.1616937477
C  C10  1  0.23700000  0.77600000  0.50800000  1.0 0.1616937477
C  C11  1  0.23700000  0.72400000  0.00800000  1.0 0.1616937477
C  C12  1  0.76300000  0.22400000  0.49200000  1.0 0.1616937477
C  C13  1  0.75600000  0.17800000  0.01500000  1.0 -0.0929170366
C  C14  1  0.24400000  0.67800000  0.48500000  1.0 -0.0929170366
C  C15  1  0.24400000  0.82200000  0.98500000  1.0 -0.0929170366
C  C16  1  0.75600000  0.32200000  0.51500000  1.0 -0.0929170366
C  C17  1  0.65400000  0.15600000  0.05000000  1.0 0.5975207012
C  C18  1  0.34600000  0.65600000  0.45000000  1.0 0.5975207012
C  C19  1  0.34600000  0.84400000  0.95000000  1.0 0.5975207012
C  C20  1  0.65400000  0.34400000  0.55000000  1.0 0.5975207012
C  C21  1  0.79900000  0.33000000  0.07700000  1.0 0.5522239726
C  C22  1  0.20100000  0.83000000  0.42300000  1.0 0.5522239726
C  C23  1  0.20100000  0.67000000  0.92300000  1.0 0.5522239726
C  C24  1  0.79900000  0.17000000  0.57700000  1.0 0.5522239726
C  C25  1  0.47400000  0.48100000  0.83800000  1.0 0.5749751251
C  C26  1  0.52600000  0.98100000  0.66200000  1.0 0.5749751251
C  C27  1  0.52600000  0.51900000  0.16200000  1.0 0.5758269351
C  C28  1  0.47400000  0.01900000  0.33800000  1.0 0.5749751251
C  C29  1  0.45800000  0.54900000  0.76500000  1.0 0.0400138046
C  C30  1  0.54200000  0.04900000  0.73500000  1.0 0.0400138046
C  C31  1  0.54200000  0.45100000  0.23500000  1.0 0.0400138046
C  C32  1  0.45800000  0.95100000  0.26500000  1.0 0.0400138046
C  C33  1  0.59500000  0.58100000  0.77300000  1.0 0.1670894805
C  C34  1  0.40500000  0.08100000  0.72700000  1.0 0.1670894805
C  C35  1  0.40500000  0.41900000  0.22700000  1.0 0.1670894805
C  C36  1  0.59500000  0.91900000  0.27300000  1.0 0.1670894805
C  C37  1  0.56700000  0.63600000  0.68800000  1.0 -0.0555631727
C  C38  1  0.43300000  0.13600000  0.81200000  1.0 -0.0555631727
C  C39  1  0.43300000  0.36400000  0.31200000  1.0 -0.0522100706
C  C40  1  0.56700000  0.86400000  0.18800000  1.0 -0.0522100706
C  C41  1  0.68800000  0.68400000  0.68800000  1.0 0.6507359516
C  C42  1  0.31200000  0.18400000  0.81200000  1.0 0.6507359516
C  C43  1  0.31200000  0.31600000  0.31200000  1.0 0.6507359516
C  C44  1  0.68800000  0.81600000  0.18800000  1.0 0.6507359516
C  C45  1  0.66500000  0.63600000  0.86200000  1.0 0.5330615263
C  C46  1  0.33500000  0.13600000  0.63800000  1.0 0.5330615263
C  C47  1  0.33500000  0.36400000  0.13800000  1.0 0.5330615263
C  C48  1  0.66500000  0.86400000  0.36200000  1.0 0.5330615263
O  O1  1  0.89500000  0.48100000  0.69800000  1.0 -0.2733603123
O  O2  1  0.10500000  0.98100000  0.80200000  1.0 -0.2733603123
O  O3  1  0.10500000  0.51900000  0.30200000  1.0 -0.2733603123
O  O4  1  0.89500000  0.01900000  0.19800000  1.0 -0.2733603123
O  O5  1  0.86700000  0.37600000  0.84100000  1.0 -0.4866482694
O  O6  1  0.13300000  0.87600000  0.65900000  1.0 -0.4866482694
O  O7  1  0.13300000  0.62400000  0.15900000  1.0 -0.4866482694
O  O8  1  0.86700000  0.12400000  0.34100000  1.0 -0.4866482694
O  O9  1  0.89200000  0.43800000  0.97100000  1.0 -0.5600916673
O  O10  1  0.10800000  0.93800000  0.52900000  1.0 -0.5600916673
O  O11  1  0.10800000  0.56200000  0.02900000  1.0 -0.5600916673
O  O12  1  0.89200000  0.06200000  0.47100000  1.0 -0.5600916673
O  O13  1  0.57300000  0.21300000  0.05300000  1.0 -0.5507950861
O  O14  1  0.42700000  0.71300000  0.44700000  1.0 -0.5507950861
O  O15  1  0.42700000  0.78700000  0.94700000  1.0 -0.5507950861
O  O16  1  0.57300000  0.28700000  0.55300000  1.0 -0.5507950861
O  O17  1  0.65200000  0.08000000  0.07900000  1.0 -0.3965489247
O  O18  1  0.34800000  0.58000000  0.42100000  1.0 -0.3965489247
O  O19  1  0.34800000  0.92000000  0.92100000  1.0 -0.3944958229
O  O20  1  0.65200000  0.42000000  0.57900000  1.0 -0.3965489247
O  O21  1  0.71000000  0.38400000  0.08300000  1.0 -0.4788567626
O  O22  1  0.29000000  0.88400000  0.41700000  1.0 -0.4788567626
O  O23  1  0.29000000  0.61600000  0.91700000  1.0 -0.4788567626
O  O24  1  0.71000000  0.11600000  0.58300000  1.0 -0.4788567626
O  O25  1  0.91200000  0.32100000  0.14800000  1.0 -0.5733514805
O  O26  1  0.08800000  0.82100000  0.35200000  1.0 -0.5733514805
O  O27  1  0.08800000  0.67900000  0.85200000  1.0 -0.5733514805
O  O28  1  0.91200000  0.17900000  0.64800000  1.0 -0.5733514805
O  O29  1  0.63900000  0.30300000  0.92100000  1.0 -0.5102015365
O  O30  1  0.36100000  0.80300000  0.57900000  1.0 -0.5102015365
O  O31  1  0.36100000  0.69700000  0.07900000  1.0 -0.5102015365
O  O32  1  0.63900000  0.19700000  0.42100000  1.0 -0.5102015365
O  O33  1  0.53900000  0.49800000  0.92100000  1.0 -0.5395820815
O  O34  1  0.46100000  0.99800000  0.57900000  1.0 -0.5395820815
O  O35  1  0.46100000  0.50200000  0.07900000  1.0 -0.5395820815
O  O36  1  0.53900000  0.00200000  0.42100000  1.0 -0.5395820815
O  O37  1  0.41600000  0.40700000  0.81200000  1.0 -0.4788567626
O  O38  1  0.58400000  0.90700000  0.68800000  1.0 -0.4788567626
O  O39  1  0.58400000  0.59300000  0.18800000  1.0 -0.4788567626
O  O40  1  0.41600000  0.09300000  0.31200000  1.0 -0.4788567626
O  O41  1  0.67000000  0.74600000  0.63400000  1.0 -0.5799420214
O  O42  1  0.33000000  0.24600000  0.86600000  1.0 -0.5799420214
O  O43  1  0.33000000  0.25400000  0.36600000  1.0 -0.5858193118
O  O44  1  0.67000000  0.75400000  0.13400000  1.0 -0.5799420214
O  O45  1  0.80600000  0.65800000  0.73900000  1.0 -0.5799420214
O  O46  1  0.19400000  0.15800000  0.76100000  1.0 -0.5799420214
O  O47  1  0.19400000  0.34200000  0.26100000  1.0 -0.5799420214
O  O48  1  0.80600000  0.84200000  0.23900000  1.0 -0.5799420214
O  O49  1  0.78900000  0.62000000  0.91600000  1.0 -0.5102015365
O  O50  1  0.21100000  0.12000000  0.58400000  1.0 -0.5102015365
O  O51  1  0.21100000  0.38000000  0.08400000  1.0 -0.5102015365
O  O52  1  0.78900000  0.88000000  0.41600000  1.0 -0.5102015365
O  O53  1  0.59900000  0.69500000  0.87700000  1.0 -0.4685501609
O  O54  1  0.40100000  0.19500000  0.62300000  1.0 -0.4685501609
O  O55  1  0.40100000  0.30500000  0.12300000  1.0 -0.4685501609
O  O56  1  0.59900000  0.80500000  0.37700000  1.0 -0.4685501609
O  O57  1  0.67760000  0.50730000  0.77760000  1.0 -0.4788567626
O  O58  1  0.32240000  0.00730000  0.72240000  1.0 -0.4788567626
O  O59  1  0.32240000  0.49270000  0.22240000  1.0 -0.4788567626
O  O60  1  0.67760000  0.99270000  0.27760000  1.0 -0.4788567626
O  O61  1  0.16800000  0.38700000  0.63800000  1.0 0.2044883789
O  O62  1  0.83200000  0.88700000  0.86200000  1.0 0.2059079926
O  O63  1  0.83200000  0.61300000  0.36200000  1.0 0.2044883789
O  O64  1  0.16800000  0.11300000  0.13800000  1.0 0.2044883789
O  O65  1  0.19500000  0.44000000  0.90700000  1.0 -0.121590719
O  O66  1  0.80500000  0.94000000  0.59300000  1.0 -0.121590719
O  O67  1  0.80500000  0.56000000  0.09300000  1.0 -0.121590719
O  O68  1  0.19500000  0.06000000  0.40700000  1.0 -0.121590719
