# DDEC6 charges by PACMAN v1.1 (https://github.com/mtap-research/PACMAN-charge/)
data_HASTAY_ASR_pacman
_symmetry_space_group_name_H-M   'P 1'
_cell_length_a   21.12930000
_cell_length_b   16.48350000
_cell_length_c   31.92320000
_cell_angle_alpha   90.00000000
_cell_angle_beta   128.62500000
_cell_angle_gamma   90.00000000
_symmetry_Int_Tables_number   1
_chemical_formula_structural   Zn10H48Ru4C106(N8O13)3
_chemical_formula_sum   'Zn20 H96 Ru8 C212 N48 O78'
_cell_volume   8686.20308049
_cell_formula_units_Z   2
loop_
 _symmetry_equiv_pos_site_id
 _symmetry_equiv_pos_as_xyz
  1  'x, y, z'
loop_
 _atom_site_type_symbol
 _atom_site_label
 _atom_site_symmetry_multiplicity
 _atom_site_fract_x
 _atom_site_fract_y
 _atom_site_fract_z
 _atom_site_occupancy
 _atom_site_charge
Zn  Zn1  1  0.96811000  0.98720000  0.30741000  1.0 0.980865917
Zn  Zn2  1  0.03189000  0.98720000  0.19259000  1.0 0.980865917
Zn  Zn3  1  0.03189000  0.01280000  0.69259000  1.0 0.980865917
Zn  Zn4  1  0.96811000  0.01280000  0.80741000  1.0 0.980865917
Zn  Zn5  1  0.90836000  0.54150000  0.24552000  1.0 0.9876334432
Zn  Zn6  1  0.09164000  0.54150000  0.25448000  1.0 0.9876334432
Zn  Zn7  1  0.09164000  0.45850000  0.75448000  1.0 0.9876334432
Zn  Zn8  1  0.90836000  0.45850000  0.74552000  1.0 0.9876334432
Zn  Zn9  1  0.15491000  0.92871000  0.81354000  1.0 1.0606622163
Zn  Zn10  1  0.84509000  0.92871000  0.68646000  1.0 1.0606622163
Zn  Zn11  1  0.84509000  0.07129000  0.18646000  1.0 1.0606622163
Zn  Zn12  1  0.15491000  0.07129000  0.31354000  1.0 1.0606622163
Zn  Zn13  1  0.65493000  0.98016000  0.00407000  1.0 0.9431995813
Zn  Zn14  1  0.34507000  0.98016000  0.49593000  1.0 0.9431995813
Zn  Zn15  1  0.34507000  0.01984000  0.99593000  1.0 0.9431995813
Zn  Zn16  1  0.65493000  0.01984000  0.50407000  1.0 0.9431995813
Zn  Zn17  1  0.16710000  0.53344000  0.01023000  1.0 0.8987473611
Zn  Zn18  1  0.83290000  0.53344000  0.48977000  1.0 0.8987473611
Zn  Zn19  1  0.83290000  0.46656000  0.98977000  1.0 0.8987473611
Zn  Zn20  1  0.16710000  0.46656000  0.51023000  1.0 0.8987473611
H  H1  1  0.12170000  0.13830000  0.63840000  1.0 0.1294042669
H  H2  1  0.87830000  0.13830000  0.86160000  1.0 0.1294042669
H  H3  1  0.87830000  0.86170000  0.36160000  1.0 0.1294042669
H  H4  1  0.12170000  0.86170000  0.13840000  1.0 0.1294042669
H  H5  1  0.11280000  0.22810000  0.69090000  1.0 0.1294042669
H  H6  1  0.88720000  0.22810000  0.80910000  1.0 0.1294042669
H  H7  1  0.88720000  0.77190000  0.30910000  1.0 0.1294042669
H  H8  1  0.11280000  0.77190000  0.19090000  1.0 0.1294042669
H  H9  1  0.95670000  0.36690000  0.56070000  1.0 0.1230631392
H  H10  1  0.04330000  0.36690000  0.93930000  1.0 0.1230631392
H  H11  1  0.04330000  0.63310000  0.43930000  1.0 0.1230631392
H  H12  1  0.95670000  0.63310000  0.06070000  1.0 0.1230631392
H  H13  1  0.12310000  0.06220000  0.58410000  1.0 0.1294042669
H  H14  1  0.87690000  0.06220000  0.91590000  1.0 0.1294042669
H  H15  1  0.87690000  0.93780000  0.41590000  1.0 0.1294042669
H  H16  1  0.12310000  0.93780000  0.08410000  1.0 0.1294042669
H  H17  1  0.11490000  0.98260000  0.52050000  1.0 0.1230631392
H  H18  1  0.88510000  0.98260000  0.97950000  1.0 0.1230631392
H  H19  1  0.88510000  0.01740000  0.47950000  1.0 0.1230631392
H  H20  1  0.11490000  0.01740000  0.02050000  1.0 0.1230631392
H  H21  1  0.96110000  0.14470000  0.40550000  1.0 0.1294042669
H  H22  1  0.03890000  0.14470000  0.09450000  1.0 0.1294042669
H  H23  1  0.03890000  0.85530000  0.59450000  1.0 0.1294042669
H  H24  1  0.96110000  0.85530000  0.90550000  1.0 0.1294042669
H  H25  1  0.66860000  0.17090000  0.31550000  1.0 0.1294042669
H  H26  1  0.33140000  0.17090000  0.18450000  1.0 0.1294042669
H  H27  1  0.33140000  0.82910000  0.68450000  1.0 0.1294042669
H  H28  1  0.66860000  0.82910000  0.81550000  1.0 0.1294042669
H  H29  1  0.64190000  0.10330000  0.36710000  1.0 0.1294042669
H  H30  1  0.35810000  0.10330000  0.13290000  1.0 0.1294042669
H  H31  1  0.35810000  0.89670000  0.63290000  1.0 0.1294042669
H  H32  1  0.64190000  0.89670000  0.86710000  1.0 0.1294042669
H  H33  1  0.85460000  0.18240000  0.50200000  1.0 0.1294042669
H  H34  1  0.14540000  0.18240000  0.99800000  1.0 0.1294042669
H  H35  1  0.14540000  0.81760000  0.49800000  1.0 0.1294042669
H  H36  1  0.85460000  0.81760000  0.00200000  1.0 0.1294042669
H  H37  1  0.69210000  0.25780000  0.27550000  1.0 0.1294042669
H  H38  1  0.30790000  0.25780000  0.22450000  1.0 0.1294042669
H  H39  1  0.30790000  0.74220000  0.72450000  1.0 0.1294042669
H  H40  1  0.69210000  0.74220000  0.77550000  1.0 0.1294042669
H  H41  1  0.73200000  0.33850000  0.23580000  1.0 0.1230631392
H  H42  1  0.26800000  0.33850000  0.26420000  1.0 0.1230631392
H  H43  1  0.26800000  0.66150000  0.76420000  1.0 0.1230631392
H  H44  1  0.73200000  0.66150000  0.73580000  1.0 0.1230631392
H  H45  1  0.95280000  0.36600000  0.37930000  1.0 0.1294042669
H  H46  1  0.04720000  0.36600000  0.12070000  1.0 0.1294042669
H  H47  1  0.04720000  0.63400000  0.62070000  1.0 0.1294042669
H  H48  1  0.95280000  0.63400000  0.87930000  1.0 0.1294042669
H  H49  1  0.64360000  0.77070000  0.24020000  1.0 0.139655371
H  H50  1  0.35640000  0.77070000  0.25980000  1.0 0.139655371
H  H51  1  0.35640000  0.22930000  0.75980000  1.0 0.139655371
H  H52  1  0.64360000  0.22930000  0.74020000  1.0 0.139655371
H  H53  1  0.75250000  0.85770000  0.27370000  1.0 0.1230631392
H  H54  1  0.24750000  0.85770000  0.22630000  1.0 0.1230631392
H  H55  1  0.24750000  0.14230000  0.72630000  1.0 0.1230631392
H  H56  1  0.75250000  0.14230000  0.77370000  1.0 0.1230631392
H  H57  1  0.68600000  0.88140000  0.12520000  1.0 0.139655371
H  H58  1  0.31400000  0.88140000  0.37480000  1.0 0.139655371
H  H59  1  0.31400000  0.11860000  0.87480000  1.0 0.139655371
H  H60  1  0.68600000  0.11860000  0.62520000  1.0 0.139655371
H  H61  1  0.53460000  0.69550000  0.20240000  1.0 0.1294042669
H  H62  1  0.46540000  0.69550000  0.29760000  1.0 0.1294042669
H  H63  1  0.46540000  0.30450000  0.79760000  1.0 0.1294042669
H  H64  1  0.53460000  0.30450000  0.70240000  1.0 0.1294042669
H  H65  1  0.41450000  0.62140000  0.15450000  1.0 0.1294042669
H  H66  1  0.58550000  0.62140000  0.34550000  1.0 0.1294042669
H  H67  1  0.58550000  0.37860000  0.84550000  1.0 0.1294042669
H  H68  1  0.41450000  0.37860000  0.65450000  1.0 0.1294042669
H  H69  1  0.38110000  0.66500000  0.01750000  1.0 0.1230631392
H  H70  1  0.61890000  0.66500000  0.48250000  1.0 0.1230631392
H  H71  1  0.61890000  0.33500000  0.98250000  1.0 0.1230631392
H  H72  1  0.38110000  0.33500000  0.51750000  1.0 0.1230631392
H  H73  1  0.53900000  0.52680000  0.96460000  1.0 0.1294042669
H  H74  1  0.46100000  0.52680000  0.53540000  1.0 0.1294042669
H  H75  1  0.46100000  0.47320000  0.03540000  1.0 0.1294042669
H  H76  1  0.53900000  0.47320000  0.46460000  1.0 0.1294042669
H  H77  1  0.66860000  0.48270000  0.03590000  1.0 0.1294042669
H  H78  1  0.33140000  0.48270000  0.46410000  1.0 0.1294042669
H  H79  1  0.33140000  0.51730000  0.96410000  1.0 0.1294042669
H  H80  1  0.66860000  0.51730000  0.53590000  1.0 0.1294042669
H  H81  1  0.69120000  0.67070000  0.12540000  1.0 0.1294042669
H  H82  1  0.30880000  0.67070000  0.37460000  1.0 0.1294042669
H  H83  1  0.30880000  0.32930000  0.87460000  1.0 0.1294042669
H  H84  1  0.69120000  0.32930000  0.62540000  1.0 0.1294042669
H  H85  1  0.41410000  0.56460000  0.90590000  1.0 0.1294042669
H  H86  1  0.58590000  0.56460000  0.59410000  1.0 0.1294042669
H  H87  1  0.58590000  0.43540000  0.09410000  1.0 0.1294042669
H  H88  1  0.41410000  0.43540000  0.40590000  1.0 0.1294042669
H  H89  1  0.29070000  0.62770000  0.84080000  1.0 0.1294042669
H  H90  1  0.70930000  0.62770000  0.65920000  1.0 0.1294042669
H  H91  1  0.70930000  0.37230000  0.15920000  1.0 0.1294042669
H  H92  1  0.29070000  0.37230000  0.34080000  1.0 0.1294042669
H  H93  1  0.35730000  0.81800000  0.94000000  1.0 0.1294042669
H  H94  1  0.64270000  0.81800000  0.56000000  1.0 0.1294042669
H  H95  1  0.64270000  0.18200000  0.06000000  1.0 0.1294042669
H  H96  1  0.35730000  0.18200000  0.44000000  1.0 0.1294042669
Ru  Ru1  1  0.52720000  0.77582000  0.04851000  1.0 0.3964154635
Ru  Ru2  1  0.47280000  0.77582000  0.45149000  1.0 0.3964154635
Ru  Ru3  1  0.47280000  0.22418000  0.95149000  1.0 0.3964154635
Ru  Ru4  1  0.52720000  0.22418000  0.54851000  1.0 0.3964154635
Ru  Ru5  1  0.93848000  0.28684000  0.46409000  1.0 0.4212520856
Ru  Ru6  1  0.06152000  0.28684000  0.03591000  1.0 0.4212520856
Ru  Ru7  1  0.06152000  0.71316000  0.53591000  1.0 0.4212520856
Ru  Ru8  1  0.93848000  0.71316000  0.96409000  1.0 0.4212520856
C  C1  1  0.88040000  0.41040000  0.28420000  1.0 0.5320182655
C  C2  1  0.11960000  0.41040000  0.21580000  1.0 0.5320182655
C  C3  1  0.11960000  0.58960000  0.71580000  1.0 0.5320182655
C  C4  1  0.88040000  0.58960000  0.78420000  1.0 0.5320182655
C  C5  1  0.02840000  0.36910000  0.66220000  1.0 0.5320182655
C  C6  1  0.97160000  0.36910000  0.83780000  1.0 0.5320182655
C  C7  1  0.97160000  0.63090000  0.33780000  1.0 0.5320182655
C  C8  1  0.02840000  0.63090000  0.16220000  1.0 0.5320182655
C  C9  1  0.73070000  0.10350000  0.47580000  1.0 0.5473758105
C  C10  1  0.26930000  0.10350000  0.02420000  1.0 0.5473758105
C  C11  1  0.26930000  0.89650000  0.52420000  1.0 0.5473758105
C  C12  1  0.73070000  0.89650000  0.97580000  1.0 0.5473758105
C  C13  1  0.30340000  0.59800000  0.04810000  1.0 0.5473758105
C  C14  1  0.69660000  0.59800000  0.45190000  1.0 0.5473758105
C  C15  1  0.69660000  0.40200000  0.95190000  1.0 0.5473758105
C  C16  1  0.30340000  0.40200000  0.54810000  1.0 0.5473758105
C  C17  1  0.04450000  0.19910000  0.56820000  1.0 0.1524395959
C  C18  1  0.95550000  0.19910000  0.93180000  1.0 0.1524395959
C  C19  1  0.95550000  0.80090000  0.43180000  1.0 0.1524395959
C  C20  1  0.04450000  0.80090000  0.06820000  1.0 0.1524395959
C  C21  1  0.08840000  0.18440000  0.62270000  1.0 -0.1629471875
C  C22  1  0.91160000  0.18440000  0.87730000  1.0 -0.1629471875
C  C23  1  0.91160000  0.81560000  0.37730000  1.0 -0.1629471875
C  C24  1  0.08840000  0.81560000  0.12270000  1.0 -0.1629471875
C  C25  1  0.08320000  0.23800000  0.65410000  1.0 -0.048672292
C  C26  1  0.91680000  0.23800000  0.84590000  1.0 -0.048672292
C  C27  1  0.91680000  0.76200000  0.34590000  1.0 -0.048672292
C  C28  1  0.08320000  0.76200000  0.15410000  1.0 -0.048672292
C  C29  1  0.03390000  0.30620000  0.63090000  1.0 -0.0383201668
C  C30  1  0.96610000  0.30620000  0.86910000  1.0 -0.0347256225
C  C31  1  0.96610000  0.69380000  0.36910000  1.0 -0.0347256225
C  C32  1  0.03390000  0.69380000  0.13090000  1.0 -0.0383201668
C  C33  1  0.99000000  0.32080000  0.57640000  1.0 0.0295729377
C  C34  1  0.01000000  0.32080000  0.92360000  1.0 0.0295729377
C  C35  1  0.01000000  0.67920000  0.42360000  1.0 0.0295729377
C  C36  1  0.99000000  0.67920000  0.07640000  1.0 0.0295729377
C  C37  1  0.04690000  0.15090000  0.53270000  1.0 0.1524395959
C  C38  1  0.95310000  0.15090000  0.96730000  1.0 0.1524395959
C  C39  1  0.95310000  0.84910000  0.46730000  1.0 0.1524395959
C  C40  1  0.04690000  0.84910000  0.03270000  1.0 0.1524395959
C  C41  1  0.09040000  0.07880000  0.54810000  1.0 -0.1629471875
C  C42  1  0.90960000  0.07880000  0.95190000  1.0 -0.1629471875
C  C43  1  0.90960000  0.92120000  0.45190000  1.0 -0.1629471875
C  C44  1  0.09040000  0.92120000  0.04810000  1.0 -0.1629471875
C  C45  1  0.08560000  0.03140000  0.51020000  1.0 -0.0572317478
C  C46  1  0.91440000  0.03140000  0.98980000  1.0 -0.0572317478
C  C47  1  0.91440000  0.96860000  0.48980000  1.0 -0.0572317478
C  C48  1  0.08560000  0.96860000  0.01020000  1.0 -0.0572317478
C  C49  1  0.03720000  0.05600000  0.45690000  1.0 -0.0693133857
C  C50  1  0.96280000  0.05600000  0.04310000  1.0 -0.0693133857
C  C51  1  0.96280000  0.94400000  0.54310000  1.0 -0.0693133857
C  C52  1  0.03720000  0.94400000  0.95690000  1.0 -0.0693133857
C  C53  1  0.99370000  0.12810000  0.44150000  1.0 0.0466916485
C  C54  1  0.00630000  0.12810000  0.05850000  1.0 0.0466916485
C  C55  1  0.00630000  0.87190000  0.55850000  1.0 0.0466916485
C  C56  1  0.99370000  0.87190000  0.94150000  1.0 0.0466916485
C  C57  1  0.77750000  0.21700000  0.37800000  1.0 0.139655371
C  C58  1  0.22250000  0.21700000  0.12200000  1.0 0.139655371
C  C59  1  0.22250000  0.78300000  0.62200000  1.0 0.139655371
C  C60  1  0.77750000  0.78300000  0.87800000  1.0 0.139655371
C  C61  1  0.70620000  0.17320000  0.35320000  1.0 -0.1776138891
C  C62  1  0.29380000  0.17320000  0.14680000  1.0 -0.1776138891
C  C63  1  0.29380000  0.82680000  0.64680000  1.0 -0.1776138891
C  C64  1  0.70620000  0.82680000  0.85320000  1.0 -0.1776138891
C  C65  1  0.69020000  0.13290000  0.38390000  1.0 -0.048672292
C  C66  1  0.30980000  0.13290000  0.11610000  1.0 -0.048672292
C  C67  1  0.30980000  0.86710000  0.61610000  1.0 -0.048672292
C  C68  1  0.69020000  0.86710000  0.88390000  1.0 -0.048672292
C  C69  1  0.74580000  0.13630000  0.43960000  1.0 -0.0572317478
C  C70  1  0.25420000  0.13630000  0.06040000  1.0 -0.0572317478
C  C71  1  0.25420000  0.86370000  0.56040000  1.0 -0.0572317478
C  C72  1  0.74580000  0.86370000  0.93960000  1.0 -0.0572317478
C  C73  1  0.81710000  0.18010000  0.46440000  1.0 0.0372438331
C  C74  1  0.18290000  0.18010000  0.03560000  1.0 0.0372438331
C  C75  1  0.18290000  0.81990000  0.53560000  1.0 0.0372438331
C  C76  1  0.81710000  0.81990000  0.96440000  1.0 0.0372438331
C  C77  1  0.79870000  0.26370000  0.35120000  1.0 0.139655371
C  C78  1  0.20130000  0.26370000  0.14880000  1.0 0.139655371
C  C79  1  0.20130000  0.73630000  0.64880000  1.0 0.139655371
C  C80  1  0.79870000  0.73630000  0.85120000  1.0 0.139655371
C  C81  1  0.74480000  0.27960000  0.29650000  1.0 -0.1629471875
C  C82  1  0.25520000  0.27960000  0.20350000  1.0 -0.1629471875
C  C83  1  0.25520000  0.72040000  0.70350000  1.0 -0.1629471875
C  C84  1  0.74480000  0.72040000  0.79650000  1.0 -0.1679612832
C  C85  1  0.76850000  0.32780000  0.27270000  1.0 -0.0383201668
C  C86  1  0.23150000  0.32780000  0.22730000  1.0 -0.0383201668
C  C87  1  0.23150000  0.67220000  0.72730000  1.0 -0.0383201668
C  C88  1  0.76850000  0.67220000  0.77270000  1.0 -0.0383201668
C  C89  1  0.84620000  0.36010000  0.30370000  1.0 -0.0383201668
C  C90  1  0.15380000  0.36010000  0.19630000  1.0 -0.048672292
C  C91  1  0.15380000  0.63990000  0.69630000  1.0 -0.048672292
C  C92  1  0.84620000  0.63990000  0.80370000  1.0 -0.048672292
C  C93  1  0.90020000  0.34420000  0.35840000  1.0 0.0295729377
C  C94  1  0.09980000  0.34420000  0.14160000  1.0 0.0295729377
C  C95  1  0.09980000  0.65580000  0.64160000  1.0 0.0295729377
C  C96  1  0.90020000  0.65580000  0.85840000  1.0 0.0295729377
C  C97  1  0.59980000  0.77410000  0.16270000  1.0 0.1524395959
C  C98  1  0.40020000  0.77410000  0.33730000  1.0 0.1524395959
C  C99  1  0.40020000  0.22590000  0.83730000  1.0 0.1524395959
C  C100  1  0.59980000  0.22590000  0.66270000  1.0 0.1524395959
C  C101  1  0.65210000  0.79300000  0.21700000  1.0 -0.1679612832
C  C102  1  0.34790000  0.79300000  0.28300000  1.0 -0.1679612832
C  C103  1  0.34790000  0.20700000  0.78300000  1.0 -0.1679612832
C  C104  1  0.65210000  0.20700000  0.71700000  1.0 -0.1679612832
C  C105  1  0.71720000  0.84490000  0.23700000  1.0 -0.048672292
C  C106  1  0.28280000  0.84490000  0.26300000  1.0 -0.048672292
C  C107  1  0.28280000  0.15510000  0.76300000  1.0 -0.048672292
C  C108  1  0.71720000  0.15510000  0.73700000  1.0 -0.048672292
C  C109  1  0.72980000  0.87800000  0.20270000  1.0 -0.0572317478
C  C110  1  0.27020000  0.87800000  0.29730000  1.0 -0.0572317478
C  C111  1  0.27020000  0.12200000  0.79730000  1.0 -0.0572317478
C  C112  1  0.72980000  0.12200000  0.70270000  1.0 -0.0572317478
C  C113  1  0.67740000  0.85910000  0.14840000  1.0 0.0466916485
C  C114  1  0.32260000  0.85910000  0.35160000  1.0 0.0466916485
C  C115  1  0.32260000  0.14090000  0.85160000  1.0 0.0466916485
C  C116  1  0.67740000  0.14090000  0.64840000  1.0 0.0466916485
C  C117  1  0.52950000  0.72450000  0.13850000  1.0 0.1524395959
C  C118  1  0.47050000  0.72450000  0.36150000  1.0 0.1524395959
C  C119  1  0.47050000  0.27550000  0.86150000  1.0 0.1524395959
C  C120  1  0.52950000  0.27550000  0.63850000  1.0 0.1524395959
C  C121  1  0.50360000  0.68940000  0.16510000  1.0 -0.1776138891
C  C122  1  0.49640000  0.68940000  0.33490000  1.0 -0.1776138891
C  C123  1  0.49640000  0.31060000  0.83490000  1.0 -0.1776138891
C  C124  1  0.50360000  0.31060000  0.66510000  1.0 -0.1776138891
C  C125  1  0.43190000  0.64520000  0.13650000  1.0 -0.048672292
C  C126  1  0.56810000  0.64520000  0.36350000  1.0 -0.048672292
C  C127  1  0.56810000  0.35480000  0.86350000  1.0 -0.048672292
C  C128  1  0.43190000  0.35480000  0.63650000  1.0 -0.048672292
C  C129  1  0.38620000  0.63600000  0.08140000  1.0 -0.0383201668
C  C130  1  0.61380000  0.63600000  0.41860000  1.0 -0.0383201668
C  C131  1  0.61380000  0.36400000  0.91860000  1.0 -0.0383201668
C  C132  1  0.38620000  0.36400000  0.58140000  1.0 -0.0383201668
C  C133  1  0.41200000  0.67110000  0.05480000  1.0 0.0295729377
C  C134  1  0.58800000  0.67110000  0.44520000  1.0 0.0295729377
C  C135  1  0.58800000  0.32890000  0.94520000  1.0 0.0295729377
C  C136  1  0.41200000  0.32890000  0.55480000  1.0 0.0295729377
C  C137  1  0.53780000  0.62510000  0.00240000  1.0 0.139655371
C  C138  1  0.46220000  0.62510000  0.49760000  1.0 0.139655371
C  C139  1  0.46220000  0.37490000  0.99760000  1.0 0.139655371
C  C140  1  0.53780000  0.37490000  0.50240000  1.0 0.139655371
C  C141  1  0.56970000  0.55580000  0.99700000  1.0 -0.1679612832
C  C142  1  0.43030000  0.55580000  0.50300000  1.0 -0.1679612832
C  C143  1  0.43030000  0.44420000  0.00300000  1.0 -0.1679612832
C  C144  1  0.56970000  0.44420000  0.49700000  1.0 -0.1679612832
C  C145  1  0.64700000  0.52950000  0.03960000  1.0 -0.0572317478
C  C146  1  0.35300000  0.52950000  0.46040000  1.0 -0.0572317478
C  C147  1  0.35300000  0.47050000  0.96040000  1.0 -0.0572317478
C  C148  1  0.64700000  0.47050000  0.53960000  1.0 -0.0572317478
C  C149  1  0.69250000  0.57240000  0.08760000  1.0 -0.0383201668
C  C150  1  0.30750000  0.57240000  0.41240000  1.0 -0.0383201668
C  C151  1  0.30750000  0.42760000  0.91240000  1.0 -0.0383201668
C  C152  1  0.69250000  0.42760000  0.58760000  1.0 -0.0383201668
C  C153  1  0.66060000  0.64170000  0.09300000  1.0 0.0295729377
C  C154  1  0.33940000  0.64170000  0.40700000  1.0 0.0295729377
C  C155  1  0.33940000  0.35830000  0.90700000  1.0 0.0295729377
C  C156  1  0.66060000  0.35830000  0.59300000  1.0 0.0295729377
C  C157  1  0.45930000  0.65360000  0.96180000  1.0 0.139655371
C  C158  1  0.54070000  0.65360000  0.53820000  1.0 0.139655371
C  C159  1  0.54070000  0.34640000  0.03820000  1.0 0.139655371
C  C160  1  0.45930000  0.34640000  0.46180000  1.0 0.139655371
C  C161  1  0.40270000  0.61570000  0.91280000  1.0 -0.1629471875
C  C162  1  0.59730000  0.61570000  0.58720000  1.0 -0.1629471875
C  C163  1  0.59730000  0.38430000  0.08720000  1.0 -0.1629471875
C  C164  1  0.40270000  0.38430000  0.41280000  1.0 -0.1629471875
C  C165  1  0.32910000  0.65340000  0.87400000  1.0 -0.0383201668
C  C166  1  0.67090000  0.65340000  0.62600000  1.0 -0.0383201668
C  C167  1  0.67090000  0.34660000  0.12600000  1.0 -0.0383201668
C  C168  1  0.32910000  0.34660000  0.37400000  1.0 -0.0383201668
C  C169  1  0.31210000  0.72900000  0.88410000  1.0 -0.0693133857
C  C170  1  0.68790000  0.72900000  0.61590000  1.0 -0.0693133857
C  C171  1  0.68790000  0.27100000  0.11590000  1.0 -0.0693133857
C  C172  1  0.31210000  0.27100000  0.38410000  1.0 -0.0693133857
C  C173  1  0.36870000  0.76690000  0.93310000  1.0 0.0372438331
C  C174  1  0.63130000  0.76690000  0.56690000  1.0 0.0372438331
C  C175  1  0.63130000  0.23310000  0.06690000  1.0 0.0372438331
C  C176  1  0.36870000  0.23310000  0.43310000  1.0 0.0372438331
C  C177  1  0.46130000  0.86880000  0.03670000  1.0 0.0042312036
C  C178  1  0.53870000  0.86880000  0.46330000  1.0 0.0042312036
C  C179  1  0.53870000  0.13120000  0.96330000  1.0 0.0042312036
C  C180  1  0.46130000  0.13120000  0.53670000  1.0 0.0042312036
C  C181  1  0.02590000  0.00460000  0.41480000  1.0 0.544551349
C  C182  1  0.97410000  0.00460000  0.08520000  1.0 0.544551349
C  C183  1  0.97410000  0.99540000  0.58520000  1.0 0.5473758105
C  C184  1  0.02590000  0.99540000  0.91480000  1.0 0.5473758105
C  C185  1  0.11560000  0.38760000  0.03990000  1.0 0.0200682523
C  C186  1  0.88440000  0.38760000  0.46010000  1.0 0.0200682523
C  C187  1  0.88440000  0.61240000  0.96010000  1.0 0.0200682523
C  C188  1  0.11560000  0.61240000  0.53990000  1.0 0.0200682523
C  C189  1  0.57340000  0.84260000  0.02350000  1.0 0.0042312036
C  C190  1  0.42660000  0.84260000  0.47650000  1.0 0.0042312036
C  C191  1  0.42660000  0.15740000  0.97650000  1.0 0.0042312036
C  C192  1  0.57340000  0.15740000  0.52350000  1.0 0.0042312036
C  C193  1  0.17990000  0.97630000  0.90730000  1.0 0.7202528928
C  C194  1  0.82010000  0.97630000  0.59270000  1.0 0.7202528928
C  C195  1  0.82010000  0.02370000  0.09270000  1.0 0.7202528928
C  C196  1  0.17990000  0.02370000  0.40730000  1.0 0.7202528928
C  C197  1  0.03320000  0.65060000  0.98440000  1.0 0.0071356984
C  C198  1  0.96680000  0.65060000  0.51560000  1.0 0.0071356984
C  C199  1  0.96680000  0.34940000  0.01560000  1.0 0.0071356984
C  C200  1  0.03320000  0.34940000  0.48440000  1.0 0.0071356984
C  C201  1  0.79800000  0.93510000  0.22200000  1.0 0.5856485728
C  C202  1  0.20200000  0.93510000  0.27800000  1.0 0.5856485728
C  C203  1  0.20200000  0.06490000  0.77800000  1.0 0.5856485728
C  C204  1  0.79800000  0.06490000  0.72200000  1.0 0.5856485728
C  C205  1  0.77650000  0.54560000  0.13440000  1.0 0.544551349
C  C206  1  0.22350000  0.54560000  0.36560000  1.0 0.544551349
C  C207  1  0.22350000  0.45440000  0.86560000  1.0 0.544551349
C  C208  1  0.77650000  0.45440000  0.63440000  1.0 0.544551349
C  C209  1  0.23760000  0.77360000  0.84420000  1.0 0.5597789649
C  C210  1  0.76240000  0.77360000  0.65580000  1.0 0.5597789649
C  C211  1  0.76240000  0.22640000  0.15580000  1.0 0.5597789649
C  C212  1  0.23760000  0.22640000  0.34420000  1.0 0.5597789649
N  N1  1  0.08910000  0.61710000  0.99400000  1.0 -0.3772801992
N  N2  1  0.91090000  0.61710000  0.50600000  1.0 -0.3772801992
N  N3  1  0.91090000  0.38290000  0.00600000  1.0 -0.3772801992
N  N4  1  0.08910000  0.38290000  0.49400000  1.0 -0.3772801992
N  N5  1  0.60530000  0.88770000  0.01330000  1.0 -0.3772801992
N  N6  1  0.39470000  0.88770000  0.48670000  1.0 -0.3772801992
N  N7  1  0.39470000  0.11230000  0.98670000  1.0 -0.3772801992
N  N8  1  0.60530000  0.11230000  0.51330000  1.0 -0.3772801992
N  N9  1  0.99530000  0.26730000  0.54500000  1.0 -0.2004222825
N  N10  1  0.00470000  0.26730000  0.95500000  1.0 -0.2004222825
N  N11  1  0.00470000  0.73270000  0.45500000  1.0 -0.2004222825
N  N12  1  0.99530000  0.73270000  0.04500000  1.0 -0.2004222825
N  N13  1  0.99870000  0.17550000  0.47950000  1.0 -0.2122570958
N  N14  1  0.00130000  0.17550000  0.02050000  1.0 -0.2122570958
N  N15  1  0.00130000  0.82450000  0.52050000  1.0 -0.2122570958
N  N16  1  0.99870000  0.82450000  0.97950000  1.0 -0.2122570958
N  N17  1  0.83300000  0.22050000  0.43360000  1.0 -0.2004222825
N  N18  1  0.16700000  0.22050000  0.06640000  1.0 -0.2004222825
N  N19  1  0.16700000  0.77950000  0.56640000  1.0 -0.2004222825
N  N20  1  0.83300000  0.77950000  0.93360000  1.0 -0.2004222825
N  N21  1  0.87640000  0.29600000  0.38210000  1.0 -0.2004222825
N  N22  1  0.12360000  0.29600000  0.11790000  1.0 -0.2004222825
N  N23  1  0.12360000  0.70400000  0.61790000  1.0 -0.2004222825
N  N24  1  0.87640000  0.70400000  0.88210000  1.0 -0.2004222825
N  N25  1  0.61240000  0.80710000  0.12840000  1.0 -0.1915528096
N  N26  1  0.38760000  0.80710000  0.37160000  1.0 -0.1915528096
N  N27  1  0.38760000  0.19290000  0.87160000  1.0 -0.1915528096
N  N28  1  0.61240000  0.19290000  0.62840000  1.0 -0.1915528096
N  N29  1  0.48370000  0.71530000  0.08340000  1.0 -0.1915528096
N  N30  1  0.51630000  0.71530000  0.41660000  1.0 -0.1915528096
N  N31  1  0.51630000  0.28470000  0.91660000  1.0 -0.1915528096
N  N32  1  0.48370000  0.28470000  0.58340000  1.0 -0.1915528096
N  N33  1  0.58320000  0.66800000  0.05040000  1.0 -0.2122570958
N  N34  1  0.41680000  0.66800000  0.44960000  1.0 -0.2122570958
N  N35  1  0.41680000  0.33200000  0.94960000  1.0 -0.2122570958
N  N36  1  0.58320000  0.33200000  0.55040000  1.0 -0.2122570958
N  N37  1  0.44230000  0.72930000  0.97190000  1.0 -0.2004222825
N  N38  1  0.55770000  0.72930000  0.52810000  1.0 -0.2004222825
N  N39  1  0.55770000  0.27070000  0.02810000  1.0 -0.2004222825
N  N40  1  0.44230000  0.27070000  0.47190000  1.0 -0.2004222825
N  N41  1  0.42030000  0.92570000  0.02690000  1.0 -0.3772801992
N  N42  1  0.57970000  0.92570000  0.47310000  1.0 -0.3772801992
N  N43  1  0.57970000  0.07430000  0.97310000  1.0 -0.3772801992
N  N44  1  0.42030000  0.07430000  0.52690000  1.0 -0.3772801992
N  N45  1  0.14770000  0.44220000  0.04040000  1.0 -0.3740172696
N  N46  1  0.85230000  0.44220000  0.45960000  1.0 -0.3740172696
N  N47  1  0.85230000  0.55780000  0.95960000  1.0 -0.3740172696
N  N48  1  0.14770000  0.55780000  0.54040000  1.0 -0.3740172696
O  O1  1  0.95560000  0.39920000  0.30600000  1.0 -0.4091446113
O  O2  1  0.04440000  0.39920000  0.19400000  1.0 -0.4091446113
O  O3  1  0.04440000  0.60080000  0.69400000  1.0 -0.4091446113
O  O4  1  0.95560000  0.60080000  0.80600000  1.0 -0.4091446113
O  O5  1  0.84440000  0.45610000  0.24910000  1.0 -0.4091446113
O  O6  1  0.15560000  0.45610000  0.25090000  1.0 -0.4091446113
O  O7  1  0.15560000  0.54390000  0.75090000  1.0 -0.4091446113
O  O8  1  0.84440000  0.54390000  0.74910000  1.0 -0.4091446113
O  O9  1  0.07850000  0.36180000  0.71210000  1.0 -0.5073537374
O  O10  1  0.92150000  0.36180000  0.78790000  1.0 -0.5073537374
O  O11  1  0.92150000  0.63820000  0.28790000  1.0 -0.5073537374
O  O12  1  0.07850000  0.63820000  0.21210000  1.0 -0.5073537374
O  O13  1  0.67870000  0.04540000  0.45550000  1.0 -0.5692850437
O  O14  1  0.32130000  0.04540000  0.04450000  1.0 -0.5692850437
O  O15  1  0.32130000  0.95460000  0.54450000  1.0 -0.5692850437
O  O16  1  0.67870000  0.95460000  0.95550000  1.0 -0.5692850437
O  O17  1  0.28120000  0.57150000  0.07310000  1.0 -0.5206463199
O  O18  1  0.71880000  0.57150000  0.42690000  1.0 -0.5206463199
O  O19  1  0.71880000  0.42850000  0.92690000  1.0 -0.5206463199
O  O20  1  0.28120000  0.42850000  0.57310000  1.0 -0.5206463199
O  O21  1  0.23380000  0.84690000  0.84900000  1.0 -0.5206463199
O  O22  1  0.76620000  0.84690000  0.65100000  1.0 -0.5206463199
O  O23  1  0.76620000  0.15310000  0.15100000  1.0 -0.5206463199
O  O24  1  0.23380000  0.15310000  0.34900000  1.0 -0.5206463199
O  O25  1  0.78700000  0.97950000  0.18570000  1.0 -0.526046687
O  O26  1  0.21300000  0.97950000  0.31430000  1.0 -0.526046687
O  O27  1  0.21300000  0.02050000  0.81430000  1.0 -0.526046687
O  O28  1  0.78700000  0.02050000  0.68570000  1.0 -0.526046687
O  O29  1  0.12290000  0.95720000  0.85950000  1.0 -0.5418412026
O  O30  1  0.87710000  0.95720000  0.64050000  1.0 -0.5418412026
O  O31  1  0.87710000  0.04280000  0.14050000  1.0 -0.5418412026
O  O32  1  0.12290000  0.04280000  0.35950000  1.0 -0.5418412026
O  O33  1  0.85670000  0.93020000  0.26820000  1.0 -0.5073537374
O  O34  1  0.14330000  0.93020000  0.23180000  1.0 -0.504451358
O  O35  1  0.14330000  0.06980000  0.73180000  1.0 -0.504451358
O  O36  1  0.85670000  0.06980000  0.76820000  1.0 -0.504451358
O  O37  1  0.81090000  0.58670000  0.17640000  1.0 -0.5206463199
O  O38  1  0.18910000  0.58670000  0.32360000  1.0 -0.5206463199
O  O39  1  0.18910000  0.41330000  0.82360000  1.0 -0.5206463199
O  O40  1  0.81090000  0.41330000  0.67640000  1.0 -0.5206463199
O  O41  1  0.05600000  0.93770000  0.42670000  1.0 -0.5073537374
O  O42  1  0.94400000  0.93770000  0.07330000  1.0 -0.5073537374
O  O43  1  0.94400000  0.06230000  0.57330000  1.0 -0.5073537374
O  O44  1  0.05600000  0.06230000  0.92670000  1.0 -0.5073537374
O  O45  1  0.76490000  0.13040000  0.52060000  1.0 -0.5073537374
O  O46  1  0.23510000  0.13040000  0.97940000  1.0 -0.5073537374
O  O47  1  0.23510000  0.86960000  0.47940000  1.0 -0.5073537374
O  O48  1  0.76490000  0.86960000  0.02060000  1.0 -0.5073537374
O  O49  1  0.80860000  0.49080000  0.12840000  1.0 -0.4512445268
O  O50  1  0.19140000  0.49080000  0.37160000  1.0 -0.4512445268
O  O51  1  0.19140000  0.50920000  0.87160000  1.0 -0.4512445268
O  O52  1  0.80860000  0.50920000  0.62840000  1.0 -0.4512445268
O  O53  1  0.97980000  0.03440000  0.36760000  1.0 -0.5485296186
O  O54  1  0.02020000  0.03440000  0.13240000  1.0 -0.5485296186
O  O55  1  0.02020000  0.96560000  0.63240000  1.0 -0.5485296186
O  O56  1  0.97980000  0.96560000  0.86760000  1.0 -0.5485296186
O  O57  1  0.94500000  0.07200000  0.25770000  1.0 -0.7477023688
O  O58  1  0.05500000  0.07200000  0.24230000  1.0 -0.7477023688
O  O59  1  0.05500000  0.92800000  0.74230000  1.0 -0.7477023688
O  O60  1  0.94500000  0.92800000  0.75770000  1.0 -0.7477023688
O  O61  1  0.25210000  0.97770000  0.92480000  1.0 -0.5692850437
O  O62  1  0.74790000  0.97770000  0.57520000  1.0 -0.5692850437
O  O63  1  0.74790000  0.02230000  0.07520000  1.0 -0.5692850437
O  O64  1  0.25210000  0.02230000  0.42480000  1.0 -0.5692850437
O  O65  1  0.00000000  0.51640000  0.25000000  1.0 -0.6233819362
O  O66  1  0.00000000  0.48360000  0.75000000  1.0 -0.6233819362
O  O67  1  0.18300000  0.74230000  0.79930000  1.0 -0.4686195936
O  O68  1  0.81700000  0.74230000  0.70070000  1.0 -0.4686195936
O  O69  1  0.81700000  0.25770000  0.20070000  1.0 -0.4686195936
O  O70  1  0.18300000  0.25770000  0.29930000  1.0 -0.4686195936
O  O71  1  0.26610000  0.59600000  0.99980000  1.0 -0.5206463199
O  O72  1  0.73390000  0.59600000  0.50020000  1.0 -0.5206463199
O  O73  1  0.73390000  0.40400000  0.00020000  1.0 -0.5206463199
O  O74  1  0.26610000  0.40400000  0.49980000  1.0 -0.5206463199
O  O75  1  0.97570000  0.41980000  0.63950000  1.0 -0.4686195936
O  O76  1  0.02430000  0.41980000  0.86050000  1.0 -0.4686195936
O  O77  1  0.02430000  0.58020000  0.36050000  1.0 -0.4686195936
O  O78  1  0.97570000  0.58020000  0.13950000  1.0 -0.4686195936
