# DDEC6 charges by PACMAN v1.1 (https://github.com/mtap-research/PACMAN-charge/)
data_HAVZIP_FSR_pacman
_symmetry_space_group_name_H-M   'P 1'
_cell_length_a   15.13160000
_cell_length_b   24.73690000
_cell_length_c   15.36130000
_cell_angle_alpha   90.00000000
_cell_angle_beta   110.84700000
_cell_angle_gamma   90.00000000
_symmetry_Int_Tables_number   1
_chemical_formula_structural   CoAsH12W9C16N3O34
_chemical_formula_sum   'Co4 As4 H48 W36 C64 N12 O136'
_cell_volume   5373.45026609
_cell_formula_units_Z   4
loop_
 _symmetry_equiv_pos_site_id
 _symmetry_equiv_pos_as_xyz
  1  'x, y, z'
loop_
 _atom_site_type_symbol
 _atom_site_label
 _atom_site_symmetry_multiplicity
 _atom_site_fract_x
 _atom_site_fract_y
 _atom_site_fract_z
 _atom_site_occupancy
 _atom_site_charge
Co  Co1  1  0.10212000  0.47935000  0.88986000  1.0 0.7057802305
Co  Co2  1  0.89788000  0.97935000  0.11014000  1.0 0.7057802305
Co  Co3  1  0.89788000  0.52065000  0.11014000  1.0 0.7057802305
Co  Co4  1  0.10212000  0.02065000  0.88986000  1.0 0.7057802305
As  As1  1  0.76655000  0.25000000  0.36330000  1.0 1.451938592
As  As2  1  0.49754000  0.25000000  0.30500000  1.0 1.4304306135
As  As3  1  0.23345000  0.75000000  0.63670000  1.0 1.4304306135
As  As4  1  0.50246000  0.75000000  0.69500000  1.0 1.4228866921
H  H1  1  0.93920000  0.55820000  0.57190000  1.0 0.1400332535
H  H2  1  0.06080000  0.05820000  0.42810000  1.0 0.1479754166
H  H3  1  0.06080000  0.44180000  0.42810000  1.0 0.1479754166
H  H4  1  0.93920000  0.94180000  0.57190000  1.0 0.1400332535
H  H5  1  0.43990000  0.47030000  0.10300000  1.0 0.1479754166
H  H6  1  0.56010000  0.97030000  0.89700000  1.0 0.1479754166
H  H7  1  0.56010000  0.52970000  0.89700000  1.0 0.1479754166
H  H8  1  0.43990000  0.02970000  0.10300000  1.0 0.1479754166
H  H9  1  0.97390000  0.54270000  0.72330000  1.0 0.1400332535
H  H10  1  0.02610000  0.04270000  0.27670000  1.0 0.1400332535
H  H11  1  0.02610000  0.45730000  0.27670000  1.0 0.1400332535
H  H12  1  0.97390000  0.95730000  0.72330000  1.0 0.1400332535
H  H13  1  0.25210000  0.50830000  0.80330000  1.0 0.1109187185
H  H14  1  0.74790000  0.00830000  0.19670000  1.0 0.1109187185
H  H15  1  0.74790000  0.49170000  0.19670000  1.0 0.1109187185
H  H16  1  0.25210000  0.99170000  0.80330000  1.0 0.1109187185
H  H17  1  0.08700000  0.42770000  0.55900000  1.0 0.1479754166
H  H18  1  0.91300000  0.92770000  0.44100000  1.0 0.1479754166
H  H19  1  0.91300000  0.57230000  0.44100000  1.0 0.1479754166
H  H20  1  0.08700000  0.07230000  0.55900000  1.0 0.1479754166
H  H21  1  0.28710000  0.45740000  0.05250000  1.0 0.1400332535
H  H22  1  0.71290000  0.95740000  0.94750000  1.0 0.1400332535
H  H23  1  0.71290000  0.54260000  0.94750000  1.0 0.1400332535
H  H24  1  0.28710000  0.04260000  0.05250000  1.0 0.1400332535
H  H25  1  0.11060000  0.41080000  0.71750000  1.0 0.1109187185
H  H26  1  0.88940000  0.91080000  0.28250000  1.0 0.1109187185
H  H27  1  0.88940000  0.58920000  0.28250000  1.0 0.1109187185
H  H28  1  0.11060000  0.08920000  0.71750000  1.0 0.1109187185
H  H29  1  0.41460000  0.52370000  0.85720000  1.0 0.1479754166
H  H30  1  0.58540000  0.02370000  0.14280000  1.0 0.1479754166
H  H31  1  0.58540000  0.47630000  0.14280000  1.0 0.1479754166
H  H32  1  0.41460000  0.97630000  0.85720000  1.0 0.1479754166
H  H33  1  0.96920000  0.38710000  0.82970000  1.0 0.1214123034
H  H34  1  0.03080000  0.88710000  0.17030000  1.0 0.1214123034
H  H35  1  0.03080000  0.61290000  0.17030000  1.0 0.1214123034
H  H36  1  0.96920000  0.11290000  0.82970000  1.0 0.1214123034
H  H37  1  0.95860000  0.29260000  0.81950000  1.0 0.1400332535
H  H38  1  0.04140000  0.79260000  0.18050000  1.0 0.1479754166
H  H39  1  0.04140000  0.70740000  0.18050000  1.0 0.1479754166
H  H40  1  0.95860000  0.20740000  0.81950000  1.0 0.1400332535
H  H41  1  0.23610000  0.29020000  0.94100000  1.0 0.1479754166
H  H42  1  0.76390000  0.79020000  0.05900000  1.0 0.1479754166
H  H43  1  0.76390000  0.70980000  0.05900000  1.0 0.1479754166
H  H44  1  0.23610000  0.20980000  0.94100000  1.0 0.1479754166
H  H45  1  0.23530000  0.38190000  0.94980000  1.0 0.1109187185
H  H46  1  0.76470000  0.88190000  0.05020000  1.0 0.1109187185
H  H47  1  0.76470000  0.61810000  0.05020000  1.0 0.1109187185
H  H48  1  0.23530000  0.11810000  0.94980000  1.0 0.1109187185
W  W1  1  0.73142000  0.18175000  0.15260000  1.0 2.4311565385
W  W2  1  0.73142000  0.31825000  0.15260000  1.0 2.4311565385
W  W3  1  0.46931000  0.18186000  0.09487000  1.0 2.4098221884
W  W4  1  0.46931000  0.31814000  0.09487000  1.0 2.4098221884
W  W5  1  0.76542000  0.10681000  0.37020000  1.0 2.3872928009
W  W6  1  0.76542000  0.39319000  0.37020000  1.0 2.3872928009
W  W7  1  0.53060000  0.17529000  0.51026000  1.0 2.2498507128
W  W8  1  0.53060000  0.32471000  0.51026000  1.0 2.2498507128
W  W9  1  0.79425000  0.17505000  0.56748000  1.0 2.4311565385
W  W10  1  0.79425000  0.32495000  0.56748000  1.0 2.4311565385
W  W11  1  0.50242000  0.10662000  0.31330000  1.0 2.4223100171
W  W12  1  0.50242000  0.39338000  0.31330000  1.0 2.4223100171
W  W13  1  0.99653000  0.25000000  0.54151000  1.0 2.3872928009
W  W14  1  0.30657000  0.25000000  0.39258000  1.0 2.3134411202
W  W15  1  0.96700000  0.18203000  0.34271000  1.0 2.4098221884
W  W16  1  0.96700000  0.31797000  0.34271000  1.0 2.4098221884
W  W17  1  0.27940000  0.31815000  0.19530000  1.0 2.4098221884
W  W18  1  0.27940000  0.18185000  0.19530000  1.0 2.4098221884
W  W19  1  0.26858000  0.68175000  0.84740000  1.0 2.4311565385
W  W20  1  0.26858000  0.81825000  0.84740000  1.0 2.4311565385
W  W21  1  0.53069000  0.68186000  0.90513000  1.0 2.4098221884
W  W22  1  0.53069000  0.81814000  0.90513000  1.0 2.4098221884
W  W23  1  0.23458000  0.60681000  0.62980000  1.0 2.3872928009
W  W24  1  0.23458000  0.89319000  0.62980000  1.0 2.3872928009
W  W25  1  0.46940000  0.67529000  0.48974000  1.0 2.2661527023
W  W26  1  0.46940000  0.82471000  0.48974000  1.0 2.2661527023
W  W27  1  0.20575000  0.67505000  0.43252000  1.0 2.4311565385
W  W28  1  0.20575000  0.82495000  0.43252000  1.0 2.4311565385
W  W29  1  0.49758000  0.60662000  0.68670000  1.0 2.4223100171
W  W30  1  0.49758000  0.89338000  0.68670000  1.0 2.4223100171
W  W31  1  0.00347000  0.75000000  0.45849000  1.0 2.3960672245
W  W32  1  0.69343000  0.75000000  0.60742000  1.0 2.3216818199
W  W33  1  0.03300000  0.68203000  0.65729000  1.0 2.4098221884
W  W34  1  0.03300000  0.81797000  0.65729000  1.0 2.4098221884
W  W35  1  0.72060000  0.81815000  0.80470000  1.0 2.4098221884
W  W36  1  0.72060000  0.68185000  0.80470000  1.0 2.4098221884
C  C1  1  0.97620000  0.52860000  0.59990000  1.0 -0.1413975531
C  C2  1  0.02380000  0.02860000  0.40010000  1.0 -0.1413975531
C  C3  1  0.02380000  0.47140000  0.40010000  1.0 -0.1413975531
C  C4  1  0.97620000  0.97140000  0.59990000  1.0 -0.1413975531
C  C5  1  0.00720000  0.49420000  0.54880000  1.0 0.1109187185
C  C6  1  0.99280000  0.99420000  0.45120000  1.0 0.1109187185
C  C7  1  0.99280000  0.50580000  0.45120000  1.0 0.1109187185
C  C8  1  0.00720000  0.00580000  0.54880000  1.0 0.1109187185
C  C9  1  0.95590000  0.50170000  0.95640000  1.0 0.4504159317
C  C10  1  0.04410000  0.00170000  0.04360000  1.0 0.4504159317
C  C11  1  0.04410000  0.49830000  0.04360000  1.0 0.4504159317
C  C12  1  0.95590000  0.99830000  0.95640000  1.0 0.4504159317
C  C13  1  0.40430000  0.47900000  0.04160000  1.0 -0.1596977039
C  C14  1  0.59570000  0.97900000  0.95840000  1.0 -0.1596977039
C  C15  1  0.59570000  0.52100000  0.95840000  1.0 -0.1596977039
C  C16  1  0.40430000  0.02100000  0.04160000  1.0 -0.1596977039
C  C17  1  0.44810000  0.49810000  0.98500000  1.0 0.1214123034
C  C18  1  0.55190000  0.99810000  0.01500000  1.0 0.1214123034
C  C19  1  0.55190000  0.50190000  0.01500000  1.0 0.1214123034
C  C20  1  0.44810000  0.00190000  0.98500000  1.0 0.1214123034
C  C21  1  0.99890000  0.51980000  0.69000000  1.0 0.0853777454
C  C22  1  0.00110000  0.01980000  0.31000000  1.0 0.0853777454
C  C23  1  0.00110000  0.48020000  0.31000000  1.0 0.0853777454
C  C24  1  0.99890000  0.98020000  0.69000000  1.0 0.0853777454
C  C25  1  0.09700000  0.27800000  0.88400000  1.0 0.1109187185
C  C26  1  0.90300000  0.77800000  0.11600000  1.0 0.1109187185
C  C27  1  0.90300000  0.72200000  0.11600000  1.0 0.1109187185
C  C28  1  0.09700000  0.22200000  0.88400000  1.0 0.1109187185
C  C29  1  0.28940000  0.50210000  0.86530000  1.0 0.0973059107
C  C30  1  0.71060000  0.00210000  0.13470000  1.0 0.0973059107
C  C31  1  0.71060000  0.49790000  0.13470000  1.0 0.0973059107
C  C32  1  0.28940000  0.99790000  0.86530000  1.0 0.0973059107
C  C33  1  0.06240000  0.45100000  0.59220000  1.0 -0.1340641751
C  C34  1  0.93760000  0.95100000  0.40780000  1.0 -0.1340641751
C  C35  1  0.93760000  0.54900000  0.40780000  1.0 -0.1340641751
C  C36  1  0.06240000  0.04900000  0.59220000  1.0 -0.1340641751
C  C37  1  0.31240000  0.47260000  0.01110000  1.0 0.0973059107
C  C38  1  0.68760000  0.97260000  0.98890000  1.0 0.0973059107
C  C39  1  0.68760000  0.52740000  0.98890000  1.0 0.0973059107
C  C40  1  0.31240000  0.02740000  0.01110000  1.0 0.0973059107
C  C41  1  0.08120000  0.44250000  0.68910000  1.0 0.1214123034
C  C42  1  0.91880000  0.94250000  0.31090000  1.0 0.1214123034
C  C43  1  0.91880000  0.55750000  0.31090000  1.0 0.1214123034
C  C44  1  0.08120000  0.05750000  0.68910000  1.0 0.1214123034
C  C45  1  0.38840000  0.50960000  0.89860000  1.0 -0.1504513547
C  C46  1  0.61160000  0.00960000  0.10140000  1.0 -0.1504513547
C  C47  1  0.61160000  0.49040000  0.10140000  1.0 -0.1504513547
C  C48  1  0.38840000  0.99040000  0.89860000  1.0 -0.1504513547
C  C49  1  0.02500000  0.36740000  0.85350000  1.0 0.1400332535
C  C50  1  0.97500000  0.86740000  0.14650000  1.0 0.1400332535
C  C51  1  0.97500000  0.63260000  0.14650000  1.0 0.1400332535
C  C52  1  0.02500000  0.13260000  0.85350000  1.0 0.1400332535
C  C53  1  0.01730000  0.30890000  0.84770000  1.0 -0.1413975531
C  C54  1  0.98270000  0.80890000  0.15230000  1.0 -0.1413975531
C  C55  1  0.98270000  0.69110000  0.15230000  1.0 -0.1413975531
C  C56  1  0.01730000  0.19110000  0.84770000  1.0 -0.1413975531
C  C57  1  0.17830000  0.30810000  0.91870000  1.0 -0.1413975531
C  C58  1  0.82170000  0.80810000  0.08130000  1.0 -0.1413975531
C  C59  1  0.82170000  0.69190000  0.08130000  1.0 -0.1413975531
C  C60  1  0.17830000  0.19190000  0.91870000  1.0 -0.1413975531
C  C61  1  0.17780000  0.36430000  0.92200000  1.0 0.1109187185
C  C62  1  0.82220000  0.86430000  0.07800000  1.0 0.1109187185
C  C63  1  0.82220000  0.63570000  0.07800000  1.0 0.1109187185
C  C64  1  0.17780000  0.13570000  0.92200000  1.0 0.1109187185
N  N1  1  0.05740000  0.47870000  0.73750000  1.0 -0.2292722985
N  N2  1  0.94260000  0.97870000  0.26250000  1.0 -0.2292722985
N  N3  1  0.94260000  0.52130000  0.26250000  1.0 -0.2292722985
N  N4  1  0.05740000  0.02130000  0.73750000  1.0 -0.2292722985
N  N5  1  0.25220000  0.48550000  0.92830000  1.0 -0.2149001732
N  N6  1  0.74780000  0.98550000  0.07170000  1.0 -0.2163651957
N  N7  1  0.74780000  0.51450000  0.07170000  1.0 -0.2163651957
N  N8  1  0.25220000  0.01450000  0.92830000  1.0 -0.2149001732
N  N9  1  0.10160000  0.39400000  0.88840000  1.0 -0.2547080293
N  N10  1  0.89840000  0.89400000  0.11160000  1.0 -0.2547080293
N  N11  1  0.89840000  0.60600000  0.11160000  1.0 -0.2547080293
N  N12  1  0.10160000  0.10600000  0.88840000  1.0 -0.2547080293
O  O1  1  0.96050000  0.49090000  0.87780000  1.0 -0.4683216785
O  O2  1  0.03950000  0.99090000  0.12220000  1.0 -0.4683216785
O  O3  1  0.03950000  0.50910000  0.12220000  1.0 -0.4683216785
O  O4  1  0.96050000  0.00910000  0.87780000  1.0 -0.4683216785
O  O5  1  0.88130000  0.51590000  0.97030000  1.0 -0.4626283819
O  O6  1  0.11870000  0.01590000  0.02970000  1.0 -0.4626283819
O  O7  1  0.11870000  0.48410000  0.02970000  1.0 -0.4626283819
O  O8  1  0.88130000  0.98410000  0.97030000  1.0 -0.4626283819
O  O9  1  0.11080000  0.56600000  0.88990000  1.0 0.1214123034
O  O10  1  0.88920000  0.06600000  0.11010000  1.0 0.1214123034
O  O11  1  0.88920000  0.43400000  0.11010000  1.0 0.1214123034
O  O12  1  0.11080000  0.93400000  0.88990000  1.0 0.1214123034
O  O13  1  0.03370000  0.19570000  0.47240000  1.0 -0.8587908893
O  O14  1  0.03370000  0.30430000  0.47240000  1.0 -0.8587908893
O  O15  1  0.09160000  0.25000000  0.64230000  1.0 -0.6179422512
O  O16  1  0.88320000  0.25000000  0.38760000  1.0 -0.9419432654
O  O17  1  0.43960000  0.25000000  0.02870000  1.0 -0.8708040863
O  O18  1  0.59570000  0.18720000  0.10460000  1.0 -0.8496795711
O  O19  1  0.59570000  0.31280000  0.10460000  1.0 -0.8496795711
O  O20  1  0.50350000  0.10980000  0.43570000  1.0 -0.8408429597
O  O21  1  0.50350000  0.39020000  0.43570000  1.0 -0.8408429597
O  O22  1  0.24450000  0.25000000  0.46490000  1.0 -0.5641258731
O  O23  1  0.50740000  0.13310000  0.19950000  1.0 -0.8796542758
O  O24  1  0.50740000  0.36690000  0.19950000  1.0 -0.8796542758
O  O25  1  0.40430000  0.19820000  0.45440000  1.0 -0.8958903128
O  O26  1  0.40430000  0.30180000  0.45440000  1.0 -0.8958903128
O  O27  1  0.38010000  0.25000000  0.27950000  1.0 -0.9265853538
O  O28  1  0.00190000  0.25000000  0.31610000  1.0 -0.7881994023
O  O29  1  0.74370000  0.13720000  0.07430000  1.0 -0.5492862239
O  O30  1  0.74370000  0.36280000  0.07430000  1.0 -0.5492862239
O  O31  1  0.72380000  0.13670000  0.24550000  1.0 -0.8408429597
O  O32  1  0.72380000  0.36330000  0.24550000  1.0 -0.8408429597
O  O33  1  0.86160000  0.18710000  0.23040000  1.0 -0.8878428235
O  O34  1  0.86160000  0.31290000  0.23040000  1.0 -0.8878428235
O  O35  1  0.91990000  0.19720000  0.56090000  1.0 -0.8796542758
O  O36  1  0.91990000  0.30280000  0.56090000  1.0 -0.8796542758
O  O37  1  0.63600000  0.10080000  0.35680000  1.0 -0.8408429597
O  O38  1  0.63600000  0.39920000  0.35680000  1.0 -0.834900476
O  O39  1  0.22030000  0.25000000  0.14710000  1.0 -0.8496795711
O  O40  1  0.79770000  0.10950000  0.49510000  1.0 -0.782376565
O  O41  1  0.79770000  0.39050000  0.49510000  1.0 -0.782376565
O  O42  1  0.52190000  0.15500000  0.60810000  1.0 -0.4626283819
O  O43  1  0.52190000  0.34500000  0.60810000  1.0 -0.4626283819
O  O44  1  0.73970000  0.25000000  0.09440000  1.0 -0.9128601923
O  O45  1  0.78330000  0.04110000  0.35110000  1.0 -0.6283528431
O  O46  1  0.78330000  0.45890000  0.35110000  1.0 -0.6283528431
O  O47  1  0.42740000  0.13970000  0.00300000  1.0 -0.6179422512
O  O48  1  0.42740000  0.36030000  0.00300000  1.0 -0.6179422512
O  O49  1  0.54100000  0.30710000  0.36770000  1.0 -0.8408429597
O  O50  1  0.54100000  0.19290000  0.36770000  1.0 -0.8408429597
O  O51  1  0.04400000  0.13850000  0.31760000  1.0 -0.6614091768
O  O52  1  0.04400000  0.36150000  0.31760000  1.0 -0.6614091768
O  O53  1  0.47470000  0.04030000  0.29020000  1.0 -0.6020071729
O  O54  1  0.47470000  0.45970000  0.29020000  1.0 -0.6020071729
O  O55  1  0.35200000  0.18760000  0.11830000  1.0 -0.8958903128
O  O56  1  0.35200000  0.31240000  0.11830000  1.0 -0.8958903128
O  O57  1  0.71670000  0.25000000  0.24290000  1.0 -0.8587908893
O  O58  1  0.73900000  0.19420000  0.41060000  1.0 -0.8587908893
O  O59  1  0.73900000  0.30580000  0.41060000  1.0 -0.8587908893
O  O60  1  0.51260000  0.25000000  0.20030000  1.0 -0.8708040863
O  O61  1  0.24620000  0.30350000  0.30450000  1.0 -0.8408429597
O  O62  1  0.24620000  0.19650000  0.30450000  1.0 -0.8408429597
O  O63  1  0.37650000  0.13560000  0.27110000  1.0 -0.8878428235
O  O64  1  0.37650000  0.36440000  0.27110000  1.0 -0.8878428235
O  O65  1  0.88650000  0.13380000  0.37790000  1.0 -0.8796542758
O  O66  1  0.88650000  0.36620000  0.37790000  1.0 -0.8796542758
O  O67  1  0.19230000  0.36160000  0.13340000  1.0 -0.6112941398
O  O68  1  0.19230000  0.13840000  0.13340000  1.0 -0.6112941398
O  O69  1  0.77810000  0.25000000  0.58020000  1.0 -0.8708040863
O  O70  1  0.83300000  0.15300000  0.67870000  1.0 -0.6283528431
O  O71  1  0.83300000  0.34700000  0.67870000  1.0 -0.6283528431
O  O72  1  0.55700000  0.25000000  0.53510000  1.0 -0.8708040863
O  O73  1  0.66300000  0.16280000  0.54170000  1.0 -0.8496795711
O  O74  1  0.66300000  0.33720000  0.54170000  1.0 -0.8496795711
O  O75  1  0.96630000  0.69570000  0.52760000  1.0 -0.8496795711
O  O76  1  0.96630000  0.80430000  0.52760000  1.0 -0.8496795711
O  O77  1  0.90840000  0.75000000  0.35770000  1.0 -0.6112941398
O  O78  1  0.11680000  0.75000000  0.61240000  1.0 -0.9419432654
O  O79  1  0.56040000  0.75000000  0.97130000  1.0 -0.8708040863
O  O80  1  0.40430000  0.68720000  0.89540000  1.0 -0.8496795711
O  O81  1  0.40430000  0.81280000  0.89540000  1.0 -0.8496795711
O  O82  1  0.49650000  0.60980000  0.56430000  1.0 -0.8496795711
O  O83  1  0.49650000  0.89020000  0.56430000  1.0 -0.8496795711
O  O84  1  0.75550000  0.75000000  0.53510000  1.0 -0.567494966
O  O85  1  0.49260000  0.63310000  0.80050000  1.0 -0.8796542758
O  O86  1  0.49260000  0.86690000  0.80050000  1.0 -0.8796542758
O  O87  1  0.59570000  0.69820000  0.54560000  1.0 -0.8958903128
O  O88  1  0.59570000  0.80180000  0.54560000  1.0 -0.8958903128
O  O89  1  0.61990000  0.75000000  0.72050000  1.0 -0.9265853538
O  O90  1  0.99810000  0.75000000  0.68390000  1.0 -0.7881994023
O  O91  1  0.25630000  0.63720000  0.92570000  1.0 -0.5492862239
O  O92  1  0.25630000  0.86280000  0.92570000  1.0 -0.5492862239
O  O93  1  0.27620000  0.63670000  0.75450000  1.0 -0.8408429597
O  O94  1  0.27620000  0.86330000  0.75450000  1.0 -0.8408429597
O  O95  1  0.13840000  0.68710000  0.76960000  1.0 -0.8878428235
O  O96  1  0.13840000  0.81290000  0.76960000  1.0 -0.8878428235
O  O97  1  0.08010000  0.69720000  0.43910000  1.0 -0.8796542758
O  O98  1  0.08010000  0.80280000  0.43910000  1.0 -0.8796542758
O  O99  1  0.36400000  0.60080000  0.64320000  1.0 -0.834900476
O  O100  1  0.36400000  0.89920000  0.64320000  1.0 -0.834900476
O  O101  1  0.77970000  0.75000000  0.85290000  1.0 -0.8496795711
O  O102  1  0.20230000  0.60950000  0.50490000  1.0 -0.782376565
O  O103  1  0.20230000  0.89050000  0.50490000  1.0 -0.782376565
O  O104  1  0.47810000  0.65500000  0.39190000  1.0 -0.4683216785
O  O105  1  0.47810000  0.84500000  0.39190000  1.0 -0.4683216785
O  O106  1  0.26030000  0.75000000  0.90560000  1.0 -0.9128601923
O  O107  1  0.21670000  0.54110000  0.64890000  1.0 -0.6283528431
O  O108  1  0.21670000  0.95890000  0.64890000  1.0 -0.6283528431
O  O109  1  0.57260000  0.63970000  0.99700000  1.0 -0.6179422512
O  O110  1  0.57260000  0.86030000  0.99700000  1.0 -0.6179422512
O  O111  1  0.45900000  0.80710000  0.63230000  1.0 -0.8408429597
O  O112  1  0.45900000  0.69290000  0.63230000  1.0 -0.8408429597
O  O113  1  0.95600000  0.63850000  0.68240000  1.0 -0.6614091768
O  O114  1  0.95600000  0.86150000  0.68240000  1.0 -0.6614091768
O  O115  1  0.52530000  0.54030000  0.70980000  1.0 -0.6020071729
O  O116  1  0.52530000  0.95970000  0.70980000  1.0 -0.6020071729
O  O117  1  0.64800000  0.68760000  0.88170000  1.0 -0.8878428235
O  O118  1  0.64800000  0.81240000  0.88170000  1.0 -0.8878428235
O  O119  1  0.28330000  0.75000000  0.75710000  1.0 -0.8587908893
O  O120  1  0.26100000  0.69420000  0.58940000  1.0 -0.8587908893
O  O121  1  0.26100000  0.80580000  0.58940000  1.0 -0.8587908893
O  O122  1  0.48740000  0.75000000  0.79970000  1.0 -0.8708040863
O  O123  1  0.75380000  0.80350000  0.69550000  1.0 -0.8408429597
O  O124  1  0.75380000  0.69650000  0.69550000  1.0 -0.8408429597
O  O125  1  0.62350000  0.63560000  0.72890000  1.0 -0.8878428235
O  O126  1  0.62350000  0.86440000  0.72890000  1.0 -0.8878428235
O  O127  1  0.11350000  0.63380000  0.62210000  1.0 -0.8796542758
O  O128  1  0.11350000  0.86620000  0.62210000  1.0 -0.8796542758
O  O129  1  0.80770000  0.86160000  0.86660000  1.0 -0.6112941398
O  O130  1  0.80770000  0.63840000  0.86660000  1.0 -0.6112941398
O  O131  1  0.22190000  0.75000000  0.41980000  1.0 -0.8708040863
O  O132  1  0.16700000  0.65300000  0.32130000  1.0 -0.6283528431
O  O133  1  0.16700000  0.84700000  0.32130000  1.0 -0.6283528431
O  O134  1  0.44300000  0.75000000  0.46490000  1.0 -0.8708040863
O  O135  1  0.33700000  0.66280000  0.45830000  1.0 -0.8496795711
O  O136  1  0.33700000  0.83720000  0.45830000  1.0 -0.8496795711
