# DDEC6 charges by PACMAN v1.1 (https://github.com/mtap-research/PACMAN-charge/)
data_HAWREE_ASR_pacman
_symmetry_space_group_name_H-M   'P 1'
_cell_length_a   11.10530000
_cell_length_b   12.57670000
_cell_length_c   20.07510000
_cell_angle_alpha   82.84000000
_cell_angle_beta   77.76500000
_cell_angle_gamma   79.25800000
_symmetry_Int_Tables_number   1
_chemical_formula_structural   Mn5H26C32(NO)12
_chemical_formula_sum   'Mn10 H52 C64 N24 O24'
_cell_volume   2681.54211404
_cell_formula_units_Z   2
loop_
 _symmetry_equiv_pos_site_id
 _symmetry_equiv_pos_as_xyz
  1  'x, y, z'
loop_
 _atom_site_type_symbol
 _atom_site_label
 _atom_site_symmetry_multiplicity
 _atom_site_fract_x
 _atom_site_fract_y
 _atom_site_fract_z
 _atom_site_occupancy
 _atom_site_charge
Mn  Mn1  1  0.52324000  0.23138000  0.24474000  1.0 0.7327308658
Mn  Mn2  1  0.47676000  0.76862000  0.75526000  1.0 0.7327308658
Mn  Mn3  1  0.62858000  0.48945000  0.22780000  1.0 0.859336913
Mn  Mn4  1  0.37142000  0.51055000  0.77220000  1.0 0.859336913
Mn  Mn5  1  0.37152000  0.71754000  0.26540000  1.0 0.9930124287
Mn  Mn6  1  0.62848000  0.28246000  0.73460000  1.0 0.9930124287
Mn  Mn7  1  0.67370000  0.74453000  0.22973000  1.0 0.9930124287
Mn  Mn8  1  0.32630000  0.25547000  0.77027000  1.0 0.9930124287
Mn  Mn9  1  0.41963000  0.97470000  0.25766000  1.0 0.7718418542
Mn  Mn10  1  0.58037000  0.02530000  0.74234000  1.0 0.7718418542
H  H1  1  0.05630000  0.11360000  0.25050000  1.0 0.1210424497
H  H2  1  0.94370000  0.88640000  0.74950000  1.0 0.1210424497
H  H3  1  0.85260000  0.19890000  0.24900000  1.0 0.1210424497
H  H4  1  0.14740000  0.80110000  0.75100000  1.0 0.1210424497
H  H5  1  0.96890000  0.81460000  0.24250000  1.0 0.1512483781
H  H6  1  0.03110000  0.18540000  0.75750000  1.0 0.1512483781
H  H7  1  0.99510000  0.35140000  0.22740000  1.0 0.1210424497
H  H8  1  0.00490000  0.64860000  0.77260000  1.0 0.1210424497
H  H9  1  0.19930000  0.26610000  0.23040000  1.0 0.1313313461
H  H10  1  0.80070000  0.73390000  0.76960000  1.0 0.1313313461
H  H11  1  0.07580000  0.64730000  0.24780000  1.0 0.1512483781
H  H12  1  0.92420000  0.35270000  0.75220000  1.0 0.1512483781
H  H13  1  0.55050000  0.06560000  0.52770000  1.0 0.1115343016
H  H14  1  0.44950000  0.93440000  0.47230000  1.0 0.1115343016
H  H15  1  0.53500000  0.09180000  0.41220000  1.0 0.1313313461
H  H16  1  0.46500000  0.90820000  0.58780000  1.0 0.1313313461
H  H17  1  0.70220000  0.33990000  0.51320000  1.0 0.1512483781
H  H18  1  0.29780000  0.66010000  0.48680000  1.0 0.1512483781
H  H19  1  0.43010000  0.44500000  0.98390000  1.0 0.1210424497
H  H20  1  0.56990000  0.55500000  0.01610000  1.0 0.1210424497
H  H21  1  0.48170000  0.39190000  0.09060000  1.0 0.1313313461
H  H22  1  0.51830000  0.60810000  0.90940000  1.0 0.1313313461
H  H23  1  0.32140000  0.15500000  0.97660000  1.0 0.1512483781
H  H24  1  0.67860000  0.84500000  0.02340000  1.0 0.1512483781
H  H25  1  0.71380000  0.38040000  0.09360000  1.0 0.1426891986
H  H26  1  0.28620000  0.61960000  0.90640000  1.0 0.1426891986
H  H27  1  0.81600000  0.32760000  0.13760000  1.0 0.1210424497
H  H28  1  0.18400000  0.67240000  0.86240000  1.0 0.1210424497
H  H29  1  0.82540000  0.24510000  0.05430000  1.0 0.1512483781
H  H30  1  0.17460000  0.75490000  0.94570000  1.0 0.1512483781
H  H31  1  0.68410000  0.22510000  0.08000000  1.0 0.1512483781
H  H32  1  0.31590000  0.77490000  0.92000000  1.0 0.1512483781
H  H33  1  0.78800000  0.17200000  0.12420000  1.0 0.1426891986
H  H34  1  0.21200000  0.82800000  0.87580000  1.0 0.1426891986
H  H35  1  0.22290000  0.14280000  0.34200000  1.0 0.1313313461
H  H36  1  0.77710000  0.85720000  0.65800000  1.0 0.1313313461
H  H37  1  0.31340000  0.07780000  0.38990000  1.0 0.1210424497
H  H38  1  0.68660000  0.92220000  0.61010000  1.0 0.1210424497
H  H39  1  0.20870000  0.21650000  0.42960000  1.0 0.1512483781
H  H40  1  0.79130000  0.78350000  0.57040000  1.0 0.1512483781
H  H41  1  0.26360000  0.29020000  0.36330000  1.0 0.1512483781
H  H42  1  0.73640000  0.70980000  0.63670000  1.0 0.1512483781
H  H43  1  0.35440000  0.22440000  0.41190000  1.0 0.1426891986
H  H44  1  0.64560000  0.77560000  0.58810000  1.0 0.1426891986
H  H45  1  0.48270000  0.83570000  0.15950000  1.0 0.3888809014
H  H46  1  0.51730000  0.16430000  0.84050000  1.0 0.3888809014
H  H47  1  0.56240000  0.61930000  0.33220000  1.0 0.3888809014
H  H48  1  0.43760000  0.38070000  0.66780000  1.0 0.3888809014
H  H49  1  0.72050000  0.30180000  0.20880000  1.0 0.2826350782
H  H50  1  0.27950000  0.69820000  0.79120000  1.0 0.2826350782
H  H51  1  0.41970000  0.06230000  0.30650000  1.0 0.2466438193
H  H52  1  0.58030000  0.93770000  0.69350000  1.0 0.2466438193
C  C1  1  0.16310000  0.90680000  0.25290000  1.0 0.5857386295
C  C2  1  0.83690000  0.09320000  0.74710000  1.0 0.5857386295
C  C3  1  0.03040000  0.95650000  0.24810000  1.0 -0.007150627
C  C4  1  0.96960000  0.04350000  0.75190000  1.0 -0.007150627
C  C5  1  0.99460000  0.07120000  0.24920000  1.0 -0.1074384373
C  C6  1  0.00540000  0.92880000  0.75080000  1.0 -0.1074384373
C  C7  1  0.87540000  0.12240000  0.24830000  1.0 -0.204146817
C  C8  1  0.12460000  0.87760000  0.75170000  1.0 -0.204146817
C  C9  1  0.78720000  0.05530000  0.24620000  1.0 0.1210424497
C  C10  1  0.21280000  0.94470000  0.75380000  1.0 0.1210424497
C  C11  1  0.82260000  0.94280000  0.24350000  1.0 0.1313313461
C  C12  1  0.17740000  0.05720000  0.75650000  1.0 0.1313313461
C  C13  1  0.94530000  0.89090000  0.24440000  1.0 -0.1584856332
C  C14  1  0.05470000  0.10910000  0.75560000  1.0 -0.1584856332
C  C15  1  0.88500000  0.55580000  0.23390000  1.0 0.5968729559
C  C16  1  0.11500000  0.44420000  0.76610000  1.0 0.5968729559
C  C17  1  0.01840000  0.50740000  0.23720000  1.0 -0.0196515551
C  C18  1  0.98160000  0.49260000  0.76280000  1.0 -0.0196515551
C  C19  1  0.05540000  0.39320000  0.23190000  1.0 -0.1209368329
C  C20  1  0.94460000  0.60680000  0.76810000  1.0 -0.1209368329
C  C21  1  0.17530000  0.34230000  0.23310000  1.0 -0.1803132031
C  C22  1  0.82470000  0.65770000  0.76690000  1.0 -0.1803132031
C  C23  1  0.26160000  0.40890000  0.23870000  1.0 0.1210424497
C  C24  1  0.73840000  0.59110000  0.76130000  1.0 0.1210424497
C  C25  1  0.22450000  0.52090000  0.24330000  1.0 0.1313313461
C  C26  1  0.77550000  0.47910000  0.75670000  1.0 0.1313313461
C  C27  1  0.10100000  0.57170000  0.24350000  1.0 -0.1584856332
C  C28  1  0.89900000  0.42830000  0.75650000  1.0 -0.1584856332
C  C29  1  0.62410000  0.18690000  0.60750000  1.0 0.5759911988
C  C30  1  0.37590000  0.81310000  0.39250000  1.0 0.5759911988
C  C31  1  0.62320000  0.20250000  0.53180000  1.0 -0.0196515551
C  C32  1  0.37680000  0.79750000  0.46820000  1.0 -0.0196515551
C  C33  1  0.57580000  0.12810000  0.50070000  1.0 -0.1259574738
C  C34  1  0.42420000  0.87190000  0.49930000  1.0 -0.1259574738
C  C35  1  0.56500000  0.14310000  0.43270000  1.0 -0.1865227591
C  C36  1  0.43500000  0.85690000  0.56730000  1.0 -0.1865227591
C  C37  1  0.60060000  0.23820000  0.39560000  1.0 0.1210424497
C  C38  1  0.39940000  0.76180000  0.60440000  1.0 0.1210424497
C  C39  1  0.65020000  0.31070000  0.42540000  1.0 0.1115343016
C  C40  1  0.34980000  0.68930000  0.57460000  1.0 0.1115343016
C  C41  1  0.66490000  0.29230000  0.49370000  1.0 -0.1584856332
C  C42  1  0.33510000  0.70770000  0.50630000  1.0 -0.1584856332
C  C43  1  0.34640000  0.34030000  0.89990000  1.0 0.5759911988
C  C44  1  0.65360000  0.65970000  0.10010000  1.0 0.5759911988
C  C45  1  0.37220000  0.30480000  0.97040000  1.0 -0.0196515551
C  C46  1  0.62780000  0.69520000  0.02960000  1.0 -0.0196515551
C  C47  1  0.41930000  0.37460000  0.00510000  1.0 -0.1209368329
C  C48  1  0.58070000  0.62540000  0.99490000  1.0 -0.1209368329
C  C49  1  0.44990000  0.34440000  0.06800000  1.0 -0.1803132031
C  C50  1  0.55010000  0.65560000  0.93200000  1.0 -0.1803132031
C  C51  1  0.43190000  0.23920000  0.09770000  1.0 0.1210424497
C  C52  1  0.56810000  0.76080000  0.90230000  1.0 0.1210424497
C  C53  1  0.38400000  0.16990000  0.06420000  1.0 0.1115343016
C  C54  1  0.61600000  0.83010000  0.93580000  1.0 0.1115343016
C  C55  1  0.35350000  0.20200000  0.99950000  1.0 -0.1660292443
C  C56  1  0.64650000  0.79800000  0.00050000  1.0 -0.1660292443
C  C57  1  0.73560000  0.31860000  0.12690000  1.0 0.0609626625
C  C58  1  0.26440000  0.68140000  0.87310000  1.0 0.0609626625
C  C59  1  0.75960000  0.23570000  0.09460000  1.0 -0.4085705724
C  C60  1  0.24040000  0.76430000  0.90540000  1.0 -0.4085705724
C  C61  1  0.30150000  0.14340000  0.35760000  1.0 0.0609626625
C  C62  1  0.69850000  0.85660000  0.64240000  1.0 0.0609626625
C  C63  1  0.28090000  0.22290000  0.39250000  1.0 -0.4009488221
C  C64  1  0.71910000  0.77710000  0.60750000  1.0 -0.4009488221
N  N1  1  0.66230000  0.07920000  0.24680000  1.0 -0.2692741897
N  N2  1  0.33770000  0.92080000  0.75320000  1.0 -0.2692741897
N  N3  1  0.62410000  0.98600000  0.24470000  1.0 -0.0284246607
N  N4  1  0.37590000  0.01400000  0.75530000  1.0 -0.0284246607
N  N5  1  0.71670000  0.90150000  0.24260000  1.0 -0.2497654721
N  N6  1  0.28330000  0.09850000  0.75740000  1.0 -0.2497654721
N  N7  1  0.32930000  0.56210000  0.24660000  1.0 -0.2497654721
N  N8  1  0.67070000  0.43790000  0.75340000  1.0 -0.2497654721
N  N9  1  0.42300000  0.47750000  0.24430000  1.0 -0.0284246607
N  N10  1  0.57700000  0.52250000  0.75570000  1.0 -0.0284246607
N  N11  1  0.38520000  0.38510000  0.24000000  1.0 -0.2497654721
N  N12  1  0.61480000  0.61490000  0.76000000  1.0 -0.2497654721
N  N13  1  0.67230000  0.39560000  0.37830000  1.0 -0.2497654721
N  N14  1  0.32770000  0.60440000  0.62170000  1.0 -0.2497654721
N  N15  1  0.63600000  0.37640000  0.32330000  1.0 -0.0711584982
N  N16  1  0.36400000  0.62360000  0.67670000  1.0 -0.0711584982
N  N17  1  0.59280000  0.28220000  0.33090000  1.0 -0.293823212
N  N18  1  0.40720000  0.71780000  0.66910000  1.0 -0.293823212
N  N19  1  0.45330000  0.18460000  0.15820000  1.0 -0.293823212
N  N20  1  0.54670000  0.81540000  0.84180000  1.0 -0.293823212
N  N21  1  0.41880000  0.08690000  0.16030000  1.0 -0.0522937622
N  N22  1  0.58120000  0.91310000  0.83970000  1.0 -0.0522937622
N  N23  1  0.37790000  0.07380000  0.10510000  1.0 -0.2692741897
N  N24  1  0.62210000  0.92620000  0.89490000  1.0 -0.2692741897
O  O1  1  0.22850000  0.96760000  0.26759000  1.0 -0.5604445186
O  O2  1  0.77150000  0.03240000  0.73241000  1.0 -0.5604445186
O  O3  1  0.19880000  0.80810000  0.24261000  1.0 -0.5604445186
O  O4  1  0.80120000  0.19190000  0.75739000  1.0 -0.5604445186
O  O5  1  0.84730000  0.65260000  0.24906000  1.0 -0.5604445186
O  O6  1  0.15270000  0.34740000  0.75094000  1.0 -0.5604445186
O  O7  1  0.82010000  0.49670000  0.21619000  1.0 -0.5856994685
O  O8  1  0.17990000  0.50330000  0.78381000  1.0 -0.5856994685
O  O9  1  0.67380000  0.25220000  0.63117000  1.0 -0.5500686463
O  O10  1  0.32620000  0.74780000  0.36883000  1.0 -0.5500686463
O  O11  1  0.57270000  0.11090000  0.64169000  1.0 -0.5791967806
O  O12  1  0.42730000  0.88910000  0.35831000  1.0 -0.5791967806
O  O13  1  0.38850000  0.42310000  0.86950000  1.0 -0.5702847239
O  O14  1  0.61150000  0.57690000  0.13050000  1.0 -0.5702847239
O  O15  1  0.28930000  0.28290000  0.87448000  1.0 -0.5604445186
O  O16  1  0.71070000  0.71710000  0.12552000  1.0 -0.5604445186
O  O17  1  0.48600000  0.82640000  0.20931000  1.0 -0.8497124609
O  O18  1  0.51400000  0.17360000  0.79069000  1.0 -0.8497124609
O  O19  1  0.55810000  0.63320000  0.28255000  1.0 -0.8680210408
O  O20  1  0.44190000  0.36680000  0.71745000  1.0 -0.8680210408
O  O21  1  0.65590000  0.33420000  0.18091000  1.0 -0.4009488221
O  O22  1  0.34410000  0.66580000  0.81909000  1.0 -0.4009488221
O  O23  1  0.38810000  0.12840000  0.30598000  1.0 -0.3896199163
O  O24  1  0.61190000  0.87160000  0.69402000  1.0 -0.3896199163
