# DDEC6 charges by PACMAN v1.1 (https://github.com/mtap-research/PACMAN-charge/)
data_HAWZIQ_ion_pacman
_symmetry_space_group_name_H-M   'P 1'
_cell_length_a   11.22190000
_cell_length_b   13.24350000
_cell_length_c   17.63510000
_cell_angle_alpha   82.36500000
_cell_angle_beta   72.78700000
_cell_angle_gamma   68.60800000
_symmetry_Int_Tables_number   1
_chemical_formula_structural   La2Mo3H18C18S4N3ClO28
_chemical_formula_sum   'La4 Mo6 H36 C36 S8 N6 Cl2 O56'
_cell_volume   2330.10451937
_cell_formula_units_Z   2
loop_
 _symmetry_equiv_pos_site_id
 _symmetry_equiv_pos_as_xyz
  1  'x, y, z'
loop_
 _atom_site_type_symbol
 _atom_site_label
 _atom_site_symmetry_multiplicity
 _atom_site_fract_x
 _atom_site_fract_y
 _atom_site_fract_z
 _atom_site_occupancy
 _atom_site_charge
La  La1  1  0.04367000  0.12706000  0.36521000  1.0 1.7709482389
La  La2  1  0.95633000  0.87294000  0.63479000  1.0 1.7709482389
La  La3  1  0.39330000  0.67765000  0.01042000  1.0 1.8955726104
La  La4  1  0.60670000  0.32235000  0.98958000  1.0 1.8955726104
Mo  Mo1  1  0.34530000  0.27567000  0.62344000  1.0 0.8845848518
Mo  Mo2  1  0.65470000  0.72433000  0.37656000  1.0 0.8852521258
Mo  Mo3  1  0.82546000  0.79801000  0.25516000  1.0 0.9008952605
Mo  Mo4  1  0.17454000  0.20199000  0.74484000  1.0 0.9008952605
Mo  Mo5  1  0.81114000  0.59592000  0.24847000  1.0 0.9008952605
Mo  Mo6  1  0.18886000  0.40408000  0.75153000  1.0 0.9008952605
H  H1  1  0.64270000  0.13740000  0.44290000  1.0 0.1688425111
H  H2  1  0.35730000  0.86260000  0.55710000  1.0 0.1688425111
H  H3  1  0.60330000  0.06340000  0.51870000  1.0 0.1688425111
H  H4  1  0.39670000  0.93660000  0.48130000  1.0 0.1688425111
H  H5  1  0.61040000  0.35740000  0.52850000  1.0 0.1688425111
H  H6  1  0.38960000  0.64260000  0.47150000  1.0 0.1688425111
H  H7  1  0.65020000  0.29410000  0.44850000  1.0 0.1688425111
H  H8  1  0.34980000  0.70590000  0.55150000  1.0 0.1688425111
H  H9  1  0.65270000  0.22720000  0.62920000  1.0 0.1688425111
H  H10  1  0.34730000  0.77280000  0.37080000  1.0 0.1688425111
H  H11  1  0.64380000  0.11050000  0.62610000  1.0 0.1688425111
H  H12  1  0.35620000  0.88950000  0.37390000  1.0 0.1688425111
H  H13  1  0.99910000  0.98730000  0.12000000  1.0 0.1688425111
H  H14  1  0.00090000  0.01270000  0.88000000  1.0 0.1688425111
H  H15  1  0.94780000  0.92930000  0.06880000  1.0 0.1688425111
H  H16  1  0.05220000  0.07070000  0.93120000  1.0 0.1688425111
H  H17  1  0.72510000  0.07880000  0.25900000  1.0 0.1797787401
H  H18  1  0.27490000  0.92120000  0.74100000  1.0 0.1797787401
H  H19  1  0.86920000  0.08290000  0.21210000  1.0 0.1688425111
H  H20  1  0.13080000  0.91710000  0.78790000  1.0 0.1688425111
H  H21  1  0.63950000  0.01860000  0.18220000  1.0 0.1600945743
H  H22  1  0.36050000  0.98140000  0.81780000  1.0 0.1600945743
H  H23  1  0.73230000  0.95070000  0.10520000  1.0 0.1600945743
H  H24  1  0.26770000  0.04930000  0.89480000  1.0 0.1600945743
H  H25  1  0.82030000  0.32480000  0.17540000  1.0 0.1797787401
H  H26  1  0.17970000  0.67520000  0.82460000  1.0 0.1797787401
H  H27  1  0.68190000  0.40230000  0.22770000  1.0 0.1797787401
H  H28  1  0.31810000  0.59770000  0.77230000  1.0 0.1797787401
H  H29  1  0.92230000  0.49810000  0.05150000  1.0 0.1600945743
H  H30  1  0.07770000  0.50190000  0.94850000  1.0 0.1600945743
H  H31  1  0.95950000  0.37690000  0.08760000  1.0 0.1797787401
H  H32  1  0.04050000  0.62310000  0.91240000  1.0 0.1797787401
H  H33  1  0.70600000  0.60560000  0.09410000  1.0 0.1688425111
H  H34  1  0.29400000  0.39440000  0.90590000  1.0 0.1688425111
H  H35  1  0.60770000  0.56040000  0.16300000  1.0 0.1600945743
H  H36  1  0.39230000  0.43960000  0.83700000  1.0 0.1600945743
C  C1  1  0.57390000  0.13600000  0.49306000  1.0 -0.2544025553
C  C2  1  0.42610000  0.86400000  0.50694000  1.0 -0.2544025553
C  C3  1  0.44440000  0.15370000  0.47398000  1.0 0.6133003759
C  C4  1  0.55560000  0.84630000  0.52602000  1.0 0.6133003759
C  C5  1  0.58020000  0.31750000  0.49872000  1.0 -0.2544025553
C  C6  1  0.41980000  0.68250000  0.50128000  1.0 -0.2544025553
C  C7  1  0.45340000  0.39280000  0.47966000  1.0 0.6198490339
C  C8  1  0.54660000  0.60720000  0.52034000  1.0 0.6198490339
C  C9  1  0.66370000  0.17170000  0.59282000  1.0 -0.2544025553
C  C10  1  0.33630000  0.82830000  0.40718000  1.0 -0.2544025553
C  C11  1  0.80970000  0.13060000  0.54467000  1.0 0.6901918727
C  C12  1  0.19030000  0.86940000  0.45533000  1.0 0.6901918727
C  C13  1  0.96280000  0.92900000  0.12150000  1.0 -0.258432809
C  C14  1  0.03720000  0.07100000  0.87850000  1.0 -0.258432809
C  C15  1  0.06550000  0.82220000  0.13397000  1.0 0.6568300801
C  C16  1  0.93450000  0.17780000  0.86603000  1.0 0.6568300801
C  C17  1  0.82000000  0.03390000  0.23960000  1.0 -0.2703905326
C  C18  1  0.18000000  0.96610000  0.76040000  1.0 -0.2703905326
C  C19  1  0.87160000  0.97920000  0.30960000  1.0 0.6470946151
C  C20  1  0.12840000  0.02080000  0.69040000  1.0 0.6470946151
C  C21  1  0.72560000  0.00470000  0.14140000  1.0 -0.238597445
C  C22  1  0.27440000  0.99530000  0.85860000  1.0 -0.238597445
C  C23  1  0.72280000  0.11050000  0.09340000  1.0 0.6301613229
C  C24  1  0.27720000  0.88950000  0.90660000  1.0 0.6301613229
C  C25  1  0.77860000  0.38870000  0.20970000  1.0 -0.258432809
C  C26  1  0.22140000  0.61130000  0.79030000  1.0 -0.258432809
C  C27  1  0.83350000  0.36290000  0.28152000  1.0 0.6301613229
C  C28  1  0.16650000  0.63710000  0.71848000  1.0 0.6301613229
C  C29  1  0.93310000  0.45390000  0.10050000  1.0 -0.258432809
C  C30  1  0.06690000  0.54610000  0.89950000  1.0 -0.258432809
C  C31  1  0.04430000  0.46840000  0.12525000  1.0 0.6133003759
C  C32  1  0.95570000  0.53160000  0.87475000  1.0 0.6133003759
C  C33  1  0.69360000  0.53850000  0.12169000  1.0 -0.258432809
C  C34  1  0.30640000  0.46150000  0.87831000  1.0 -0.258432809
C  C35  1  0.68420000  0.47090000  0.06206000  1.0 0.6470946151
C  C36  1  0.31580000  0.52910000  0.93794000  1.0 0.6470946151
S  S1  1  0.11218000  0.35051000  0.65908000  1.0 -0.4220617535
S  S2  1  0.88782000  0.64949000  0.34092000  1.0 -0.429990721
S  S3  1  0.39411000  0.11155000  0.68994000  1.0 -0.429990721
S  S4  1  0.60589000  0.88845000  0.31006000  1.0 -0.429990721
S  S5  1  0.41256000  0.36252000  0.69790000  1.0 -0.4416584087
S  S6  1  0.58744000  0.63748000  0.30210000  1.0 -0.4416584087
S  S7  1  0.79660000  0.73039000  0.15095000  1.0 -0.4714737458
S  S8  1  0.20340000  0.26961000  0.84905000  1.0 -0.4714737458
N  N1  1  0.56240000  0.21960000  0.54662000  1.0 0.0300127079
N  N2  1  0.43760000  0.78040000  0.45338000  1.0 0.0300127079
N  N3  1  0.83310000  0.95550000  0.18174000  1.0 0.0300127079
N  N4  1  0.16690000  0.04450000  0.81826000  1.0 0.0300127079
N  N5  1  0.80200000  0.48490000  0.16178000  1.0 0.0300127079
N  N6  1  0.19800000  0.51510000  0.83822000  1.0 0.0300127079
Cl  Cl1  1  0.55433000  0.06396000  0.85421000  1.0 0.0191912353
Cl  Cl2  1  0.44567000  0.93604000  0.14579000  1.0 0.0191912353
O  O1  1  0.33540000  0.20030000  0.52580000  1.0 -0.4416584087
O  O2  1  0.66460000  0.79970000  0.47420000  1.0 -0.4416584087
O  O3  1  0.34280000  0.39727000  0.53135000  1.0 -0.4628159128
O  O4  1  0.65720000  0.60273000  0.46865000  1.0 -0.4628159128
O  O5  1  0.44990000  0.11940000  0.41069000  1.0 -0.4416584087
O  O6  1  0.55010000  0.88060000  0.58931000  1.0 -0.4416584087
O  O7  1  0.46120000  0.44770000  0.41732000  1.0 -0.4628159128
O  O8  1  0.53880000  0.55230000  0.58268000  1.0 -0.4628159128
O  O9  1  0.84380000  0.17170000  0.47788000  1.0 -0.5901330632
O  O10  1  0.15620000  0.82830000  0.52212000  1.0 -0.5901330632
O  O11  1  0.88700000  0.05930000  0.57910000  1.0 -0.5321452739
O  O12  1  0.11300000  0.94070000  0.42090000  1.0 -0.5321452739
O  O13  1  0.03260000  0.75889000  0.19150000  1.0 -0.4416584087
O  O14  1  0.96740000  0.24111000  0.80850000  1.0 -0.4416584087
O  O15  1  0.88940000  0.87829000  0.32276000  1.0 -0.4220617535
O  O16  1  0.11060000  0.12171000  0.67724000  1.0 -0.4220617535
O  O17  1  0.17760000  0.80130000  0.08773000  1.0 -0.5503727717
O  O18  1  0.82240000  0.19870000  0.91227000  1.0 -0.5503727717
O  O19  1  0.88850000  0.03460000  0.35440000  1.0 -0.5321452739
O  O20  1  0.11150000  0.96540000  0.64560000  1.0 -0.5321452739
O  O21  1  0.80980000  0.14990000  0.08570000  1.0 -0.5321452739
O  O22  1  0.19020000  0.85010000  0.91430000  1.0 -0.5321452739
O  O23  1  0.62710000  0.15170000  0.06520000  1.0 -0.5720093471
O  O24  1  0.37290000  0.84830000  0.93480000  1.0 -0.5720093471
O  O25  1  0.85150000  0.44112000  0.30773000  1.0 -0.4628159128
O  O26  1  0.14850000  0.55888000  0.69227000  1.0 -0.4628159128
O  O27  1  0.01500000  0.51643000  0.19042000  1.0 -0.4416584087
O  O28  1  0.98500000  0.48357000  0.80958000  1.0 -0.4416584087
O  O29  1  0.85390000  0.27115000  0.31290000  1.0 -0.5503727717
O  O30  1  0.14610000  0.72885000  0.68710000  1.0 -0.5503727717
O  O31  1  0.15760000  0.43770000  0.08019000  1.0 -0.3964662177
O  O32  1  0.84240000  0.56230000  0.91981000  1.0 -0.3964662177
O  O33  1  0.58750000  0.51510000  0.03062000  1.0 -0.6192047817
O  O34  1  0.41250000  0.48490000  0.96938000  1.0 -0.6192047817
O  O35  1  0.76260000  0.37699000  0.04636000  1.0 -0.5503727717
O  O36  1  0.23740000  0.62301000  0.95364000  1.0 -0.5503727717
O  O37  1  0.11820000  0.20930000  0.22359000  1.0 -0.499125771
O  O38  1  0.88180000  0.79070000  0.77641000  1.0 -0.499125771
O  O39  1  0.00190000  0.32720000  0.40080000  1.0 0.2128292697
O  O40  1  0.99810000  0.67280000  0.59920000  1.0 0.2128292697
O  O41  1  0.12380000  0.12250000  0.49329000  1.0 -0.1988825423
O  O42  1  0.87620000  0.87750000  0.50671000  1.0 -0.1988825423
O  O43  1  0.28770000  0.09830000  0.33314000  1.0 -0.3863012416
O  O44  1  0.71230000  0.90170000  0.66686000  1.0 -0.3863012416
O  O45  1  0.15590000  0.97930000  0.25388000  1.0 -0.3185627085
O  O46  1  0.84410000  0.02070000  0.74612000  1.0 -0.3185627085
O  O47  1  0.41360000  0.71790000  0.14208000  1.0 -0.4060034973
O  O48  1  0.58640000  0.28210000  0.85792000  1.0 -0.4060034973
O  O49  1  0.27280000  0.56960000  0.12597000  1.0 -0.0293261518
O  O50  1  0.72720000  0.43040000  0.87403000  1.0 -0.0293261518
O  O51  1  0.51620000  0.63180000  0.85932000  1.0 -0.3290021342
O  O52  1  0.48380000  0.36820000  0.14068000  1.0 -0.3290021342
O  O53  1  0.60590000  0.72540000  0.98322000  1.0 -0.2956985456
O  O54  1  0.39410000  0.27460000  0.01678000  1.0 -0.2956985456
O  O55  1  0.93090000  0.70350000  0.61200000  1.0 0.0692987873
O  O56  1  0.06910000  0.29650000  0.38800000  1.0 0.0692987873
