# DDEC6 charges by PACMAN v1.1 (https://github.com/mtap-research/PACMAN-charge/)
data_HAZSIL_FSR_pacman
_symmetry_space_group_name_H-M   'P 1'
_cell_length_a   27.13240000
_cell_length_b   26.60810000
_cell_length_c   9.54027000
_cell_angle_alpha   82.89000000
_cell_angle_beta   76.68900000
_cell_angle_gamma   20.42100000
_symmetry_Int_Tables_number   1
_chemical_formula_structural   Cu2P2H9C7(NO4)2
_chemical_formula_sum   'Cu8 P8 H36 C28 N8 O32'
_cell_volume   2251.13374416
_cell_formula_units_Z   4
loop_
 _symmetry_equiv_pos_site_id
 _symmetry_equiv_pos_as_xyz
  1  'x, y, z'
loop_
 _atom_site_type_symbol
 _atom_site_label
 _atom_site_symmetry_multiplicity
 _atom_site_fract_x
 _atom_site_fract_y
 _atom_site_fract_z
 _atom_site_occupancy
 _atom_site_charge
Cu  Cu1  1  0.36683000  0.42123000  0.56989000  1.0 0.8622951269
Cu  Cu2  1  0.64205000  0.56989000  0.42123000  1.0 0.8622951269
Cu  Cu3  1  0.82877000  0.88317000  0.60795000  1.0 0.8622951269
Cu  Cu4  1  0.68011000  0.60795000  0.88317000  1.0 0.8622951269
Cu  Cu5  1  0.30271000  0.46455000  0.03699000  1.0 1.2613697409
Cu  Cu6  1  0.19575000  0.03699000  0.46455000  1.0 1.2613697409
Cu  Cu7  1  0.78545000  0.94729000  0.05425000  1.0 1.2613697409
Cu  Cu8  1  0.21301000  0.05425000  0.94729000  1.0 1.2613697409
P  P1  1  0.59326000  0.13732000  0.39108000  1.0 1.3082939148
P  P2  1  0.87834000  0.39108000  0.13732000  1.0 1.3082939148
P  P3  1  0.11268000  0.65674000  0.37166000  1.0 1.3082939148
P  P4  1  0.85892000  0.37166000  0.65674000  1.0 1.3082939148
P  P5  1  0.62430000  0.14100000  0.81680000  1.0 1.2827926635
P  P6  1  0.41790000  0.81680000  0.14100000  1.0 1.2827926635
P  P7  1  0.10900000  0.62570000  0.83210000  1.0 1.2827926635
P  P8  1  0.43320000  0.83210000  0.62570000  1.0 1.2827926635
H  H1  1  0.39910000  0.30930000  0.70750000  1.0 0.2724428236
H  H2  1  0.58410000  0.70750000  0.30930000  1.0 0.2724428236
H  H3  1  0.94070000  0.85090000  0.66590000  1.0 0.2724428236
H  H4  1  0.54250000  0.66590000  0.85090000  1.0 0.2724428236
H  H5  1  0.93050000  0.89070000  0.38350000  1.0 0.1707892515
H  H6  1  0.79530000  0.38350000  0.89070000  1.0 0.1707892515
H  H7  1  0.35930000  0.31950000  0.45470000  1.0 0.1707892515
H  H8  1  0.86650000  0.45470000  0.31950000  1.0 0.1707892515
H  H9  1  0.04780000  0.79740000  0.45240000  1.0 0.1486054849
H  H10  1  0.70240000  0.45240000  0.79740000  1.0 0.1486054849
H  H11  1  0.45260000  0.20220000  0.54760000  1.0 0.1486054849
H  H12  1  0.79760000  0.54760000  0.20220000  1.0 0.1486054849
H  H13  1  0.77680000  0.06640000  0.68860000  1.0 0.1604576822
H  H14  1  0.46820000  0.68860000  0.06640000  1.0 0.1604576822
H  H15  1  0.18360000  0.47320000  0.78180000  1.0 0.1604576822
H  H16  1  0.56140000  0.78180000  0.47320000  1.0 0.1604576822
H  H17  1  0.70710000  0.10970000  0.58090000  1.0 0.1604576822
H  H18  1  0.60230000  0.58090000  0.10970000  1.0 0.1604576822
H  H19  1  0.14030000  0.54290000  0.64770000  1.0 0.1604576822
H  H20  1  0.66910000  0.64770000  0.54290000  1.0 0.1604576822
H  H21  1  0.72710000  0.89230000  0.49170000  1.0 0.1304833651
H  H22  1  0.88890000  0.49170000  0.89230000  1.0 0.1304833651
H  H23  1  0.35770000  0.52290000  0.36110000  1.0 0.1304833651
H  H24  1  0.75830000  0.36110000  0.52290000  1.0 0.1304833651
H  H25  1  0.70860000  0.82300000  0.54120000  1.0 0.1404902473
H  H26  1  0.92720000  0.54120000  0.82300000  1.0 0.1404902473
H  H27  1  0.42700000  0.54140000  0.32280000  1.0 0.1404902473
H  H28  1  0.70880000  0.32280000  0.54140000  1.0 0.1404902473
H  H29  1  0.55350000  0.90010000  0.72030000  1.0 0.1486054849
H  H30  1  0.82610000  0.72030000  0.90010000  1.0 0.1486054849
H  H31  1  0.34990000  0.69650000  0.42390000  1.0 0.1486054849
H  H32  1  0.52970000  0.42390000  0.69650000  1.0 0.1486054849
H  H33  1  0.53030000  0.83630000  0.77510000  1.0 0.1404902473
H  H34  1  0.85830000  0.77510000  0.83630000  1.0 0.1404902473
H  H35  1  0.41370000  0.71970000  0.39170000  1.0 0.1404902473
H  H36  1  0.47490000  0.39170000  0.71970000  1.0 0.1404902473
C  C1  1  0.42600000  0.26060000  0.51080000  1.0 -0.4081235767
C  C2  1  0.80260000  0.51080000  0.26060000  1.0 -0.4081235767
C  C3  1  0.98940000  0.82400000  0.44740000  1.0 -0.4081235767
C  C4  1  0.73920000  0.44740000  0.82400000  1.0 -0.4081235767
C  C5  1  0.75210000  0.05850000  0.65830000  1.0 -0.4168544948
C  C6  1  0.53110000  0.65830000  0.05850000  1.0 -0.4168544948
C  C7  1  0.19150000  0.49790000  0.71890000  1.0 -0.4168544948
C  C8  1  0.59170000  0.71890000  0.49790000  1.0 -0.4168544948
C  C9  1  0.75170000  0.85310000  0.57270000  1.0 0.1235107094
C  C10  1  0.82250000  0.57270000  0.85310000  1.0 0.1235107094
C  C11  1  0.39690000  0.49830000  0.42750000  1.0 0.1235107094
C  C12  1  0.67730000  0.42750000  0.49830000  1.0 0.1235107094
C  C13  1  0.73620000  0.81560000  0.60440000  1.0 -0.1910439894
C  C14  1  0.84380000  0.60440000  0.81560000  1.0 -0.1910439894
C  C15  1  0.43440000  0.51380000  0.40620000  1.0 -0.1910439894
C  C16  1  0.64560000  0.40620000  0.51380000  1.0 -0.1910439894
C  C17  1  0.76166000  0.76746000  0.72894000  1.0 0.102452245
C  C18  1  0.74194000  0.72894000  0.76746000  1.0 0.102452245
C  C19  1  0.48254000  0.48834000  0.50806000  1.0 0.102452245
C  C20  1  0.52106000  0.50806000  0.48834000  1.0 0.102452245
C  C21  1  0.62450000  0.81490000  0.75310000  1.0 -0.1806234211
C  C22  1  0.80750000  0.75310000  0.81490000  1.0 -0.1806234211
C  C23  1  0.43510000  0.62550000  0.44250000  1.0 -0.1806234211
C  C24  1  0.49690000  0.44250000  0.62550000  1.0 -0.1806234211
C  C25  1  0.61070000  0.77650000  0.78630000  1.0 0.102452245
C  C26  1  0.82650000  0.78630000  0.77650000  1.0 0.102452245
C  C27  1  0.47350000  0.63930000  0.42350000  1.0 0.102452245
C  C28  1  0.46370000  0.42350000  0.63930000  1.0 0.102452245
N  N1  1  0.34951000  0.36231000  0.64009000  1.0 -0.2092976287
N  N2  1  0.64809000  0.64009000  0.36231000  1.0 -0.2092976287
N  N3  1  0.88769000  0.90049000  0.60191000  1.0 -0.2092976287
N  N4  1  0.60991000  0.60191000  0.90049000  1.0 -0.2092976287
N  N5  1  0.80006000  0.83526000  0.65394000  1.0 -0.1910439894
N  N6  1  0.71074000  0.65394000  0.83526000  1.0 -0.1910439894
N  N7  1  0.41474000  0.44994000  0.53926000  1.0 -0.1910439894
N  N8  1  0.59606000  0.53926000  0.44994000  1.0 -0.1910439894
O  O1  1  0.72849000  0.98889000  0.42671000  1.0 -0.7058468699
O  O2  1  0.85591000  0.42671000  0.98889000  1.0 -0.7058468699
O  O3  1  0.26111000  0.52151000  0.39409000  1.0 -0.7058468699
O  O4  1  0.82329000  0.39409000  0.52151000  1.0 -0.7058468699
O  O5  1  0.02535000  0.69095000  0.45685000  1.0 -0.695460999
O  O6  1  0.82685000  0.45685000  0.69095000  1.0 -0.6949621677
O  O7  1  0.55905000  0.22465000  0.42315000  1.0 -0.6949621677
O  O8  1  0.79315000  0.42315000  0.22465000  1.0 -0.6949621677
O  O9  1  0.13163000  0.64483000  0.20517000  1.0 -0.639277035
O  O10  1  0.01837000  0.20517000  0.64483000  1.0 -0.639277035
O  O11  1  0.60517000  0.11837000  0.23163000  1.0 -0.639277035
O  O12  1  0.04483000  0.23163000  0.11837000  1.0 -0.639277035
O  O13  1  0.67749000  0.09329000  0.95111000  1.0 -0.6684315145
O  O14  1  0.27811000  0.95111000  0.09329000  1.0 -0.6684315145
O  O15  1  0.15671000  0.57251000  0.97189000  1.0 -0.6684315145
O  O16  1  0.29889000  0.97189000  0.57251000  1.0 -0.6684315145
O  O17  1  0.46577000  0.31097000  0.84603000  1.0 -0.7844432831
O  O18  1  0.37723000  0.84603000  0.31097000  1.0 -0.7844432831
O  O19  1  0.93903000  0.78423000  0.87277000  1.0 -0.7844432831
O  O20  1  0.40397000  0.87277000  0.78423000  1.0 -0.7844432831
O  O21  1  0.63921000  0.07401000  0.76819000  1.0 -0.7232519031
O  O22  1  0.51859000  0.76819000  0.07401000  1.0 -0.7232519031
O  O23  1  0.17599000  0.61079000  0.73141000  1.0 -0.7232519031
O  O24  1  0.48181000  0.73141000  0.61079000  1.0 -0.7232519031
O  O25  1  0.92002000  0.88802000  0.08238000  1.0 -0.3417959452
O  O26  1  0.10958000  0.08238000  0.88802000  1.0 -0.3417959452
O  O27  1  0.36198000  0.32998000  0.14042000  1.0 -0.3417959452
O  O28  1  0.16762000  0.14042000  0.32998000  1.0 -0.3417959452
O  O29  1  0.88251000  0.80971000  0.17749000  1.0 -0.3608683884
O  O30  1  0.13029000  0.17749000  0.80971000  1.0 -0.3608683884
O  O31  1  0.44029000  0.36749000  0.11971000  1.0 -0.3608683884
O  O32  1  0.07251000  0.11971000  0.36749000  1.0 -0.3608683884
