# DDEC6 charges by PACMAN v1.1 (https://github.com/mtap-research/PACMAN-charge/)
data_HEBJAB_ASR_pacman
_symmetry_space_group_name_H-M   'P 1'
_cell_length_a   9.73000000
_cell_length_b   10.19000000
_cell_length_c   19.52900000
_cell_angle_alpha   78.01100000
_cell_angle_beta   80.40000000
_cell_angle_gamma   87.70500000
_symmetry_Int_Tables_number   1
_chemical_formula_structural   Co3H58C64(N4O7)2
_chemical_formula_sum   'Co3 H58 C64 N8 O14'
_cell_volume   1867.48659683
_cell_formula_units_Z   1
loop_
 _symmetry_equiv_pos_site_id
 _symmetry_equiv_pos_as_xyz
  1  'x, y, z'
loop_
 _atom_site_type_symbol
 _atom_site_label
 _atom_site_symmetry_multiplicity
 _atom_site_fract_x
 _atom_site_fract_y
 _atom_site_fract_z
 _atom_site_occupancy
 _atom_site_charge
Co  Co1  1  0.68611000  0.39561000  0.72257000  1.0 0.7709834513
Co  Co2  1  0.31389000  0.60439000  0.27743000  1.0 0.7709834513
Co  Co3  1  0.00000000  0.00000000  0.00000000  1.0 0.7452573416
H  H1  1  0.70570000  0.92820000  0.73640000  1.0 0.1310470921
H  H2  1  0.29430000  0.07180000  0.26360000  1.0 0.1310470921
H  H3  1  0.73620000  0.16700000  0.54300000  1.0 0.1219371938
H  H4  1  0.26380000  0.83300000  0.45700000  1.0 0.1219371938
H  H5  1  0.76450000  0.76660000  0.56260000  1.0 0.1310470921
H  H6  1  0.23550000  0.23340000  0.43740000  1.0 0.1310470921
H  H7  1  0.84480000  0.16190000  0.42870000  1.0 0.1100923178
H  H8  1  0.15520000  0.83810000  0.57130000  1.0 0.1100923178
H  H9  1  0.68150000  0.15160000  0.43890000  1.0 0.0992193744
H  H10  1  0.31850000  0.84840000  0.56110000  1.0 0.0992193744
H  H11  1  0.57160000  0.08840000  0.34650000  1.0 0.1219371938
H  H12  1  0.42840000  0.91160000  0.65350000  1.0 0.1219371938
H  H13  1  0.58610000  0.07810000  0.22840000  1.0 0.1219371938
H  H14  1  0.41390000  0.92190000  0.77160000  1.0 0.1219371938
H  H15  1  0.00460000  0.07980000  0.20670000  1.0 0.1219371938
H  H16  1  0.99540000  0.92020000  0.79330000  1.0 0.1219371938
H  H17  1  0.98780000  0.09820000  0.32380000  1.0 0.1219371938
H  H18  1  0.01220000  0.90180000  0.67620000  1.0 0.1219371938
H  H19  1  0.43410000  0.22030000  0.80080000  1.0 0.1219371938
H  H20  1  0.56590000  0.77970000  0.19920000  1.0 0.1219371938
H  H21  1  0.20900000  0.23590000  0.85630000  1.0 0.142207897
H  H22  1  0.79100000  0.76410000  0.14370000  1.0 0.142207897
H  H23  1  0.22070000  0.62940000  0.77310000  1.0 0.142207897
H  H24  1  0.77930000  0.37060000  0.22690000  1.0 0.142207897
H  H25  1  0.44520000  0.60320000  0.72140000  1.0 0.1100923178
H  H26  1  0.55480000  0.39680000  0.27860000  1.0 0.1100923178
H  H27  1  0.00540000  0.53920000  0.84020000  1.0 0.1310470921
H  H28  1  0.99460000  0.46080000  0.15980000  1.0 0.1310470921
H  H29  1  0.98310000  0.38400000  0.85240000  1.0 0.1310470921
H  H30  1  0.01690000  0.61600000  0.14760000  1.0 0.1310470921
H  H31  1  0.08760000  0.63520000  0.92810000  1.0 0.1100923178
H  H32  1  0.91240000  0.36480000  0.07190000  1.0 0.1100923178
H  H33  1  0.21700000  0.53830000  0.93030000  1.0 0.1100923178
H  H34  1  0.78300000  0.46170000  0.06970000  1.0 0.1100923178
H  H35  1  0.85290000  0.54160000  0.94850000  1.0 0.1100923178
H  H36  1  0.14710000  0.45840000  0.05150000  1.0 0.1100923178
H  H37  1  0.83390000  0.38540000  0.96370000  1.0 0.1219371938
H  H38  1  0.16610000  0.61460000  0.03630000  1.0 0.1219371938
H  H39  1  0.94950000  0.23430000  0.76320000  1.0 0.1100923178
H  H40  1  0.05050000  0.76570000  0.23680000  1.0 0.1100923178
H  H41  1  0.17450000  0.19250000  0.71390000  1.0 0.1310470921
H  H42  1  0.82550000  0.80750000  0.28610000  1.0 0.1310470921
H  H43  1  0.13290000  0.48430000  0.54630000  1.0 0.142207897
H  H44  1  0.86710000  0.51570000  0.45370000  1.0 0.142207897
H  H45  1  0.90820000  0.51780000  0.60050000  1.0 0.1100923178
H  H46  1  0.09180000  0.48220000  0.39950000  1.0 0.1100923178
H  H47  1  0.38560000  0.27790000  0.62570000  1.0 0.1219371938
H  H48  1  0.61440000  0.72210000  0.37430000  1.0 0.1219371938
H  H49  1  0.32260000  0.22260000  0.56850000  1.0 0.1219371938
H  H50  1  0.67740000  0.77740000  0.43150000  1.0 0.1219371938
H  H51  1  0.50310000  0.48170000  0.59640000  1.0 0.1100923178
H  H52  1  0.49690000  0.51830000  0.40360000  1.0 0.1100923178
H  H53  1  0.35470000  0.54850000  0.59780000  1.0 0.0992193744
H  H54  1  0.64530000  0.45150000  0.40220000  1.0 0.0992193744
H  H55  1  0.47780000  0.29740000  0.46740000  1.0 0.1100923178
H  H56  1  0.52220000  0.70260000  0.53260000  1.0 0.1100923178
H  H57  1  0.57780000  0.32870000  0.51730000  1.0 0.1100923178
H  H58  1  0.42220000  0.67130000  0.48270000  1.0 0.1100923178
C  C1  1  0.73480000  0.68810000  0.70250000  1.0 0.5500481066
C  C2  1  0.26520000  0.31190000  0.29750000  1.0 0.5500481066
C  C3  1  0.73610000  0.82580000  0.65590000  1.0 -0.0055661315
C  C4  1  0.26390000  0.17420000  0.34410000  1.0 -0.0055661315
C  C5  1  0.71680000  0.93800000  0.68730000  1.0 -0.1626454021
C  C6  1  0.28320000  0.06200000  0.31270000  1.0 -0.1626454021
C  C7  1  0.71470000  0.06410000  0.64390000  1.0 0.0107757862
C  C8  1  0.28530000  0.93590000  0.35610000  1.0 0.0107757862
C  C9  1  0.68880000  0.18700000  0.67590000  1.0 0.5321766374
C  C10  1  0.31120000  0.81300000  0.32410000  1.0 0.5321766374
C  C11  1  0.73560000  0.08120000  0.57110000  1.0 -0.2653262677
C  C12  1  0.26440000  0.91880000  0.42890000  1.0 -0.2653262677
C  C13  1  0.75580000  0.96930000  0.53940000  1.0 0.2543976841
C  C14  1  0.24420000  0.03070000  0.46060000  1.0 0.2543976841
C  C15  1  0.75380000  0.84190000  0.58300000  1.0 -0.2411622765
C  C16  1  0.24620000  0.15810000  0.41700000  1.0 -0.2411622765
C  C17  1  0.76850000  0.10790000  0.42390000  1.0 -0.0801670427
C  C18  1  0.23150000  0.89210000  0.57610000  1.0 -0.0801670427
C  C19  1  0.77820000  0.09490000  0.34770000  1.0 0.0802933288
C  C20  1  0.22180000  0.90510000  0.65230000  1.0 0.0802933288
C  C21  1  0.65850000  0.08800000  0.31830000  1.0 -0.1626454021
C  C22  1  0.34150000  0.91200000  0.68170000  1.0 -0.1626454021
C  C23  1  0.66690000  0.08060000  0.24770000  1.0 -0.1132615364
C  C24  1  0.33310000  0.91940000  0.75230000  1.0 -0.1132615364
C  C25  1  0.79730000  0.07680000  0.20550000  1.0 -0.03740882
C  C26  1  0.20270000  0.92320000  0.79450000  1.0 -0.03740882
C  C27  1  0.91750000  0.08270000  0.23440000  1.0 -0.1132615364
C  C28  1  0.08250000  0.91730000  0.76560000  1.0 -0.1132615364
C  C29  1  0.90710000  0.09280000  0.30490000  1.0 -0.1469451698
C  C30  1  0.09290000  0.90720000  0.69510000  1.0 -0.1469451698
C  C31  1  0.80840000  0.06730000  0.12840000  1.0 0.5500481066
C  C32  1  0.19160000  0.93270000  0.87160000  1.0 0.5500481066
C  C33  1  0.39130000  0.30420000  0.79590000  1.0 0.0892033775
C  C34  1  0.60870000  0.69580000  0.20410000  1.0 0.0892033775
C  C35  1  0.25510000  0.31260000  0.82950000  1.0 -0.2078450235
C  C36  1  0.74490000  0.68740000  0.17050000  1.0 -0.2078450235
C  C37  1  0.18750000  0.43650000  0.82290000  1.0 0.1493854908
C  C38  1  0.81250000  0.56350000  0.17710000  1.0 0.1493854908
C  C39  1  0.26220000  0.54490000  0.78050000  1.0 -0.2022374632
C  C40  1  0.73780000  0.45510000  0.21950000  1.0 -0.2022374632
C  C41  1  0.39760000  0.52830000  0.74930000  1.0 0.07213276
C  C42  1  0.60240000  0.47170000  0.25070000  1.0 0.07213276
C  C43  1  0.04190000  0.45230000  0.86030000  1.0 -0.1912642183
C  C44  1  0.95810000  0.54770000  0.13970000  1.0 -0.1912642183
C  C45  1  0.12030000  0.54850000  0.95080000  1.0 -0.1204373638
C  C46  1  0.87970000  0.45150000  0.04920000  1.0 -0.1204373638
C  C47  1  0.88980000  0.45650000  0.97090000  1.0 -0.1204373638
C  C48  1  0.11020000  0.54350000  0.02910000  1.0 -0.1204373638
C  C49  1  0.98640000  0.28540000  0.71920000  1.0 0.0802933288
C  C50  1  0.01360000  0.71460000  0.28080000  1.0 0.0802933288
C  C51  1  0.12240000  0.25940000  0.68950000  1.0 -0.1912642183
C  C52  1  0.87760000  0.74060000  0.31050000  1.0 -0.1912642183
C  C53  1  0.18010000  0.33240000  0.62410000  1.0 0.1603282777
C  C54  1  0.81990000  0.66760000  0.37590000  1.0 0.1603282777
C  C55  1  0.09820000  0.43190000  0.59030000  1.0 -0.2078450235
C  C56  1  0.90180000  0.56810000  0.40970000  1.0 -0.2078450235
C  C57  1  0.96270000  0.45170000  0.62370000  1.0 0.0992193744
C  C58  1  0.03730000  0.54830000  0.37630000  1.0 0.0992193744
C  C59  1  0.32640000  0.30040000  0.58950000  1.0 -0.1738698247
C  C60  1  0.67360000  0.69960000  0.41050000  1.0 -0.1738698247
C  C61  1  0.43320000  0.51760000  0.56740000  1.0 -0.1273707214
C  C62  1  0.56680000  0.48240000  0.43260000  1.0 -0.1273707214
C  C63  1  0.50700000  0.36660000  0.48920000  1.0 -0.1273707214
C  C64  1  0.49300000  0.63340000  0.51080000  1.0 -0.1273707214
N  N1  1  0.46470000  0.40930000  0.75711000  1.0 -0.2531527641
N  N2  1  0.53530000  0.59070000  0.24289000  1.0 -0.2531527641
N  N3  1  0.03620000  0.44110000  0.93735000  1.0 -0.0801670427
N  N4  1  0.96380000  0.55890000  0.06265000  1.0 -0.0801670427
N  N5  1  0.90670000  0.38090000  0.68717000  1.0 -0.2411622765
N  N6  1  0.09330000  0.61910000  0.31283000  1.0 -0.2411622765
N  N7  1  0.38700000  0.41140000  0.53542000  1.0 -0.066368642
N  N8  1  0.61300000  0.58860000  0.46458000  1.0 -0.066368642
O  O1  1  0.69780000  0.59410000  0.67626000  1.0 -0.5837785664
O  O2  1  0.30220000  0.40590000  0.32374000  1.0 -0.5837785664
O  O3  1  0.76870000  0.67450000  0.76271000  1.0 -0.5700272285
O  O4  1  0.23130000  0.32550000  0.23729000  1.0 -0.5700272285
O  O5  1  0.67820000  0.17720000  0.74247000  1.0 -0.5445244076
O  O6  1  0.32180000  0.82280000  0.25753000  1.0 -0.5445244076
O  O7  1  0.67940000  0.29960000  0.63532000  1.0 -0.5453836682
O  O8  1  0.32060000  0.70040000  0.36468000  1.0 -0.5445244076
O  O9  1  0.91530000  0.00550000  0.10389000  1.0 -0.6165032151
O  O10  1  0.08470000  0.99450000  0.89611000  1.0 -0.6165032151
O  O11  1  0.71400000  0.11720000  0.09466000  1.0 -0.5647469523
O  O12  1  0.28600000  0.88280000  0.90534000  1.0 -0.5700272285
O  O13  1  0.77490000  0.97560000  0.46749000  1.0 -0.1842134061
O  O14  1  0.22510000  0.02440000  0.53251000  1.0 -0.1842134061
