# DDEC6 charges by PACMAN v1.1 (https://github.com/mtap-research/PACMAN-charge/)
data_HEBNOT_FSR_pacman
_symmetry_space_group_name_H-M   'P 1'
_cell_length_a   9.69700000
_cell_length_b   17.55780000
_cell_length_c   17.93450000
_cell_angle_alpha   90.00000000
_cell_angle_beta   90.32700000
_cell_angle_gamma   90.00000000
_symmetry_Int_Tables_number   1
_chemical_formula_structural   U2ZnP4H9(C2O11)2
_chemical_formula_sum   'U8 Zn4 P16 H36 C16 O88'
_cell_volume   3053.44213098
_cell_formula_units_Z   4
loop_
 _symmetry_equiv_pos_site_id
 _symmetry_equiv_pos_as_xyz
  1  'x, y, z'
loop_
 _atom_site_type_symbol
 _atom_site_label
 _atom_site_symmetry_multiplicity
 _atom_site_fract_x
 _atom_site_fract_y
 _atom_site_fract_z
 _atom_site_occupancy
 _atom_site_charge
U  U1  1  0.60134000  0.72452000  0.78075000  1.0 2.5702695721
U  U2  1  0.39866000  0.22452000  0.71925000  1.0 2.5702695721
U  U3  1  0.39866000  0.27548000  0.21925000  1.0 2.5702695721
U  U4  1  0.60134000  0.77548000  0.28075000  1.0 2.5702695721
U  U5  1  0.09625000  0.78980000  0.56113000  1.0 2.5702695721
U  U6  1  0.90375000  0.28980000  0.93887000  1.0 2.5702695721
U  U7  1  0.90375000  0.21020000  0.43887000  1.0 2.5702695721
U  U8  1  0.09625000  0.71020000  0.06113000  1.0 2.5702695721
Zn  Zn1  1  0.76631000  0.99250000  0.55743000  1.0 1.0975385481
Zn  Zn2  1  0.23369000  0.49250000  0.94257000  1.0 1.0975385481
Zn  Zn3  1  0.23369000  0.00750000  0.44257000  1.0 1.0975385481
Zn  Zn4  1  0.76631000  0.50750000  0.05743000  1.0 1.0975385481
P  P1  1  0.72730000  0.82878000  0.61559000  1.0 1.3172626171
P  P2  1  0.27270000  0.32878000  0.88441000  1.0 1.3172626171
P  P3  1  0.27270000  0.17122000  0.38441000  1.0 1.3172626171
P  P4  1  0.72730000  0.67122000  0.11559000  1.0 1.3143798583
P  P5  1  0.22620000  0.76554000  0.75865000  1.0 1.2889918758
P  P6  1  0.77380000  0.26554000  0.74135000  1.0 1.2889918758
P  P7  1  0.77380000  0.23446000  0.24135000  1.0 1.2841065698
P  P8  1  0.22620000  0.73446000  0.25865000  1.0 1.2841065698
P  P9  1  0.79290000  0.84915000  0.45246000  1.0 1.29559462
P  P10  1  0.20710000  0.34915000  0.04754000  1.0 1.2889918758
P  P11  1  0.20710000  0.15085000  0.54754000  1.0 1.29559462
P  P12  1  0.79290000  0.65085000  0.95246000  1.0 1.2889918758
P  P13  1  0.29830000  0.66450000  0.88985000  1.0 1.2841065698
P  P14  1  0.70170000  0.16450000  0.61015000  1.0 1.2841065698
P  P15  1  0.70170000  0.33550000  0.11015000  1.0 1.2889918758
P  P16  1  0.29830000  0.83550000  0.38985000  1.0 1.2889918758
H  H1  1  0.10760000  0.82740000  0.82490000  1.0 0.4035882004
H  H2  1  0.89240000  0.32740000  0.67510000  1.0 0.4035882004
H  H3  1  0.89240000  0.17260000  0.17510000  1.0 0.4035882004
H  H4  1  0.10760000  0.67260000  0.32490000  1.0 0.4035882004
H  H5  1  0.03260000  0.62690000  0.84190000  1.0 0.3643072271
H  H6  1  0.96740000  0.12690000  0.65810000  1.0 0.3643072271
H  H7  1  0.96740000  0.37310000  0.15810000  1.0 0.3643072271
H  H8  1  0.03260000  0.87310000  0.34190000  1.0 0.3643072271
H  H9  1  0.50720000  0.81770000  0.47060000  1.0 0.3665617579
H  H10  1  0.49280000  0.31770000  0.02940000  1.0 0.3665617579
H  H11  1  0.49280000  0.18230000  0.52940000  1.0 0.3665617579
H  H12  1  0.50720000  0.68230000  0.97060000  1.0 0.3665617579
H  H13  1  0.64590000  0.70350000  0.46280000  1.0 0.1518591442
H  H14  1  0.35410000  0.20350000  0.03720000  1.0 0.1518591442
H  H15  1  0.35410000  0.29650000  0.53720000  1.0 0.1518591442
H  H16  1  0.64590000  0.79650000  0.96280000  1.0 0.1518591442
H  H17  1  0.76910000  0.69780000  0.51950000  1.0 0.1518591442
H  H18  1  0.23090000  0.19780000  0.98050000  1.0 0.1518591442
H  H19  1  0.23090000  0.30220000  0.48050000  1.0 0.1518591442
H  H20  1  0.76910000  0.80220000  0.01950000  1.0 0.1518591442
H  H21  1  0.61680000  0.69500000  0.54820000  1.0 0.1584616896
H  H22  1  0.38320000  0.19500000  0.95180000  1.0 0.1584616896
H  H23  1  0.38320000  0.30500000  0.45180000  1.0 0.1584616896
H  H24  1  0.61680000  0.80500000  0.04820000  1.0 0.1584616896
H  H25  1  0.15110000  0.61170000  0.70740000  1.0 0.1584616896
H  H26  1  0.84890000  0.11170000  0.79260000  1.0 0.1584616896
H  H27  1  0.84890000  0.38830000  0.29260000  1.0 0.1584616896
H  H28  1  0.15110000  0.88830000  0.20740000  1.0 0.1584616896
H  H29  1  0.30960000  0.61500000  0.72470000  1.0 0.1584616896
H  H30  1  0.69040000  0.11500000  0.77530000  1.0 0.1518591442
H  H31  1  0.69040000  0.38500000  0.27530000  1.0 0.1584616896
H  H32  1  0.30960000  0.88500000  0.22470000  1.0 0.1584616896
H  H33  1  0.21420000  0.56030000  0.77040000  1.0 0.1518591442
H  H34  1  0.78580000  0.06030000  0.72960000  1.0 0.1518591442
H  H35  1  0.78580000  0.43970000  0.22960000  1.0 0.1518591442
H  H36  1  0.21420000  0.93970000  0.27040000  1.0 0.1518591442
C  C1  1  0.67750000  0.80420000  0.52030000  1.0 -0.1797154578
C  C2  1  0.32250000  0.30420000  0.97970000  1.0 -0.1797154578
C  C3  1  0.32250000  0.19580000  0.47970000  1.0 -0.1797154578
C  C4  1  0.67750000  0.69580000  0.02030000  1.0 -0.1797154578
C  C5  1  0.67730000  0.71690000  0.51190000  1.0 -0.3898988752
C  C6  1  0.32270000  0.21690000  0.98810000  1.0 -0.3898988752
C  C7  1  0.32270000  0.28310000  0.48810000  1.0 -0.3898988752
C  C8  1  0.67730000  0.78310000  0.01190000  1.0 -0.3898988752
C  C9  1  0.19450000  0.67300000  0.80380000  1.0 -0.1797154578
C  C10  1  0.80550000  0.17300000  0.69620000  1.0 -0.1797154578
C  C11  1  0.80550000  0.32700000  0.19620000  1.0 -0.1797154578
C  C12  1  0.19450000  0.82700000  0.30380000  1.0 -0.1797154578
C  C13  1  0.21980000  0.60890000  0.74610000  1.0 -0.397696366
C  C14  1  0.78020000  0.10890000  0.75390000  1.0 -0.397696366
C  C15  1  0.78020000  0.39110000  0.25390000  1.0 -0.397696366
C  C16  1  0.21980000  0.89110000  0.24610000  1.0 -0.397696366
O  O1  1  0.64540000  0.81340000  0.82160000  1.0 -0.6493724284
O  O2  1  0.35460000  0.31340000  0.67840000  1.0 -0.6493724284
O  O3  1  0.35460000  0.18660000  0.17840000  1.0 -0.6493724284
O  O4  1  0.64540000  0.68660000  0.32160000  1.0 -0.6493724284
O  O5  1  0.55810000  0.63620000  0.73860000  1.0 -0.6553240842
O  O6  1  0.44190000  0.13620000  0.76140000  1.0 -0.6553240842
O  O7  1  0.44190000  0.36380000  0.26140000  1.0 -0.6553240842
O  O8  1  0.55810000  0.86380000  0.23860000  1.0 -0.6553240842
O  O9  1  0.63590000  0.78300000  0.66680000  1.0 -0.7214172012
O  O10  1  0.36410000  0.28300000  0.83320000  1.0 -0.7214172012
O  O11  1  0.36410000  0.21700000  0.33320000  1.0 -0.7214172012
O  O12  1  0.63590000  0.71700000  0.16680000  1.0 -0.7214172012
O  O13  1  0.43790000  0.70260000  0.87600000  1.0 -0.7654154725
O  O14  1  0.56210000  0.20260000  0.62400000  1.0 -0.7654154725
O  O15  1  0.56210000  0.29740000  0.12400000  1.0 -0.7654154725
O  O16  1  0.43790000  0.79740000  0.37600000  1.0 -0.7654154725
O  O17  1  0.37700000  0.76870000  0.73910000  1.0 -0.7266685493
O  O18  1  0.62300000  0.26870000  0.76090000  1.0 -0.7266685493
O  O19  1  0.62300000  0.23130000  0.26090000  1.0 -0.7266685493
O  O20  1  0.37700000  0.73130000  0.23910000  1.0 -0.7266685493
O  O21  1  0.73280000  0.83390000  0.37560000  1.0 -0.7505968413
O  O22  1  0.26720000  0.33390000  0.12440000  1.0 -0.7505968413
O  O23  1  0.26720000  0.16610000  0.62440000  1.0 -0.7505968413
O  O24  1  0.73280000  0.66610000  0.87560000  1.0 -0.7505968413
O  O25  1  0.83800000  0.70150000  0.73520000  1.0 -0.0901153679
O  O26  1  0.16200000  0.20150000  0.76480000  1.0 -0.0901153679
O  O27  1  0.16200000  0.29850000  0.26480000  1.0 -0.0901153679
O  O28  1  0.83800000  0.79850000  0.23520000  1.0 -0.0901153679
O  O29  1  0.06430000  0.69180000  0.55130000  1.0 -0.6493724284
O  O30  1  0.93570000  0.19180000  0.94870000  1.0 -0.6447404749
O  O31  1  0.93570000  0.30820000  0.44870000  1.0 -0.6493724284
O  O32  1  0.06430000  0.80820000  0.05130000  1.0 -0.6493724284
O  O33  1  0.12500000  0.88900000  0.56910000  1.0 -0.5921125339
O  O34  1  0.87500000  0.38900000  0.93090000  1.0 -0.5921125339
O  O35  1  0.87500000  0.11100000  0.43090000  1.0 -0.5921125339
O  O36  1  0.12500000  0.61100000  0.06910000  1.0 -0.5953046209
O  O37  1  0.87940000  0.80650000  0.62160000  1.0 -0.7634847737
O  O38  1  0.12060000  0.30650000  0.87840000  1.0 -0.7634847737
O  O39  1  0.12060000  0.19350000  0.37840000  1.0 -0.7634847737
O  O40  1  0.87940000  0.69350000  0.12160000  1.0 -0.7634847737
O  O41  1  0.34280000  0.76730000  0.58750000  1.0 -0.1568901565
O  O42  1  0.65720000  0.26730000  0.91250000  1.0 -0.1568901565
O  O43  1  0.65720000  0.23270000  0.41250000  1.0 -0.1545642144
O  O44  1  0.34280000  0.73270000  0.08750000  1.0 -0.1568901565
O  O45  1  0.21800000  0.70600000  0.95000000  1.0 -0.7505968413
O  O46  1  0.78200000  0.20600000  0.55000000  1.0 -0.7505968413
O  O47  1  0.78200000  0.29400000  0.05000000  1.0 -0.7505968413
O  O48  1  0.21800000  0.79400000  0.45000000  1.0 -0.7505968413
O  O49  1  0.93450000  0.81070000  0.46270000  1.0 -0.7505968413
O  O50  1  0.06550000  0.31070000  0.03730000  1.0 -0.7505968413
O  O51  1  0.06550000  0.18930000  0.53730000  1.0 -0.7505968413
O  O52  1  0.93450000  0.68930000  0.96270000  1.0 -0.7505968413
O  O53  1  0.13090000  0.76900000  0.69100000  1.0 -0.7505968413
O  O54  1  0.86910000  0.26900000  0.80900000  1.0 -0.7505968413
O  O55  1  0.86910000  0.23100000  0.30900000  1.0 -0.7505968413
O  O56  1  0.13090000  0.73100000  0.19100000  1.0 -0.7505968413
O  O57  1  0.19090000  0.82740000  0.81740000  1.0 -0.5701976246
O  O58  1  0.80910000  0.32740000  0.68260000  1.0 -0.5701976246
O  O59  1  0.80910000  0.17260000  0.18260000  1.0 -0.5701976246
O  O60  1  0.19090000  0.67260000  0.31740000  1.0 -0.5701976246
O  O61  1  0.70330000  0.91380000  0.62770000  1.0 -0.7006919808
O  O62  1  0.29670000  0.41380000  0.87230000  1.0 -0.7006919808
O  O63  1  0.29670000  0.08620000  0.37230000  1.0 -0.7006919808
O  O64  1  0.70330000  0.58620000  0.12770000  1.0 -0.7006919808
O  O65  1  0.04970000  0.66930000  0.82540000  1.0 -0.3898988752
O  O66  1  0.95030000  0.16930000  0.67460000  1.0 -0.3898988752
O  O67  1  0.95030000  0.33070000  0.17460000  1.0 -0.3898988752
O  O68  1  0.04970000  0.83070000  0.32540000  1.0 -0.3898988752
O  O69  1  0.54180000  0.83660000  0.50810000  1.0 -0.4151822752
O  O70  1  0.45820000  0.33660000  0.99190000  1.0 -0.4151822752
O  O71  1  0.45820000  0.16340000  0.49190000  1.0 -0.4136559195
O  O72  1  0.54180000  0.66340000  0.00810000  1.0 -0.4136559195
O  O73  1  0.80030000  0.93330000  0.46840000  1.0 -0.6713401056
O  O74  1  0.19970000  0.43330000  0.03160000  1.0 -0.6713401056
O  O75  1  0.19970000  0.06670000  0.53160000  1.0 -0.6713401056
O  O76  1  0.80030000  0.56670000  0.96840000  1.0 -0.6713401056
O  O77  1  0.96030000  0.01250000  0.59980000  1.0 -0.2724468337
O  O78  1  0.03970000  0.51250000  0.90020000  1.0 -0.2755467719
O  O79  1  0.03970000  0.98750000  0.40020000  1.0 -0.2724468337
O  O80  1  0.96030000  0.48750000  0.09980000  1.0 -0.2724468337
O  O81  1  0.31860000  0.58060000  0.90650000  1.0 -0.691491825
O  O82  1  0.68140000  0.08060000  0.59350000  1.0 -0.691491825
O  O83  1  0.68140000  0.41940000  0.09350000  1.0 -0.691491825
O  O84  1  0.31860000  0.91940000  0.40650000  1.0 -0.691491825
O  O85  1  0.55790000  0.00540000  0.48800000  1.0 0.1442149901
O  O86  1  0.44210000  0.50540000  0.01200000  1.0 0.1442149901
O  O87  1  0.44210000  0.99460000  0.51200000  1.0 0.1442149901
O  O88  1  0.55790000  0.49460000  0.98800000  1.0 0.1518591442
