# DDEC6 charges by PACMAN v1.1 (https://github.com/mtap-research/PACMAN-charge/)
data_HEBNIN_ASR_pacman
_symmetry_space_group_name_H-M   'P 1'
_cell_length_a   9.71110000
_cell_length_b   16.73870000
_cell_length_c   18.02260000
_cell_angle_alpha   90.00000000
_cell_angle_beta   90.29000000
_cell_angle_gamma   90.00000000
_symmetry_Int_Tables_number   1
_chemical_formula_structural   U4ZnP8H20(C2O7)4
_chemical_formula_sum   'U8 Zn2 P16 H40 C16 O56'
_cell_volume   2929.55754357
_cell_formula_units_Z   2
loop_
 _symmetry_equiv_pos_site_id
 _symmetry_equiv_pos_as_xyz
  1  'x, y, z'
loop_
 _atom_site_type_symbol
 _atom_site_label
 _atom_site_symmetry_multiplicity
 _atom_site_fract_x
 _atom_site_fract_y
 _atom_site_fract_z
 _atom_site_occupancy
 _atom_site_charge
U  U1  1  0.11192000  0.28591000  0.49670000  1.0 2.177668055
U  U2  1  0.88808000  0.78591000  0.00330000  1.0 2.177668055
U  U3  1  0.88808000  0.71409000  0.50330000  1.0 2.177668055
U  U4  1  0.11192000  0.21409000  0.99670000  1.0 2.177668055
U  U5  1  0.60026000  0.29049000  0.21216000  1.0 2.1602097353
U  U6  1  0.39974000  0.79049000  0.28784000  1.0 2.1602097353
U  U7  1  0.39974000  0.70951000  0.78784000  1.0 2.1602097353
U  U8  1  0.60026000  0.20951000  0.71216000  1.0 2.1602097353
Zn  Zn1  1  0.50000000  0.50000000  0.50000000  1.0 1.1468484005
Zn  Zn2  1  0.50000000  0.00000000  0.00000000  1.0 1.1468484005
P  P1  1  0.41310000  0.35082000  0.38871000  1.0 1.2604213109
P  P2  1  0.58690000  0.85082000  0.11129000  1.0 1.2604213109
P  P3  1  0.58690000  0.64918000  0.61129000  1.0 1.2604213109
P  P4  1  0.41310000  0.14918000  0.88871000  1.0 1.2604213109
P  P5  1  0.47680000  0.31281000  0.54829000  1.0 1.2604213109
P  P6  1  0.52320000  0.81281000  0.95171000  1.0 1.2604213109
P  P7  1  0.52320000  0.68719000  0.45171000  1.0 1.2604213109
P  P8  1  0.47680000  0.18719000  0.04829000  1.0 1.2604213109
P  P9  1  0.97920000  0.25099000  0.19003000  1.0 1.2326962551
P  P10  1  0.02080000  0.75099000  0.30997000  1.0 1.2326962551
P  P11  1  0.02080000  0.74901000  0.80997000  1.0 1.2326962551
P  P12  1  0.97920000  0.24901000  0.69003000  1.0 1.2326962551
P  P13  1  0.91010000  0.35003000  0.32536000  1.0 1.2053392729
P  P14  1  0.08990000  0.85003000  0.17464000  1.0 1.2053392729
P  P15  1  0.08990000  0.64997000  0.67464000  1.0 1.2053392729
P  P16  1  0.91010000  0.14997000  0.82536000  1.0 1.2053392729
H  H1  1  0.95700000  0.45250000  0.37580000  1.0 0.3382919779
H  H2  1  0.04300000  0.95250000  0.12420000  1.0 0.3382919779
H  H3  1  0.04300000  0.54750000  0.62420000  1.0 0.3382919779
H  H4  1  0.95700000  0.04750000  0.87580000  1.0 0.3382919779
H  H5  1  0.08970000  0.17010000  0.24600000  1.0 0.3636216124
H  H6  1  0.91030000  0.67010000  0.25400000  1.0 0.3636216124
H  H7  1  0.91030000  0.82990000  0.75400000  1.0 0.3636216124
H  H8  1  0.08970000  0.32990000  0.74600000  1.0 0.3636216124
H  H9  1  0.67530000  0.32760000  0.39780000  1.0 0.3071043691
H  H10  1  0.32470000  0.82760000  0.10220000  1.0 0.3071043691
H  H11  1  0.32470000  0.67240000  0.60220000  1.0 0.3071043691
H  H12  1  0.67530000  0.17240000  0.89780000  1.0 0.3071043691
H  H13  1  0.16480000  0.37810000  0.29740000  1.0 0.3048023483
H  H14  1  0.83520000  0.87810000  0.20260000  1.0 0.3048023483
H  H15  1  0.83520000  0.62190000  0.70260000  1.0 0.3048023483
H  H16  1  0.16480000  0.12190000  0.79740000  1.0 0.3048023483
H  H17  1  0.57840000  0.17430000  0.46500000  1.0 0.1367739042
H  H18  1  0.42160000  0.67430000  0.03500000  1.0 0.1367739042
H  H19  1  0.42160000  0.82570000  0.53500000  1.0 0.1367739042
H  H20  1  0.57840000  0.32570000  0.96500000  1.0 0.1367739042
H  H21  1  0.42150000  0.18360000  0.44610000  1.0 0.0982370539
H  H22  1  0.57850000  0.68360000  0.05390000  1.0 0.0982370539
H  H23  1  0.57850000  0.81640000  0.55390000  1.0 0.0982370539
H  H24  1  0.42150000  0.31640000  0.94610000  1.0 0.0982370539
H  H25  1  0.53170000  0.19290000  0.38340000  1.0 0.0982370539
H  H26  1  0.46830000  0.69290000  0.11660000  1.0 0.0982370539
H  H27  1  0.46830000  0.80710000  0.61660000  1.0 0.0982370539
H  H28  1  0.53170000  0.30710000  0.88340000  1.0 0.0982370539
H  H29  1  0.03840000  0.40850000  0.14390000  1.0 0.1228380477
H  H30  1  0.96160000  0.90850000  0.35610000  1.0 0.1228380477
H  H31  1  0.96160000  0.59150000  0.85610000  1.0 0.1228380477
H  H32  1  0.03840000  0.09150000  0.64390000  1.0 0.1228380477
H  H33  1  0.88690000  0.41210000  0.17330000  1.0 0.0737650873
H  H34  1  0.11310000  0.91210000  0.32670000  1.0 0.0737650873
H  H35  1  0.11310000  0.58790000  0.82670000  1.0 0.0737650873
H  H36  1  0.88690000  0.08790000  0.67330000  1.0 0.0737650873
H  H37  1  0.00220000  0.46350000  0.21150000  1.0 0.1081437332
H  H38  1  0.99780000  0.96350000  0.28850000  1.0 0.1081437332
H  H39  1  0.99780000  0.53650000  0.78850000  1.0 0.1081437332
H  H40  1  0.00220000  0.03650000  0.71150000  1.0 0.1081437332
C  C1  1  0.52180000  0.29190000  0.45100000  1.0 -0.2300964432
C  C2  1  0.47820000  0.79190000  0.04900000  1.0 -0.2300964432
C  C3  1  0.47820000  0.70810000  0.54900000  1.0 -0.2300964432
C  C4  1  0.52180000  0.20810000  0.95100000  1.0 -0.2300964432
C  C5  1  0.51250000  0.20230000  0.43490000  1.0 -0.4487881312
C  C6  1  0.48750000  0.70230000  0.06510000  1.0 -0.4487881312
C  C7  1  0.48750000  0.79770000  0.56510000  1.0 -0.4487881312
C  C8  1  0.51250000  0.29770000  0.93490000  1.0 -0.4487881312
C  C9  1  0.01350000  0.34470000  0.24050000  1.0 -0.2520106906
C  C10  1  0.98650000  0.84470000  0.25950000  1.0 -0.2520106906
C  C11  1  0.98650000  0.65530000  0.75950000  1.0 -0.2520106906
C  C12  1  0.01350000  0.15530000  0.74050000  1.0 -0.2520106906
C  C13  1  0.98240000  0.41360000  0.18730000  1.0 -0.4388755212
C  C14  1  0.01760000  0.91360000  0.31270000  1.0 -0.4388755212
C  C15  1  0.01760000  0.58640000  0.81270000  1.0 -0.4388755212
C  C16  1  0.98240000  0.08640000  0.68730000  1.0 -0.4388755212
O  O1  1  0.32600000  0.28680000  0.55430000  1.0 -0.8845783273
O  O2  1  0.67400000  0.78680000  0.94570000  1.0 -0.8845783273
O  O3  1  0.67400000  0.71320000  0.44570000  1.0 -0.8845783273
O  O4  1  0.32600000  0.21320000  0.05430000  1.0 -0.8845783273
O  O5  1  0.98240000  0.30570000  0.38550000  1.0 -0.8656484285
O  O6  1  0.01760000  0.80570000  0.11450000  1.0 -0.8656484285
O  O7  1  0.01760000  0.69430000  0.61450000  1.0 -0.8656484285
O  O8  1  0.98240000  0.19430000  0.88550000  1.0 -0.8656484285
O  O9  1  0.07310000  0.24860000  0.12410000  1.0 -0.8598796923
O  O10  1  0.92690000  0.74860000  0.37590000  1.0 -0.8598796923
O  O11  1  0.92690000  0.75140000  0.87590000  1.0 -0.8598796923
O  O12  1  0.07310000  0.25140000  0.62410000  1.0 -0.8598796923
O  O13  1  0.26810000  0.31790000  0.39810000  1.0 -0.8598796923
O  O14  1  0.73190000  0.81790000  0.10190000  1.0 -0.8598796923
O  O15  1  0.73190000  0.68210000  0.60190000  1.0 -0.8598796923
O  O16  1  0.26810000  0.18210000  0.89810000  1.0 -0.8598796923
O  O17  1  0.46870000  0.33530000  0.31140000  1.0 -0.8598796923
O  O18  1  0.53130000  0.83530000  0.18860000  1.0 -0.8598796923
O  O19  1  0.53130000  0.66470000  0.68860000  1.0 -0.8598796923
O  O20  1  0.46870000  0.16470000  0.81140000  1.0 -0.8598796923
O  O21  1  0.56930000  0.25850000  0.59460000  1.0 -0.8370871046
O  O22  1  0.43070000  0.75850000  0.90540000  1.0 -0.8370871046
O  O23  1  0.43070000  0.74150000  0.40540000  1.0 -0.8370871046
O  O24  1  0.56930000  0.24150000  0.09460000  1.0 -0.8370871046
O  O25  1  0.76660000  0.32030000  0.30790000  1.0 -0.8370871046
O  O26  1  0.23340000  0.82030000  0.19210000  1.0 -0.8370871046
O  O27  1  0.23340000  0.67970000  0.69210000  1.0 -0.8370871046
O  O28  1  0.76660000  0.17970000  0.80790000  1.0 -0.8370871046
O  O29  1  0.82710000  0.24990000  0.17100000  1.0 -0.8345563809
O  O30  1  0.17290000  0.74990000  0.32900000  1.0 -0.8345563809
O  O31  1  0.17290000  0.75010000  0.82900000  1.0 -0.8345563809
O  O32  1  0.82710000  0.25010000  0.67100000  1.0 -0.8345563809
O  O33  1  0.42520000  0.43720000  0.40950000  1.0 -0.776177744
O  O34  1  0.57480000  0.93720000  0.09050000  1.0 -0.776177744
O  O35  1  0.57480000  0.56280000  0.59050000  1.0 -0.776177744
O  O36  1  0.42520000  0.06280000  0.90950000  1.0 -0.776177744
O  O37  1  0.89800000  0.44070000  0.34500000  1.0 -0.6300618449
O  O38  1  0.10200000  0.94070000  0.15500000  1.0 -0.6300618449
O  O39  1  0.10200000  0.55930000  0.65500000  1.0 -0.6300618449
O  O40  1  0.89800000  0.05930000  0.84500000  1.0 -0.6300618449
O  O41  1  0.49800000  0.39940000  0.56570000  1.0 -0.7865488926
O  O42  1  0.50200000  0.89940000  0.93430000  1.0 -0.7865488926
O  O43  1  0.50200000  0.60060000  0.43430000  1.0 -0.7865488926
O  O44  1  0.49800000  0.10060000  0.06570000  1.0 -0.7865488926
O  O45  1  0.00700000  0.18010000  0.24510000  1.0 -0.6364038685
O  O46  1  0.99300000  0.68010000  0.25490000  1.0 -0.6364038685
O  O47  1  0.99300000  0.81990000  0.75490000  1.0 -0.6364038685
O  O48  1  0.00700000  0.31990000  0.74510000  1.0 -0.6364038685
O  O49  1  0.66170000  0.31720000  0.44160000  1.0 -0.4126229608
O  O50  1  0.33830000  0.81720000  0.05840000  1.0 -0.4126229608
O  O51  1  0.33830000  0.68280000  0.55840000  1.0 -0.4126229608
O  O52  1  0.66170000  0.18280000  0.94160000  1.0 -0.4126229608
O  O53  1  0.15580000  0.34840000  0.26150000  1.0 -0.371812808
O  O54  1  0.84420000  0.84840000  0.23850000  1.0 -0.371812808
O  O55  1  0.84420000  0.65160000  0.73850000  1.0 -0.371812808
O  O56  1  0.15580000  0.15160000  0.76150000  1.0 -0.371812808
