# DDEC6 charges by PACMAN v1.1 (https://github.com/mtap-research/PACMAN-charge/)
data_HEFDED_FSR_pacman
_symmetry_space_group_name_H-M   'P 1'
_cell_length_a   25.69650000
_cell_length_b   25.69650000
_cell_length_c   25.69650000
_cell_angle_alpha   77.27390000
_cell_angle_beta   77.27390000
_cell_angle_gamma   77.27390000
_symmetry_Int_Tables_number   1
_chemical_formula_structural   Mn4Mo2H85C74N34O
_chemical_formula_sum   'Mn24 Mo12 H510 C444 N204 O6'
_cell_volume   15879.01547994
_cell_formula_units_Z   6
loop_
 _symmetry_equiv_pos_site_id
 _symmetry_equiv_pos_as_xyz
  1  'x, y, z'
loop_
 _atom_site_type_symbol
 _atom_site_label
 _atom_site_symmetry_multiplicity
 _atom_site_fract_x
 _atom_site_fract_y
 _atom_site_fract_z
 _atom_site_occupancy
 _atom_site_charge
Mn  Mn1  1  0.51621000  0.94031000  0.70812000  1.0 0.7344825528
Mn  Mn2  1  0.94031000  0.70812000  0.51621000  1.0 0.7344825528
Mn  Mn3  1  0.70812000  0.51621000  0.94031000  1.0 0.7354322932
Mn  Mn4  1  0.48379000  0.05969000  0.29188000  1.0 0.7344825528
Mn  Mn5  1  0.05969000  0.29188000  0.48379000  1.0 0.7344825528
Mn  Mn6  1  0.29188000  0.48379000  0.05969000  1.0 0.7344825528
Mn  Mn7  1  0.23041000  0.79273000  0.01151000  1.0 0.7104480195
Mn  Mn8  1  0.79273000  0.01151000  0.23041000  1.0 0.7104480195
Mn  Mn9  1  0.01151000  0.23041000  0.79273000  1.0 0.7104480195
Mn  Mn10  1  0.76959000  0.20727000  0.98849000  1.0 0.7104480195
Mn  Mn11  1  0.20727000  0.98849000  0.76959000  1.0 0.7104480195
Mn  Mn12  1  0.98849000  0.76959000  0.20727000  1.0 0.7104480195
Mn  Mn13  1  0.49737000  0.82642000  0.00849000  1.0 0.7104480195
Mn  Mn14  1  0.82642000  0.00849000  0.49737000  1.0 0.7104480195
Mn  Mn15  1  0.00849000  0.49737000  0.82642000  1.0 0.7104480195
Mn  Mn16  1  0.50263000  0.17358000  0.99151000  1.0 0.7104480195
Mn  Mn17  1  0.17358000  0.99151000  0.50263000  1.0 0.7104480195
Mn  Mn18  1  0.99151000  0.50263000  0.17358000  1.0 0.7104480195
Mn  Mn19  1  0.48617000  0.74468000  0.30870000  1.0 0.7104480195
Mn  Mn20  1  0.74468000  0.30870000  0.48617000  1.0 0.7104480195
Mn  Mn21  1  0.30870000  0.48617000  0.74468000  1.0 0.7104480195
Mn  Mn22  1  0.51383000  0.25532000  0.69130000  1.0 0.7104480195
Mn  Mn23  1  0.25532000  0.69130000  0.51383000  1.0 0.7104480195
Mn  Mn24  1  0.69130000  0.51383000  0.25532000  1.0 0.7104480195
Mo  Mo1  1  0.35941000  0.92013000  0.88273000  1.0 0.6922434629
Mo  Mo2  1  0.92013000  0.88273000  0.35941000  1.0 0.6922434629
Mo  Mo3  1  0.88273000  0.35941000  0.92013000  1.0 0.6922434629
Mo  Mo4  1  0.64059000  0.07987000  0.11727000  1.0 0.6922434629
Mo  Mo5  1  0.07987000  0.11727000  0.64059000  1.0 0.6922434629
Mo  Mo6  1  0.11727000  0.64059000  0.07987000  1.0 0.6922434629
Mo  Mo7  1  0.54839000  0.64244000  0.14649000  1.0 0.6970637502
Mo  Mo8  1  0.64244000  0.14649000  0.54839000  1.0 0.6970637502
Mo  Mo9  1  0.14649000  0.54839000  0.64244000  1.0 0.6922434629
Mo  Mo10  1  0.45161000  0.35756000  0.85351000  1.0 0.6922434629
Mo  Mo11  1  0.35756000  0.85351000  0.45161000  1.0 0.6922434629
Mo  Mo12  1  0.85351000  0.45161000  0.35756000  1.0 0.6970637502
H  H1  1  0.59780000  0.95270000  0.62440000  1.0 0.3604207895
H  H2  1  0.95270000  0.62440000  0.59780000  1.0 0.3604207895
H  H3  1  0.62440000  0.59780000  0.95270000  1.0 0.3604207895
H  H4  1  0.40220000  0.04730000  0.37560000  1.0 0.3604207895
H  H5  1  0.04730000  0.37560000  0.40220000  1.0 0.3604207895
H  H6  1  0.37560000  0.40220000  0.04730000  1.0 0.3604207895
H  H7  1  0.58440000  0.86320000  0.83410000  1.0 0.1104660573
H  H8  1  0.86320000  0.83410000  0.58440000  1.0 0.1104660573
H  H9  1  0.83410000  0.58440000  0.86320000  1.0 0.1104660573
H  H10  1  0.41560000  0.13680000  0.16590000  1.0 0.1104660573
H  H11  1  0.13680000  0.16590000  0.41560000  1.0 0.1104660573
H  H12  1  0.16590000  0.41560000  0.13680000  1.0 0.1104660573
H  H13  1  0.61580000  0.88780000  0.77780000  1.0 0.1104660573
H  H14  1  0.88780000  0.77780000  0.61580000  1.0 0.1104660573
H  H15  1  0.77780000  0.61580000  0.88780000  1.0 0.1104660573
H  H16  1  0.38420000  0.11220000  0.22220000  1.0 0.1104660573
H  H17  1  0.11220000  0.22220000  0.38420000  1.0 0.1104660573
H  H18  1  0.22220000  0.38420000  0.11220000  1.0 0.1104660573
H  H19  1  0.52520000  0.94480000  0.83900000  1.0 0.1193933052
H  H20  1  0.94480000  0.83900000  0.52520000  1.0 0.1193933052
H  H21  1  0.83900000  0.52520000  0.94480000  1.0 0.1193933052
H  H22  1  0.47480000  0.05520000  0.16100000  1.0 0.1193933052
H  H23  1  0.05520000  0.16100000  0.47480000  1.0 0.1193933052
H  H24  1  0.16100000  0.47480000  0.05520000  1.0 0.1193933052
H  H25  1  0.58490000  0.95520000  0.82890000  1.0 0.1104660573
H  H26  1  0.95520000  0.82890000  0.58490000  1.0 0.1104660573
H  H27  1  0.82890000  0.58490000  0.95520000  1.0 0.1104660573
H  H28  1  0.41510000  0.04480000  0.17110000  1.0 0.1104660573
H  H29  1  0.04480000  0.17110000  0.41510000  1.0 0.1104660573
H  H30  1  0.17110000  0.41510000  0.04480000  1.0 0.1104660573
H  H31  1  0.52750000  0.05430000  0.78330000  1.0 0.1104660573
H  H32  1  0.05430000  0.78330000  0.52750000  1.0 0.1104660573
H  H33  1  0.78330000  0.52750000  0.05430000  1.0 0.1104660573
H  H34  1  0.47250000  0.94570000  0.21670000  1.0 0.1104660573
H  H35  1  0.94570000  0.21670000  0.47250000  1.0 0.1104660573
H  H36  1  0.21670000  0.47250000  0.94570000  1.0 0.1104660573
H  H37  1  0.47850000  0.02650000  0.78480000  1.0 0.1193933052
H  H38  1  0.02650000  0.78480000  0.47850000  1.0 0.1193933052
H  H39  1  0.78480000  0.47850000  0.02650000  1.0 0.1193933052
H  H40  1  0.52150000  0.97350000  0.21520000  1.0 0.1193933052
H  H41  1  0.97350000  0.21520000  0.52150000  1.0 0.1193933052
H  H42  1  0.21520000  0.52150000  0.97350000  1.0 0.1193933052
H  H43  1  0.47640000  0.09470000  0.71870000  1.0 0.1104660573
H  H44  1  0.09470000  0.71870000  0.47640000  1.0 0.1104660573
H  H45  1  0.71870000  0.47640000  0.09470000  1.0 0.1104660573
H  H46  1  0.52360000  0.90530000  0.28130000  1.0 0.1104660573
H  H47  1  0.90530000  0.28130000  0.52360000  1.0 0.1104660573
H  H48  1  0.28130000  0.52360000  0.90530000  1.0 0.1104660573
H  H49  1  0.53850000  0.07910000  0.69620000  1.0 0.12857839
H  H50  1  0.07910000  0.69620000  0.53850000  1.0 0.12857839
H  H51  1  0.69620000  0.53850000  0.07910000  1.0 0.12857839
H  H52  1  0.46150000  0.92090000  0.30380000  1.0 0.12857839
H  H53  1  0.92090000  0.30380000  0.46150000  1.0 0.12857839
H  H54  1  0.30380000  0.46150000  0.92090000  1.0 0.12857839
H  H55  1  0.47860000  0.11620000  0.57770000  1.0 0.1715965009
H  H56  1  0.11620000  0.57770000  0.47860000  1.0 0.1715965009
H  H57  1  0.57770000  0.47860000  0.11620000  1.0 0.1715965009
H  H58  1  0.52140000  0.88380000  0.42230000  1.0 0.1715965009
H  H59  1  0.88380000  0.42230000  0.52140000  1.0 0.1715965009
H  H60  1  0.42230000  0.52140000  0.88380000  1.0 0.1715965009
H  H61  1  0.42200000  0.11980000  0.61660000  1.0 0.1503911274
H  H62  1  0.11980000  0.61660000  0.42200000  1.0 0.1503911274
H  H63  1  0.61660000  0.42200000  0.11980000  1.0 0.1503911274
H  H64  1  0.57800000  0.88020000  0.38340000  1.0 0.1503911274
H  H65  1  0.88020000  0.38340000  0.57800000  1.0 0.1503911274
H  H66  1  0.38340000  0.57800000  0.88020000  1.0 0.1503911274
H  H67  1  0.47240000  0.12940000  0.63580000  1.0 0.1503911274
H  H68  1  0.12940000  0.63580000  0.47240000  1.0 0.1503911274
H  H69  1  0.63580000  0.47240000  0.12940000  1.0 0.1503911274
H  H70  1  0.52760000  0.87060000  0.36420000  1.0 0.1503911274
H  H71  1  0.87060000  0.36420000  0.52760000  1.0 0.1503911274
H  H72  1  0.36420000  0.52760000  0.87060000  1.0 0.1503911274
H  H73  1  0.43500000  0.05510000  0.54440000  1.0 0.1413670012
H  H74  1  0.05510000  0.54440000  0.43500000  1.0 0.1413670012
H  H75  1  0.54440000  0.43500000  0.05510000  1.0 0.1413670012
H  H76  1  0.56500000  0.94490000  0.45560000  1.0 0.1413670012
H  H77  1  0.94490000  0.45560000  0.56500000  1.0 0.1413670012
H  H78  1  0.45560000  0.56500000  0.94490000  1.0 0.1413670012
H  H79  1  0.42200000  0.98190000  0.50880000  1.0 0.1193933052
H  H80  1  0.98190000  0.50880000  0.42200000  1.0 0.1193933052
H  H81  1  0.50880000  0.42200000  0.98190000  1.0 0.1193933052
H  H82  1  0.57800000  0.01810000  0.49120000  1.0 0.1193933052
H  H83  1  0.01810000  0.49120000  0.57800000  1.0 0.1193933052
H  H84  1  0.49120000  0.57800000  0.01810000  1.0 0.1193933052
H  H85  1  0.45050000  0.89240000  0.55030000  1.0 0.1503911274
H  H86  1  0.89240000  0.55030000  0.45050000  1.0 0.1503911274
H  H87  1  0.55030000  0.45050000  0.89240000  1.0 0.1503911274
H  H88  1  0.54950000  0.10760000  0.44970000  1.0 0.1503911274
H  H89  1  0.10760000  0.44970000  0.54950000  1.0 0.1503911274
H  H90  1  0.44970000  0.54950000  0.10760000  1.0 0.1503911274
H  H91  1  0.45870000  0.79630000  0.64720000  1.0 0.1590796583
H  H92  1  0.79630000  0.64720000  0.45870000  1.0 0.1590796583
H  H93  1  0.64720000  0.45870000  0.79630000  1.0 0.1590796583
H  H94  1  0.54130000  0.20370000  0.35280000  1.0 0.1590796583
H  H95  1  0.20370000  0.35280000  0.54130000  1.0 0.1503911274
H  H96  1  0.35280000  0.54130000  0.20370000  1.0 0.1590796583
H  H97  1  0.49200000  0.81360000  0.58940000  1.0 0.1503911274
H  H98  1  0.81360000  0.58940000  0.49200000  1.0 0.1503911274
H  H99  1  0.58940000  0.49200000  0.81360000  1.0 0.1503911274
H  H100  1  0.50800000  0.18640000  0.41060000  1.0 0.1503911274
H  H101  1  0.18640000  0.41060000  0.50800000  1.0 0.1503911274
H  H102  1  0.41060000  0.50800000  0.18640000  1.0 0.1503911274
H  H103  1  0.52210000  0.78210000  0.63700000  1.0 0.12857839
H  H104  1  0.78210000  0.63700000  0.52210000  1.0 0.12857839
H  H105  1  0.63700000  0.52210000  0.78210000  1.0 0.12857839
H  H106  1  0.47790000  0.21790000  0.36300000  1.0 0.12857839
H  H107  1  0.21790000  0.36300000  0.47790000  1.0 0.12857839
H  H108  1  0.36300000  0.47790000  0.21790000  1.0 0.12857839
H  H109  1  0.55120000  0.78200000  0.70190000  1.0 0.101217591
H  H110  1  0.78200000  0.70190000  0.55120000  1.0 0.101217591
H  H111  1  0.70190000  0.55120000  0.78200000  1.0 0.101217591
H  H112  1  0.44880000  0.21800000  0.29810000  1.0 0.101217591
H  H113  1  0.21800000  0.29810000  0.44880000  1.0 0.101217591
H  H114  1  0.29810000  0.44880000  0.21800000  1.0 0.101217591
H  H115  1  0.50170000  0.79810000  0.74730000  1.0 0.12857839
H  H116  1  0.79810000  0.74730000  0.50170000  1.0 0.12857839
H  H117  1  0.74730000  0.50170000  0.79810000  1.0 0.12857839
H  H118  1  0.49830000  0.20190000  0.25270000  1.0 0.12857839
H  H119  1  0.20190000  0.25270000  0.49830000  1.0 0.12857839
H  H120  1  0.25270000  0.49830000  0.20190000  1.0 0.12857839
H  H121  1  0.60200000  0.83010000  0.72570000  1.0 0.1193933052
H  H122  1  0.83010000  0.72570000  0.60200000  1.0 0.1193933052
H  H123  1  0.72570000  0.60200000  0.83010000  1.0 0.1193933052
H  H124  1  0.39800000  0.16990000  0.27430000  1.0 0.1193933052
H  H125  1  0.16990000  0.27430000  0.39800000  1.0 0.1193933052
H  H126  1  0.27430000  0.39800000  0.16990000  1.0 0.1193933052
H  H127  1  0.57790000  0.79360000  0.77880000  1.0 0.101217591
H  H128  1  0.79360000  0.77880000  0.57790000  1.0 0.101217591
H  H129  1  0.77880000  0.57790000  0.79360000  1.0 0.101217591
H  H130  1  0.42210000  0.20640000  0.22120000  1.0 0.101217591
H  H131  1  0.20640000  0.22120000  0.42210000  1.0 0.101217591
H  H132  1  0.22120000  0.42210000  0.20640000  1.0 0.101217591
H  H133  1  0.33630000  0.65630000  0.00590000  1.0 0.101217591
H  H134  1  0.65630000  0.00590000  0.33630000  1.0 0.101217591
H  H135  1  0.00590000  0.33630000  0.65630000  1.0 0.101217591
H  H136  1  0.66370000  0.34370000  0.99410000  1.0 0.101217591
H  H137  1  0.34370000  0.99410000  0.66370000  1.0 0.101217591
H  H138  1  0.99410000  0.66370000  0.34370000  1.0 0.101217591
H  H139  1  0.27680000  0.64550000  0.01530000  1.0 0.1193933052
H  H140  1  0.64550000  0.01530000  0.27680000  1.0 0.1193933052
H  H141  1  0.01530000  0.27680000  0.64550000  1.0 0.1193933052
H  H142  1  0.72320000  0.35450000  0.98470000  1.0 0.1193933052
H  H143  1  0.35450000  0.98470000  0.72320000  1.0 0.1193933052
H  H144  1  0.98470000  0.72320000  0.35450000  1.0 0.1193933052
H  H145  1  0.29830000  0.67660000  0.92430000  1.0 0.1104660573
H  H146  1  0.67660000  0.92430000  0.29830000  1.0 0.1104660573
H  H147  1  0.92430000  0.29830000  0.67660000  1.0 0.1104660573
H  H148  1  0.70170000  0.32340000  0.07570000  1.0 0.1104660573
H  H149  1  0.32340000  0.07570000  0.70170000  1.0 0.1104660573
H  H150  1  0.07570000  0.70170000  0.32340000  1.0 0.1104660573
H  H151  1  0.32260000  0.72410000  0.93350000  1.0 0.1193933052
H  H152  1  0.72410000  0.93350000  0.32260000  1.0 0.1193933052
H  H153  1  0.93350000  0.32260000  0.72410000  1.0 0.1193933052
H  H154  1  0.67740000  0.27590000  0.06650000  1.0 0.1193933052
H  H155  1  0.27590000  0.06650000  0.67740000  1.0 0.1193933052
H  H156  1  0.06650000  0.67740000  0.27590000  1.0 0.1193933052
H  H157  1  0.26250000  0.78850000  0.87880000  1.0 0.1104660573
H  H158  1  0.78850000  0.87880000  0.26250000  1.0 0.1104660573
H  H159  1  0.87880000  0.26250000  0.78850000  1.0 0.1104660573
H  H160  1  0.73750000  0.21150000  0.12120000  1.0 0.1104660573
H  H161  1  0.21150000  0.12120000  0.73750000  1.0 0.1104660573
H  H162  1  0.12120000  0.73750000  0.21150000  1.0 0.1104660573
H  H163  1  0.22380000  0.75130000  0.87340000  1.0 0.101217591
H  H164  1  0.75130000  0.87340000  0.22380000  1.0 0.101217591
H  H165  1  0.87340000  0.22380000  0.75130000  1.0 0.101217591
H  H166  1  0.77620000  0.24870000  0.12660000  1.0 0.101217591
H  H167  1  0.24870000  0.12660000  0.77620000  1.0 0.101217591
H  H168  1  0.12660000  0.77620000  0.24870000  1.0 0.101217591
H  H169  1  0.14990000  0.80270000  0.92680000  1.0 0.1104660573
H  H170  1  0.80270000  0.92680000  0.14990000  1.0 0.1104660573
H  H171  1  0.92680000  0.14990000  0.80270000  1.0 0.1104660573
H  H172  1  0.85010000  0.19730000  0.07320000  1.0 0.1104660573
H  H173  1  0.19730000  0.07320000  0.85010000  1.0 0.1104660573
H  H174  1  0.07320000  0.85010000  0.19730000  1.0 0.1104660573
H  H175  1  0.17330000  0.84030000  0.87360000  1.0 0.0917917824
H  H176  1  0.84030000  0.87360000  0.17330000  1.0 0.0917917824
H  H177  1  0.87360000  0.17330000  0.84030000  1.0 0.0917917824
H  H178  1  0.82670000  0.15970000  0.12640000  1.0 0.0917917824
H  H179  1  0.15970000  0.12640000  0.82670000  1.0 0.0917917824
H  H180  1  0.12640000  0.82670000  0.15970000  1.0 0.0917917824
H  H181  1  0.13670000  0.91570000  0.93140000  1.0 0.1104660573
H  H182  1  0.91570000  0.93140000  0.13670000  1.0 0.1104660573
H  H183  1  0.93140000  0.13670000  0.91570000  1.0 0.1104660573
H  H184  1  0.86330000  0.08430000  0.06860000  1.0 0.1104660573
H  H185  1  0.08430000  0.06860000  0.86330000  1.0 0.1104660573
H  H186  1  0.06860000  0.86330000  0.08430000  1.0 0.1104660573
H  H187  1  0.12030000  0.87010000  0.98050000  1.0 0.1104660573
H  H188  1  0.87010000  0.98050000  0.12030000  1.0 0.1104660573
H  H189  1  0.98050000  0.12030000  0.87010000  1.0 0.1104660573
H  H190  1  0.87970000  0.12990000  0.01950000  1.0 0.1104660573
H  H191  1  0.12990000  0.01950000  0.87970000  1.0 0.1104660573
H  H192  1  0.01950000  0.87970000  0.12990000  1.0 0.1104660573
H  H193  1  0.13730000  0.93920000  0.01650000  1.0 0.101217591
H  H194  1  0.93920000  0.01650000  0.13730000  1.0 0.101217591
H  H195  1  0.01650000  0.13730000  0.93920000  1.0 0.101217591
H  H196  1  0.86270000  0.06080000  0.98350000  1.0 0.101217591
H  H197  1  0.06080000  0.98350000  0.86270000  1.0 0.101217591
H  H198  1  0.98350000  0.86270000  0.06080000  1.0 0.101217591
H  H199  1  0.19400000  0.93880000  0.97790000  1.0 0.12857839
H  H200  1  0.93880000  0.97790000  0.19400000  1.0 0.12857839
H  H201  1  0.97790000  0.19400000  0.93880000  1.0 0.12857839
H  H202  1  0.80600000  0.06120000  0.02210000  1.0 0.12857839
H  H203  1  0.06120000  0.02210000  0.80600000  1.0 0.12857839
H  H204  1  0.02210000  0.80600000  0.06120000  1.0 0.12857839
H  H205  1  0.15360000  0.93440000  0.13280000  1.0 0.1503911274
H  H206  1  0.93440000  0.13280000  0.15360000  1.0 0.1503911274
H  H207  1  0.13280000  0.15360000  0.93440000  1.0 0.1503911274
H  H208  1  0.84640000  0.06560000  0.86720000  1.0 0.1503911274
H  H209  1  0.06560000  0.86720000  0.84640000  1.0 0.1503911274
H  H210  1  0.86720000  0.84640000  0.06560000  1.0 0.1503911274
H  H211  1  0.21410000  0.94270000  0.11710000  1.0 0.1503911274
H  H212  1  0.94270000  0.11710000  0.21410000  1.0 0.1503911274
H  H213  1  0.11710000  0.21410000  0.94270000  1.0 0.1503911274
H  H214  1  0.78590000  0.05730000  0.88290000  1.0 0.1503911274
H  H215  1  0.05730000  0.88290000  0.78590000  1.0 0.1503911274
H  H216  1  0.88290000  0.78590000  0.05730000  1.0 0.1503911274
H  H217  1  0.17500000  0.96600000  0.07530000  1.0 0.1503911274
H  H218  1  0.96600000  0.07530000  0.17500000  1.0 0.1503911274
H  H219  1  0.07530000  0.17500000  0.96600000  1.0 0.1503911274
H  H220  1  0.82500000  0.03400000  0.92470000  1.0 0.1503911274
H  H221  1  0.03400000  0.92470000  0.82500000  1.0 0.1503911274
H  H222  1  0.92470000  0.82500000  0.03400000  1.0 0.1503911274
H  H223  1  0.22670000  0.86540000  0.18450000  1.0 0.1413670012
H  H224  1  0.86540000  0.18450000  0.22670000  1.0 0.1413670012
H  H225  1  0.18450000  0.22670000  0.86540000  1.0 0.1413670012
H  H226  1  0.77330000  0.13460000  0.81550000  1.0 0.1413670012
H  H227  1  0.13460000  0.81550000  0.77330000  1.0 0.1413670012
H  H228  1  0.81550000  0.77330000  0.13460000  1.0 0.1413670012
H  H229  1  0.26910000  0.78290000  0.23210000  1.0 0.12857839
H  H230  1  0.78290000  0.23210000  0.26910000  1.0 0.12857839
H  H231  1  0.23210000  0.26910000  0.78290000  1.0 0.12857839
H  H232  1  0.73090000  0.21710000  0.76790000  1.0 0.12857839
H  H233  1  0.21710000  0.76790000  0.73090000  1.0 0.12857839
H  H234  1  0.76790000  0.73090000  0.21710000  1.0 0.12857839
H  H235  1  0.29180000  0.70820000  0.19410000  1.0 0.1413670012
H  H236  1  0.70820000  0.19410000  0.29180000  1.0 0.1413670012
H  H237  1  0.19410000  0.29180000  0.70820000  1.0 0.1413670012
H  H238  1  0.70820000  0.29180000  0.80590000  1.0 0.1413670012
H  H239  1  0.29180000  0.80590000  0.70820000  1.0 0.1413670012
H  H240  1  0.80590000  0.70820000  0.29180000  1.0 0.1413670012
H  H241  1  0.28830000  0.61720000  0.11250000  1.0 0.1590796583
H  H242  1  0.61720000  0.11250000  0.28830000  1.0 0.1590796583
H  H243  1  0.11250000  0.28830000  0.61720000  1.0 0.1590796583
H  H244  1  0.71170000  0.38280000  0.88750000  1.0 0.1590796583
H  H245  1  0.38280000  0.88750000  0.71170000  1.0 0.1590796583
H  H246  1  0.88750000  0.71170000  0.38280000  1.0 0.1590796583
H  H247  1  0.34500000  0.63390000  0.10570000  1.0 0.1503911274
H  H248  1  0.63390000  0.10570000  0.34500000  1.0 0.1503911274
H  H249  1  0.10570000  0.34500000  0.63390000  1.0 0.1503911274
H  H250  1  0.65500000  0.36610000  0.89430000  1.0 0.1503911274
H  H251  1  0.36610000  0.89430000  0.65500000  1.0 0.1503911274
H  H252  1  0.89430000  0.65500000  0.36610000  1.0 0.1503911274
H  H253  1  0.30110000  0.64190000  0.15780000  1.0 0.1590796583
H  H254  1  0.64190000  0.15780000  0.30110000  1.0 0.1590796583
H  H255  1  0.15780000  0.30110000  0.64190000  1.0 0.1590796583
H  H256  1  0.69890000  0.35810000  0.84220000  1.0 0.1590796583
H  H257  1  0.35810000  0.84220000  0.69890000  1.0 0.1590796583
H  H258  1  0.84220000  0.69890000  0.35810000  1.0 0.1590796583
H  H259  1  0.48860000  0.69350000  0.95530000  1.0 0.1193933052
H  H260  1  0.69350000  0.95530000  0.48860000  1.0 0.1193933052
H  H261  1  0.95530000  0.48860000  0.69350000  1.0 0.1193933052
H  H262  1  0.51140000  0.30650000  0.04470000  1.0 0.1193933052
H  H263  1  0.30650000  0.04470000  0.51140000  1.0 0.1193933052
H  H264  1  0.04470000  0.51140000  0.30650000  1.0 0.1193933052
H  H265  1  0.46740000  0.75370000  0.92920000  1.0 0.1193933052
H  H266  1  0.75370000  0.92920000  0.46740000  1.0 0.1193933052
H  H267  1  0.92920000  0.46740000  0.75370000  1.0 0.1193933052
H  H268  1  0.53260000  0.24630000  0.07080000  1.0 0.1193933052
H  H269  1  0.24630000  0.07080000  0.53260000  1.0 0.1193933052
H  H270  1  0.07080000  0.53260000  0.24630000  1.0 0.1193933052
H  H271  1  0.44720000  0.71200000  0.04060000  1.0 0.1104660573
H  H272  1  0.71200000  0.04060000  0.44720000  1.0 0.1104660573
H  H273  1  0.04060000  0.44720000  0.71200000  1.0 0.1104660573
H  H274  1  0.55280000  0.28800000  0.95940000  1.0 0.1104660573
H  H275  1  0.28800000  0.95940000  0.55280000  1.0 0.1104660573
H  H276  1  0.95940000  0.55280000  0.28800000  1.0 0.1104660573
H  H277  1  0.40400000  0.72400000  0.00250000  1.0 0.1104660573
H  H278  1  0.72400000  0.00250000  0.40400000  1.0 0.1104660573
H  H279  1  0.00250000  0.40400000  0.72400000  1.0 0.1104660573
H  H280  1  0.59600000  0.27600000  0.99750000  1.0 0.1104660573
H  H281  1  0.27600000  0.99750000  0.59600000  1.0 0.1104660573
H  H282  1  0.99750000  0.59600000  0.27600000  1.0 0.1104660573
H  H283  1  0.35280000  0.78640000  0.06810000  1.0 0.101217591
H  H284  1  0.78640000  0.06810000  0.35280000  1.0 0.101217591
H  H285  1  0.06810000  0.35280000  0.78640000  1.0 0.101217591
H  H286  1  0.64720000  0.21360000  0.93190000  1.0 0.101217591
H  H287  1  0.21360000  0.93190000  0.64720000  1.0 0.101217591
H  H288  1  0.93190000  0.64720000  0.21360000  1.0 0.101217591
H  H289  1  0.40370000  0.77390000  0.09630000  1.0 0.1104660573
H  H290  1  0.77390000  0.09630000  0.40370000  1.0 0.1104660573
H  H291  1  0.09630000  0.40370000  0.77390000  1.0 0.1104660573
H  H292  1  0.59630000  0.22610000  0.90370000  1.0 0.1104660573
H  H293  1  0.22610000  0.90370000  0.59630000  1.0 0.1104660573
H  H294  1  0.90370000  0.59630000  0.22610000  1.0 0.1104660573
H  H295  1  0.36000000  0.86030000  0.11000000  1.0 0.101217591
H  H296  1  0.86030000  0.11000000  0.36000000  1.0 0.101217591
H  H297  1  0.11000000  0.36000000  0.86030000  1.0 0.101217591
H  H298  1  0.64000000  0.13970000  0.89000000  1.0 0.101217591
H  H299  1  0.13970000  0.89000000  0.64000000  1.0 0.101217591
H  H300  1  0.89000000  0.64000000  0.13970000  1.0 0.101217591
H  H301  1  0.35340000  0.87880000  0.04890000  1.0 0.1193933052
H  H302  1  0.87880000  0.04890000  0.35340000  1.0 0.1193933052
H  H303  1  0.04890000  0.35340000  0.87880000  1.0 0.1193933052
H  H304  1  0.64660000  0.12120000  0.95110000  1.0 0.1193933052
H  H305  1  0.12120000  0.95110000  0.64660000  1.0 0.1193933052
H  H306  1  0.95110000  0.64660000  0.12120000  1.0 0.1193933052
H  H307  1  0.36250000  0.94310000  0.11830000  1.0 0.1590796583
H  H308  1  0.94310000  0.11830000  0.36250000  1.0 0.1590796583
H  H309  1  0.11830000  0.36250000  0.94310000  1.0 0.1590796583
H  H310  1  0.63750000  0.05690000  0.88170000  1.0 0.1590796583
H  H311  1  0.05690000  0.88170000  0.63750000  1.0 0.1590796583
H  H312  1  0.88170000  0.63750000  0.05690000  1.0 0.1590796583
H  H313  1  0.40870000  0.96920000  0.12760000  1.0 0.1413670012
H  H314  1  0.96920000  0.12760000  0.40870000  1.0 0.1413670012
H  H315  1  0.12760000  0.40870000  0.96920000  1.0 0.1413670012
H  H316  1  0.59130000  0.03080000  0.87240000  1.0 0.1413670012
H  H317  1  0.03080000  0.87240000  0.59130000  1.0 0.1413670012
H  H318  1  0.87240000  0.59130000  0.03080000  1.0 0.1413670012
H  H319  1  0.38350000  0.99090000  0.07500000  1.0 0.1590796583
H  H320  1  0.99090000  0.07500000  0.38350000  1.0 0.1590796583
H  H321  1  0.07500000  0.38350000  0.99090000  1.0 0.1590796583
H  H322  1  0.61650000  0.00910000  0.92500000  1.0 0.1590796583
H  H323  1  0.00910000  0.92500000  0.61650000  1.0 0.1590796583
H  H324  1  0.92500000  0.61650000  0.00910000  1.0 0.1590796583
H  H325  1  0.48820000  0.00210000  0.08240000  1.0 0.1413670012
H  H326  1  0.00210000  0.08240000  0.48820000  1.0 0.1413670012
H  H327  1  0.08240000  0.48820000  0.00210000  1.0 0.1413670012
H  H328  1  0.51180000  0.99790000  0.91760000  1.0 0.1413670012
H  H329  1  0.99790000  0.91760000  0.51180000  1.0 0.1413670012
H  H330  1  0.91760000  0.51180000  0.99790000  1.0 0.1413670012
H  H331  1  0.57880000  0.00260000  0.05760000  1.0 0.1193933052
H  H332  1  0.00260000  0.05760000  0.57880000  1.0 0.1193933052
H  H333  1  0.05760000  0.57880000  0.00260000  1.0 0.1193933052
H  H334  1  0.42120000  0.99740000  0.94240000  1.0 0.1193933052
H  H335  1  0.99740000  0.94240000  0.42120000  1.0 0.1193933052
H  H336  1  0.94240000  0.42120000  0.99740000  1.0 0.1193933052
H  H337  1  0.63760000  0.94110000  0.00960000  1.0 0.1413670012
H  H338  1  0.94110000  0.00960000  0.63760000  1.0 0.1413670012
H  H339  1  0.00960000  0.63760000  0.94110000  1.0 0.1413670012
H  H340  1  0.36240000  0.05890000  0.99040000  1.0 0.1413670012
H  H341  1  0.05890000  0.99040000  0.36240000  1.0 0.1413670012
H  H342  1  0.99040000  0.36240000  0.05890000  1.0 0.1413670012
H  H343  1  0.68870000  0.85580000  0.93820000  1.0 0.1413670012
H  H344  1  0.85580000  0.93820000  0.68870000  1.0 0.1413670012
H  H345  1  0.93820000  0.68870000  0.85580000  1.0 0.1413670012
H  H346  1  0.31130000  0.14420000  0.06180000  1.0 0.1413670012
H  H347  1  0.14420000  0.06180000  0.31130000  1.0 0.1413670012
H  H348  1  0.06180000  0.31130000  0.14420000  1.0 0.1413670012
H  H349  1  0.68230000  0.87510000  0.99340000  1.0 0.1413670012
H  H350  1  0.87510000  0.99340000  0.68230000  1.0 0.1413670012
H  H351  1  0.99340000  0.68230000  0.87510000  1.0 0.1413670012
H  H352  1  0.31770000  0.12490000  0.00660000  1.0 0.1413670012
H  H353  1  0.12490000  0.00660000  0.31770000  1.0 0.1413670012
H  H354  1  0.00660000  0.31770000  0.12490000  1.0 0.1413670012
H  H355  1  0.69130000  0.81300000  0.99190000  1.0 0.1590796583
H  H356  1  0.81300000  0.99190000  0.69130000  1.0 0.1590796583
H  H357  1  0.99190000  0.69130000  0.81300000  1.0 0.1590796583
H  H358  1  0.30870000  0.18700000  0.00810000  1.0 0.1590796583
H  H359  1  0.18700000  0.00810000  0.30870000  1.0 0.1590796583
H  H360  1  0.00810000  0.30870000  0.18700000  1.0 0.1590796583
H  H361  1  0.63050000  0.74690000  0.96880000  1.0 0.12857839
H  H362  1  0.74690000  0.96880000  0.63050000  1.0 0.12857839
H  H363  1  0.96880000  0.63050000  0.74690000  1.0 0.12857839
H  H364  1  0.36950000  0.25310000  0.03120000  1.0 0.12857839
H  H365  1  0.25310000  0.03120000  0.36950000  1.0 0.12857839
H  H366  1  0.03120000  0.36950000  0.25310000  1.0 0.12857839
H  H367  1  0.64000000  0.78660000  0.91300000  1.0 0.101217591
H  H368  1  0.78660000  0.91300000  0.64000000  1.0 0.101217591
H  H369  1  0.91300000  0.64000000  0.78660000  1.0 0.101217591
H  H370  1  0.36000000  0.21340000  0.08700000  1.0 0.101217591
H  H371  1  0.21340000  0.08700000  0.36000000  1.0 0.101217591
H  H372  1  0.08700000  0.36000000  0.21340000  1.0 0.101217591
H  H373  1  0.55980000  0.78220000  0.89590000  1.0 0.1104660573
H  H374  1  0.78220000  0.89590000  0.55980000  1.0 0.1104660573
H  H375  1  0.89590000  0.55980000  0.78220000  1.0 0.1104660573
H  H376  1  0.44020000  0.21780000  0.10410000  1.0 0.1104660573
H  H377  1  0.21780000  0.10410000  0.44020000  1.0 0.1104660573
H  H378  1  0.10410000  0.44020000  0.21780000  1.0 0.1104660573
H  H379  1  0.58920000  0.72220000  0.91300000  1.0 0.12857839
H  H380  1  0.72220000  0.91300000  0.58920000  1.0 0.12857839
H  H381  1  0.91300000  0.58920000  0.72220000  1.0 0.12857839
H  H382  1  0.41080000  0.27780000  0.08700000  1.0 0.12857839
H  H383  1  0.27780000  0.08700000  0.41080000  1.0 0.12857839
H  H384  1  0.08700000  0.41080000  0.27780000  1.0 0.12857839
H  H385  1  0.56970000  0.67870000  0.46770000  1.0 0.1503911274
H  H386  1  0.67870000  0.46770000  0.56970000  1.0 0.1503911274
H  H387  1  0.46770000  0.56970000  0.67870000  1.0 0.1503911274
H  H388  1  0.43030000  0.32130000  0.53230000  1.0 0.1503911274
H  H389  1  0.32130000  0.53230000  0.43030000  1.0 0.1503911274
H  H390  1  0.53230000  0.43030000  0.32130000  1.0 0.1503911274
H  H391  1  0.62750000  0.67700000  0.43140000  1.0 0.1413670012
H  H392  1  0.67700000  0.43140000  0.62750000  1.0 0.1413670012
H  H393  1  0.43140000  0.62750000  0.67700000  1.0 0.1413670012
H  H394  1  0.37250000  0.32300000  0.56860000  1.0 0.1413670012
H  H395  1  0.32300000  0.56860000  0.37250000  1.0 0.1413670012
H  H396  1  0.56860000  0.37250000  0.32300000  1.0 0.1413670012
H  H397  1  0.59630000  0.73060000  0.45160000  1.0 0.1590796583
H  H398  1  0.73060000  0.45160000  0.59630000  1.0 0.1590796583
H  H399  1  0.45160000  0.59630000  0.73060000  1.0 0.1590796583
H  H400  1  0.40370000  0.26940000  0.54840000  1.0 0.1590796583
H  H401  1  0.26940000  0.54840000  0.40370000  1.0 0.1590796583
H  H402  1  0.54840000  0.40370000  0.26940000  1.0 0.1590796583
H  H403  1  0.66370000  0.75430000  0.36770000  1.0 0.1503911274
H  H404  1  0.75430000  0.36770000  0.66370000  1.0 0.1503911274
H  H405  1  0.36770000  0.66370000  0.75430000  1.0 0.1503911274
H  H406  1  0.33630000  0.24570000  0.63230000  1.0 0.1503911274
H  H407  1  0.24570000  0.63230000  0.33630000  1.0 0.1503911274
H  H408  1  0.63230000  0.33630000  0.24570000  1.0 0.1503911274
H  H409  1  0.69850000  0.80620000  0.28940000  1.0 0.12857839
H  H410  1  0.80620000  0.28940000  0.69850000  1.0 0.12857839
H  H411  1  0.28940000  0.69850000  0.80620000  1.0 0.12857839
H  H412  1  0.30150000  0.19380000  0.71060000  1.0 0.12857839
H  H413  1  0.19380000  0.71060000  0.30150000  1.0 0.12857839
H  H414  1  0.71060000  0.30150000  0.19380000  1.0 0.12857839
H  H415  1  0.65370000  0.83420000  0.21830000  1.0 0.1503911274
H  H416  1  0.83420000  0.21830000  0.65370000  1.0 0.1503911274
H  H417  1  0.21830000  0.65370000  0.83420000  1.0 0.1503911274
H  H418  1  0.34630000  0.16580000  0.78170000  1.0 0.1503911274
H  H419  1  0.16580000  0.78170000  0.34630000  1.0 0.1503911274
H  H420  1  0.78170000  0.34630000  0.16580000  1.0 0.1503911274
H  H421  1  0.58490000  0.87560000  0.15750000  1.0 0.1590796583
H  H422  1  0.87560000  0.15750000  0.58490000  1.0 0.1590796583
H  H423  1  0.15750000  0.58490000  0.87560000  1.0 0.1590796583
H  H424  1  0.41510000  0.12440000  0.84250000  1.0 0.1590796583
H  H425  1  0.12440000  0.84250000  0.41510000  1.0 0.1590796583
H  H426  1  0.84250000  0.41510000  0.12440000  1.0 0.1590796583
H  H427  1  0.60850000  0.81800000  0.14260000  1.0 0.1715965009
H  H428  1  0.81800000  0.14260000  0.60850000  1.0 0.1715965009
H  H429  1  0.14260000  0.60850000  0.81800000  1.0 0.1715965009
H  H430  1  0.39150000  0.18200000  0.85740000  1.0 0.1715965009
H  H431  1  0.18200000  0.85740000  0.39150000  1.0 0.1715965009
H  H432  1  0.85740000  0.39150000  0.18200000  1.0 0.1715965009
H  H433  1  0.55010000  0.84710000  0.13320000  1.0 0.1413670012
H  H434  1  0.84710000  0.13320000  0.55010000  1.0 0.1503911274
H  H435  1  0.13320000  0.55010000  0.84710000  1.0 0.1503911274
H  H436  1  0.44990000  0.15290000  0.86680000  1.0 0.1503911274
H  H437  1  0.15290000  0.86680000  0.44990000  1.0 0.1413670012
H  H438  1  0.86680000  0.44990000  0.15290000  1.0 0.1503911274
H  H439  1  0.45910000  0.86030000  0.18160000  1.0 0.101217591
H  H440  1  0.86030000  0.18160000  0.45910000  1.0 0.101217591
H  H441  1  0.18160000  0.45910000  0.86030000  1.0 0.101217591
H  H442  1  0.54090000  0.13970000  0.81840000  1.0 0.101217591
H  H443  1  0.13970000  0.81840000  0.54090000  1.0 0.101217591
H  H444  1  0.81840000  0.54090000  0.13970000  1.0 0.101217591
H  H445  1  0.47240000  0.80250000  0.16610000  1.0 0.1193933052
H  H446  1  0.80250000  0.16610000  0.47240000  1.0 0.1193933052
H  H447  1  0.16610000  0.47240000  0.80250000  1.0 0.1193933052
H  H448  1  0.52760000  0.19750000  0.83390000  1.0 0.1193933052
H  H449  1  0.19750000  0.83390000  0.52760000  1.0 0.1193933052
H  H450  1  0.83390000  0.52760000  0.19750000  1.0 0.1193933052
H  H451  1  0.38440000  0.81380000  0.20590000  1.0 0.1104660573
H  H452  1  0.81380000  0.20590000  0.38440000  1.0 0.1104660573
H  H453  1  0.20590000  0.38440000  0.81380000  1.0 0.1104660573
H  H454  1  0.61560000  0.18620000  0.79410000  1.0 0.1104660573
H  H455  1  0.18620000  0.79410000  0.61560000  1.0 0.1104660573
H  H456  1  0.79410000  0.61560000  0.18620000  1.0 0.1104660573
H  H457  1  0.39610000  0.83610000  0.25350000  1.0 0.1193933052
H  H458  1  0.83610000  0.25350000  0.39610000  1.0 0.1193933052
H  H459  1  0.25350000  0.39610000  0.83610000  1.0 0.1193933052
H  H460  1  0.60390000  0.16390000  0.74650000  1.0 0.1193933052
H  H461  1  0.16390000  0.74650000  0.60390000  1.0 0.1193933052
H  H462  1  0.74650000  0.60390000  0.16390000  1.0 0.1193933052
H  H463  1  0.34830000  0.76710000  0.31810000  1.0 0.1193933052
H  H464  1  0.76710000  0.31810000  0.34830000  1.0 0.1193933052
H  H465  1  0.31810000  0.34830000  0.76710000  1.0 0.1193933052
H  H466  1  0.65170000  0.23290000  0.68190000  1.0 0.1193933052
H  H467  1  0.23290000  0.68190000  0.65170000  1.0 0.1193933052
H  H468  1  0.68190000  0.65170000  0.23290000  1.0 0.1193933052
H  H469  1  0.34440000  0.73010000  0.27830000  1.0 0.101217591
H  H470  1  0.73010000  0.27830000  0.34440000  1.0 0.101217591
H  H471  1  0.27830000  0.34440000  0.73010000  1.0 0.101217591
H  H472  1  0.65560000  0.26990000  0.72170000  1.0 0.101217591
H  H473  1  0.26990000  0.72170000  0.65560000  1.0 0.101217591
H  H474  1  0.72170000  0.65560000  0.26990000  1.0 0.101217591
H  H475  1  0.40500000  0.65940000  0.31930000  1.0 0.1104660573
H  H476  1  0.65940000  0.31930000  0.40500000  1.0 0.1104660573
H  H477  1  0.31930000  0.40500000  0.65940000  1.0 0.1104660573
H  H478  1  0.59500000  0.34060000  0.68070000  1.0 0.1104660573
H  H479  1  0.34060000  0.68070000  0.59500000  1.0 0.1104660573
H  H480  1  0.68070000  0.59500000  0.34060000  1.0 0.1104660573
H  H481  1  0.35460000  0.67680000  0.36310000  1.0 0.101217591
H  H482  1  0.67680000  0.36310000  0.35460000  1.0 0.101217591
H  H483  1  0.36310000  0.35460000  0.67680000  1.0 0.101217591
H  H484  1  0.64540000  0.32320000  0.63690000  1.0 0.101217591
H  H485  1  0.32320000  0.63690000  0.64540000  1.0 0.101217591
H  H486  1  0.63690000  0.64540000  0.32320000  1.0 0.101217591
H  H487  1  0.42440000  0.63810000  0.43100000  1.0 0.1104660573
H  H488  1  0.63810000  0.43100000  0.42440000  1.0 0.1104660573
H  H489  1  0.43100000  0.42440000  0.63810000  1.0 0.1104660573
H  H490  1  0.57560000  0.36190000  0.56900000  1.0 0.1104660573
H  H491  1  0.36190000  0.56900000  0.57560000  1.0 0.1104660573
H  H492  1  0.56900000  0.57560000  0.36190000  1.0 0.1104660573
H  H493  1  0.46980000  0.62840000  0.38030000  1.0 0.1104660573
H  H494  1  0.62840000  0.38030000  0.46980000  1.0 0.1104660573
H  H495  1  0.38030000  0.46980000  0.62840000  1.0 0.1104660573
H  H496  1  0.53020000  0.37160000  0.61970000  1.0 0.1104660573
H  H497  1  0.37160000  0.61970000  0.53020000  1.0 0.1104660573
H  H498  1  0.61970000  0.53020000  0.37160000  1.0 0.1104660573
H  H499  1  0.51240000  0.64200000  0.44530000  1.0 0.101217591
H  H500  1  0.64200000  0.44530000  0.51240000  1.0 0.101217591
H  H501  1  0.44530000  0.51240000  0.64200000  1.0 0.101217591
H  H502  1  0.48760000  0.35800000  0.55470000  1.0 0.101217591
H  H503  1  0.35800000  0.55470000  0.48760000  1.0 0.101217591
H  H504  1  0.55470000  0.48760000  0.35800000  1.0 0.101217591
H  H505  1  0.47020000  0.69520000  0.45440000  1.0 0.12857839
H  H506  1  0.69520000  0.45440000  0.47020000  1.0 0.12857839
H  H507  1  0.45440000  0.47020000  0.69520000  1.0 0.12857839
H  H508  1  0.52980000  0.30480000  0.54560000  1.0 0.12857839
H  H509  1  0.30480000  0.54560000  0.52980000  1.0 0.12857839
H  H510  1  0.54560000  0.52980000  0.30480000  1.0 0.12857839
C  C1  1  0.32552000  0.85832000  0.94312000  1.0 0.0188757264
C  C2  1  0.85832000  0.94312000  0.32552000  1.0 0.0188757264
C  C3  1  0.94312000  0.32552000  0.85832000  1.0 0.0188757264
C  C4  1  0.67448000  0.14168000  0.05688000  1.0 0.0188757264
C  C5  1  0.14168000  0.05688000  0.67448000  1.0 0.0188757264
C  C6  1  0.05688000  0.67448000  0.14168000  1.0 0.0188757264
C  C7  1  0.43402000  0.89542000  0.91332000  1.0 -0.0688204373
C  C8  1  0.89542000  0.91332000  0.43402000  1.0 -0.0688204373
C  C9  1  0.91332000  0.43402000  0.89542000  1.0 -0.059544104
C  C10  1  0.56598000  0.10458000  0.08668000  1.0 -0.059544104
C  C11  1  0.10458000  0.08668000  0.56598000  1.0 -0.0688204373
C  C12  1  0.08668000  0.56598000  0.10458000  1.0 -0.0688204373
C  C13  1  0.37320000  0.84940000  0.84670000  1.0 -0.0105400352
C  C14  1  0.84940000  0.84670000  0.37320000  1.0 -0.0105400352
C  C15  1  0.84670000  0.37320000  0.84940000  1.0 -0.0105400352
C  C16  1  0.62680000  0.15060000  0.15330000  1.0 -0.0105400352
C  C17  1  0.15060000  0.15330000  0.62680000  1.0 -0.0105400352
C  C18  1  0.15330000  0.62680000  0.15060000  1.0 -0.0105400352
C  C19  1  0.40905000  0.93435000  0.80555000  1.0 0.0078425497
C  C20  1  0.93435000  0.80555000  0.40905000  1.0 0.0078425497
C  C21  1  0.80555000  0.40905000  0.93435000  1.0 0.0078425497
C  C22  1  0.59095000  0.06565000  0.19445000  1.0 0.0078425497
C  C23  1  0.06565000  0.19445000  0.59095000  1.0 0.0078425497
C  C24  1  0.19445000  0.59095000  0.06565000  1.0 0.0078425497
C  C25  1  0.35890000  0.00690000  0.85860000  1.0 -0.0309360999
C  C26  1  0.00690000  0.85860000  0.35890000  1.0 -0.0309360999
C  C27  1  0.85860000  0.35890000  0.00690000  1.0 -0.0309360999
C  C28  1  0.64110000  0.99310000  0.14140000  1.0 -0.0309360999
C  C29  1  0.99310000  0.14140000  0.64110000  1.0 -0.0309360999
C  C30  1  0.14140000  0.64110000  0.99310000  1.0 -0.0309360999
C  C31  1  0.28265000  0.94045000  0.85745000  1.0 -0.0309360999
C  C32  1  0.94045000  0.85745000  0.28265000  1.0 -0.0309360999
C  C33  1  0.85745000  0.28265000  0.94045000  1.0 -0.0309360999
C  C34  1  0.71735000  0.05955000  0.14255000  1.0 -0.0309360999
C  C35  1  0.05955000  0.14255000  0.71735000  1.0 -0.0309360999
C  C36  1  0.14255000  0.71735000  0.05955000  1.0 -0.0309360999
C  C37  1  0.32309000  0.95529000  0.95499000  1.0 -0.0688204373
C  C38  1  0.95529000  0.95499000  0.32309000  1.0 -0.0688204373
C  C39  1  0.95499000  0.32309000  0.95529000  1.0 -0.0688204373
C  C40  1  0.67691000  0.04471000  0.04501000  1.0 -0.0688204373
C  C41  1  0.04471000  0.04501000  0.67691000  1.0 -0.0688204373
C  C42  1  0.04501000  0.67691000  0.04471000  1.0 -0.0816351091
C  C43  1  0.52676000  0.72516000  0.10736000  1.0 0.0188757264
C  C44  1  0.72516000  0.10736000  0.52676000  1.0 0.0188757264
C  C45  1  0.10736000  0.52676000  0.72516000  1.0 0.0188757264
C  C46  1  0.47324000  0.27484000  0.89264000  1.0 0.0188757264
C  C47  1  0.27484000  0.89264000  0.47324000  1.0 0.0188757264
C  C48  1  0.89264000  0.47324000  0.27484000  1.0 0.0188757264
C  C49  1  0.46030000  0.66040000  0.15830000  1.0 -0.0379558983
C  C50  1  0.66040000  0.15830000  0.46030000  1.0 -0.0379558983
C  C51  1  0.15830000  0.46030000  0.66040000  1.0 -0.0379558983
C  C52  1  0.53970000  0.33960000  0.84170000  1.0 -0.0379558983
C  C53  1  0.33960000  0.84170000  0.53970000  1.0 -0.0379558983
C  C54  1  0.84170000  0.53970000  0.33960000  1.0 -0.0379558983
C  C55  1  0.53360000  0.66260000  0.22680000  1.0 -0.0309360999
C  C56  1  0.66260000  0.22680000  0.53360000  1.0 -0.0309360999
C  C57  1  0.22680000  0.53360000  0.66260000  1.0 -0.0309360999
C  C58  1  0.46640000  0.33740000  0.77320000  1.0 -0.0309360999
C  C59  1  0.33740000  0.77320000  0.46640000  1.0 -0.0309360999
C  C60  1  0.77320000  0.46640000  0.33740000  1.0 -0.0309360999
C  C61  1  0.52050000  0.56540000  0.18020000  1.0 -0.059544104
C  C62  1  0.56540000  0.18020000  0.52050000  1.0 -0.0688204373
C  C63  1  0.18020000  0.52050000  0.56540000  1.0 -0.059544104
C  C64  1  0.47950000  0.43460000  0.81980000  1.0 -0.0688204373
C  C65  1  0.43460000  0.81980000  0.47950000  1.0 -0.0688204373
C  C66  1  0.81980000  0.47950000  0.43460000  1.0 -0.0688204373
C  C67  1  0.61702000  0.58252000  0.16892000  1.0 0.0188757264
C  C68  1  0.58252000  0.16892000  0.61702000  1.0 0.0188757264
C  C69  1  0.16892000  0.61702000  0.58252000  1.0 0.0188757264
C  C70  1  0.38298000  0.41748000  0.83108000  1.0 0.0188757264
C  C71  1  0.41748000  0.83108000  0.38298000  1.0 0.0188757264
C  C72  1  0.83108000  0.38298000  0.41748000  1.0 0.0188757264
C  C73  1  0.61500000  0.67910000  0.13100000  1.0 0.0078425497
C  C74  1  0.67910000  0.13100000  0.61500000  1.0 0.0078425497
C  C75  1  0.13100000  0.61500000  0.67910000  1.0 0.0078425497
C  C76  1  0.38500000  0.32090000  0.86900000  1.0 0.0078425497
C  C77  1  0.32090000  0.86900000  0.38500000  1.0 0.0078425497
C  C78  1  0.86900000  0.38500000  0.32090000  1.0 0.0078425497
C  C79  1  0.56290000  0.62400000  0.06810000  1.0 -0.0816351091
C  C80  1  0.62400000  0.06810000  0.56290000  1.0 -0.0816351091
C  C81  1  0.06810000  0.56290000  0.62400000  1.0 -0.0816351091
C  C82  1  0.43710000  0.37600000  0.93190000  1.0 -0.0816351091
C  C83  1  0.37600000  0.93190000  0.43710000  1.0 -0.0816351091
C  C84  1  0.93190000  0.43710000  0.37600000  1.0 -0.0816351091
C  C85  1  0.58020000  0.88820000  0.80040000  1.0 -0.0880277852
C  C86  1  0.88820000  0.80040000  0.58020000  1.0 -0.0880277852
C  C87  1  0.80040000  0.58020000  0.88820000  1.0 -0.0880277852
C  C88  1  0.41980000  0.11180000  0.19960000  1.0 -0.0816351091
C  C89  1  0.11180000  0.19960000  0.41980000  1.0 -0.0880277852
C  C90  1  0.19960000  0.41980000  0.11180000  1.0 -0.0880277852
C  C91  1  0.55890000  0.94420000  0.81310000  1.0 -0.1358234548
C  C92  1  0.94420000  0.81310000  0.55890000  1.0 -0.1358234548
C  C93  1  0.81310000  0.55890000  0.94420000  1.0 -0.1358234548
C  C94  1  0.44110000  0.05580000  0.18690000  1.0 -0.1358234548
C  C95  1  0.05580000  0.18690000  0.44110000  1.0 -0.1358234548
C  C96  1  0.18690000  0.44110000  0.05580000  1.0 -0.1358234548
C  C97  1  0.51360000  0.03350000  0.76400000  1.0 -0.1243431383
C  C98  1  0.03350000  0.76400000  0.51360000  1.0 -0.1243431383
C  C99  1  0.76400000  0.51360000  0.03350000  1.0 -0.1243431383
C  C100  1  0.48640000  0.96650000  0.23600000  1.0 -0.1243431383
C  C101  1  0.96650000  0.23600000  0.48640000  1.0 -0.1243431383
C  C102  1  0.23600000  0.48640000  0.96650000  1.0 -0.1243431383
C  C103  1  0.50610000  0.06450000  0.71380000  1.0 -0.1092251914
C  C104  1  0.06450000  0.71380000  0.50610000  1.0 -0.1092251914
C  C105  1  0.71380000  0.50610000  0.06450000  1.0 -0.1092251914
C  C106  1  0.49390000  0.93550000  0.28620000  1.0 -0.1092251914
C  C107  1  0.93550000  0.28620000  0.49390000  1.0 -0.1092251914
C  C108  1  0.28620000  0.49390000  0.93550000  1.0 -0.1092251914
C  C109  1  0.47350000  0.05100000  0.63660000  1.0 0.2795235874
C  C110  1  0.05100000  0.63660000  0.47350000  1.0 0.2795235874
C  C111  1  0.63660000  0.47350000  0.05100000  1.0 0.2795235874
C  C112  1  0.52650000  0.94900000  0.36340000  1.0 0.2795235874
C  C113  1  0.94900000  0.36340000  0.52650000  1.0 0.2795235874
C  C114  1  0.36340000  0.52650000  0.94900000  1.0 0.2795235874
C  C115  1  0.46060000  0.10910000  0.61480000  1.0 -0.5120448806
C  C116  1  0.10910000  0.61480000  0.46060000  1.0 -0.5120448806
C  C117  1  0.61480000  0.46060000  0.10910000  1.0 -0.5120448806
C  C118  1  0.53940000  0.89090000  0.38520000  1.0 -0.5120448806
C  C119  1  0.89090000  0.38520000  0.53940000  1.0 -0.5120448806
C  C120  1  0.38520000  0.53940000  0.89090000  1.0 -0.5120448806
C  C121  1  0.46610000  0.00970000  0.60880000  1.0 0.1413670012
C  C122  1  0.00970000  0.60880000  0.46610000  1.0 0.1413670012
C  C123  1  0.60880000  0.46610000  0.00970000  1.0 0.1413670012
C  C124  1  0.53390000  0.99030000  0.39120000  1.0 0.1413670012
C  C125  1  0.99030000  0.39120000  0.53390000  1.0 0.1413670012
C  C126  1  0.39120000  0.53390000  0.99030000  1.0 0.1413670012
C  C127  1  0.44470000  0.01960000  0.56180000  1.0 -0.1758144589
C  C128  1  0.01960000  0.56180000  0.44470000  1.0 -0.1758144589
C  C129  1  0.56180000  0.44470000  0.01960000  1.0 -0.1758144589
C  C130  1  0.55530000  0.98040000  0.43820000  1.0 -0.1704405283
C  C131  1  0.98040000  0.43820000  0.55530000  1.0 -0.1758144589
C  C132  1  0.43820000  0.55530000  0.98040000  1.0 -0.1758144589
C  C133  1  0.43760000  0.97480000  0.53960000  1.0 -0.0379558983
C  C134  1  0.97480000  0.53960000  0.43760000  1.0 -0.0379558983
C  C135  1  0.53960000  0.43760000  0.97480000  1.0 -0.0379558983
C  C136  1  0.56240000  0.02520000  0.46040000  1.0 -0.0379558983
C  C137  1  0.02520000  0.46040000  0.56240000  1.0 -0.0379558983
C  C138  1  0.46040000  0.56240000  0.02520000  1.0 -0.0379558983
C  C139  1  0.45390000  0.92200000  0.56380000  1.0 -0.1758144589
C  C140  1  0.92200000  0.56380000  0.45390000  1.0 -0.1758144589
C  C141  1  0.56380000  0.45390000  0.92200000  1.0 -0.1758144589
C  C142  1  0.54610000  0.07800000  0.43620000  1.0 -0.1758144589
C  C143  1  0.07800000  0.43620000  0.54610000  1.0 -0.1758144589
C  C144  1  0.43620000  0.54610000  0.07800000  1.0 -0.1758144589
C  C145  1  0.47530000  0.91660000  0.60990000  1.0 0.1590796583
C  C146  1  0.91660000  0.60990000  0.47530000  1.0 0.1590796583
C  C147  1  0.60990000  0.47530000  0.91660000  1.0 0.1590796583
C  C148  1  0.52470000  0.08340000  0.39010000  1.0 0.1590796583
C  C149  1  0.08340000  0.39010000  0.52470000  1.0 0.1590796583
C  C150  1  0.39010000  0.52470000  0.08340000  1.0 0.1590796583
C  C151  1  0.49340000  0.86230000  0.64250000  1.0 0.2707807731
C  C152  1  0.86230000  0.64250000  0.49340000  1.0 0.2707807731
C  C153  1  0.64250000  0.49340000  0.86230000  1.0 0.2707807731
C  C154  1  0.50660000  0.13770000  0.35750000  1.0 0.2707807731
C  C155  1  0.13770000  0.35750000  0.50660000  1.0 0.2707807731
C  C156  1  0.35750000  0.50660000  0.13770000  1.0 0.2707807731
C  C157  1  0.49140000  0.80860000  0.62770000  1.0 -0.4867318923
C  C158  1  0.80860000  0.62770000  0.49140000  1.0 -0.4867318923
C  C159  1  0.62770000  0.49140000  0.80860000  1.0 -0.4867318923
C  C160  1  0.50860000  0.19140000  0.37230000  1.0 -0.4867318923
C  C161  1  0.19140000  0.37230000  0.50860000  1.0 -0.4867318923
C  C162  1  0.37230000  0.50860000  0.19140000  1.0 -0.4867318923
C  C163  1  0.53230000  0.81070000  0.72180000  1.0 -0.1092251914
C  C164  1  0.81070000  0.72180000  0.53230000  1.0 -0.1092251914
C  C165  1  0.72180000  0.53230000  0.81070000  1.0 -0.1092251914
C  C166  1  0.46770000  0.18930000  0.27820000  1.0 -0.1092251914
C  C167  1  0.18930000  0.27820000  0.46770000  1.0 -0.1092251914
C  C168  1  0.27820000  0.46770000  0.18930000  1.0 -0.1092251914
C  C169  1  0.56870000  0.82440000  0.75090000  1.0 -0.0816351091
C  C170  1  0.82440000  0.75090000  0.56870000  1.0 -0.0816351091
C  C171  1  0.75090000  0.56870000  0.82440000  1.0 -0.0816351091
C  C172  1  0.43130000  0.17560000  0.24910000  1.0 -0.0816351091
C  C173  1  0.17560000  0.24910000  0.43130000  1.0 -0.0816351091
C  C174  1  0.24910000  0.43130000  0.17560000  1.0 -0.0816351091
C  C175  1  0.29900000  0.67360000  0.00460000  1.0 -0.1013196618
C  C176  1  0.67360000  0.00460000  0.29900000  1.0 -0.1013196618
C  C177  1  0.00460000  0.29900000  0.67360000  1.0 -0.1013196618
C  C178  1  0.70100000  0.32640000  0.99540000  1.0 -0.1013196618
C  C179  1  0.32640000  0.99540000  0.70100000  1.0 -0.1013196618
C  C180  1  0.99540000  0.70100000  0.32640000  1.0 -0.1013196618
C  C181  1  0.29400000  0.70290000  0.94760000  1.0 -0.1092251914
C  C182  1  0.70290000  0.94760000  0.29400000  1.0 -0.1092251914
C  C183  1  0.94760000  0.29400000  0.70290000  1.0 -0.1092251914
C  C184  1  0.70600000  0.29710000  0.05240000  1.0 -0.1092251914
C  C185  1  0.29710000  0.05240000  0.70600000  1.0 -0.1092251914
C  C186  1  0.05240000  0.70600000  0.29710000  1.0 -0.1092251914
C  C187  1  0.23080000  0.77270000  0.89690000  1.0 -0.1013196618
C  C188  1  0.77270000  0.89690000  0.23080000  1.0 -0.1013196618
C  C189  1  0.89690000  0.23080000  0.77270000  1.0 -0.1013196618
C  C190  1  0.76920000  0.22730000  0.10310000  1.0 -0.1013196618
C  C191  1  0.22730000  0.10310000  0.76920000  1.0 -0.1013196618
C  C192  1  0.10310000  0.76920000  0.22730000  1.0 -0.1013196618
C  C193  1  0.18150000  0.81820000  0.90760000  1.0 -0.1013196618
C  C194  1  0.81820000  0.90760000  0.18150000  1.0 -0.1013196618
C  C195  1  0.90760000  0.18150000  0.81820000  1.0 -0.1013196618
C  C196  1  0.81850000  0.18180000  0.09240000  1.0 -0.1013196618
C  C197  1  0.18180000  0.09240000  0.81850000  1.0 -0.1013196618
C  C198  1  0.09240000  0.81850000  0.18180000  1.0 -0.1013196618
C  C199  1  0.14960000  0.88890000  0.96090000  1.0 -0.1092251914
C  C200  1  0.88890000  0.96090000  0.14960000  1.0 -0.1092251914
C  C201  1  0.96090000  0.14960000  0.88890000  1.0 -0.1092251914
C  C202  1  0.85040000  0.11110000  0.03910000  1.0 -0.1092251914
C  C203  1  0.11110000  0.03910000  0.85040000  1.0 -0.1092251914
C  C204  1  0.03910000  0.85040000  0.11110000  1.0 -0.1092251914
C  C205  1  0.16820000  0.91620000  0.99870000  1.0 -0.1013196618
C  C206  1  0.91620000  0.99870000  0.16820000  1.0 -0.1013196618
C  C207  1  0.99870000  0.16820000  0.91620000  1.0 -0.1013196618
C  C208  1  0.83180000  0.08380000  0.00130000  1.0 -0.1013196618
C  C209  1  0.08380000  0.00130000  0.83180000  1.0 -0.1013196618
C  C210  1  0.00130000  0.83180000  0.08380000  1.0 -0.1013196618
C  C211  1  0.20030000  0.88370000  0.08220000  1.0 0.2625610591
C  C212  1  0.88370000  0.08220000  0.20030000  1.0 0.2625610591
C  C213  1  0.08220000  0.20030000  0.88370000  1.0 0.2625610591
C  C214  1  0.79970000  0.11630000  0.91780000  1.0 0.2625610591
C  C215  1  0.11630000  0.91780000  0.79970000  1.0 0.2625610591
C  C216  1  0.91780000  0.79970000  0.11630000  1.0 0.2625610591
C  C217  1  0.18420000  0.93660000  0.10390000  1.0 -0.4867318923
C  C218  1  0.93660000  0.10390000  0.18420000  1.0 -0.4867318923
C  C219  1  0.10390000  0.18420000  0.93660000  1.0 -0.4867318923
C  C220  1  0.81580000  0.06340000  0.89610000  1.0 -0.4867318923
C  C221  1  0.06340000  0.89610000  0.81580000  1.0 -0.4867318923
C  C222  1  0.89610000  0.81580000  0.06340000  1.0 -0.4867318923
C  C223  1  0.22752000  0.83552000  0.11762000  1.0 0.1503911274
C  C224  1  0.83552000  0.11762000  0.22752000  1.0 0.1503911274
C  C225  1  0.11762000  0.22752000  0.83552000  1.0 0.1503911274
C  C226  1  0.77248000  0.16448000  0.88238000  1.0 0.1503911274
C  C227  1  0.16448000  0.88238000  0.77248000  1.0 0.1503911274
C  C228  1  0.88238000  0.77248000  0.16448000  1.0 0.1503911274
C  C229  1  0.23680000  0.83440000  0.16910000  1.0 -0.1885039311
C  C230  1  0.83440000  0.16910000  0.23680000  1.0 -0.1885039311
C  C231  1  0.16910000  0.23680000  0.83440000  1.0 -0.1885039311
C  C232  1  0.76320000  0.16560000  0.83090000  1.0 -0.1885039311
C  C233  1  0.16560000  0.83090000  0.76320000  1.0 -0.1885039311
C  C234  1  0.83090000  0.76320000  0.16560000  1.0 -0.1885039311
C  C235  1  0.26230000  0.78460000  0.19760000  1.0 -0.059544104
C  C236  1  0.78460000  0.19760000  0.26230000  1.0 -0.059544104
C  C237  1  0.19760000  0.26230000  0.78460000  1.0 -0.059544104
C  C238  1  0.73770000  0.21540000  0.80240000  1.0 -0.059544104
C  C239  1  0.21540000  0.80240000  0.73770000  1.0 -0.059544104
C  C240  1  0.80240000  0.73770000  0.21540000  1.0 -0.059544104
C  C241  1  0.27610000  0.74100000  0.17520000  1.0 -0.1605351316
C  C242  1  0.74100000  0.17520000  0.27610000  1.0 -0.1605351316
C  C243  1  0.17520000  0.27610000  0.74100000  1.0 -0.1605351316
C  C244  1  0.72390000  0.25900000  0.82480000  1.0 -0.1605351316
C  C245  1  0.25900000  0.82480000  0.72390000  1.0 -0.1605351316
C  C246  1  0.82480000  0.72390000  0.25900000  1.0 -0.1605351316
C  C247  1  0.26700000  0.74400000  0.12220000  1.0 0.1715965009
C  C248  1  0.74400000  0.12220000  0.26700000  1.0 0.1715965009
C  C249  1  0.12220000  0.26700000  0.74400000  1.0 0.1715965009
C  C250  1  0.73300000  0.25600000  0.87780000  1.0 0.1715965009
C  C251  1  0.25600000  0.87780000  0.73300000  1.0 0.1715965009
C  C252  1  0.87780000  0.73300000  0.25600000  1.0 0.1715965009
C  C253  1  0.28490000  0.69880000  0.09190000  1.0 0.2795235874
C  C254  1  0.69880000  0.09190000  0.28490000  1.0 0.2795235874
C  C255  1  0.09190000  0.28490000  0.69880000  1.0 0.2795235874
C  C256  1  0.71510000  0.30120000  0.90810000  1.0 0.2795235874
C  C257  1  0.30120000  0.90810000  0.71510000  1.0 0.2795235874
C  C258  1  0.90810000  0.71510000  0.30120000  1.0 0.2795235874
C  C259  1  0.30690000  0.64290000  0.11950000  1.0 -0.5120448806
C  C260  1  0.64290000  0.11950000  0.30690000  1.0 -0.5120448806
C  C261  1  0.11950000  0.30690000  0.64290000  1.0 -0.5120448806
C  C262  1  0.69310000  0.35710000  0.88050000  1.0 -0.5120448806
C  C263  1  0.35710000  0.88050000  0.69310000  1.0 -0.5120448806
C  C264  1  0.88050000  0.69310000  0.35710000  1.0 -0.5120448806
C  C265  1  0.47930000  0.73070000  0.96130000  1.0 -0.1092251914
C  C266  1  0.73070000  0.96130000  0.47930000  1.0 -0.1092251914
C  C267  1  0.96130000  0.47930000  0.73070000  1.0 -0.1092251914
C  C268  1  0.52070000  0.26930000  0.03870000  1.0 -0.1092251914
C  C269  1  0.26930000  0.03870000  0.52070000  1.0 -0.1092251914
C  C270  1  0.03870000  0.52070000  0.26930000  1.0 -0.1092251914
C  C271  1  0.43550000  0.73520000  0.00840000  1.0 -0.0816351091
C  C272  1  0.73520000  0.00840000  0.43550000  1.0 -0.0816351091
C  C273  1  0.00840000  0.43550000  0.73520000  1.0 -0.0816351091
C  C274  1  0.56450000  0.26480000  0.99160000  1.0 -0.0816351091
C  C275  1  0.26480000  0.99160000  0.56450000  1.0 -0.0816351091
C  C276  1  0.99160000  0.56450000  0.26480000  1.0 -0.0816351091
C  C277  1  0.38720000  0.79690000  0.06670000  1.0 -0.1092251914
C  C278  1  0.79690000  0.06670000  0.38720000  1.0 -0.1092251914
C  C279  1  0.06670000  0.38720000  0.79690000  1.0 -0.1092251914
C  C280  1  0.61280000  0.20310000  0.93330000  1.0 -0.1092251914
C  C281  1  0.20310000  0.93330000  0.61280000  1.0 -0.1092251914
C  C282  1  0.93330000  0.61280000  0.20310000  1.0 -0.1092251914
C  C283  1  0.37730000  0.85680000  0.07310000  1.0 -0.0880277852
C  C284  1  0.85680000  0.07310000  0.37730000  1.0 -0.0880277852
C  C285  1  0.07310000  0.37730000  0.85680000  1.0 -0.0880277852
C  C286  1  0.62270000  0.14320000  0.92690000  1.0 -0.0880277852
C  C287  1  0.14320000  0.92690000  0.62270000  1.0 -0.0880277852
C  C288  1  0.92690000  0.62270000  0.14320000  1.0 -0.0880277852
C  C289  1  0.43600000  0.91880000  0.07210000  1.0 0.2464762988
C  C290  1  0.91880000  0.07210000  0.43600000  1.0 0.2464762988
C  C291  1  0.07210000  0.43600000  0.91880000  1.0 0.2464762988
C  C292  1  0.56400000  0.08120000  0.92790000  1.0 0.2464762988
C  C293  1  0.08120000  0.92790000  0.56400000  1.0 0.2464762988
C  C294  1  0.92790000  0.56400000  0.08120000  1.0 0.2464762988
C  C295  1  0.39380000  0.95920000  0.10090000  1.0 -0.5212655304
C  C296  1  0.95920000  0.10090000  0.39380000  1.0 -0.5212655304
C  C297  1  0.10090000  0.39380000  0.95920000  1.0 -0.5212655304
C  C298  1  0.60620000  0.04080000  0.89910000  1.0 -0.5212655304
C  C299  1  0.04080000  0.89910000  0.60620000  1.0 -0.5212655304
C  C300  1  0.89910000  0.60620000  0.04080000  1.0 -0.5212655304
C  C301  1  0.49230000  0.92950000  0.05460000  1.0 0.197055567
C  C302  1  0.92950000  0.05460000  0.49230000  1.0 0.197055567
C  C303  1  0.05460000  0.49230000  0.92950000  1.0 0.197055567
C  C304  1  0.50770000  0.07050000  0.94540000  1.0 0.197055567
C  C305  1  0.07050000  0.94540000  0.50770000  1.0 0.197055567
C  C306  1  0.94540000  0.50770000  0.07050000  1.0 0.197055567
C  C307  1  0.51170000  0.97510000  0.06550000  1.0 -0.1885039311
C  C308  1  0.97510000  0.06550000  0.51170000  1.0 -0.1885039311
C  C309  1  0.06550000  0.51170000  0.97510000  1.0 -0.1885039311
C  C310  1  0.48830000  0.02490000  0.93450000  1.0 -0.1885039311
C  C311  1  0.02490000  0.93450000  0.48830000  1.0 -0.1885039311
C  C312  1  0.93450000  0.48830000  0.02490000  1.0 -0.1885039311
C  C313  1  0.56520000  0.97530000  0.04930000  1.0 -0.0309360999
C  C314  1  0.97530000  0.04930000  0.56520000  1.0 -0.0309360999
C  C315  1  0.04930000  0.56520000  0.97530000  1.0 -0.0309360999
C  C316  1  0.43480000  0.02470000  0.95070000  1.0 -0.0309360999
C  C317  1  0.02470000  0.95070000  0.43480000  1.0 -0.0309360999
C  C318  1  0.95070000  0.43480000  0.02470000  1.0 -0.0309360999
C  C319  1  0.60120000  0.93820000  0.02160000  1.0 -0.1527013146
C  C320  1  0.93820000  0.02160000  0.60120000  1.0 -0.1527013146
C  C321  1  0.02160000  0.60120000  0.93820000  1.0 -0.1527013146
C  C322  1  0.39880000  0.06180000  0.97840000  1.0 -0.1527013146
C  C323  1  0.06180000  0.97840000  0.39880000  1.0 -0.1527013146
C  C324  1  0.97840000  0.39880000  0.06180000  1.0 -0.1527013146
C  C325  1  0.58050000  0.89680000  0.01290000  1.0 0.1193933052
C  C326  1  0.89680000  0.01290000  0.58050000  1.0 0.1193933052
C  C327  1  0.01290000  0.58050000  0.89680000  1.0 0.1193933052
C  C328  1  0.41950000  0.10320000  0.98710000  1.0 0.1193933052
C  C329  1  0.10320000  0.98710000  0.41950000  1.0 0.1193933052
C  C330  1  0.98710000  0.41950000  0.10320000  1.0 0.1193933052
C  C331  1  0.61110000  0.85190000  0.98550000  1.0 0.2707807731
C  C332  1  0.85190000  0.98550000  0.61110000  1.0 0.2707807731
C  C333  1  0.98550000  0.61110000  0.85190000  1.0 0.2707807731
C  C334  1  0.38890000  0.14810000  0.01450000  1.0 0.2707807731
C  C335  1  0.14810000  0.01450000  0.38890000  1.0 0.2707807731
C  C336  1  0.01450000  0.38890000  0.14810000  1.0 0.2707807731
C  C337  1  0.67460000  0.84860000  0.97630000  1.0 -0.4781717845
C  C338  1  0.84860000  0.97630000  0.67460000  1.0 -0.4781717845
C  C339  1  0.97630000  0.67460000  0.84860000  1.0 -0.4781717845
C  C340  1  0.32540000  0.15140000  0.02370000  1.0 -0.4781717845
C  C341  1  0.15140000  0.02370000  0.32540000  1.0 -0.4781717845
C  C342  1  0.02370000  0.32540000  0.15140000  1.0 -0.4781717845
C  C343  1  0.61260000  0.77570000  0.94380000  1.0 -0.1092251914
C  C344  1  0.77570000  0.94380000  0.61260000  1.0 -0.1092251914
C  C345  1  0.94380000  0.61260000  0.77570000  1.0 -0.1092251914
C  C346  1  0.38740000  0.22430000  0.05620000  1.0 -0.1013196618
C  C347  1  0.22430000  0.05620000  0.38740000  1.0 -0.1092251914
C  C348  1  0.05620000  0.38740000  0.22430000  1.0 -0.1092251914
C  C349  1  0.57300000  0.75600000  0.92570000  1.0 -0.1092251914
C  C350  1  0.75600000  0.92570000  0.57300000  1.0 -0.1092251914
C  C351  1  0.92570000  0.57300000  0.75600000  1.0 -0.1092251914
C  C352  1  0.42700000  0.24400000  0.07430000  1.0 -0.1092251914
C  C353  1  0.24400000  0.07430000  0.42700000  1.0 -0.1092251914
C  C354  1  0.07430000  0.42700000  0.24400000  1.0 -0.1092251914
C  C355  1  0.56740000  0.71620000  0.38990000  1.0 0.2625610591
C  C356  1  0.71620000  0.38990000  0.56740000  1.0 0.2625610591
C  C357  1  0.38990000  0.56740000  0.71620000  1.0 0.2625610591
C  C358  1  0.43260000  0.28380000  0.61010000  1.0 0.2625610591
C  C359  1  0.28380000  0.61010000  0.43260000  1.0 0.2625610591
C  C360  1  0.61010000  0.43260000  0.28380000  1.0 0.2625610591
C  C361  1  0.59240000  0.69910000  0.43960000  1.0 -0.4867318923
C  C362  1  0.69910000  0.43960000  0.59240000  1.0 -0.4867318923
C  C363  1  0.43960000  0.59240000  0.69910000  1.0 -0.4867318923
C  C364  1  0.40760000  0.30090000  0.56040000  1.0 -0.4867318923
C  C365  1  0.30090000  0.56040000  0.40760000  1.0 -0.4867318923
C  C366  1  0.56040000  0.40760000  0.30090000  1.0 -0.4867318923
C  C367  1  0.59566000  0.74986000  0.34196000  1.0 0.1590796583
C  C368  1  0.74986000  0.34196000  0.59566000  1.0 0.1590796583
C  C369  1  0.34196000  0.59566000  0.74986000  1.0 0.1590796583
C  C370  1  0.40434000  0.25014000  0.65804000  1.0 0.1590796583
C  C371  1  0.25014000  0.65804000  0.40434000  1.0 0.1590796583
C  C372  1  0.65804000  0.40434000  0.25014000  1.0 0.1590796583
C  C373  1  0.64510000  0.76520000  0.33880000  1.0 -0.1704405283
C  C374  1  0.76520000  0.33880000  0.64510000  1.0 -0.1704405283
C  C375  1  0.33880000  0.64510000  0.76520000  1.0 -0.1704405283
C  C376  1  0.35490000  0.23480000  0.66120000  1.0 -0.1704405283
C  C377  1  0.23480000  0.66120000  0.35490000  1.0 -0.1704405283
C  C378  1  0.66120000  0.35490000  0.23480000  1.0 -0.1704405283
C  C379  1  0.66520000  0.79600000  0.29240000  1.0 -0.059544104
C  C380  1  0.79600000  0.29240000  0.66520000  1.0 -0.059544104
C  C381  1  0.29240000  0.66520000  0.79600000  1.0 -0.059544104
C  C382  1  0.33480000  0.20400000  0.70760000  1.0 -0.059544104
C  C383  1  0.20400000  0.70760000  0.33480000  1.0 -0.059544104
C  C384  1  0.70760000  0.33480000  0.20400000  1.0 -0.059544104
C  C385  1  0.63870000  0.81300000  0.25000000  1.0 -0.1704405283
C  C386  1  0.81300000  0.25000000  0.63870000  1.0 -0.1704405283
C  C387  1  0.25000000  0.63870000  0.81300000  1.0 -0.1704405283
C  C388  1  0.36130000  0.18700000  0.75000000  1.0 -0.1704405283
C  C389  1  0.18700000  0.75000000  0.36130000  1.0 -0.1704405283
C  C390  1  0.75000000  0.36130000  0.18700000  1.0 -0.1704405283
C  C391  1  0.58868000  0.79788000  0.25448000  1.0 0.1715965009
C  C392  1  0.79788000  0.25448000  0.58868000  1.0 0.1715965009
C  C393  1  0.25448000  0.58868000  0.79788000  1.0 0.1715965009
C  C394  1  0.41132000  0.20212000  0.74552000  1.0 0.1715965009
C  C395  1  0.20212000  0.74552000  0.41132000  1.0 0.1715965009
C  C396  1  0.74552000  0.41132000  0.20212000  1.0 0.1715965009
C  C397  1  0.55280000  0.81550000  0.21310000  1.0 0.2795235874
C  C398  1  0.81550000  0.21310000  0.55280000  1.0 0.2795235874
C  C399  1  0.21310000  0.55280000  0.81550000  1.0 0.2795235874
C  C400  1  0.44720000  0.18450000  0.78690000  1.0 0.2795235874
C  C401  1  0.18450000  0.78690000  0.44720000  1.0 0.2795235874
C  C402  1  0.78690000  0.44720000  0.18450000  1.0 0.2795235874
C  C403  1  0.57610000  0.84140000  0.15640000  1.0 -0.5212655304
C  C404  1  0.84140000  0.15640000  0.57610000  1.0 -0.5212655304
C  C405  1  0.15640000  0.57610000  0.84140000  1.0 -0.5212655304
C  C406  1  0.42390000  0.15860000  0.84360000  1.0 -0.5212655304
C  C407  1  0.15860000  0.84360000  0.42390000  1.0 -0.5212655304
C  C408  1  0.84360000  0.42390000  0.15860000  1.0 -0.5212655304
C  C409  1  0.46239000  0.82189000  0.19629000  1.0 -0.1092251914
C  C410  1  0.82189000  0.19629000  0.46239000  1.0 -0.1092251914
C  C411  1  0.19629000  0.46239000  0.82189000  1.0 -0.1092251914
C  C412  1  0.53761000  0.17811000  0.80371000  1.0 -0.1092251914
C  C413  1  0.17811000  0.80371000  0.53761000  1.0 -0.1092251914
C  C414  1  0.80371000  0.53761000  0.17811000  1.0 -0.1092251914
C  C415  1  0.41020000  0.81000000  0.22950000  1.0 -0.1013196618
C  C416  1  0.81000000  0.22950000  0.41020000  1.0 -0.1013196618
C  C417  1  0.22950000  0.41020000  0.81000000  1.0 -0.1013196618
C  C418  1  0.58980000  0.19000000  0.77050000  1.0 -0.1013196618
C  C419  1  0.19000000  0.77050000  0.58980000  1.0 -0.1013196618
C  C420  1  0.77050000  0.58980000  0.19000000  1.0 -0.1013196618
C  C421  1  0.36830000  0.73820000  0.29880000  1.0 -0.1013196618
C  C422  1  0.73820000  0.29880000  0.36830000  1.0 -0.1013196618
C  C423  1  0.29880000  0.36830000  0.73820000  1.0 -0.1013196618
C  C424  1  0.63170000  0.26180000  0.70120000  1.0 -0.1013196618
C  C425  1  0.26180000  0.70120000  0.63170000  1.0 -0.1013196618
C  C426  1  0.70120000  0.63170000  0.26180000  1.0 -0.1013196618
C  C427  1  0.38610000  0.68850000  0.33850000  1.0 -0.1092251914
C  C428  1  0.68850000  0.33850000  0.38610000  1.0 -0.1092251914
C  C429  1  0.33850000  0.38610000  0.68850000  1.0 -0.1092251914
C  C430  1  0.61390000  0.31150000  0.66150000  1.0 -0.1092251914
C  C431  1  0.31150000  0.66150000  0.61390000  1.0 -0.1092251914
C  C432  1  0.66150000  0.61390000  0.31150000  1.0 -0.1092251914
C  C433  1  0.45040000  0.65500000  0.40250000  1.0 -0.1092251914
C  C434  1  0.65500000  0.40250000  0.45040000  1.0 -0.1092251914
C  C435  1  0.40250000  0.45040000  0.65500000  1.0 -0.1092251914
C  C436  1  0.54960000  0.34500000  0.59750000  1.0 -0.1092251914
C  C437  1  0.34500000  0.59750000  0.54960000  1.0 -0.1092251914
C  C438  1  0.59750000  0.54960000  0.34500000  1.0 -0.1092251914
C  C439  1  0.48980000  0.67330000  0.42760000  1.0 -0.0880277852
C  C440  1  0.67330000  0.42760000  0.48980000  1.0 -0.0880277852
C  C441  1  0.42760000  0.48980000  0.67330000  1.0 -0.0880277852
C  C442  1  0.51020000  0.32670000  0.57240000  1.0 -0.0880277852
C  C443  1  0.32670000  0.57240000  0.51020000  1.0 -0.0880277852
C  C444  1  0.57240000  0.51020000  0.32670000  1.0 -0.0880277852
N  N1  1  0.30654000  0.82484000  0.97434000  1.0 -0.3701953473
N  N2  1  0.82484000  0.97434000  0.30654000  1.0 -0.3701953473
N  N3  1  0.97434000  0.30654000  0.82484000  1.0 -0.3701953473
N  N4  1  0.69346000  0.17516000  0.02566000  1.0 -0.3701953473
N  N5  1  0.17516000  0.02566000  0.69346000  1.0 -0.3604299933
N  N6  1  0.02566000  0.69346000  0.17516000  1.0 -0.3701953473
N  N7  1  0.47284000  0.87874000  0.93174000  1.0 -0.3868112751
N  N8  1  0.87874000  0.93174000  0.47284000  1.0 -0.3868112751
N  N9  1  0.93174000  0.47284000  0.87874000  1.0 -0.3868112751
N  N10  1  0.52716000  0.12126000  0.06826000  1.0 -0.3868112751
N  N11  1  0.12126000  0.06826000  0.52716000  1.0 -0.3868112751
N  N12  1  0.06826000  0.52716000  0.12126000  1.0 -0.3868112751
N  N13  1  0.38170000  0.81070000  0.82800000  1.0 -0.3701953473
N  N14  1  0.81070000  0.82800000  0.38170000  1.0 -0.3701953473
N  N15  1  0.82800000  0.38170000  0.81070000  1.0 -0.3701953473
N  N16  1  0.61830000  0.18930000  0.17200000  1.0 -0.3701953473
N  N17  1  0.18930000  0.17200000  0.61830000  1.0 -0.3701953473
N  N18  1  0.17200000  0.61830000  0.18930000  1.0 -0.3701953473
N  N19  1  0.43794000  0.94054000  0.76474000  1.0 -0.3791640301
N  N20  1  0.94054000  0.76474000  0.43794000  1.0 -0.3791640301
N  N21  1  0.76474000  0.43794000  0.94054000  1.0 -0.3791640301
N  N22  1  0.56206000  0.05946000  0.23526000  1.0 -0.3701953473
N  N23  1  0.05946000  0.23526000  0.56206000  1.0 -0.3791640301
N  N24  1  0.23526000  0.56206000  0.05946000  1.0 -0.3701953473
N  N25  1  0.35490000  0.05320000  0.84330000  1.0 -0.3701953473
N  N26  1  0.05320000  0.84330000  0.35490000  1.0 -0.3701953473
N  N27  1  0.84330000  0.35490000  0.05320000  1.0 -0.3701953473
N  N28  1  0.64510000  0.94680000  0.15670000  1.0 -0.3701953473
N  N29  1  0.94680000  0.15670000  0.64510000  1.0 -0.3701953473
N  N30  1  0.15670000  0.64510000  0.94680000  1.0 -0.3701953473
N  N31  1  0.23933000  0.95223000  0.84633000  1.0 -0.3791640301
N  N32  1  0.95223000  0.84633000  0.23933000  1.0 -0.3791640301
N  N33  1  0.84633000  0.23933000  0.95223000  1.0 -0.3791640301
N  N34  1  0.76067000  0.04777000  0.15367000  1.0 -0.3791640301
N  N35  1  0.04777000  0.15367000  0.76067000  1.0 -0.3791640301
N  N36  1  0.15367000  0.76067000  0.04777000  1.0 -0.3791640301
N  N37  1  0.30261000  0.97481000  0.99291000  1.0 -0.3791640301
N  N38  1  0.97481000  0.99291000  0.30261000  1.0 -0.3701953473
N  N39  1  0.99291000  0.30261000  0.97481000  1.0 -0.3791640301
N  N40  1  0.69739000  0.02519000  0.00709000  1.0 -0.3791640301
N  N41  1  0.02519000  0.00709000  0.69739000  1.0 -0.3701953473
N  N42  1  0.00709000  0.69739000  0.02519000  1.0 -0.3701953473
N  N43  1  0.51660000  0.76860000  0.08320000  1.0 -0.3701953473
N  N44  1  0.76860000  0.08320000  0.51660000  1.0 -0.3701953473
N  N45  1  0.08320000  0.51660000  0.76860000  1.0 -0.3701953473
N  N46  1  0.48340000  0.23140000  0.91680000  1.0 -0.3701953473
N  N47  1  0.23140000  0.91680000  0.48340000  1.0 -0.3701953473
N  N48  1  0.91680000  0.48340000  0.23140000  1.0 -0.3701953473
N  N49  1  0.41360000  0.66930000  0.16850000  1.0 -0.3604299933
N  N50  1  0.66930000  0.16850000  0.41360000  1.0 -0.3604299933
N  N51  1  0.16850000  0.41360000  0.66930000  1.0 -0.3604299933
N  N52  1  0.58640000  0.33070000  0.83150000  1.0 -0.3604299933
N  N53  1  0.33070000  0.83150000  0.58640000  1.0 -0.3604299933
N  N54  1  0.83150000  0.58640000  0.33070000  1.0 -0.3604299933
N  N55  1  0.52383000  0.67373000  0.26933000  1.0 -0.3701953473
N  N56  1  0.67373000  0.26933000  0.52383000  1.0 -0.3701953473
N  N57  1  0.26933000  0.52383000  0.67373000  1.0 -0.3701953473
N  N58  1  0.47617000  0.32627000  0.73067000  1.0 -0.3701953473
N  N59  1  0.32627000  0.73067000  0.47617000  1.0 -0.3701953473
N  N60  1  0.73067000  0.47617000  0.32627000  1.0 -0.3701953473
N  N61  1  0.50619000  0.52539000  0.19909000  1.0 -0.3478550651
N  N62  1  0.52539000  0.19909000  0.50619000  1.0 -0.3478550651
N  N63  1  0.19909000  0.50619000  0.52539000  1.0 -0.3478550651
N  N64  1  0.49381000  0.47461000  0.80091000  1.0 -0.3478550651
N  N65  1  0.47461000  0.80091000  0.49381000  1.0 -0.3478550651
N  N66  1  0.80091000  0.49381000  0.47461000  1.0 -0.3478550651
N  N67  1  0.65152000  0.55232000  0.18382000  1.0 -0.3701953473
N  N68  1  0.55232000  0.18382000  0.65152000  1.0 -0.3701953473
N  N69  1  0.18382000  0.65152000  0.55232000  1.0 -0.3701953473
N  N70  1  0.34848000  0.44768000  0.81618000  1.0 -0.3701953473
N  N71  1  0.44768000  0.81618000  0.34848000  1.0 -0.3701953473
N  N72  1  0.81618000  0.34848000  0.44768000  1.0 -0.3701953473
N  N73  1  0.65640000  0.70070000  0.12050000  1.0 -0.3701953473
N  N74  1  0.70070000  0.12050000  0.65640000  1.0 -0.3701953473
N  N75  1  0.12050000  0.65640000  0.70070000  1.0 -0.3701953473
N  N76  1  0.34360000  0.29930000  0.87950000  1.0 -0.3701953473
N  N77  1  0.29930000  0.87950000  0.34360000  1.0 -0.3701953473
N  N78  1  0.87950000  0.34360000  0.29930000  1.0 -0.3701953473
N  N79  1  0.57500000  0.61520000  0.02340000  1.0 -0.3426763156
N  N80  1  0.61520000  0.02340000  0.57500000  1.0 -0.3426763156
N  N81  1  0.02340000  0.57500000  0.61520000  1.0 -0.3426763156
N  N82  1  0.42500000  0.38480000  0.97660000  1.0 -0.3426763156
N  N83  1  0.38480000  0.97660000  0.42500000  1.0 -0.3426763156
N  N84  1  0.97660000  0.42500000  0.38480000  1.0 -0.3426763156
N  N85  1  0.54850000  0.86940000  0.77470000  1.0 -0.1704405283
N  N86  1  0.86940000  0.77470000  0.54850000  1.0 -0.1704405283
N  N87  1  0.77470000  0.54850000  0.86940000  1.0 -0.1704405283
N  N88  1  0.45150000  0.13060000  0.22530000  1.0 -0.1704405283
N  N89  1  0.13060000  0.22530000  0.45150000  1.0 -0.1704405283
N  N90  1  0.22530000  0.45150000  0.13060000  1.0 -0.1704405283
N  N91  1  0.54990000  0.98250000  0.76160000  1.0 -0.1605351316
N  N92  1  0.98250000  0.76160000  0.54990000  1.0 -0.1605351316
N  N93  1  0.76160000  0.54990000  0.98250000  1.0 -0.1605351316
N  N94  1  0.45010000  0.01750000  0.23840000  1.0 -0.1605351316
N  N95  1  0.01750000  0.23840000  0.45010000  1.0 -0.1605351316
N  N96  1  0.23840000  0.45010000  0.01750000  1.0 -0.1605351316
N  N97  1  0.49370000  0.03160000  0.67870000  1.0 -0.2182997814
N  N98  1  0.03160000  0.67870000  0.49370000  1.0 -0.2182997814
N  N99  1  0.67870000  0.49370000  0.03160000  1.0 -0.2182997814
N  N100  1  0.50630000  0.96840000  0.32130000  1.0 -0.2182997814
N  N101  1  0.96840000  0.32130000  0.50630000  1.0 -0.2182997814
N  N102  1  0.32130000  0.50630000  0.96840000  1.0 -0.2182997814
N  N103  1  0.48140000  0.95710000  0.63140000  1.0 -0.2804698436
N  N104  1  0.95710000  0.63140000  0.48140000  1.0 -0.2804698436
N  N105  1  0.63140000  0.48140000  0.95710000  1.0 -0.2804698436
N  N106  1  0.51860000  0.04290000  0.36860000  1.0 -0.2804698436
N  N107  1  0.04290000  0.36860000  0.51860000  1.0 -0.2804698436
N  N108  1  0.36860000  0.51860000  0.04290000  1.0 -0.2804698436
N  N109  1  0.51270000  0.86120000  0.68310000  1.0 -0.2182997814
N  N110  1  0.86120000  0.68310000  0.51270000  1.0 -0.2182997814
N  N111  1  0.68310000  0.51270000  0.86120000  1.0 -0.2182997814
N  N112  1  0.48730000  0.13880000  0.31690000  1.0 -0.2182997814
N  N113  1  0.13880000  0.31690000  0.48730000  1.0 -0.2182997814
N  N114  1  0.31690000  0.48730000  0.13880000  1.0 -0.2182997814
N  N115  1  0.24096000  0.73866000  0.94706000  1.0 -0.1704405283
N  N116  1  0.73866000  0.94706000  0.24096000  1.0 -0.1704405283
N  N117  1  0.94706000  0.24096000  0.73866000  1.0 -0.1704405283
N  N118  1  0.75904000  0.26134000  0.05294000  1.0 -0.1704405283
N  N119  1  0.26134000  0.05294000  0.75904000  1.0 -0.1704405283
N  N120  1  0.05294000  0.75904000  0.26134000  1.0 -0.1704405283
N  N121  1  0.19489000  0.85129000  0.94029000  1.0 -0.1704405283
N  N122  1  0.85129000  0.94029000  0.19489000  1.0 -0.1704405283
N  N123  1  0.94029000  0.19489000  0.85129000  1.0 -0.1704405283
N  N124  1  0.80511000  0.14871000  0.05971000  1.0 -0.1704405283
N  N125  1  0.14871000  0.05971000  0.80511000  1.0 -0.1704405283
N  N126  1  0.05971000  0.80511000  0.14871000  1.0 -0.1704405283
N  N127  1  0.19313000  0.87553000  0.03883000  1.0 -0.2402301444
N  N128  1  0.87553000  0.03883000  0.19313000  1.0 -0.2402301444
N  N129  1  0.03883000  0.19313000  0.87553000  1.0 -0.2402301444
N  N130  1  0.80687000  0.12447000  0.96117000  1.0 -0.2402301444
N  N131  1  0.12447000  0.96117000  0.80687000  1.0 -0.2402301444
N  N132  1  0.96117000  0.80687000  0.12447000  1.0 -0.2402301444
N  N133  1  0.24282000  0.79012000  0.09612000  1.0 -0.2670744199
N  N134  1  0.79012000  0.09612000  0.24282000  1.0 -0.2670744199
N  N135  1  0.09612000  0.24282000  0.79012000  1.0 -0.2670744199
N  N136  1  0.75718000  0.20988000  0.90388000  1.0 -0.2670744199
N  N137  1  0.20988000  0.90388000  0.75718000  1.0 -0.2670744199
N  N138  1  0.90388000  0.75718000  0.20988000  1.0 -0.2670744199
N  N139  1  0.28109000  0.71189000  0.04179000  1.0 -0.2402301444
N  N140  1  0.71189000  0.04179000  0.28109000  1.0 -0.2402301444
N  N141  1  0.04179000  0.28109000  0.71189000  1.0 -0.2402301444
N  N142  1  0.71891000  0.28811000  0.95821000  1.0 -0.2402301444
N  N143  1  0.28811000  0.95821000  0.71891000  1.0 -0.2402301444
N  N144  1  0.95821000  0.71891000  0.28811000  1.0 -0.2402301444
N  N145  1  0.58730000  0.82220000  0.97090000  1.0 -0.2554603555
N  N146  1  0.82220000  0.97090000  0.58730000  1.0 -0.2554603555
N  N147  1  0.97090000  0.58730000  0.82220000  1.0 -0.2554603555
N  N148  1  0.41270000  0.17780000  0.02910000  1.0 -0.2554603555
N  N149  1  0.17780000  0.02910000  0.41270000  1.0 -0.2554603555
N  N150  1  0.02910000  0.41270000  0.17780000  1.0 -0.2520868561
N  N151  1  0.52624000  0.89444000  0.02824000  1.0 -0.2804698436
N  N152  1  0.89444000  0.02824000  0.52624000  1.0 -0.2804698436
N  N153  1  0.02824000  0.52624000  0.89444000  1.0 -0.2804698436
N  N154  1  0.47376000  0.10556000  0.97176000  1.0 -0.2804698436
N  N155  1  0.10556000  0.97176000  0.47376000  1.0 -0.2804698436
N  N156  1  0.97176000  0.47376000  0.10556000  1.0 -0.2804698436
N  N157  1  0.42740000  0.87500000  0.06060000  1.0 -0.2402301444
N  N158  1  0.87500000  0.06060000  0.42740000  1.0 -0.2402301444
N  N159  1  0.06060000  0.42740000  0.87500000  1.0 -0.2402301444
N  N160  1  0.57260000  0.12500000  0.93940000  1.0 -0.2402301444
N  N161  1  0.12500000  0.93940000  0.57260000  1.0 -0.2402301444
N  N162  1  0.93940000  0.57260000  0.12500000  1.0 -0.2402301444
N  N163  1  0.42231000  0.78931000  0.01581000  1.0 -0.1758144589
N  N164  1  0.78931000  0.01581000  0.42231000  1.0 -0.1758144589
N  N165  1  0.01581000  0.42231000  0.78931000  1.0 -0.1758144589
N  N166  1  0.57769000  0.21069000  0.98419000  1.0 -0.1758144589
N  N167  1  0.21069000  0.98419000  0.57769000  1.0 -0.1758144589
N  N168  1  0.98419000  0.57769000  0.21069000  1.0 -0.1758144589
N  N169  1  0.52800000  0.74740000  0.97090000  1.0 -0.1605351316
N  N170  1  0.74740000  0.97090000  0.52800000  1.0 -0.1605351316
N  N171  1  0.97090000  0.52800000  0.74740000  1.0 -0.1605351316
N  N172  1  0.47200000  0.25260000  0.02910000  1.0 -0.1605351316
N  N173  1  0.25260000  0.02910000  0.47200000  1.0 -0.1605351316
N  N174  1  0.02910000  0.47200000  0.25260000  1.0 -0.1605351316
N  N175  1  0.42230000  0.70090000  0.36970000  1.0 -0.1704405283
N  N176  1  0.70090000  0.36970000  0.42230000  1.0 -0.1704405283
N  N177  1  0.36970000  0.42230000  0.70090000  1.0 -0.1704405283
N  N178  1  0.57770000  0.29910000  0.63030000  1.0 -0.1704405283
N  N179  1  0.29910000  0.63030000  0.57770000  1.0 -0.1704405283
N  N180  1  0.63030000  0.57770000  0.29910000  1.0 -0.1704405283
N  N181  1  0.41616000  0.75566000  0.26156000  1.0 -0.1704405283
N  N182  1  0.75566000  0.26156000  0.41616000  1.0 -0.1704405283
N  N183  1  0.26156000  0.41616000  0.75566000  1.0 -0.1704405283
N  N184  1  0.58384000  0.24434000  0.73844000  1.0 -0.1704405283
N  N185  1  0.24434000  0.73844000  0.58384000  1.0 -0.1704405283
N  N186  1  0.73844000  0.58384000  0.24434000  1.0 -0.1704405283
N  N187  1  0.50456000  0.80516000  0.22986000  1.0 -0.2402301444
N  N188  1  0.80516000  0.22986000  0.50456000  1.0 -0.2402301444
N  N189  1  0.22986000  0.50456000  0.80516000  1.0 -0.2402301444
N  N190  1  0.49544000  0.19484000  0.77014000  1.0 -0.2402301444
N  N191  1  0.19484000  0.77014000  0.49544000  1.0 -0.2402301444
N  N192  1  0.77014000  0.49544000  0.19484000  1.0 -0.2402301444
N  N193  1  0.56843000  0.76653000  0.29993000  1.0 -0.2804698436
N  N194  1  0.76653000  0.29993000  0.56843000  1.0 -0.2804698436
N  N195  1  0.29993000  0.56843000  0.76653000  1.0 -0.2804698436
N  N196  1  0.43157000  0.23347000  0.70007000  1.0 -0.2804698436
N  N197  1  0.23347000  0.70007000  0.43157000  1.0 -0.2804698436
N  N198  1  0.70007000  0.43157000  0.23347000  1.0 -0.2804698436
N  N199  1  0.52293000  0.70463000  0.38453000  1.0 -0.2520868561
N  N200  1  0.70463000  0.38453000  0.52293000  1.0 -0.2520868561
N  N201  1  0.38453000  0.52293000  0.70463000  1.0 -0.2520868561
N  N202  1  0.47707000  0.29537000  0.61547000  1.0 -0.2520868561
N  N203  1  0.29537000  0.61547000  0.47707000  1.0 -0.2520868561
N  N204  1  0.61547000  0.47707000  0.29537000  1.0 -0.2520868561
O  O1  1  0.60050000  0.93560000  0.65500000  1.0 -0.7856577573
O  O2  1  0.93560000  0.65500000  0.60050000  1.0 -0.7844772079
O  O3  1  0.65500000  0.60050000  0.93560000  1.0 -0.7856577573
O  O4  1  0.39950000  0.06440000  0.34500000  1.0 -0.7856577573
O  O5  1  0.06440000  0.34500000  0.39950000  1.0 -0.7844772079
O  O6  1  0.34500000  0.39950000  0.06440000  1.0 -0.7844772079
