# DDEC6 charges by PACMAN v1.1 (https://github.com/mtap-research/PACMAN-charge/)
data_HEFFEF_ASR_pacman
_symmetry_space_group_name_H-M   'P 1'
_cell_length_a   10.00600000
_cell_length_b   18.34000000
_cell_length_c   20.26000000
_cell_angle_alpha   88.72000000
_cell_angle_beta   83.46000000
_cell_angle_gamma   86.86000000
_symmetry_Int_Tables_number   1
_chemical_formula_structural   NaCd3H32C52N4ClO12
_chemical_formula_sum   'Na2 Cd6 H64 C104 N8 Cl2 O24'
_cell_volume   3687.68816486
_cell_formula_units_Z   2
loop_
 _symmetry_equiv_pos_site_id
 _symmetry_equiv_pos_as_xyz
  1  'x, y, z'
loop_
 _atom_site_type_symbol
 _atom_site_label
 _atom_site_symmetry_multiplicity
 _atom_site_fract_x
 _atom_site_fract_y
 _atom_site_fract_z
 _atom_site_occupancy
 _atom_site_charge
Na  Na1  1  0.89290000  0.72080000  0.87910000  1.0 0.8463280699
Na  Na2  1  0.10710000  0.27920000  0.12090000  1.0 0.8463280699
Cd  Cd1  1  0.88666000  0.54786000  0.96064000  1.0 0.979746481
Cd  Cd2  1  0.11334000  0.45214000  0.03936000  1.0 0.979746481
Cd  Cd3  1  0.38930000  0.95980000  0.45490000  1.0 0.9642870924
Cd  Cd4  1  0.61070000  0.04020000  0.54510000  1.0 0.9642870924
Cd  Cd5  1  0.91568000  0.96922000  0.01845000  1.0 0.6416033408
Cd  Cd6  1  0.08432000  0.03078000  0.98155000  1.0 0.6416033408
H  H1  1  0.10690000  0.61240000  0.20150000  1.0 0.1184404737
H  H2  1  0.89310000  0.38760000  0.79850000  1.0 0.1184404737
H  H3  1  0.09220000  0.69900000  0.28400000  1.0 0.1121925843
H  H4  1  0.90780000  0.30100000  0.71600000  1.0 0.1121925843
H  H5  1  0.79790000  0.80660000  0.20260000  1.0 0.1184404737
H  H6  1  0.20210000  0.19340000  0.79740000  1.0 0.1184404737
H  H7  1  0.81780000  0.72600000  0.11450000  1.0 0.1184404737
H  H8  1  0.18220000  0.27400000  0.88550000  1.0 0.1184404737
H  H9  1  0.73390000  0.83510000  0.31380000  1.0 0.1275770492
H  H10  1  0.26610000  0.16490000  0.68620000  1.0 0.1275770492
H  H11  1  0.91100000  0.95960000  0.43630000  1.0 0.1184404737
H  H12  1  0.08900000  0.04040000  0.56370000  1.0 0.1184404737
H  H13  1  0.13400000  0.81690000  0.31670000  1.0 0.1184404737
H  H14  1  0.86600000  0.18310000  0.68330000  1.0 0.1184404737
H  H15  1  0.35030000  0.76920000  0.59700000  1.0 0.1184404737
H  H16  1  0.64970000  0.23080000  0.40300000  1.0 0.1184404737
H  H17  1  0.31590000  0.68360000  0.69170000  1.0 0.1121925843
H  H18  1  0.68410000  0.31640000  0.30830000  1.0 0.1121925843
H  H19  1  0.53540000  0.80450000  0.79270000  1.0 0.1121925843
H  H20  1  0.46460000  0.19550000  0.20730000  1.0 0.1121925843
H  H21  1  0.58630000  0.88890000  0.69850000  1.0 0.1184404737
H  H22  1  0.41370000  0.11110000  0.30150000  1.0 0.1184404737
H  H23  1  0.21880000  0.66460000  0.79980000  1.0 0.1184404737
H  H24  1  0.78120000  0.33540000  0.20020000  1.0 0.1184404737
H  H25  1  0.38710000  0.55410000  0.94580000  1.0 0.1275770492
H  H26  1  0.61290000  0.44590000  0.05420000  1.0 0.1275770492
H  H27  1  0.61300000  0.67720000  0.81460000  1.0 0.1184404737
H  H28  1  0.38700000  0.32280000  0.18540000  1.0 0.1184404737
H  H29  1  0.42830000  0.38690000  0.85850000  1.0 0.1414547554
H  H30  1  0.57170000  0.61310000  0.14150000  1.0 0.1414547554
H  H31  1  0.52710000  0.43850000  0.88670000  1.0 0.1414547554
H  H32  1  0.47290000  0.56150000  0.11330000  1.0 0.1414547554
H  H33  1  0.39580000  0.41670000  0.93080000  1.0 0.1491101547
H  H34  1  0.60420000  0.58330000  0.06920000  1.0 0.1491101547
H  H35  1  0.69610000  0.38890000  0.92870000  1.0 0.1184404737
H  H36  1  0.30390000  0.61110000  0.07130000  1.0 0.1184404737
H  H37  1  0.83840000  0.29010000  0.96340000  1.0 0.1491101547
H  H38  1  0.16160000  0.70990000  0.03660000  1.0 0.1491101547
H  H39  1  0.50980000  0.17100000  0.96580000  1.0 0.155718883
H  H40  1  0.49020000  0.82900000  0.03420000  1.0 0.155718883
H  H41  1  0.41310000  0.26710000  0.91410000  1.0 0.1184404737
H  H42  1  0.58690000  0.73290000  0.08590000  1.0 0.1184404737
H  H43  1  0.71960000  0.23130000  0.08920000  1.0 0.1184404737
H  H44  1  0.28040000  0.76870000  0.91080000  1.0 0.1184404737
H  H45  1  0.81550000  0.17810000  0.18900000  1.0 0.1121925843
H  H46  1  0.18450000  0.82190000  0.81100000  1.0 0.1121925843
H  H47  1  0.74300000  0.15620000  0.83390000  1.0 0.1184404737
H  H48  1  0.25700000  0.84380000  0.16610000  1.0 0.1184404737
H  H49  1  0.85250000  0.05740000  0.76630000  1.0 0.1121925843
H  H50  1  0.14750000  0.94260000  0.23370000  1.0 0.1121925843
H  H51  1  0.79630000  0.07090000  0.26580000  1.0 0.1491101547
H  H52  1  0.20370000  0.92910000  0.73420000  1.0 0.1491101547
H  H53  1  0.80750000  0.10020000  0.37520000  1.0 0.1121925843
H  H54  1  0.19250000  0.89980000  0.62480000  1.0 0.1121925843
H  H55  1  0.20340000  0.07420000  0.23450000  1.0 0.1414547554
H  H56  1  0.79660000  0.92580000  0.76550000  1.0 0.1414547554
H  H57  1  0.19530000  0.11710000  0.34050000  1.0 0.1184404737
H  H58  1  0.80470000  0.88290000  0.65950000  1.0 0.1184404737
H  H59  1  0.93070000  0.15670000  0.45390000  1.0 0.1491101547
H  H60  1  0.06930000  0.84330000  0.54610000  1.0 0.1491101547
H  H61  1  0.02010000  0.08560000  0.46500000  1.0 0.1491101547
H  H62  1  0.97990000  0.91440000  0.53500000  1.0 0.1491101547
H  H63  1  0.08780000  0.15730000  0.43880000  1.0 0.1491101547
H  H64  1  0.91220000  0.84270000  0.56120000  1.0 0.1491101547
C  C1  1  0.96400000  0.59710000  0.10070000  1.0 0.5741674206
C  C2  1  0.03600000  0.40290000  0.89930000  1.0 0.5741674206
C  C3  1  0.95700000  0.65640000  0.15340000  1.0 -0.0305247846
C  C4  1  0.04300000  0.34360000  0.84660000  1.0 -0.0305247846
C  C5  1  0.04320000  0.65130000  0.20150000  1.0 -0.1082917066
C  C6  1  0.95680000  0.34870000  0.79850000  1.0 -0.1082917066
C  C7  1  0.03560000  0.70450000  0.25070000  1.0 -0.1492154279
C  C8  1  0.96440000  0.29550000  0.74930000  1.0 -0.1492154279
C  C9  1  0.94990000  0.76240000  0.25110000  1.0 0.0703696716
C  C10  1  0.05010000  0.23760000  0.74890000  1.0 0.0703696716
C  C11  1  0.86260000  0.76810000  0.20110000  1.0 -0.1492154279
C  C12  1  0.13740000  0.23190000  0.79890000  1.0 -0.1492154279
C  C13  1  0.86920000  0.71840000  0.14970000  1.0 -0.0964699386
C  C14  1  0.13080000  0.28160000  0.85030000  1.0 -0.0948597291
C  C15  1  0.93460000  0.82070000  0.30430000  1.0 0.0798607929
C  C16  1  0.06540000  0.17930000  0.69570000  1.0 0.0798607929
C  C17  1  0.81130000  0.84920000  0.33040000  1.0 -0.1492154279
C  C18  1  0.18870000  0.15080000  0.66960000  1.0 -0.1492154279
C  C19  1  0.80030000  0.89970000  0.38240000  1.0 -0.0416630548
C  C20  1  0.19970000  0.10030000  0.61760000  1.0 -0.0416630548
C  C21  1  0.91630000  0.92410000  0.40400000  1.0 -0.1422850588
C  C22  1  0.08370000  0.07590000  0.59600000  1.0 -0.1422850588
C  C23  1  0.03930000  0.89490000  0.37700000  1.0 -0.0305247846
C  C24  1  0.96070000  0.10510000  0.62300000  1.0 -0.0305247846
C  C25  1  0.05080000  0.84020000  0.33030000  1.0 -0.1681007394
C  C26  1  0.94920000  0.15980000  0.66970000  1.0 -0.1681007394
C  C27  1  0.16870000  0.91210000  0.40070000  1.0 0.5064025126
C  C28  1  0.83130000  0.08790000  0.59930000  1.0 0.5064025126
C  C29  1  0.66690000  0.93050000  0.41180000  1.0 0.536750277
C  C30  1  0.33310000  0.06950000  0.58820000  1.0 0.536750277
C  C31  1  0.48270000  0.89330000  0.58520000  1.0 0.5645612976
C  C32  1  0.51730000  0.10670000  0.41480000  1.0 0.5645612976
C  C33  1  0.46300000  0.83780000  0.64480000  1.0 -0.0305247846
C  C34  1  0.53700000  0.16220000  0.35520000  1.0 -0.0305247846
C  C35  1  0.38700000  0.77620000  0.63640000  1.0 -0.1200762117
C  C36  1  0.61300000  0.22380000  0.36360000  1.0 -0.1200762117
C  C37  1  0.36840000  0.72380000  0.69250000  1.0 -0.1492154279
C  C38  1  0.63160000  0.27620000  0.30750000  1.0 -0.1492154279
C  C39  1  0.43270000  0.73850000  0.74490000  1.0 0.0703696716
C  C40  1  0.56730000  0.26150000  0.25510000  1.0 0.0703696716
C  C41  1  0.50280000  0.79710000  0.75230000  1.0 -0.1492154279
C  C42  1  0.49720000  0.20290000  0.24770000  1.0 -0.1492154279
C  C43  1  0.52950000  0.85050000  0.69710000  1.0 -0.1200762117
C  C44  1  0.47050000  0.14950000  0.30290000  1.0 -0.1200762117
C  C45  1  0.41990000  0.68120000  0.80010000  1.0 0.0798607929
C  C46  1  0.58010000  0.31880000  0.19990000  1.0 0.0798607929
C  C47  1  0.29310000  0.65400000  0.82270000  1.0 -0.1875164755
C  C48  1  0.70690000  0.34600000  0.17730000  1.0 -0.1875164755
C  C49  1  0.28200000  0.60900000  0.88290000  1.0 -0.0220466149
C  C50  1  0.71800000  0.39100000  0.11710000  1.0 -0.0220466149
C  C51  1  0.39390000  0.58720000  0.91020000  1.0 -0.1422850588
C  C52  1  0.60610000  0.41280000  0.08980000  1.0 -0.1422850588
C  C53  1  0.52030000  0.61250000  0.88710000  1.0 -0.0046294735
C  C54  1  0.47970000  0.38750000  0.11290000  1.0 -0.0046294735
C  C55  1  0.52960000  0.66010000  0.83090000  1.0 -0.1681007394
C  C56  1  0.47040000  0.33990000  0.16910000  1.0 -0.1681007394
C  C57  1  0.65000000  0.58360000  0.91650000  1.0 0.5064025126
C  C58  1  0.35000000  0.41640000  0.08350000  1.0 0.5064025126
C  C59  1  0.14800000  0.58440000  0.91300000  1.0 0.5755664609
C  C60  1  0.85200000  0.41560000  0.08700000  1.0 0.5755664609
C  C61  1  0.46650000  0.40010000  0.89760000  1.0 -0.3447802165
C  C62  1  0.53350000  0.59990000  0.10240000  1.0 -0.3447802165
C  C63  1  0.66180000  0.34270000  0.93350000  1.0 0.0276729044
C  C64  1  0.33820000  0.65730000  0.06650000  1.0 0.0276729044
C  C65  1  0.75270000  0.28200000  0.95240000  1.0 -0.1958216229
C  C66  1  0.24730000  0.71800000  0.04760000  1.0 -0.1958216229
C  C67  1  0.70750000  0.21520000  0.95330000  1.0 0.1184404737
C  C68  1  0.29250000  0.78480000  0.04670000  1.0 0.1184404737
C  C69  1  0.55680000  0.21190000  0.95170000  1.0 -0.1807529354
C  C70  1  0.44320000  0.78810000  0.04830000  1.0 -0.1807529354
C  C71  1  0.49700000  0.27250000  0.92840000  1.0 0.0276729044
C  C72  1  0.50300000  0.72750000  0.07160000  1.0 0.0276729044
C  C73  1  0.78660000  0.14640000  0.97260000  1.0 -0.0964699386
C  C74  1  0.21340000  0.85360000  0.02740000  1.0 -0.0964699386
C  C75  1  0.81940000  0.13660000  0.03940000  1.0 0.1884447834
C  C76  1  0.18060000  0.86340000  0.96060000  1.0 0.1884447834
C  C77  1  0.77350000  0.18860000  0.09190000  1.0 -0.1875164755
C  C78  1  0.22650000  0.81140000  0.90810000  1.0 -0.1875164755
C  C79  1  0.82930000  0.15940000  0.14640000  1.0 -0.2396887043
C  C80  1  0.17070000  0.84060000  0.85360000  1.0 -0.2396887043
C  C81  1  0.91230000  0.09550000  0.12660000  1.0 0.1690423763
C  C82  1  0.08770000  0.90450000  0.87340000  1.0 0.1690423763
C  C83  1  0.82420000  0.10370000  0.91610000  1.0 0.1690423763
C  C84  1  0.17580000  0.89630000  0.08390000  1.0 0.1690423763
C  C85  1  0.79460000  0.11680000  0.84890000  1.0 -0.1572004803
C  C86  1  0.20540000  0.88320000  0.15110000  1.0 -0.1572004803
C  C87  1  0.85480000  0.06220000  0.81170000  1.0 -0.1807529354
C  C88  1  0.14520000  0.93780000  0.18830000  1.0 -0.1807529354
C  C89  1  0.92440000  0.01170000  0.85420000  1.0 0.1690423763
C  C90  1  0.07560000  0.98830000  0.14580000  1.0 0.1690423763
C  C91  1  0.99360000  0.04930000  0.16480000  1.0 -0.1082917066
C  C92  1  0.00640000  0.95070000  0.83520000  1.0 -0.1082917066
C  C93  1  0.99420000  0.07030000  0.23730000  1.0 0.1414547554
C  C94  1  0.00580000  0.92970000  0.76270000  1.0 0.1414547554
C  C95  1  0.87940000  0.07780000  0.28050000  1.0 -0.208254824
C  C96  1  0.12060000  0.92220000  0.71950000  1.0 -0.208254824
C  C97  1  0.88620000  0.09580000  0.34600000  1.0 0.0276729044
C  C98  1  0.11380000  0.90420000  0.65400000  1.0 0.0276729044
C  C99  1  0.12210000  0.08150000  0.26130000  1.0 -0.208254824
C  C100  1  0.87790000  0.91850000  0.73870000  1.0 -0.208254824
C  C101  1  0.11640000  0.10350000  0.32510000  1.0 -0.0046294735
C  C102  1  0.88360000  0.89650000  0.67490000  1.0 -0.0046294735
C  C103  1  0.01100000  0.12850000  0.43760000  1.0 -0.3589437702
C  C104  1  0.98900000  0.87150000  0.56240000  1.0 -0.3589437702
N  N1  1  0.90020000  0.08350000  0.06060000  1.0 -0.3729138025
N  N2  1  0.09980000  0.91650000  0.93940000  1.0 -0.3729138025
N  N3  1  0.90190000  0.03620000  0.92190000  1.0 -0.4271994927
N  N4  1  0.09810000  0.96380000  0.07810000  1.0 -0.4271994927
N  N5  1  0.00140000  0.10660000  0.36740000  1.0 0.1414547554
N  N6  1  0.99860000  0.89340000  0.63260000  1.0 0.1414547554
N  N7  1  0.54000000  0.33670000  0.92320000  1.0 0.1184404737
N  N8  1  0.46000000  0.66330000  0.07680000  1.0 0.1184404737
Cl  Cl1  1  0.72950000  0.88230000  0.05250000  1.0 -0.6422439911
Cl  Cl2  1  0.27050000  0.11770000  0.94750000  1.0 -0.6422439911
O  O1  1  0.65090000  0.53370000  0.94810000  1.0 -0.4398155533
O  O2  1  0.34910000  0.46630000  0.05190000  1.0 -0.4398155533
O  O3  1  0.74350000  0.62950000  0.91260000  1.0 -0.6069784064
O  O4  1  0.25650000  0.37050000  0.08740000  1.0 -0.6069784064
O  O5  1  0.13880000  0.54800000  0.96410000  1.0 -0.5205228128
O  O6  1  0.86120000  0.45200000  0.03590000  1.0 -0.5205228128
O  O7  1  0.04200000  0.60820000  0.88770000  1.0 -0.6156463125
O  O8  1  0.95800000  0.39180000  0.11230000  1.0 -0.6156463125
O  O9  1  0.40520000  0.88820000  0.54110000  1.0 -0.5507088103
O  O10  1  0.59480000  0.11180000  0.45890000  1.0 -0.5507088103
O  O11  1  0.57820000  0.93090000  0.59280000  1.0 -0.5330849388
O  O12  1  0.42180000  0.06910000  0.40720000  1.0 -0.5330849388
O  O13  1  0.16920000  0.96500000  0.44150000  1.0 -0.5205228128
O  O14  1  0.83080000  0.03500000  0.55850000  1.0 -0.5205228128
O  O15  1  0.27920000  0.88940000  0.38150000  1.0 -0.4398155533
O  O16  1  0.72080000  0.11060000  0.61850000  1.0 -0.4398155533
O  O17  1  0.67500000  0.96650000  0.45790000  1.0 -0.4756389805
O  O18  1  0.32500000  0.03350000  0.54210000  1.0 -0.4756389805
O  O19  1  0.56760000  0.90870000  0.39560000  1.0 -0.4244396933
O  O20  1  0.43240000  0.09130000  0.60440000  1.0 -0.4244396933
O  O21  1  0.88780000  0.61190000  0.05360000  1.0 -0.6048060754
O  O22  1  0.11220000  0.38810000  0.94640000  1.0 -0.6069784064
O  O23  1  0.05410000  0.54910000  0.10300000  1.0 -0.5507088103
O  O24  1  0.94590000  0.45090000  0.89700000  1.0 -0.5507088103
