# DDEC6 charges by PACMAN v1.1 (https://github.com/mtap-research/PACMAN-charge/)
data_HEFHAF_ASR_pacman
_symmetry_space_group_name_H-M   'P 1'
_cell_length_a   28.01400000
_cell_length_b   28.01400000
_cell_length_c   28.01400000
_cell_angle_alpha   116.58900000
_cell_angle_beta   116.58900000
_cell_angle_gamma   96.01700000
_symmetry_Int_Tables_number   1
_chemical_formula_structural   Cu3H29C52(NO4)4
_chemical_formula_sum   'Cu24 H232 C416 N32 O128'
_cell_volume   16250.18322780
_cell_formula_units_Z   8
loop_
 _symmetry_equiv_pos_site_id
 _symmetry_equiv_pos_as_xyz
  1  'x, y, z'
loop_
 _atom_site_type_symbol
 _atom_site_label
 _atom_site_symmetry_multiplicity
 _atom_site_fract_x
 _atom_site_fract_y
 _atom_site_fract_z
 _atom_site_occupancy
 _atom_site_charge
Cu  Cu1  1  0.76380000  0.02431000  0.08333000  1.0 0.8505469224
Cu  Cu2  1  0.68508000  0.02902000  0.11058000  1.0 0.8373118377
Cu  Cu3  1  0.94098000  0.68047000  0.91667000  1.0 0.8505469224
Cu  Cu4  1  0.91844000  0.57450000  0.88942000  1.0 0.8373118377
Cu  Cu5  1  0.68047000  0.76380000  0.73949000  1.0 0.8505469224
Cu  Cu6  1  0.57450000  0.68508000  0.65606000  1.0 0.8373118377
Cu  Cu7  1  0.02431000  0.94098000  0.26051000  1.0 0.8505469224
Cu  Cu8  1  0.02902000  0.91844000  0.34394000  1.0 0.8373118377
Cu  Cu9  1  0.23620000  0.97569000  0.91667000  1.0 0.8505469224
Cu  Cu10  1  0.31492000  0.97098000  0.88942000  1.0 0.8373118377
Cu  Cu11  1  0.05902000  0.31953000  0.08333000  1.0 0.8505469224
Cu  Cu12  1  0.08156000  0.42550000  0.11058000  1.0 0.8373118377
Cu  Cu13  1  0.31953000  0.23620000  0.26051000  1.0 0.8505469224
Cu  Cu14  1  0.42550000  0.31492000  0.34394000  1.0 0.8373118377
Cu  Cu15  1  0.97569000  0.05902000  0.73949000  1.0 0.8505469224
Cu  Cu16  1  0.97098000  0.08156000  0.65606000  1.0 0.8373118377
Cu  Cu17  1  0.11243000  0.34697000  0.45940000  1.0 0.8373118377
Cu  Cu18  1  0.08524000  0.26132000  0.34656000  1.0 0.8373118377
Cu  Cu19  1  0.88757000  0.65303000  0.54060000  1.0 0.8373118377
Cu  Cu20  1  0.91476000  0.73868000  0.65344000  1.0 0.8373118377
Cu  Cu21  1  0.65303000  0.11243000  0.76546000  1.0 0.8373118377
Cu  Cu22  1  0.73868000  0.08524000  0.82392000  1.0 0.8373118377
Cu  Cu23  1  0.34697000  0.88757000  0.23454000  1.0 0.8373118377
Cu  Cu24  1  0.26132000  0.91476000  0.17608000  1.0 0.8373118377
H  H1  1  0.17170000  0.24070000  0.63680000  1.0 0.2879775128
H  H2  1  0.22220000  0.10880000  0.69200000  1.0 0.2879775128
H  H3  1  0.77740000  0.20120000  0.28380000  1.0 0.1406661778
H  H4  1  0.94080000  0.32160000  0.41520000  1.0 0.1205828962
H  H5  1  0.90510000  0.17890000  0.25600000  1.0 0.1406661778
H  H6  1  0.14850000  0.25850000  0.55900000  1.0 0.1406661778
H  H7  1  0.11990000  0.09580000  0.51510000  1.0 0.1489255341
H  H8  1  0.07500000  0.12240000  0.37400000  1.0 0.1406661778
H  H9  1  0.14430000  0.23630000  0.72200000  1.0 0.1298277712
H  H10  1  0.19240000  0.28540000  0.83280000  1.0 0.1205828962
H  H11  1  0.28770000  0.29770000  0.89420000  1.0 0.1122883069
H  H12  1  0.33520000  0.26100000  0.84500000  1.0 0.1205828962
H  H13  1  0.30480000  0.26170000  0.70470000  1.0 0.1205828962
H  H14  1  0.36260000  0.23700000  0.66640000  1.0 0.1122883069
H  H15  1  0.39250000  0.16240000  0.66450000  1.0 0.1205828962
H  H16  1  0.36440000  0.11240000  0.70080000  1.0 0.1298277712
H  H17  1  0.14290000  0.09630000  0.69900000  1.0 0.1489255341
H  H18  1  0.13930000  0.03610000  0.80320000  1.0 0.1489255341
H  H19  1  0.27120000  0.05200000  0.78340000  1.0 0.1489255341
H  H20  1  0.84500000  0.33300000  0.42200000  1.0 0.1489255341
H  H21  1  0.77300000  0.43210000  0.53490000  1.0 0.1122883069
H  H22  1  0.75650000  0.49960000  0.50990000  1.0 0.1205828962
H  H23  1  0.75340000  0.48690000  0.41890000  1.0 0.1122883069
H  H24  1  0.76800000  0.40740000  0.35820000  1.0 0.1122883069
H  H25  1  0.87590000  0.35500000  0.42330000  1.0 0.1688811424
H  H26  1  0.82440000  0.26250000  0.56990000  1.0 0.0821703634
H  H27  1  0.81250000  0.22280000  0.46970000  1.0 0.1034449598
H  H28  1  0.79710000  0.40180000  0.56830000  1.0 0.0898132993
H  H29  1  0.73280000  0.19740000  0.38080000  1.0 0.2094206716
H  H30  1  0.60390000  0.53490000  0.36320000  1.0 0.2843238673
H  H31  1  0.41680000  0.53020000  0.30800000  1.0 0.2879775128
H  H32  1  0.91740000  0.49360000  0.71620000  1.0 0.1406661778
H  H33  1  0.90640000  0.52560000  0.58480000  1.0 0.1205828962
H  H34  1  0.92290000  0.64910000  0.74400000  1.0 0.1406661778
H  H35  1  0.69950000  0.58950000  0.44100000  1.0 0.1406661778
H  H36  1  0.58070000  0.60480000  0.48490000  1.0 0.1489255341
H  H37  1  0.74840000  0.70100000  0.62600000  1.0 0.1406661778
H  H38  1  0.51430000  0.42230000  0.27800000  1.0 0.1298277712
H  H39  1  0.45260000  0.35960000  0.16720000  1.0 0.1205828962
H  H40  1  0.40350000  0.39350000  0.10580000  1.0 0.1122883069
H  H41  1  0.41600000  0.49020000  0.15500000  1.0 0.1205828962
H  H42  1  0.55700000  0.60010000  0.29530000  1.0 0.1205828962
H  H43  1  0.57060000  0.69620000  0.33360000  1.0 0.1122883069
H  H44  1  0.49790000  0.72800000  0.33550000  1.0 0.1205828962
H  H45  1  0.41160000  0.66360000  0.29920000  1.0 0.1298277712
H  H46  1  0.39730000  0.44390000  0.30100000  1.0 0.1489255341
H  H47  1  0.23290000  0.33610000  0.19680000  1.0 0.1489255341
H  H48  1  0.26860000  0.48780000  0.21660000  1.0 0.1489255341
H  H49  1  0.91100000  0.42300000  0.57800000  1.0 0.1489255341
H  H50  1  0.89720000  0.23810000  0.46510000  1.0 0.1122883069
H  H51  1  0.98970000  0.24660000  0.49010000  1.0 0.1205828962
H  H52  1  0.06800000  0.33450000  0.58110000  1.0 0.1122883069
H  H53  1  0.04920000  0.40980000  0.64180000  1.0 0.1122883069
H  H54  1  0.93170000  0.45260000  0.57670000  1.0 0.1688811424
H  H55  1  0.69260000  0.25450000  0.43010000  1.0 0.0821703634
H  H56  1  0.75310000  0.34280000  0.53030000  1.0 0.1034449598
H  H57  1  0.83350000  0.22880000  0.43170000  1.0 0.0898132993
H  H58  1  0.81660000  0.35200000  0.61920000  1.0 0.2094206716
H  H59  1  0.53490000  0.17170000  0.93100000  1.0 0.2879775128
H  H60  1  0.53020000  0.22220000  0.11340000  1.0 0.2879775128
H  H61  1  0.49360000  0.77740000  0.57620000  1.0 0.1406661778
H  H62  1  0.52560000  0.94080000  0.61920000  1.0 0.1205828962
H  H63  1  0.64910000  0.90510000  0.72620000  1.0 0.1406661778
H  H64  1  0.58950000  0.14850000  0.89000000  1.0 0.1406661778
H  H65  1  0.60480000  0.11990000  0.02410000  1.0 0.1489255341
H  H66  1  0.70100000  0.07500000  0.95260000  1.0 0.1406661778
H  H67  1  0.42230000  0.14430000  0.90800000  1.0 0.1298277712
H  H68  1  0.35960000  0.19240000  0.90700000  1.0 0.1205828962
H  H69  1  0.39350000  0.28770000  0.99000000  1.0 0.1122883069
H  H70  1  0.49020000  0.33520000  0.07420000  1.0 0.1205828962
H  H71  1  0.60010000  0.30480000  0.04310000  1.0 0.1205828962
H  H72  1  0.69620000  0.36260000  0.12560000  1.0 0.1122883069
H  H73  1  0.72800000  0.39250000  0.23010000  1.0 0.1205828962
H  H74  1  0.66360000  0.36440000  0.25200000  1.0 0.1298277712
H  H75  1  0.44390000  0.14290000  0.04660000  1.0 0.1489255341
H  H76  1  0.33610000  0.13930000  0.10320000  1.0 0.1489255341
H  H77  1  0.48780000  0.27120000  0.21920000  1.0 0.1489255341
H  H78  1  0.42300000  0.84500000  0.51200000  1.0 0.1489255341
H  H79  1  0.23810000  0.77300000  0.34090000  1.0 0.1122883069
H  H80  1  0.24660000  0.75650000  0.25690000  1.0 0.1205828962
H  H81  1  0.33450000  0.75340000  0.26650000  1.0 0.1122883069
H  H82  1  0.40980000  0.76800000  0.36060000  1.0 0.1122883069
H  H83  1  0.45260000  0.87590000  0.52090000  1.0 0.1688811424
H  H84  1  0.25450000  0.82440000  0.56190000  1.0 0.0821703634
H  H85  1  0.34280000  0.81250000  0.58970000  1.0 0.1034449598
H  H86  1  0.22880000  0.79710000  0.39530000  1.0 0.0898132993
H  H87  1  0.35200000  0.73280000  0.53540000  1.0 0.2094206716
H  H88  1  0.24070000  0.60390000  0.06900000  1.0 0.2843238673
H  H89  1  0.10880000  0.41680000  0.88660000  1.0 0.2879775128
H  H90  1  0.20120000  0.91740000  0.42380000  1.0 0.1406661778
H  H91  1  0.32160000  0.90640000  0.38080000  1.0 0.1205828962
H  H92  1  0.17890000  0.92290000  0.27380000  1.0 0.1406661778
H  H93  1  0.25850000  0.69950000  0.11000000  1.0 0.1406661778
H  H94  1  0.09580000  0.58070000  0.97590000  1.0 0.1489255341
H  H95  1  0.12240000  0.74840000  0.04740000  1.0 0.1406661778
H  H96  1  0.23630000  0.51430000  0.09200000  1.0 0.1298277712
H  H97  1  0.28540000  0.45260000  0.09300000  1.0 0.1205828962
H  H98  1  0.29770000  0.40350000  0.01000000  1.0 0.1122883069
H  H99  1  0.26100000  0.41600000  0.92580000  1.0 0.1205828962
H  H100  1  0.26170000  0.55700000  0.95690000  1.0 0.1205828962
H  H101  1  0.23700000  0.57060000  0.87440000  1.0 0.1122883069
H  H102  1  0.16240000  0.49790000  0.76990000  1.0 0.1205828962
H  H103  1  0.11240000  0.41160000  0.74800000  1.0 0.1298277712
H  H104  1  0.09630000  0.39730000  0.95340000  1.0 0.1489255341
H  H105  1  0.03610000  0.23290000  0.89680000  1.0 0.1489255341
H  H106  1  0.05200000  0.26860000  0.78080000  1.0 0.1489255341
H  H107  1  0.33300000  0.91100000  0.48800000  1.0 0.1489255341
H  H108  1  0.43210000  0.89720000  0.65910000  1.0 0.1122883069
H  H109  1  0.49960000  0.98970000  0.74310000  1.0 0.1205828962
H  H110  1  0.48690000  0.06800000  0.73350000  1.0 0.1122883069
H  H111  1  0.40740000  0.04920000  0.63940000  1.0 0.1122883069
H  H112  1  0.35500000  0.93170000  0.47910000  1.0 0.1688811424
H  H113  1  0.26250000  0.69260000  0.43810000  1.0 0.0821703634
H  H114  1  0.22280000  0.75310000  0.41030000  1.0 0.1034449598
H  H115  1  0.40180000  0.83350000  0.60470000  1.0 0.0898132993
H  H116  1  0.19740000  0.81660000  0.46460000  1.0 0.2094206716
H  H117  1  0.82830000  0.75930000  0.36320000  1.0 0.2879775128
H  H118  1  0.77780000  0.89120000  0.30800000  1.0 0.2879775128
H  H119  1  0.22260000  0.79880000  0.71620000  1.0 0.1406661778
H  H120  1  0.05920000  0.67840000  0.58480000  1.0 0.1205828962
H  H121  1  0.09490000  0.82110000  0.74400000  1.0 0.1406661778
H  H122  1  0.85150000  0.74150000  0.44100000  1.0 0.1406661778
H  H123  1  0.88010000  0.90420000  0.48490000  1.0 0.1489255341
H  H124  1  0.92500000  0.87760000  0.62600000  1.0 0.1406661778
H  H125  1  0.85570000  0.76370000  0.27800000  1.0 0.1298277712
H  H126  1  0.80760000  0.71460000  0.16720000  1.0 0.1205828962
H  H127  1  0.71230000  0.70230000  0.10580000  1.0 0.1122883069
H  H128  1  0.66480000  0.73900000  0.15500000  1.0 0.1205828962
H  H129  1  0.69520000  0.73830000  0.29530000  1.0 0.1205828962
H  H130  1  0.63740000  0.76300000  0.33360000  1.0 0.1122883069
H  H131  1  0.60750000  0.83760000  0.33550000  1.0 0.1205828962
H  H132  1  0.63560000  0.88760000  0.29920000  1.0 0.1298277712
H  H133  1  0.85710000  0.90370000  0.30100000  1.0 0.1489255341
H  H134  1  0.86070000  0.96390000  0.19680000  1.0 0.1489255341
H  H135  1  0.72880000  0.94800000  0.21660000  1.0 0.1489255341
H  H136  1  0.15500000  0.66700000  0.57800000  1.0 0.1489255341
H  H137  1  0.22700000  0.56790000  0.46510000  1.0 0.1122883069
H  H138  1  0.24350000  0.50040000  0.49010000  1.0 0.1205828962
H  H139  1  0.24660000  0.51310000  0.58110000  1.0 0.1122883069
H  H140  1  0.23200000  0.59260000  0.64180000  1.0 0.1122883069
H  H141  1  0.12410000  0.64500000  0.57670000  1.0 0.1688811424
H  H142  1  0.17560000  0.73750000  0.43010000  1.0 0.0821703634
H  H143  1  0.18750000  0.77720000  0.53030000  1.0 0.1034449598
H  H144  1  0.20290000  0.59820000  0.43170000  1.0 0.0898132993
H  H145  1  0.26720000  0.80260000  0.61920000  1.0 0.2094206716
H  H146  1  0.39610000  0.46510000  0.63680000  1.0 0.2879775128
H  H147  1  0.58320000  0.46980000  0.69200000  1.0 0.2879775128
H  H148  1  0.08260000  0.50640000  0.28380000  1.0 0.1406661778
H  H149  1  0.09360000  0.47440000  0.41520000  1.0 0.1205828962
H  H150  1  0.07710000  0.35090000  0.25600000  1.0 0.1406661778
H  H151  1  0.30050000  0.41050000  0.55900000  1.0 0.1406661778
H  H152  1  0.41930000  0.39520000  0.51510000  1.0 0.1489255341
H  H153  1  0.25160000  0.29900000  0.37400000  1.0 0.1406661778
H  H154  1  0.48570000  0.57770000  0.72200000  1.0 0.1298277712
H  H155  1  0.54740000  0.64040000  0.83280000  1.0 0.1205828962
H  H156  1  0.59650000  0.60650000  0.89420000  1.0 0.1122883069
H  H157  1  0.58400000  0.50980000  0.84500000  1.0 0.1205828962
H  H158  1  0.44300000  0.39990000  0.70470000  1.0 0.1205828962
H  H159  1  0.42940000  0.30380000  0.66640000  1.0 0.1122883069
H  H160  1  0.50210000  0.27200000  0.66450000  1.0 0.1205828962
H  H161  1  0.58840000  0.33640000  0.70080000  1.0 0.1298277712
H  H162  1  0.60270000  0.55610000  0.69900000  1.0 0.1489255341
H  H163  1  0.76710000  0.66390000  0.80320000  1.0 0.1489255341
H  H164  1  0.73140000  0.51220000  0.78340000  1.0 0.1489255341
H  H165  1  0.08900000  0.57700000  0.42200000  1.0 0.1489255341
H  H166  1  0.10280000  0.76190000  0.53490000  1.0 0.1122883069
H  H167  1  0.01030000  0.75340000  0.50990000  1.0 0.1205828962
H  H168  1  0.93200000  0.66550000  0.41890000  1.0 0.1122883069
H  H169  1  0.95080000  0.59020000  0.35820000  1.0 0.1122883069
H  H170  1  0.06830000  0.54740000  0.42330000  1.0 0.1688811424
H  H171  1  0.30740000  0.74550000  0.56990000  1.0 0.0821703634
H  H172  1  0.24690000  0.65720000  0.46970000  1.0 0.1034449598
H  H173  1  0.16650000  0.77120000  0.56830000  1.0 0.0898132993
H  H174  1  0.18340000  0.64800000  0.38080000  1.0 0.2094206716
H  H175  1  0.46510000  0.82830000  0.06900000  1.0 0.2879775128
H  H176  1  0.46980000  0.77780000  0.88660000  1.0 0.2879775128
H  H177  1  0.50640000  0.22260000  0.42380000  1.0 0.1406661778
H  H178  1  0.47440000  0.05920000  0.38080000  1.0 0.1205828962
H  H179  1  0.35090000  0.09490000  0.27380000  1.0 0.1406661778
H  H180  1  0.41050000  0.85150000  0.11000000  1.0 0.1406661778
H  H181  1  0.39520000  0.88010000  0.97590000  1.0 0.1489255341
H  H182  1  0.29900000  0.92500000  0.04740000  1.0 0.1406661778
H  H183  1  0.57770000  0.85570000  0.09200000  1.0 0.1298277712
H  H184  1  0.64040000  0.80760000  0.09300000  1.0 0.1205828962
H  H185  1  0.60650000  0.71230000  0.01000000  1.0 0.1122883069
H  H186  1  0.50980000  0.66480000  0.92580000  1.0 0.1205828962
H  H187  1  0.39990000  0.69520000  0.95690000  1.0 0.1205828962
H  H188  1  0.30380000  0.63740000  0.87440000  1.0 0.1122883069
H  H189  1  0.27200000  0.60750000  0.76990000  1.0 0.1205828962
H  H190  1  0.33640000  0.63560000  0.74800000  1.0 0.1298277712
H  H191  1  0.55610000  0.85710000  0.95340000  1.0 0.1489255341
H  H192  1  0.66390000  0.86070000  0.89680000  1.0 0.1489255341
H  H193  1  0.51220000  0.72880000  0.78080000  1.0 0.1489255341
H  H194  1  0.57700000  0.15500000  0.48800000  1.0 0.1489255341
H  H195  1  0.76190000  0.22700000  0.65910000  1.0 0.1122883069
H  H196  1  0.75340000  0.24350000  0.74310000  1.0 0.1205828962
H  H197  1  0.66550000  0.24660000  0.73350000  1.0 0.1122883069
H  H198  1  0.59020000  0.23200000  0.63940000  1.0 0.1122883069
H  H199  1  0.54740000  0.12410000  0.47910000  1.0 0.1688811424
H  H200  1  0.74550000  0.17560000  0.43810000  1.0 0.0821703634
H  H201  1  0.65720000  0.18750000  0.41030000  1.0 0.1034449598
H  H202  1  0.77120000  0.20290000  0.60470000  1.0 0.0898132993
H  H203  1  0.64800000  0.26720000  0.46460000  1.0 0.2094206716
H  H204  1  0.75930000  0.39610000  0.93100000  1.0 0.2879775128
H  H205  1  0.89120000  0.58320000  0.11340000  1.0 0.2879775128
H  H206  1  0.79880000  0.08260000  0.57620000  1.0 0.1406661778
H  H207  1  0.67840000  0.09360000  0.61920000  1.0 0.1205828962
H  H208  1  0.82110000  0.07710000  0.72620000  1.0 0.1406661778
H  H209  1  0.74150000  0.30050000  0.89000000  1.0 0.1406661778
H  H210  1  0.90420000  0.41930000  0.02410000  1.0 0.1489255341
H  H211  1  0.87760000  0.25160000  0.95260000  1.0 0.1406661778
H  H212  1  0.76370000  0.48570000  0.90800000  1.0 0.1298277712
H  H213  1  0.71460000  0.54740000  0.90700000  1.0 0.1205828962
H  H214  1  0.70230000  0.59650000  0.99000000  1.0 0.1122883069
H  H215  1  0.73900000  0.58400000  0.07420000  1.0 0.1205828962
H  H216  1  0.73830000  0.44300000  0.04310000  1.0 0.1205828962
H  H217  1  0.76300000  0.42940000  0.12560000  1.0 0.1122883069
H  H218  1  0.83760000  0.50210000  0.23010000  1.0 0.1205828962
H  H219  1  0.88760000  0.58840000  0.25200000  1.0 0.1298277712
H  H220  1  0.90370000  0.60270000  0.04660000  1.0 0.1489255341
H  H221  1  0.96390000  0.76710000  0.10320000  1.0 0.1489255341
H  H222  1  0.94800000  0.73140000  0.21920000  1.0 0.1489255341
H  H223  1  0.66700000  0.08900000  0.51200000  1.0 0.1489255341
H  H224  1  0.56790000  0.10280000  0.34090000  1.0 0.1122883069
H  H225  1  0.50040000  0.01030000  0.25690000  1.0 0.1205828962
H  H226  1  0.51310000  0.93200000  0.26650000  1.0 0.1122883069
H  H227  1  0.59260000  0.95080000  0.36060000  1.0 0.1122883069
H  H228  1  0.64500000  0.06830000  0.52090000  1.0 0.1688811424
H  H229  1  0.73750000  0.30740000  0.56190000  1.0 0.0821703634
H  H230  1  0.77720000  0.24690000  0.58970000  1.0 0.1034449598
H  H231  1  0.59820000  0.16650000  0.39530000  1.0 0.0898132993
H  H232  1  0.80260000  0.18340000  0.53540000  1.0 0.2094206716
C  C1  1  0.79305000  0.12527000  0.19712000  1.0 0.5790488476
C  C2  1  0.83340000  0.18269000  0.25851000  1.0 -0.0069608959
C  C3  1  0.81529000  0.21604000  0.29653000  1.0 -0.1964420353
C  C4  1  0.85200000  0.27027000  0.35377000  1.0 0.2260321154
C  C5  1  0.91347000  0.28790000  0.37523000  1.0 -0.2382634162
C  C6  1  0.93052000  0.25667000  0.33943000  1.0 0.0101688552
C  C7  1  0.89190000  0.20134000  0.27962000  1.0 -0.1233042116
C  C8  1  0.99318000  0.27375000  0.36155000  1.0 0.5790488476
C  C9  1  0.10655000  0.23832000  0.44125000  1.0 0.5714203789
C  C10  1  0.11269000  0.19776000  0.46357000  1.0 0.018129425
C  C11  1  0.13418000  0.21905000  0.52857000  1.0 -0.2382634162
C  C12  1  0.13298000  0.17861000  0.54565000  1.0 0.2176314591
C  C13  1  0.11612000  0.12116000  0.50200000  1.0 -0.1863239053
C  C14  1  0.09307000  0.10046000  0.43731000  1.0 0.0101688552
C  C15  1  0.09082000  0.13676000  0.41706000  1.0 -0.1233042116
C  C16  1  0.06909000  0.03473000  0.38658000  1.0 0.5790488476
C  C17  1  0.17971000  0.18264000  0.64729000  1.0 0.4396060517
C  C18  1  0.21099000  0.21920000  0.71713000  1.0 -0.0995572927
C  C19  1  0.18259000  0.24121000  0.74664000  1.0 -0.1089139656
C  C20  1  0.21135000  0.27062000  0.81299000  1.0 -0.0810675669
C  C21  1  0.26851000  0.27801000  0.84982000  1.0 -0.0885539775
C  C22  1  0.29691000  0.25600000  0.82031000  1.0 -0.1422166965
C  C23  1  0.26815000  0.22660000  0.75397000  1.0 0.0415060421
C  C24  1  0.29872000  0.12697000  0.74955000  1.0 0.4642228148
C  C25  1  0.29990000  0.20177000  0.72567000  1.0 0.0415060421
C  C26  1  0.31671000  0.23177000  0.70392000  1.0 -0.1471004394
C  C27  1  0.35140000  0.21702000  0.68100000  1.0 -0.0885539775
C  C28  1  0.36927000  0.17229000  0.67984000  1.0 -0.0995572927
C  C29  1  0.35246000  0.14229000  0.70159000  1.0 -0.0885539775
C  C30  1  0.31777000  0.15703000  0.72452000  1.0 -0.0628743198
C  C31  1  0.21407000  0.08175000  0.74278000  1.0 0.2094206716
C  C32  1  0.16006000  0.08329000  0.72527000  1.0 -0.1803031603
C  C33  1  0.13205000  0.06544000  0.74823000  1.0 0.0101688552
C  C34  1  0.15743000  0.04617000  0.78632000  1.0 -0.0995572927
C  C35  1  0.20877000  0.04135000  0.79978000  1.0 -0.0034999312
C  C36  1  0.23726000  0.05773000  0.77667000  1.0 -0.1646190533
C  C37  1  0.07160000  0.06978000  0.73018000  1.0 0.5714203789
C  C38  1  0.23492000  0.01605000  0.83919000  1.0 0.5790488476
C  C39  1  0.81179000  0.33575000  0.57824000  1.0 0.0101688552
C  C40  1  0.80021000  0.36520000  0.54813000  1.0 -0.0628743198
C  C41  1  0.79112000  0.25988000  0.39676000  1.0 0.0696342921
C  C42  1  0.81636000  0.28280000  0.54906000  1.0 -0.1803031603
C  C43  1  0.80935000  0.25932000  0.48979000  1.0 -0.0184114223
C  C44  1  0.79778000  0.28879000  0.45969000  1.0 0.018129425
C  C45  1  0.79321000  0.34173000  0.48886000  1.0 -0.051290379
C  C46  1  0.77909000  0.37244000  0.41057000  1.0 -0.0995572927
C  C47  1  0.78122000  0.37877000  0.46249000  1.0 -0.0810675669
C  C48  1  0.77223000  0.42694000  0.49827000  1.0 -0.1803031603
C  C49  1  0.76218000  0.46721000  0.48401000  1.0 -0.0697449238
C  C50  1  0.76029000  0.45981000  0.43072000  1.0 -0.0885539775
C  C51  1  0.76889000  0.41272000  0.39501000  1.0 -0.0995572927
C  C52  1  0.78763000  0.32288000  0.36791000  1.0 0.3258952236
C  C53  1  0.92815000  0.59593000  0.80288000  1.0 0.5790488476
C  C54  1  0.92418000  0.57489000  0.74149000  1.0 -0.0069608959
C  C55  1  0.91951000  0.51876000  0.70347000  1.0 -0.1964420353
C  C56  1  0.91650000  0.49823000  0.64623000  1.0 0.2260321154
C  C57  1  0.91267000  0.53824000  0.62477000  1.0 -0.2382634162
C  C58  1  0.91724000  0.59109000  0.66057000  1.0 0.0101688552
C  C59  1  0.92172000  0.61228000  0.72038000  1.0 -0.1233042116
C  C60  1  0.91220000  0.63163000  0.63845000  1.0 0.5790488476
C  C61  1  0.79707000  0.66530000  0.55875000  1.0 0.5714203789
C  C62  1  0.73419000  0.64912000  0.53643000  1.0 0.018129425
C  C63  1  0.69048000  0.60561000  0.47143000  1.0 -0.2382634162
C  C64  1  0.63296000  0.58733000  0.45435000  1.0 0.2176314591
C  C65  1  0.61916000  0.61412000  0.49800000  1.0 -0.1863239053
C  C66  1  0.66315000  0.65576000  0.56269000  1.0 0.0101688552
C  C67  1  0.71970000  0.67376000  0.58294000  1.0 -0.1233042116
C  C68  1  0.64815000  0.68251000  0.61342000  1.0 0.5790488476
C  C69  1  0.53535000  0.53242000  0.35271000  1.0 0.4396060517
C  C70  1  0.50207000  0.49386000  0.28287000  1.0 -0.0995572927
C  C71  1  0.49457000  0.43595000  0.25336000  1.0 -0.1089139656
C  C72  1  0.45763000  0.39836000  0.18701000  1.0 -0.0810675669
C  C73  1  0.42819000  0.41869000  0.15018000  1.0 -0.0885539775
C  C74  1  0.43569000  0.47660000  0.17969000  1.0 -0.1422166965
C  C75  1  0.47263000  0.51418000  0.24603000  1.0 0.0415060421
C  C76  1  0.37742000  0.54917000  0.25045000  1.0 0.465131875
C  C77  1  0.47610000  0.57423000  0.27433000  1.0 0.0415060421
C  C78  1  0.52785000  0.61279000  0.29608000  1.0 -0.1471004394
C  C79  1  0.53602000  0.67040000  0.31900000  1.0 -0.0885539775
C  C80  1  0.49245000  0.68943000  0.32016000  1.0 -0.0995572927
C  C81  1  0.44070000  0.65087000  0.29841000  1.0 -0.0995572927
C  C82  1  0.43251000  0.59325000  0.27548000  1.0 -0.0628743198
C  C83  1  0.33897000  0.47129000  0.25722000  1.0 0.2094206716
C  C84  1  0.35802000  0.43479000  0.27473000  1.0 -0.1863239053
C  C85  1  0.31721000  0.38382000  0.25177000  1.0 0.0101688552
C  C86  1  0.25985000  0.37111000  0.21368000  1.0 -0.0995572927
C  C87  1  0.24157000  0.40899000  0.20022000  1.0 -0.0034999312
C  C88  1  0.28106000  0.46059000  0.22333000  1.0 -0.1646190533
C  C89  1  0.33960000  0.34142000  0.26982000  1.0 0.5714203789
C  C90  1  0.17686000  0.39573000  0.16081000  1.0 0.5790488476
C  C91  1  0.75751000  0.23355000  0.42176000  1.0 0.0101688552
C  C92  1  0.81707000  0.25208000  0.45187000  1.0 -0.0628743198
C  C93  1  0.86312000  0.39436000  0.60324000  1.0 0.0696342921
C  C94  1  0.73374000  0.26730000  0.45094000  1.0 -0.1803031603
C  C95  1  0.76953000  0.31956000  0.51021000  1.0 -0.0184114223
C  C96  1  0.82910000  0.33809000  0.54031000  1.0 0.018129425
C  C97  1  0.85287000  0.30435000  0.51114000  1.0 -0.051290379
C  C98  1  0.96187000  0.36852000  0.58943000  1.0 -0.0995572927
C  C99  1  0.91628000  0.31873000  0.53751000  1.0 -0.0810675669
C  C100  1  0.92867000  0.27396000  0.50173000  1.0 -0.1803031603
C  C101  1  0.98320000  0.27817000  0.51599000  1.0 -0.0697449238
C  C102  1  0.02909000  0.32957000  0.56928000  1.0 -0.0885539775
C  C103  1  0.01771000  0.37388000  0.60499000  1.0 -0.0995572927
C  C104  1  0.95497000  0.41972000  0.63209000  1.0 0.3258952236
C  C105  1  0.59593000  0.79305000  0.66778000  1.0 0.5790488476
C  C106  1  0.57489000  0.83340000  0.65071000  1.0 -0.0069608959
C  C107  1  0.51876000  0.81529000  0.59925000  1.0 -0.1964420353
C  C108  1  0.49823000  0.85200000  0.58173000  1.0 0.2260321154
C  C109  1  0.53824000  0.91347000  0.62557000  1.0 -0.2382634162
C  C110  1  0.59109000  0.93052000  0.67385000  1.0 0.0101688552
C  C111  1  0.61228000  0.89190000  0.69056000  1.0 -0.1233042116
C  C112  1  0.63163000  0.99318000  0.71943000  1.0 0.5790488476
C  C113  1  0.66530000  0.10655000  0.86823000  1.0 0.5714203789
C  C114  1  0.64912000  0.11269000  0.91493000  1.0 0.018129425
C  C115  1  0.60561000  0.13418000  0.91513000  1.0 -0.2382634162
C  C116  1  0.58733000  0.13298000  0.95437000  1.0 0.2176314591
C  C117  1  0.61412000  0.11612000  0.99496000  1.0 -0.1863239053
C  C118  1  0.65576000  0.09307000  0.99261000  1.0 0.0101688552
C  C119  1  0.67376000  0.09082000  0.95406000  1.0 -0.1233042116
C  C120  1  0.68251000  0.06909000  0.03436000  1.0 0.5790488476
C  C121  1  0.53242000  0.17971000  0.99707000  1.0 0.4396060517
C  C122  1  0.49386000  0.21099000  0.99179000  1.0 -0.0995572927
C  C123  1  0.43595000  0.18259000  0.94138000  1.0 -0.1089139656
C  C124  1  0.39836000  0.21135000  0.94073000  1.0 -0.0810675669
C  C125  1  0.41869000  0.26851000  0.99050000  1.0 -0.0885539775
C  C126  1  0.47660000  0.29691000  0.04091000  1.0 -0.1422166965
C  C127  1  0.51418000  0.26815000  0.04155000  1.0 0.0415060421
C  C128  1  0.54917000  0.29872000  0.17175000  1.0 0.4642228148
C  C129  1  0.57423000  0.29990000  0.09813000  1.0 0.0415060421
C  C130  1  0.61279000  0.31671000  0.08494000  1.0 -0.1471004394
C  C131  1  0.67040000  0.35140000  0.13438000  1.0 -0.0885539775
C  C132  1  0.68943000  0.36927000  0.19698000  1.0 -0.0995572927
C  C133  1  0.65087000  0.35246000  0.21017000  1.0 -0.0995572927
C  C134  1  0.59325000  0.31777000  0.16074000  1.0 -0.0628743198
C  C135  1  0.47129000  0.21407000  0.13232000  1.0 0.2094206716
C  C136  1  0.43479000  0.16006000  0.07677000  1.0 -0.1803031603
C  C137  1  0.38382000  0.13205000  0.06661000  1.0 0.0101688552
C  C138  1  0.37111000  0.15743000  0.11126000  1.0 -0.0995572927
C  C139  1  0.40899000  0.20877000  0.16742000  1.0 -0.0034999312
C  C140  1  0.46059000  0.23726000  0.17953000  1.0 -0.1654753277
C  C141  1  0.34142000  0.07160000  0.00182000  1.0 0.5714203789
C  C142  1  0.39573000  0.23492000  0.21887000  1.0 0.5790488476
C  C143  1  0.23355000  0.81179000  0.47604000  1.0 0.0101688552
C  C144  1  0.25208000  0.80021000  0.43501000  1.0 -0.0628743198
C  C145  1  0.39436000  0.79112000  0.53124000  1.0 0.0696342921
C  C146  1  0.26730000  0.81636000  0.53356000  1.0 -0.1803031603
C  C147  1  0.31956000  0.80935000  0.55003000  1.0 -0.0184114223
C  C148  1  0.33809000  0.79778000  0.50899000  1.0 0.018129425
C  C149  1  0.30435000  0.79321000  0.45148000  1.0 -0.051290379
C  C150  1  0.36852000  0.77909000  0.40665000  1.0 -0.0995572927
C  C151  1  0.31873000  0.78122000  0.40245000  1.0 -0.0810675669
C  C152  1  0.27396000  0.77223000  0.34529000  1.0 -0.1803031603
C  C153  1  0.27817000  0.76218000  0.29497000  1.0 -0.0697449238
C  C154  1  0.32957000  0.76029000  0.30048000  1.0 -0.0885539775
C  C155  1  0.37388000  0.76889000  0.35617000  1.0 -0.0995572927
C  C156  1  0.41972000  0.78763000  0.46475000  1.0 0.3258952236
C  C157  1  0.12527000  0.92815000  0.33222000  1.0 0.5790488476
C  C158  1  0.18269000  0.92418000  0.34929000  1.0 -0.0069608959
C  C159  1  0.21604000  0.91951000  0.40075000  1.0 -0.1964420353
C  C160  1  0.27027000  0.91650000  0.41827000  1.0 0.2260321154
C  C161  1  0.28790000  0.91267000  0.37443000  1.0 -0.2382634162
C  C162  1  0.25667000  0.91724000  0.32615000  1.0 0.0101688552
C  C163  1  0.20134000  0.92172000  0.30944000  1.0 -0.1254047343
C  C164  1  0.27375000  0.91220000  0.28057000  1.0 0.5790488476
C  C165  1  0.23832000  0.79707000  0.13177000  1.0 0.5714203789
C  C166  1  0.19776000  0.73419000  0.08507000  1.0 0.018129425
C  C167  1  0.21905000  0.69048000  0.08487000  1.0 -0.2382634162
C  C168  1  0.17861000  0.63296000  0.04563000  1.0 0.2176314591
C  C169  1  0.12116000  0.61916000  0.00504000  1.0 -0.1863239053
C  C170  1  0.10046000  0.66315000  0.00739000  1.0 0.0101688552
C  C171  1  0.13676000  0.71970000  0.04594000  1.0 -0.1233042116
C  C172  1  0.03473000  0.64815000  0.96564000  1.0 0.5790488476
C  C173  1  0.18264000  0.53535000  0.00293000  1.0 0.4396060517
C  C174  1  0.21920000  0.50207000  0.00821000  1.0 -0.0995572927
C  C175  1  0.24121000  0.49457000  0.05862000  1.0 -0.1089139656
C  C176  1  0.27062000  0.45763000  0.05927000  1.0 -0.0810675669
C  C177  1  0.27801000  0.42819000  0.00950000  1.0 -0.0885539775
C  C178  1  0.25600000  0.43569000  0.95909000  1.0 -0.1422166965
C  C179  1  0.22660000  0.47263000  0.95845000  1.0 0.0415060421
C  C180  1  0.12697000  0.37742000  0.82825000  1.0 0.4642228148
C  C181  1  0.20177000  0.47610000  0.90187000  1.0 0.0415060421
C  C182  1  0.23177000  0.52785000  0.91506000  1.0 -0.1471004394
C  C183  1  0.21702000  0.53602000  0.86562000  1.0 -0.0885539775
C  C184  1  0.17229000  0.49245000  0.80302000  1.0 -0.0995572927
C  C185  1  0.14229000  0.44070000  0.78983000  1.0 -0.0885539775
C  C186  1  0.15703000  0.43251000  0.83926000  1.0 -0.0628743198
C  C187  1  0.08175000  0.33897000  0.86768000  1.0 0.2094206716
C  C188  1  0.08329000  0.35802000  0.92323000  1.0 -0.1803031603
C  C189  1  0.06544000  0.31721000  0.93339000  1.0 0.0101688552
C  C190  1  0.04617000  0.25985000  0.88874000  1.0 -0.0995572927
C  C191  1  0.04135000  0.24157000  0.83258000  1.0 -0.0034999312
C  C192  1  0.05773000  0.28106000  0.82047000  1.0 -0.1646190533
C  C193  1  0.06978000  0.33960000  0.99818000  1.0 0.5714203789
C  C194  1  0.01605000  0.17686000  0.78113000  1.0 0.5790488476
C  C195  1  0.33575000  0.75751000  0.52396000  1.0 0.0101688552
C  C196  1  0.36520000  0.81707000  0.56499000  1.0 -0.0628743198
C  C197  1  0.25988000  0.86312000  0.46876000  1.0 0.0696342921
C  C198  1  0.28280000  0.73374000  0.46644000  1.0 -0.1803031603
C  C199  1  0.25932000  0.76953000  0.44997000  1.0 -0.0184114223
C  C200  1  0.28879000  0.82910000  0.49101000  1.0 0.018129425
C  C201  1  0.34173000  0.85287000  0.54852000  1.0 -0.051290379
C  C202  1  0.37244000  0.96187000  0.59335000  1.0 -0.0995572927
C  C203  1  0.37877000  0.91628000  0.59755000  1.0 -0.0810675669
C  C204  1  0.42694000  0.92867000  0.65471000  1.0 -0.1803031603
C  C205  1  0.46721000  0.98320000  0.70503000  1.0 -0.0697449238
C  C206  1  0.45981000  0.02909000  0.69952000  1.0 -0.0885539775
C  C207  1  0.41272000  0.01771000  0.64383000  1.0 -0.0995572927
C  C208  1  0.32288000  0.95497000  0.53525000  1.0 0.3258952236
C  C209  1  0.20695000  0.87473000  0.80288000  1.0 0.5790488476
C  C210  1  0.16660000  0.81731000  0.74149000  1.0 -0.0069608959
C  C211  1  0.18471000  0.78396000  0.70347000  1.0 -0.1964420353
C  C212  1  0.14800000  0.72973000  0.64623000  1.0 0.2260321154
C  C213  1  0.08653000  0.71210000  0.62477000  1.0 -0.2382634162
C  C214  1  0.06948000  0.74333000  0.66057000  1.0 0.0101688552
C  C215  1  0.10810000  0.79866000  0.72038000  1.0 -0.1254047343
C  C216  1  0.00682000  0.72625000  0.63845000  1.0 0.5790488476
C  C217  1  0.89345000  0.76168000  0.55875000  1.0 0.5714203789
C  C218  1  0.88731000  0.80224000  0.53643000  1.0 0.018129425
C  C219  1  0.86582000  0.78095000  0.47143000  1.0 -0.2382634162
C  C220  1  0.86702000  0.82139000  0.45435000  1.0 0.2176314591
C  C221  1  0.88388000  0.87884000  0.49800000  1.0 -0.1803031603
C  C222  1  0.90693000  0.89954000  0.56269000  1.0 0.0101688552
C  C223  1  0.90918000  0.86324000  0.58294000  1.0 -0.1233042116
C  C224  1  0.93091000  0.96527000  0.61342000  1.0 0.5790488476
C  C225  1  0.82029000  0.81736000  0.35271000  1.0 0.4396060517
C  C226  1  0.78901000  0.78080000  0.28287000  1.0 -0.0995572927
C  C227  1  0.81741000  0.75879000  0.25336000  1.0 -0.1089139656
C  C228  1  0.78865000  0.72938000  0.18701000  1.0 -0.0810675669
C  C229  1  0.73149000  0.72199000  0.15018000  1.0 -0.0885539775
C  C230  1  0.70309000  0.74400000  0.17969000  1.0 -0.1422166965
C  C231  1  0.73185000  0.77340000  0.24603000  1.0 0.0415060421
C  C232  1  0.70128000  0.87303000  0.25045000  1.0 0.465131875
C  C233  1  0.70010000  0.79823000  0.27433000  1.0 0.0415060421
C  C234  1  0.68329000  0.76823000  0.29608000  1.0 -0.1471004394
C  C235  1  0.64860000  0.78298000  0.31900000  1.0 -0.0885539775
C  C236  1  0.63073000  0.82771000  0.32016000  1.0 -0.0995572927
C  C237  1  0.64754000  0.85771000  0.29841000  1.0 -0.0995572927
C  C238  1  0.68223000  0.84297000  0.27548000  1.0 -0.0628743198
C  C239  1  0.78593000  0.91825000  0.25722000  1.0 0.2094206716
C  C240  1  0.83994000  0.91671000  0.27473000  1.0 -0.1863239053
C  C241  1  0.86795000  0.93456000  0.25177000  1.0 0.0101688552
C  C242  1  0.84257000  0.95383000  0.21368000  1.0 -0.0995572927
C  C243  1  0.79123000  0.95865000  0.20022000  1.0 -0.0034999312
C  C244  1  0.76274000  0.94227000  0.22333000  1.0 -0.1646190533
C  C245  1  0.92840000  0.93022000  0.26982000  1.0 0.5714203789
C  C246  1  0.76508000  0.98395000  0.16081000  1.0 0.5790488476
C  C247  1  0.18821000  0.66425000  0.42176000  1.0 0.0101688552
C  C248  1  0.19979000  0.63480000  0.45187000  1.0 -0.0628743198
C  C249  1  0.20888000  0.74012000  0.60324000  1.0 0.0696342921
C  C250  1  0.18364000  0.71720000  0.45094000  1.0 -0.1803031603
C  C251  1  0.19065000  0.74068000  0.51021000  1.0 -0.0184114223
C  C252  1  0.20222000  0.71121000  0.54031000  1.0 0.018129425
C  C253  1  0.20679000  0.65827000  0.51114000  1.0 -0.051290379
C  C254  1  0.22091000  0.62756000  0.58943000  1.0 -0.0995572927
C  C255  1  0.21878000  0.62123000  0.53751000  1.0 -0.0810675669
C  C256  1  0.22777000  0.57306000  0.50173000  1.0 -0.1803031603
C  C257  1  0.23782000  0.53279000  0.51599000  1.0 -0.0697449238
C  C258  1  0.23971000  0.54019000  0.56928000  1.0 -0.0885539775
C  C259  1  0.23111000  0.58728000  0.60499000  1.0 -0.0995572927
C  C260  1  0.21237000  0.67712000  0.63209000  1.0 0.3258952236
C  C261  1  0.07185000  0.40407000  0.19712000  1.0 0.5790488476
C  C262  1  0.07582000  0.42511000  0.25851000  1.0 -0.0069608959
C  C263  1  0.08049000  0.48124000  0.29653000  1.0 -0.1863239053
C  C264  1  0.08350000  0.50177000  0.35377000  1.0 0.2260321154
C  C265  1  0.08733000  0.46176000  0.37523000  1.0 -0.2382634162
C  C266  1  0.08276000  0.40891000  0.33943000  1.0 0.0101688552
C  C267  1  0.07828000  0.38772000  0.27962000  1.0 -0.1254047343
C  C268  1  0.08780000  0.36837000  0.36155000  1.0 0.5790488476
C  C269  1  0.20293000  0.33470000  0.44125000  1.0 0.5714203789
C  C270  1  0.26581000  0.35088000  0.46357000  1.0 0.018129425
C  C271  1  0.30952000  0.39439000  0.52857000  1.0 -0.2382634162
C  C272  1  0.36704000  0.41267000  0.54565000  1.0 0.2176314591
C  C273  1  0.38084000  0.38588000  0.50200000  1.0 -0.1803031603
C  C274  1  0.33685000  0.34424000  0.43731000  1.0 0.0101688552
C  C275  1  0.28030000  0.32624000  0.41706000  1.0 -0.1233042116
C  C276  1  0.35185000  0.31749000  0.38658000  1.0 0.5790488476
C  C277  1  0.46465000  0.46758000  0.64729000  1.0 0.4396060517
C  C278  1  0.49793000  0.50614000  0.71713000  1.0 -0.0995572927
C  C279  1  0.50543000  0.56405000  0.74664000  1.0 -0.1089139656
C  C280  1  0.54237000  0.60164000  0.81299000  1.0 -0.0810675669
C  C281  1  0.57181000  0.58131000  0.84982000  1.0 -0.0885539775
C  C282  1  0.56431000  0.52340000  0.82031000  1.0 -0.1422166965
C  C283  1  0.52737000  0.48582000  0.75397000  1.0 0.0415060421
C  C284  1  0.62258000  0.45083000  0.74955000  1.0 0.4642228148
C  C285  1  0.52390000  0.42577000  0.72567000  1.0 0.0415060421
C  C286  1  0.47215000  0.38721000  0.70392000  1.0 -0.1471004394
C  C287  1  0.46398000  0.32960000  0.68100000  1.0 -0.0885539775
C  C288  1  0.50755000  0.31057000  0.67984000  1.0 -0.0995572927
C  C289  1  0.55930000  0.34913000  0.70159000  1.0 -0.0885539775
C  C290  1  0.56749000  0.40675000  0.72452000  1.0 -0.0628743198
C  C291  1  0.66103000  0.52871000  0.74278000  1.0 0.2094206716
C  C292  1  0.64198000  0.56521000  0.72527000  1.0 -0.1803031603
C  C293  1  0.68279000  0.61618000  0.74823000  1.0 0.0101688552
C  C294  1  0.74015000  0.62889000  0.78632000  1.0 -0.0995572927
C  C295  1  0.75843000  0.59101000  0.79978000  1.0 -0.0034999312
C  C296  1  0.71894000  0.53941000  0.77667000  1.0 -0.1646190533
C  C297  1  0.66040000  0.65858000  0.73018000  1.0 0.5714203789
C  C298  1  0.82314000  0.60427000  0.83919000  1.0 0.5790488476
C  C299  1  0.24249000  0.76645000  0.57824000  1.0 0.0101688552
C  C300  1  0.18293000  0.74792000  0.54813000  1.0 -0.0628743198
C  C301  1  0.13688000  0.60564000  0.39676000  1.0 0.0696342921
C  C302  1  0.26626000  0.73270000  0.54906000  1.0 -0.1803031603
C  C303  1  0.23047000  0.68044000  0.48979000  1.0 -0.0184114223
C  C304  1  0.17090000  0.66191000  0.45969000  1.0 0.018129425
C  C305  1  0.14713000  0.69565000  0.48886000  1.0 -0.051290379
C  C306  1  0.03813000  0.63148000  0.41057000  1.0 -0.0995572927
C  C307  1  0.08372000  0.68127000  0.46249000  1.0 -0.0810675669
C  C308  1  0.07133000  0.72604000  0.49827000  1.0 -0.1803031603
C  C309  1  0.01680000  0.72183000  0.48401000  1.0 -0.0697449238
C  C310  1  0.97091000  0.67043000  0.43072000  1.0 -0.0885539775
C  C311  1  0.98229000  0.62612000  0.39501000  1.0 -0.0995572927
C  C312  1  0.04503000  0.58028000  0.36791000  1.0 0.3258952236
C  C313  1  0.40407000  0.20695000  0.33222000  1.0 0.5790488476
C  C314  1  0.42511000  0.16660000  0.34929000  1.0 -0.0069608959
C  C315  1  0.48124000  0.18471000  0.40075000  1.0 -0.1964420353
C  C316  1  0.50177000  0.14800000  0.41827000  1.0 0.2260321154
C  C317  1  0.46176000  0.08653000  0.37443000  1.0 -0.2382634162
C  C318  1  0.40891000  0.06948000  0.32615000  1.0 0.0101688552
C  C319  1  0.38772000  0.10810000  0.30944000  1.0 -0.1233042116
C  C320  1  0.36837000  0.00682000  0.28057000  1.0 0.5790488476
C  C321  1  0.33470000  0.89345000  0.13177000  1.0 0.5714203789
C  C322  1  0.35088000  0.88731000  0.08507000  1.0 0.018129425
C  C323  1  0.39439000  0.86582000  0.08487000  1.0 -0.2382634162
C  C324  1  0.41267000  0.86702000  0.04563000  1.0 0.2176314591
C  C325  1  0.38588000  0.88388000  0.00504000  1.0 -0.1863239053
C  C326  1  0.34424000  0.90693000  0.00739000  1.0 0.0101688552
C  C327  1  0.32624000  0.90918000  0.04594000  1.0 -0.1233042116
C  C328  1  0.31749000  0.93091000  0.96564000  1.0 0.5790488476
C  C329  1  0.46758000  0.82029000  0.00293000  1.0 0.4396060517
C  C330  1  0.50614000  0.78901000  0.00821000  1.0 -0.0995572927
C  C331  1  0.56405000  0.81741000  0.05862000  1.0 -0.1089139656
C  C332  1  0.60164000  0.78865000  0.05927000  1.0 -0.0810675669
C  C333  1  0.58131000  0.73149000  0.00950000  1.0 -0.0885539775
C  C334  1  0.52340000  0.70309000  0.95909000  1.0 -0.1422166965
C  C335  1  0.48582000  0.73185000  0.95845000  1.0 0.0415060421
C  C336  1  0.45083000  0.70128000  0.82825000  1.0 0.4642228148
C  C337  1  0.42577000  0.70010000  0.90187000  1.0 0.0415060421
C  C338  1  0.38721000  0.68329000  0.91506000  1.0 -0.1471004394
C  C339  1  0.32960000  0.64860000  0.86562000  1.0 -0.0885539775
C  C340  1  0.31057000  0.63073000  0.80302000  1.0 -0.0995572927
C  C341  1  0.34913000  0.64754000  0.78983000  1.0 -0.0885539775
C  C342  1  0.40675000  0.68223000  0.83926000  1.0 -0.0628743198
C  C343  1  0.52871000  0.78593000  0.86768000  1.0 0.2094206716
C  C344  1  0.56521000  0.83994000  0.92323000  1.0 -0.1863239053
C  C345  1  0.61618000  0.86795000  0.93339000  1.0 0.0101688552
C  C346  1  0.62889000  0.84257000  0.88874000  1.0 -0.0995572927
C  C347  1  0.59101000  0.79123000  0.83258000  1.0 -0.0034999312
C  C348  1  0.53941000  0.76274000  0.82047000  1.0 -0.1654753277
C  C349  1  0.65858000  0.92840000  0.99818000  1.0 0.5714203789
C  C350  1  0.60427000  0.76508000  0.78113000  1.0 0.5790488476
C  C351  1  0.76645000  0.18821000  0.52396000  1.0 0.0101688552
C  C352  1  0.74792000  0.19979000  0.56499000  1.0 -0.0628743198
C  C353  1  0.60564000  0.20888000  0.46876000  1.0 0.0696342921
C  C354  1  0.73270000  0.18364000  0.46644000  1.0 -0.1803031603
C  C355  1  0.68044000  0.19065000  0.44997000  1.0 -0.0184114223
C  C356  1  0.66191000  0.20222000  0.49101000  1.0 0.018129425
C  C357  1  0.69565000  0.20679000  0.54852000  1.0 -0.051290379
C  C358  1  0.63148000  0.22091000  0.59335000  1.0 -0.0995572927
C  C359  1  0.68127000  0.21878000  0.59755000  1.0 -0.0810675669
C  C360  1  0.72604000  0.22777000  0.65471000  1.0 -0.1803031603
C  C361  1  0.72183000  0.23782000  0.70503000  1.0 -0.0697449238
C  C362  1  0.67043000  0.23971000  0.69952000  1.0 -0.0885539775
C  C363  1  0.62612000  0.23111000  0.64383000  1.0 -0.0995572927
C  C364  1  0.58028000  0.21237000  0.53525000  1.0 0.3258952236
C  C365  1  0.87473000  0.07185000  0.66778000  1.0 0.5790488476
C  C366  1  0.81731000  0.07582000  0.65071000  1.0 -0.0069608959
C  C367  1  0.78396000  0.08049000  0.59925000  1.0 -0.1964420353
C  C368  1  0.72973000  0.08350000  0.58173000  1.0 0.2260321154
C  C369  1  0.71210000  0.08733000  0.62557000  1.0 -0.2382634162
C  C370  1  0.74333000  0.08276000  0.67385000  1.0 0.0101688552
C  C371  1  0.79866000  0.07828000  0.69056000  1.0 -0.1233042116
C  C372  1  0.72625000  0.08780000  0.71943000  1.0 0.5790488476
C  C373  1  0.76168000  0.20293000  0.86823000  1.0 0.5714203789
C  C374  1  0.80224000  0.26581000  0.91493000  1.0 0.018129425
C  C375  1  0.78095000  0.30952000  0.91513000  1.0 -0.2382634162
C  C376  1  0.82139000  0.36704000  0.95437000  1.0 0.2176314591
C  C377  1  0.87884000  0.38084000  0.99496000  1.0 -0.1863239053
C  C378  1  0.89954000  0.33685000  0.99261000  1.0 0.0101688552
C  C379  1  0.86324000  0.28030000  0.95406000  1.0 -0.1233042116
C  C380  1  0.96527000  0.35185000  0.03436000  1.0 0.5790488476
C  C381  1  0.81736000  0.46465000  0.99707000  1.0 0.4396060517
C  C382  1  0.78080000  0.49793000  0.99179000  1.0 -0.0995572927
C  C383  1  0.75879000  0.50543000  0.94138000  1.0 -0.1089139656
C  C384  1  0.72938000  0.54237000  0.94073000  1.0 -0.0810675669
C  C385  1  0.72199000  0.57181000  0.99050000  1.0 -0.0885539775
C  C386  1  0.74400000  0.56431000  0.04091000  1.0 -0.1422166965
C  C387  1  0.77340000  0.52737000  0.04155000  1.0 0.0415060421
C  C388  1  0.87303000  0.62258000  0.17175000  1.0 0.465131875
C  C389  1  0.79823000  0.52390000  0.09813000  1.0 0.0415060421
C  C390  1  0.76823000  0.47215000  0.08494000  1.0 -0.1471004394
C  C391  1  0.78298000  0.46398000  0.13438000  1.0 -0.0885539775
C  C392  1  0.82771000  0.50755000  0.19698000  1.0 -0.0995572927
C  C393  1  0.85771000  0.55930000  0.21017000  1.0 -0.0995572927
C  C394  1  0.84297000  0.56749000  0.16074000  1.0 -0.0628743198
C  C395  1  0.91825000  0.66103000  0.13232000  1.0 0.2094206716
C  C396  1  0.91671000  0.64198000  0.07677000  1.0 -0.1863239053
C  C397  1  0.93456000  0.68279000  0.06661000  1.0 0.0101688552
C  C398  1  0.95383000  0.74015000  0.11126000  1.0 -0.0995572927
C  C399  1  0.95865000  0.75843000  0.16742000  1.0 -0.0034999312
C  C400  1  0.94227000  0.71894000  0.17953000  1.0 -0.1654753277
C  C401  1  0.93022000  0.66040000  0.00182000  1.0 0.5714203789
C  C402  1  0.98395000  0.82314000  0.21887000  1.0 0.5790488476
C  C403  1  0.66425000  0.24249000  0.47604000  1.0 0.0101688552
C  C404  1  0.63480000  0.18293000  0.43501000  1.0 -0.0628743198
C  C405  1  0.74012000  0.13688000  0.53124000  1.0 0.0696342921
C  C406  1  0.71720000  0.26626000  0.53356000  1.0 -0.1803031603
C  C407  1  0.74068000  0.23047000  0.55003000  1.0 -0.0184114223
C  C408  1  0.71121000  0.17090000  0.50899000  1.0 0.018129425
C  C409  1  0.65827000  0.14713000  0.45148000  1.0 -0.051290379
C  C410  1  0.62756000  0.03813000  0.40665000  1.0 -0.0995572927
C  C411  1  0.62123000  0.08372000  0.40245000  1.0 -0.0810675669
C  C412  1  0.57306000  0.07133000  0.34529000  1.0 -0.1803031603
C  C413  1  0.53279000  0.01680000  0.29497000  1.0 -0.0697449238
C  C414  1  0.54019000  0.97091000  0.30048000  1.0 -0.0885539775
C  C415  1  0.58728000  0.98229000  0.35617000  1.0 -0.0995572927
C  C416  1  0.67712000  0.04503000  0.46475000  1.0 0.3258952236
N  N1  1  0.16352000  0.20423000  0.61451000  1.0 -0.3237947711
N  N2  1  0.24364000  0.10678000  0.72402000  1.0 -0.3396412545
N  N3  1  0.83079000  0.29430000  0.39479000  1.0 -0.0697449238
N  N4  1  0.84477000  0.32292000  0.38853000  1.0 -0.1422166965
N  N5  1  0.58972000  0.54901000  0.38549000  1.0 -0.3237947711
N  N6  1  0.38276000  0.51962000  0.27598000  1.0 -0.3396412545
N  N7  1  0.89951000  0.43600000  0.60521000  1.0 -0.0697449238
N  N8  1  0.93439000  0.45624000  0.61147000  1.0 -0.1422166965
N  N9  1  0.54901000  0.16352000  0.95929000  1.0 -0.3237947711
N  N10  1  0.51962000  0.24364000  0.13686000  1.0 -0.3396412545
N  N11  1  0.43600000  0.83079000  0.53649000  1.0 -0.0697449238
N  N12  1  0.45624000  0.84477000  0.52185000  1.0 -0.1422166965
N  N13  1  0.20423000  0.58972000  0.04071000  1.0 -0.3237947711
N  N14  1  0.10678000  0.38276000  0.86314000  1.0 -0.3396412545
N  N15  1  0.29430000  0.89951000  0.46351000  1.0 -0.0697449238
N  N16  1  0.32292000  0.93439000  0.47815000  1.0 -0.1422166965
N  N17  1  0.83648000  0.79577000  0.38549000  1.0 -0.3237947711
N  N18  1  0.75636000  0.89322000  0.27598000  1.0 -0.3396412545
N  N19  1  0.16921000  0.70570000  0.60521000  1.0 -0.0697449238
N  N20  1  0.15523000  0.67708000  0.61147000  1.0 -0.1422166965
N  N21  1  0.41028000  0.45099000  0.61451000  1.0 -0.3237947711
N  N22  1  0.61724000  0.48038000  0.72402000  1.0 -0.3396412545
N  N23  1  0.10049000  0.56400000  0.39479000  1.0 -0.0697449238
N  N24  1  0.06561000  0.54376000  0.38853000  1.0 -0.1422166965
N  N25  1  0.45099000  0.83648000  0.04071000  1.0 -0.3237947711
N  N26  1  0.48038000  0.75636000  0.86314000  1.0 -0.3396412545
N  N27  1  0.56400000  0.16921000  0.46351000  1.0 -0.0697449238
N  N28  1  0.54376000  0.15523000  0.47815000  1.0 -0.1422166965
N  N29  1  0.79577000  0.41028000  0.95929000  1.0 -0.3237947711
N  N30  1  0.89322000  0.61724000  0.13686000  1.0 -0.3396412545
N  N31  1  0.70570000  0.10049000  0.53649000  1.0 -0.0697449238
N  N32  1  0.67708000  0.06561000  0.52185000  1.0 -0.1422166965
O  O1  1  0.74391000  0.10585000  0.18724000  1.0 -0.5342491233
O  O2  1  0.81150000  0.10166000  0.16334000  1.0 -0.5109995084
O  O3  1  0.02802000  0.31876000  0.42040000  1.0 -0.5400852302
O  O4  1  0.00493000  0.24419000  0.32262000  1.0 -0.4983225305
O  O5  1  0.09483000  0.21751000  0.38680000  1.0 -0.4904352213
O  O6  1  0.11730000  0.28877000  0.48093000  1.0 -0.5109995084
O  O7  1  0.05841000  0.02104000  0.33311000  1.0 -0.5109995084
O  O8  1  0.06354000  0.00291000  0.40481000  1.0 -0.5109995084
O  O9  1  0.04827000  0.07890000  0.68699000  1.0 -0.5109995084
O  O10  1  0.05295000  0.05939000  0.75960000  1.0 -0.5178134347
O  O11  1  0.21118000  0.00889000  0.86525000  1.0 -0.5109995084
O  O12  1  0.27746000  0.00542000  0.84298000  1.0 -0.4983225305
O  O13  1  0.17317000  0.12911000  0.62274000  1.0 -0.4983225305
O  O14  1  0.33522000  0.11452000  0.78472000  1.0 -0.4904352213
O  O15  1  0.75412000  0.21089000  0.35303000  1.0 -0.2276147792
O  O16  1  0.75805000  0.30571000  0.30952000  1.0 -0.4356535116
O  O17  1  0.91861000  0.55667000  0.81276000  1.0 -0.5342491233
O  O18  1  0.93832000  0.64816000  0.83666000  1.0 -0.5109995084
O  O19  1  0.89836000  0.60762000  0.57960000  1.0 -0.5400852302
O  O20  1  0.92157000  0.68231000  0.67738000  1.0 -0.4983225305
O  O21  1  0.83071000  0.70803000  0.61320000  1.0 -0.4904352213
O  O22  1  0.80784000  0.63637000  0.51907000  1.0 -0.5109995084
O  O23  1  0.68793000  0.72530000  0.66689000  1.0 -0.5109995084
O  O24  1  0.59810000  0.65873000  0.59519000  1.0 -0.5109995084
O  O25  1  0.39191000  0.36128000  0.31301000  1.0 -0.5109995084
O  O26  1  0.29979000  0.29335000  0.24040000  1.0 -0.5178134347
O  O27  1  0.14364000  0.34593000  0.13475000  1.0 -0.5109995084
O  O28  1  0.16244000  0.43448000  0.15702000  1.0 -0.4983225305
O  O29  1  0.50637000  0.55043000  0.37726000  1.0 -0.4983225305
O  O30  1  0.32980000  0.55050000  0.21528000  1.0 -0.4904352213
O  O31  1  0.85786000  0.40109000  0.64697000  1.0 -0.2276147792
O  O32  1  0.99619000  0.44853000  0.69048000  1.0 -0.4356535116
O  O33  1  0.55667000  0.74391000  0.63806000  1.0 -0.5342491233
O  O34  1  0.64816000  0.81150000  0.70984000  1.0 -0.5109995084
O  O35  1  0.60762000  0.02802000  0.70926000  1.0 -0.5400852302
O  O36  1  0.68231000  0.00493000  0.76074000  1.0 -0.4983225305
O  O37  1  0.70803000  0.09483000  0.87732000  1.0 -0.4845407048
O  O38  1  0.63637000  0.11730000  0.82853000  1.0 -0.5109995084
O  O39  1  0.72530000  0.05841000  0.03737000  1.0 -0.5109995084
O  O40  1  0.65873000  0.06354000  0.06063000  1.0 -0.5109995084
O  O41  1  0.36128000  0.04827000  0.96937000  1.0 -0.5109995084
O  O42  1  0.29335000  0.05295000  0.99356000  1.0 -0.5178134347
O  O43  1  0.34593000  0.21118000  0.20229000  1.0 -0.5109995084
O  O44  1  0.43448000  0.27746000  0.27204000  1.0 -0.4983225305
O  O45  1  0.55043000  0.17317000  0.04406000  1.0 -0.4983225305
O  O46  1  0.55050000  0.33522000  0.22070000  1.0 -0.4904352213
O  O47  1  0.40109000  0.75412000  0.54323000  1.0 -0.2276147792
O  O48  1  0.44853000  0.75805000  0.45234000  1.0 -0.4356535116
O  O49  1  0.10585000  0.91861000  0.36194000  1.0 -0.5342491233
O  O50  1  0.10166000  0.93832000  0.29016000  1.0 -0.5109995084
O  O51  1  0.31876000  0.89836000  0.29074000  1.0 -0.5400852302
O  O52  1  0.24419000  0.92157000  0.23926000  1.0 -0.4983225305
O  O53  1  0.21751000  0.83071000  0.12268000  1.0 -0.4904352213
O  O54  1  0.28877000  0.80784000  0.17147000  1.0 -0.5109995084
O  O55  1  0.02104000  0.68793000  0.96263000  1.0 -0.5109995084
O  O56  1  0.00291000  0.59810000  0.93937000  1.0 -0.5109995084
O  O57  1  0.07890000  0.39191000  0.03063000  1.0 -0.5109995084
O  O58  1  0.05939000  0.29979000  0.00644000  1.0 -0.5178134347
O  O59  1  0.00889000  0.14364000  0.79771000  1.0 -0.5109995084
O  O60  1  0.00542000  0.16244000  0.72796000  1.0 -0.4983225305
O  O61  1  0.12911000  0.50637000  0.95594000  1.0 -0.4983225305
O  O62  1  0.11452000  0.32980000  0.77930000  1.0 -0.4904352213
O  O63  1  0.21089000  0.85786000  0.45677000  1.0 -0.2276147792
O  O64  1  0.30571000  0.99619000  0.54766000  1.0 -0.4356535116
O  O65  1  0.25609000  0.89415000  0.81276000  1.0 -0.5342491233
O  O66  1  0.18850000  0.89834000  0.83666000  1.0 -0.5109995084
O  O67  1  0.97198000  0.68124000  0.57960000  1.0 -0.5400852302
O  O68  1  0.99507000  0.75581000  0.67738000  1.0 -0.4983225305
O  O69  1  0.90517000  0.78249000  0.61320000  1.0 -0.4845407048
O  O70  1  0.88270000  0.71123000  0.51907000  1.0 -0.5109995084
O  O71  1  0.94159000  0.97896000  0.66689000  1.0 -0.5109995084
O  O72  1  0.93646000  0.99709000  0.59519000  1.0 -0.5109995084
O  O73  1  0.95173000  0.92110000  0.31301000  1.0 -0.5109995084
O  O74  1  0.94705000  0.94061000  0.24040000  1.0 -0.5178134347
O  O75  1  0.78882000  0.99111000  0.13475000  1.0 -0.5109995084
O  O76  1  0.72254000  0.99458000  0.15702000  1.0 -0.4983225305
O  O77  1  0.82683000  0.87089000  0.37726000  1.0 -0.4983225305
O  O78  1  0.66478000  0.88548000  0.21528000  1.0 -0.4904352213
O  O79  1  0.24588000  0.78911000  0.64697000  1.0 -0.2276147792
O  O80  1  0.24195000  0.69429000  0.69048000  1.0 -0.4356535116
O  O81  1  0.08139000  0.44333000  0.18724000  1.0 -0.5342491233
O  O82  1  0.06168000  0.35184000  0.16334000  1.0 -0.5109995084
O  O83  1  0.10164000  0.39238000  0.42040000  1.0 -0.5400852302
O  O84  1  0.07843000  0.31769000  0.32262000  1.0 -0.4983225305
O  O85  1  0.16929000  0.29197000  0.38680000  1.0 -0.4904352213
O  O86  1  0.19216000  0.36363000  0.48093000  1.0 -0.5109995084
O  O87  1  0.31207000  0.27470000  0.33311000  1.0 -0.5109995084
O  O88  1  0.40190000  0.34127000  0.40481000  1.0 -0.5109995084
O  O89  1  0.60809000  0.63872000  0.68699000  1.0 -0.5178134347
O  O90  1  0.70021000  0.70665000  0.75960000  1.0 -0.5178134347
O  O91  1  0.85636000  0.65407000  0.86525000  1.0 -0.5109995084
O  O92  1  0.83756000  0.56552000  0.84298000  1.0 -0.4983225305
O  O93  1  0.49363000  0.44957000  0.62274000  1.0 -0.4983225305
O  O94  1  0.67020000  0.44950000  0.78472000  1.0 -0.4904352213
O  O95  1  0.14214000  0.59891000  0.35303000  1.0 -0.2276147792
O  O96  1  0.00381000  0.55147000  0.30952000  1.0 -0.4356535116
O  O97  1  0.44333000  0.25609000  0.36194000  1.0 -0.5342491233
O  O98  1  0.35184000  0.18850000  0.29016000  1.0 -0.5109995084
O  O99  1  0.39238000  0.97198000  0.29074000  1.0 -0.5400852302
O  O100  1  0.31769000  0.99507000  0.23926000  1.0 -0.4983225305
O  O101  1  0.29197000  0.90517000  0.12268000  1.0 -0.4904352213
O  O102  1  0.36363000  0.88270000  0.17147000  1.0 -0.5109995084
O  O103  1  0.27470000  0.94159000  0.96263000  1.0 -0.5109995084
O  O104  1  0.34127000  0.93646000  0.93937000  1.0 -0.5109995084
O  O105  1  0.63872000  0.95173000  0.03063000  1.0 -0.5109995084
O  O106  1  0.70665000  0.94705000  0.00644000  1.0 -0.5178134347
O  O107  1  0.65407000  0.78882000  0.79771000  1.0 -0.5109995084
O  O108  1  0.56552000  0.72254000  0.72796000  1.0 -0.4983225305
O  O109  1  0.44957000  0.82683000  0.95594000  1.0 -0.4983225305
O  O110  1  0.44950000  0.66478000  0.77930000  1.0 -0.4904352213
O  O111  1  0.59891000  0.24588000  0.45677000  1.0 -0.2276147792
O  O112  1  0.55147000  0.24195000  0.54766000  1.0 -0.4356535116
O  O113  1  0.89415000  0.08139000  0.63806000  1.0 -0.5342491233
O  O114  1  0.89834000  0.06168000  0.70984000  1.0 -0.5109995084
O  O115  1  0.68124000  0.10164000  0.70926000  1.0 -0.5400852302
O  O116  1  0.75581000  0.07843000  0.76074000  1.0 -0.4983225305
O  O117  1  0.78249000  0.16929000  0.87732000  1.0 -0.4845407048
O  O118  1  0.71123000  0.19216000  0.82853000  1.0 -0.5109995084
O  O119  1  0.97896000  0.31207000  0.03737000  1.0 -0.5109995084
O  O120  1  0.99709000  0.40190000  0.06063000  1.0 -0.5109995084
O  O121  1  0.92110000  0.60809000  0.96937000  1.0 -0.5109995084
O  O122  1  0.94061000  0.70021000  0.99356000  1.0 -0.5178134347
O  O123  1  0.99111000  0.85636000  0.20229000  1.0 -0.5109995084
O  O124  1  0.99458000  0.83756000  0.27204000  1.0 -0.4983225305
O  O125  1  0.87089000  0.49363000  0.04406000  1.0 -0.4983225305
O  O126  1  0.88548000  0.67020000  0.22070000  1.0 -0.4904352213
O  O127  1  0.78911000  0.14214000  0.54323000  1.0 -0.2276147792
O  O128  1  0.69429000  0.00381000  0.45234000  1.0 -0.4356535116
