# DDEC6 charges by PACMAN v1.1 (https://github.com/mtap-research/PACMAN-charge/)
data_HEFVUM_ASR_pacman
_symmetry_space_group_name_H-M   'P 1'
_cell_length_a   21.15760000
_cell_length_b   21.15760000
_cell_length_c   15.88770000
_cell_angle_alpha   90.00000000
_cell_angle_beta   90.00000000
_cell_angle_gamma   120.00000000
_symmetry_Int_Tables_number   1
_chemical_formula_structural   Co24H72C192O89
_chemical_formula_sum   'Co24 H72 C192 O89'
_cell_volume   6159.20227135
_cell_formula_units_Z   1
loop_
 _symmetry_equiv_pos_site_id
 _symmetry_equiv_pos_as_xyz
  1  'x, y, z'
loop_
 _atom_site_type_symbol
 _atom_site_label
 _atom_site_symmetry_multiplicity
 _atom_site_fract_x
 _atom_site_fract_y
 _atom_site_fract_z
 _atom_site_occupancy
 _atom_site_charge
Co  Co1  1  0.38812000  0.77624000  0.50000000  1.0 1.1225641381
Co  Co2  1  0.38812000  0.61188000  0.50000000  1.0 1.1225641381
Co  Co3  1  0.22376000  0.61188000  0.50000000  1.0 1.1225641381
Co  Co4  1  0.61188000  0.22376000  0.50000000  1.0 1.1225641381
Co  Co5  1  0.61188000  0.38812000  0.50000000  1.0 1.1225641381
Co  Co6  1  0.77624000  0.38812000  0.50000000  1.0 1.1225641381
Co  Co7  1  0.43590000  0.00000000  0.90550000  1.0 1.0501429649
Co  Co8  1  0.56410000  0.56410000  0.90550000  1.0 1.0501429649
Co  Co9  1  0.00000000  0.43590000  0.90550000  1.0 1.0501429649
Co  Co10  1  0.56410000  0.00000000  0.90550000  1.0 1.0501429649
Co  Co11  1  0.43590000  0.43590000  0.90550000  1.0 1.0501429649
Co  Co12  1  0.00000000  0.56410000  0.90550000  1.0 1.0501429649
Co  Co13  1  0.43590000  0.00000000  0.09450000  1.0 1.0501429649
Co  Co14  1  0.00000000  0.43590000  0.09450000  1.0 1.0501429649
Co  Co15  1  0.56410000  0.56410000  0.09450000  1.0 1.0501429649
Co  Co16  1  0.56410000  0.00000000  0.09450000  1.0 1.0501429649
Co  Co17  1  0.00000000  0.56410000  0.09450000  1.0 1.0501429649
Co  Co18  1  0.43590000  0.43590000  0.09450000  1.0 1.0501429649
Co  Co19  1  0.28882000  0.00000000  0.00000000  1.0 0.9925991308
Co  Co20  1  0.71118000  0.71118000  0.00000000  1.0 0.9925991308
Co  Co21  1  0.00000000  0.28882000  0.00000000  1.0 0.9925991308
Co  Co22  1  0.71118000  0.00000000  0.00000000  1.0 0.9925991308
Co  Co23  1  0.28882000  0.28882000  0.00000000  1.0 0.9925991308
Co  Co24  1  0.00000000  0.71118000  0.00000000  1.0 0.9925991308
H  H1  1  0.31750000  0.84240000  0.74170000  1.0 0.1204397297
H  H2  1  0.12250000  0.70730000  0.63020000  1.0 0.1204397297
H  H3  1  0.12970000  0.81940000  0.84020000  1.0 0.1204397297
H  H4  1  0.52490000  0.68250000  0.74170000  1.0 0.1204397297
H  H5  1  0.58480000  0.87750000  0.63020000  1.0 0.1204397297
H  H6  1  0.68970000  0.87030000  0.84020000  1.0 0.1204397297
H  H7  1  0.15760000  0.47510000  0.74170000  1.0 0.1204397297
H  H8  1  0.29270000  0.41520000  0.63020000  1.0 0.1204397297
H  H9  1  0.18060000  0.31030000  0.84020000  1.0 0.1204397297
H  H10  1  0.68250000  0.15760000  0.74170000  1.0 0.1204397297
H  H11  1  0.87750000  0.29270000  0.63020000  1.0 0.1204397297
H  H12  1  0.87030000  0.18060000  0.84020000  1.0 0.1204397297
H  H13  1  0.47510000  0.31750000  0.74170000  1.0 0.1204397297
H  H14  1  0.41520000  0.12250000  0.63020000  1.0 0.1204397297
H  H15  1  0.31030000  0.12970000  0.84020000  1.0 0.1204397297
H  H16  1  0.84240000  0.52490000  0.74170000  1.0 0.1204397297
H  H17  1  0.70730000  0.58480000  0.63020000  1.0 0.1204397297
H  H18  1  0.81940000  0.68970000  0.84020000  1.0 0.1204397297
H  H19  1  0.47510000  0.15760000  0.25830000  1.0 0.1204397297
H  H20  1  0.41520000  0.29270000  0.36980000  1.0 0.1204397297
H  H21  1  0.31030000  0.18060000  0.15980000  1.0 0.1204397297
H  H22  1  0.84240000  0.31750000  0.25830000  1.0 0.1204397297
H  H23  1  0.70730000  0.12250000  0.36980000  1.0 0.1204397297
H  H24  1  0.81940000  0.12970000  0.15980000  1.0 0.1204397297
H  H25  1  0.68250000  0.52490000  0.25830000  1.0 0.1204397297
H  H26  1  0.87750000  0.58480000  0.36980000  1.0 0.1204397297
H  H27  1  0.87030000  0.68970000  0.15980000  1.0 0.1204397297
H  H28  1  0.52490000  0.84240000  0.25830000  1.0 0.1204397297
H  H29  1  0.58480000  0.70730000  0.36980000  1.0 0.1204397297
H  H30  1  0.68970000  0.81940000  0.15980000  1.0 0.1204397297
H  H31  1  0.15760000  0.68250000  0.25830000  1.0 0.1204397297
H  H32  1  0.29270000  0.87750000  0.36980000  1.0 0.1204397297
H  H33  1  0.18060000  0.87030000  0.15980000  1.0 0.1204397297
H  H34  1  0.31750000  0.47510000  0.25830000  1.0 0.1204397297
H  H35  1  0.12250000  0.41520000  0.36980000  1.0 0.1204397297
H  H36  1  0.12970000  0.31030000  0.15980000  1.0 0.1204397297
H  H37  1  0.68250000  0.15760000  0.25830000  1.0 0.1204397297
H  H38  1  0.87750000  0.29270000  0.36980000  1.0 0.1204397297
H  H39  1  0.87030000  0.18060000  0.15980000  1.0 0.1204397297
H  H40  1  0.47510000  0.31750000  0.25830000  1.0 0.1204397297
H  H41  1  0.41520000  0.12250000  0.36980000  1.0 0.1204397297
H  H42  1  0.31030000  0.12970000  0.15980000  1.0 0.1204397297
H  H43  1  0.84240000  0.52490000  0.25830000  1.0 0.1204397297
H  H44  1  0.70730000  0.58480000  0.36980000  1.0 0.1204397297
H  H45  1  0.81940000  0.68970000  0.15980000  1.0 0.1204397297
H  H46  1  0.31750000  0.84240000  0.25830000  1.0 0.1204397297
H  H47  1  0.12250000  0.70730000  0.36980000  1.0 0.1204397297
H  H48  1  0.12970000  0.81940000  0.15980000  1.0 0.1204397297
H  H49  1  0.52490000  0.68250000  0.25830000  1.0 0.1204397297
H  H50  1  0.58480000  0.87750000  0.36980000  1.0 0.1204397297
H  H51  1  0.68970000  0.87030000  0.15980000  1.0 0.1204397297
H  H52  1  0.15760000  0.47510000  0.25830000  1.0 0.1204397297
H  H53  1  0.29270000  0.41520000  0.36980000  1.0 0.1204397297
H  H54  1  0.18060000  0.31030000  0.15980000  1.0 0.1204397297
H  H55  1  0.52490000  0.84240000  0.74170000  1.0 0.1204397297
H  H56  1  0.58480000  0.70730000  0.63020000  1.0 0.1204397297
H  H57  1  0.68970000  0.81940000  0.84020000  1.0 0.1204397297
H  H58  1  0.15760000  0.68250000  0.74170000  1.0 0.1204397297
H  H59  1  0.29270000  0.87750000  0.63020000  1.0 0.1204397297
H  H60  1  0.18060000  0.87030000  0.84020000  1.0 0.1204397297
H  H61  1  0.31750000  0.47510000  0.74170000  1.0 0.1204397297
H  H62  1  0.12250000  0.41520000  0.63020000  1.0 0.1204397297
H  H63  1  0.12970000  0.31030000  0.84020000  1.0 0.1204397297
H  H64  1  0.47510000  0.15760000  0.74170000  1.0 0.1204397297
H  H65  1  0.41520000  0.29270000  0.63020000  1.0 0.1204397297
H  H66  1  0.31030000  0.18060000  0.84020000  1.0 0.1204397297
H  H67  1  0.84240000  0.31750000  0.74170000  1.0 0.1204397297
H  H68  1  0.70730000  0.12250000  0.63020000  1.0 0.1204397297
H  H69  1  0.81940000  0.12970000  0.84020000  1.0 0.1204397297
H  H70  1  0.68250000  0.52490000  0.74170000  1.0 0.1204397297
H  H71  1  0.87750000  0.58480000  0.63020000  1.0 0.1204397297
H  H72  1  0.87030000  0.68970000  0.84020000  1.0 0.1204397297
C  C1  1  0.26480000  0.82020000  0.73920000  1.0 -0.0378812406
C  C2  1  0.14980000  0.74040000  0.67330000  1.0 -0.1192029945
C  C3  1  0.22930000  0.83810000  0.80050000  1.0 -0.0028765088
C  C4  1  0.11360000  0.75770000  0.73460000  1.0 0.0805463722
C  C5  1  0.15380000  0.80690000  0.79800000  1.0 -0.0758905499
C  C6  1  0.27590000  0.89610000  0.86110000  1.0 0.5694577209
C  C7  1  0.03400000  0.72160000  0.74170000  1.0 -0.157286302
C  C8  1  0.55540000  0.73520000  0.73920000  1.0 -0.0378812406
C  C9  1  0.59060000  0.85020000  0.67330000  1.0 -0.1192029945
C  C10  1  0.60880000  0.77070000  0.80050000  1.0 -0.0028765088
C  C11  1  0.64410000  0.88640000  0.73460000  1.0 0.0805463722
C  C12  1  0.65310000  0.84620000  0.79800000  1.0 -0.0758905499
C  C13  1  0.62020000  0.72410000  0.86110000  1.0 0.5694577209
C  C14  1  0.68760000  0.96600000  0.74170000  1.0 -0.157286302
C  C15  1  0.17980000  0.44460000  0.73920000  1.0 -0.0378812406
C  C16  1  0.25960000  0.40940000  0.67330000  1.0 -0.1192029945
C  C17  1  0.16190000  0.39120000  0.80050000  1.0 -0.0028765088
C  C18  1  0.24230000  0.35590000  0.73460000  1.0 0.0805463722
C  C19  1  0.19310000  0.34690000  0.79800000  1.0 -0.0758905499
C  C20  1  0.10390000  0.37980000  0.86110000  1.0 0.5694577209
C  C21  1  0.27840000  0.31240000  0.74170000  1.0 -0.157286302
C  C22  1  0.73520000  0.17980000  0.73920000  1.0 -0.0378812406
C  C23  1  0.85020000  0.25960000  0.67330000  1.0 -0.1192029945
C  C24  1  0.77070000  0.16190000  0.80050000  1.0 -0.0028765088
C  C25  1  0.88640000  0.24230000  0.73460000  1.0 0.0805463722
C  C26  1  0.84620000  0.19310000  0.79800000  1.0 -0.0748834251
C  C27  1  0.72410000  0.10390000  0.86110000  1.0 0.5694577209
C  C28  1  0.96600000  0.27840000  0.74170000  1.0 -0.157286302
C  C29  1  0.44460000  0.26480000  0.73920000  1.0 -0.0378812406
C  C30  1  0.40940000  0.14980000  0.67330000  1.0 -0.1192029945
C  C31  1  0.39120000  0.22930000  0.80050000  1.0 -0.0028765088
C  C32  1  0.35590000  0.11360000  0.73460000  1.0 0.0805463722
C  C33  1  0.34690000  0.15380000  0.79800000  1.0 -0.0758905499
C  C34  1  0.37980000  0.27590000  0.86110000  1.0 0.5694577209
C  C35  1  0.31240000  0.03400000  0.74170000  1.0 -0.157286302
C  C36  1  0.82020000  0.55540000  0.73920000  1.0 -0.0378812406
C  C37  1  0.74040000  0.59060000  0.67330000  1.0 -0.1192029945
C  C38  1  0.83810000  0.60880000  0.80050000  1.0 -0.0028765088
C  C39  1  0.75770000  0.64410000  0.73460000  1.0 0.0805463722
C  C40  1  0.80690000  0.65310000  0.79800000  1.0 -0.0758905499
C  C41  1  0.89610000  0.62020000  0.86110000  1.0 0.5694577209
C  C42  1  0.72160000  0.68760000  0.74170000  1.0 -0.157286302
C  C43  1  0.44460000  0.17980000  0.26080000  1.0 -0.0378812406
C  C44  1  0.40940000  0.25960000  0.32670000  1.0 -0.1192029945
C  C45  1  0.39120000  0.16190000  0.19950000  1.0 -0.0028765088
C  C46  1  0.35590000  0.24230000  0.26540000  1.0 0.0805463722
C  C47  1  0.34690000  0.19310000  0.20200000  1.0 -0.0758905499
C  C48  1  0.37980000  0.10390000  0.13890000  1.0 0.5694577209
C  C49  1  0.31240000  0.27840000  0.25830000  1.0 -0.157286302
C  C50  1  0.82020000  0.26480000  0.26080000  1.0 -0.0378812406
C  C51  1  0.74040000  0.14980000  0.32670000  1.0 -0.1192029945
C  C52  1  0.83810000  0.22930000  0.19950000  1.0 -0.0028765088
C  C53  1  0.75770000  0.11360000  0.26540000  1.0 0.0805463722
C  C54  1  0.80690000  0.15380000  0.20200000  1.0 -0.0758905499
C  C55  1  0.89610000  0.27590000  0.13890000  1.0 0.5694577209
C  C56  1  0.72160000  0.03400000  0.25830000  1.0 -0.157286302
C  C57  1  0.73520000  0.55540000  0.26080000  1.0 -0.0378812406
C  C58  1  0.85020000  0.59060000  0.32670000  1.0 -0.1192029945
C  C59  1  0.77070000  0.60880000  0.19950000  1.0 -0.0028765088
C  C60  1  0.88640000  0.64410000  0.26540000  1.0 0.0805463722
C  C61  1  0.84620000  0.65310000  0.20200000  1.0 -0.0758905499
C  C62  1  0.72410000  0.62020000  0.13890000  1.0 0.5694577209
C  C63  1  0.96600000  0.68760000  0.25830000  1.0 -0.157286302
C  C64  1  0.55540000  0.82020000  0.26080000  1.0 -0.0378812406
C  C65  1  0.59060000  0.74040000  0.32670000  1.0 -0.1192029945
C  C66  1  0.60880000  0.83810000  0.19950000  1.0 -0.0028765088
C  C67  1  0.64410000  0.75770000  0.26540000  1.0 0.0805463722
C  C68  1  0.65310000  0.80690000  0.20200000  1.0 -0.0758905499
C  C69  1  0.62020000  0.89610000  0.13890000  1.0 0.5694577209
C  C70  1  0.68760000  0.72160000  0.25830000  1.0 -0.157286302
C  C71  1  0.17980000  0.73520000  0.26080000  1.0 -0.0378812406
C  C72  1  0.25960000  0.85020000  0.32670000  1.0 -0.1192029945
C  C73  1  0.16190000  0.77070000  0.19950000  1.0 -0.0028765088
C  C74  1  0.24230000  0.88640000  0.26540000  1.0 0.0805463722
C  C75  1  0.19310000  0.84620000  0.20200000  1.0 -0.0758905499
C  C76  1  0.10390000  0.72410000  0.13890000  1.0 0.5694577209
C  C77  1  0.27840000  0.96600000  0.25830000  1.0 -0.157286302
C  C78  1  0.26480000  0.44460000  0.26080000  1.0 -0.0378812406
C  C79  1  0.14980000  0.40940000  0.32670000  1.0 -0.1192029945
C  C80  1  0.22930000  0.39120000  0.19950000  1.0 -0.0028765088
C  C81  1  0.11360000  0.35590000  0.26540000  1.0 0.0805463722
C  C82  1  0.15380000  0.34690000  0.20200000  1.0 -0.0758905499
C  C83  1  0.27590000  0.37980000  0.13890000  1.0 0.5694577209
C  C84  1  0.03400000  0.31240000  0.25830000  1.0 -0.157286302
C  C85  1  0.73520000  0.17980000  0.26080000  1.0 -0.0378812406
C  C86  1  0.85020000  0.25960000  0.32670000  1.0 -0.1192029945
C  C87  1  0.77070000  0.16190000  0.19950000  1.0 -0.0028765088
C  C88  1  0.88640000  0.24230000  0.26540000  1.0 0.0805463722
C  C89  1  0.84620000  0.19310000  0.20200000  1.0 -0.0758905499
C  C90  1  0.72410000  0.10390000  0.13890000  1.0 0.5694577209
C  C91  1  0.96600000  0.27840000  0.25830000  1.0 -0.157286302
C  C92  1  0.44460000  0.26480000  0.26080000  1.0 -0.0378812406
C  C93  1  0.40940000  0.14980000  0.32670000  1.0 -0.1192029945
C  C94  1  0.39120000  0.22930000  0.19950000  1.0 -0.0028765088
C  C95  1  0.35590000  0.11360000  0.26540000  1.0 0.0805463722
C  C96  1  0.34690000  0.15380000  0.20200000  1.0 -0.0748834251
C  C97  1  0.37980000  0.27590000  0.13890000  1.0 0.5694577209
C  C98  1  0.31240000  0.03400000  0.25830000  1.0 -0.157286302
C  C99  1  0.82020000  0.55540000  0.26080000  1.0 -0.0378812406
C  C100  1  0.74040000  0.59060000  0.32670000  1.0 -0.1192029945
C  C101  1  0.83810000  0.60880000  0.19950000  1.0 -0.0028765088
C  C102  1  0.75770000  0.64410000  0.26540000  1.0 0.0805463722
C  C103  1  0.80690000  0.65310000  0.20200000  1.0 -0.0758905499
C  C104  1  0.89610000  0.62020000  0.13890000  1.0 0.5694577209
C  C105  1  0.72160000  0.68760000  0.25830000  1.0 -0.157286302
C  C106  1  0.26480000  0.82020000  0.26080000  1.0 -0.0378812406
C  C107  1  0.14980000  0.74040000  0.32670000  1.0 -0.1192029945
C  C108  1  0.22930000  0.83810000  0.19950000  1.0 -0.0028765088
C  C109  1  0.11360000  0.75770000  0.26540000  1.0 0.0805463722
C  C110  1  0.15380000  0.80690000  0.20200000  1.0 -0.0758905499
C  C111  1  0.27590000  0.89610000  0.13890000  1.0 0.5694577209
C  C112  1  0.03400000  0.72160000  0.25830000  1.0 -0.157286302
C  C113  1  0.55540000  0.73520000  0.26080000  1.0 -0.0378812406
C  C114  1  0.59060000  0.85020000  0.32670000  1.0 -0.1192029945
C  C115  1  0.60880000  0.77070000  0.19950000  1.0 -0.0028765088
C  C116  1  0.64410000  0.88640000  0.26540000  1.0 0.0805463722
C  C117  1  0.65310000  0.84620000  0.20200000  1.0 -0.0758905499
C  C118  1  0.62020000  0.72410000  0.13890000  1.0 0.5694577209
C  C119  1  0.68760000  0.96600000  0.25830000  1.0 -0.157286302
C  C120  1  0.17980000  0.44460000  0.26080000  1.0 -0.0378812406
C  C121  1  0.25960000  0.40940000  0.32670000  1.0 -0.1192029945
C  C122  1  0.16190000  0.39120000  0.19950000  1.0 -0.0028765088
C  C123  1  0.24230000  0.35590000  0.26540000  1.0 0.0805463722
C  C124  1  0.19310000  0.34690000  0.20200000  1.0 -0.0758905499
C  C125  1  0.10390000  0.37980000  0.13890000  1.0 0.5694577209
C  C126  1  0.27840000  0.31240000  0.25830000  1.0 -0.157286302
C  C127  1  0.55540000  0.82020000  0.73920000  1.0 -0.0378812406
C  C128  1  0.59060000  0.74040000  0.67330000  1.0 -0.1192029945
C  C129  1  0.60880000  0.83810000  0.80050000  1.0 -0.0028765088
C  C130  1  0.64410000  0.75770000  0.73460000  1.0 0.0805463722
C  C131  1  0.65310000  0.80690000  0.79800000  1.0 -0.0758905499
C  C132  1  0.62020000  0.89610000  0.86110000  1.0 0.5694577209
C  C133  1  0.68760000  0.72160000  0.74170000  1.0 -0.157286302
C  C134  1  0.17980000  0.73520000  0.73920000  1.0 -0.0378812406
C  C135  1  0.25960000  0.85020000  0.67330000  1.0 -0.1192029945
C  C136  1  0.16190000  0.77070000  0.80050000  1.0 -0.0028765088
C  C137  1  0.24230000  0.88640000  0.73460000  1.0 0.0805463722
C  C138  1  0.19310000  0.84620000  0.79800000  1.0 -0.0758905499
C  C139  1  0.10390000  0.72410000  0.86110000  1.0 0.5694577209
C  C140  1  0.27840000  0.96600000  0.74170000  1.0 -0.157286302
C  C141  1  0.26480000  0.44460000  0.73920000  1.0 -0.0378812406
C  C142  1  0.14980000  0.40940000  0.67330000  1.0 -0.1192029945
C  C143  1  0.22930000  0.39120000  0.80050000  1.0 -0.0028765088
C  C144  1  0.11360000  0.35590000  0.73460000  1.0 0.0805463722
C  C145  1  0.15380000  0.34690000  0.79800000  1.0 -0.0758905499
C  C146  1  0.27590000  0.37980000  0.86110000  1.0 0.5694577209
C  C147  1  0.03400000  0.31240000  0.74170000  1.0 -0.157286302
C  C148  1  0.44460000  0.17980000  0.73920000  1.0 -0.0378812406
C  C149  1  0.40940000  0.25960000  0.67330000  1.0 -0.1192029945
C  C150  1  0.39120000  0.16190000  0.80050000  1.0 -0.0028765088
C  C151  1  0.35590000  0.24230000  0.73460000  1.0 0.0805463722
C  C152  1  0.34690000  0.19310000  0.79800000  1.0 -0.0758905499
C  C153  1  0.37980000  0.10390000  0.86110000  1.0 0.5694577209
C  C154  1  0.31240000  0.27840000  0.74170000  1.0 -0.157286302
C  C155  1  0.82020000  0.26480000  0.73920000  1.0 -0.0378812406
C  C156  1  0.74040000  0.14980000  0.67330000  1.0 -0.1192029945
C  C157  1  0.83810000  0.22930000  0.80050000  1.0 -0.0028765088
C  C158  1  0.75770000  0.11360000  0.73460000  1.0 0.0805463722
C  C159  1  0.80690000  0.15380000  0.79800000  1.0 -0.0748834251
C  C160  1  0.89610000  0.27590000  0.86110000  1.0 0.5694577209
C  C161  1  0.72160000  0.03400000  0.74170000  1.0 -0.157286302
C  C162  1  0.73520000  0.55540000  0.73920000  1.0 -0.0378812406
C  C163  1  0.85020000  0.59060000  0.67330000  1.0 -0.1192029945
C  C164  1  0.77070000  0.60880000  0.80050000  1.0 -0.0028765088
C  C165  1  0.88640000  0.64410000  0.73460000  1.0 0.0805463722
C  C166  1  0.84620000  0.65310000  0.79800000  1.0 -0.0758905499
C  C167  1  0.72410000  0.62020000  0.86110000  1.0 0.5694577209
C  C168  1  0.96600000  0.68760000  0.74170000  1.0 -0.157286302
C  C169  1  0.25865000  0.74135000  0.61600000  1.0 0.5694577209
C  C170  1  0.22710000  0.77290000  0.67690000  1.0 0.0024148292
C  C171  1  0.48270000  0.74135000  0.61600000  1.0 0.5694577209
C  C172  1  0.54580000  0.77290000  0.67690000  1.0 0.0024148292
C  C173  1  0.25865000  0.51730000  0.61600000  1.0 0.5694577209
C  C174  1  0.22710000  0.45420000  0.67690000  1.0 0.0024148292
C  C175  1  0.74135000  0.25865000  0.61600000  1.0 0.5694577209
C  C176  1  0.77290000  0.22710000  0.67690000  1.0 0.0024148292
C  C177  1  0.51730000  0.25865000  0.61600000  1.0 0.5694577209
C  C178  1  0.45420000  0.22710000  0.67690000  1.0 0.0024148292
C  C179  1  0.74135000  0.48270000  0.61600000  1.0 0.5694577209
C  C180  1  0.77290000  0.54580000  0.67690000  1.0 0.0024148292
C  C181  1  0.51730000  0.25865000  0.38400000  1.0 0.5694577209
C  C182  1  0.45420000  0.22710000  0.32310000  1.0 0.0024148292
C  C183  1  0.74135000  0.25865000  0.38400000  1.0 0.5694577209
C  C184  1  0.77290000  0.22710000  0.32310000  1.0 0.0024148292
C  C185  1  0.74135000  0.48270000  0.38400000  1.0 0.5694577209
C  C186  1  0.77290000  0.54580000  0.32310000  1.0 0.0024148292
C  C187  1  0.48270000  0.74135000  0.38400000  1.0 0.5694577209
C  C188  1  0.54580000  0.77290000  0.32310000  1.0 0.0024148292
C  C189  1  0.25865000  0.74135000  0.38400000  1.0 0.5694577209
C  C190  1  0.22710000  0.77290000  0.32310000  1.0 0.0024148292
C  C191  1  0.25865000  0.51730000  0.38400000  1.0 0.5694577209
C  C192  1  0.22710000  0.45420000  0.32310000  1.0 0.0024148292
O  O1  1  0.32200000  0.78240000  0.59260000  1.0 -0.5173791933
O  O2  1  0.33990000  0.91020000  0.86400000  1.0 -0.4418766201
O  O3  1  0.24700000  0.92070000  0.90780000  1.0 -0.4559979965
O  O4  1  0.46040000  0.67800000  0.59260000  1.0 -0.5173791933
O  O5  1  0.57030000  0.66010000  0.86400000  1.0 -0.4418766201
O  O6  1  0.67370000  0.75300000  0.90780000  1.0 -0.4559979965
O  O7  1  0.21760000  0.53960000  0.59260000  1.0 -0.5173791933
O  O8  1  0.08980000  0.42970000  0.86400000  1.0 -0.4418766201
O  O9  1  0.07930000  0.32630000  0.90780000  1.0 -0.4559979965
O  O10  1  0.67800000  0.21760000  0.59260000  1.0 -0.5173791933
O  O11  1  0.66010000  0.08980000  0.86400000  1.0 -0.4418766201
O  O12  1  0.75300000  0.07930000  0.90780000  1.0 -0.4559979965
O  O13  1  0.53960000  0.32200000  0.59260000  1.0 -0.5173791933
O  O14  1  0.42970000  0.33990000  0.86400000  1.0 -0.4418766201
O  O15  1  0.32630000  0.24700000  0.90780000  1.0 -0.4559979965
O  O16  1  0.78240000  0.46040000  0.59260000  1.0 -0.5173791933
O  O17  1  0.91020000  0.57030000  0.86400000  1.0 -0.4418766201
O  O18  1  0.92070000  0.67370000  0.90780000  1.0 -0.4547250657
O  O19  1  0.53960000  0.21760000  0.40740000  1.0 -0.5173791933
O  O20  1  0.42970000  0.08980000  0.13600000  1.0 -0.4418766201
O  O21  1  0.32630000  0.07930000  0.09220000  1.0 -0.4547250657
O  O22  1  0.78240000  0.32200000  0.40740000  1.0 -0.5173791933
O  O23  1  0.91020000  0.33990000  0.13600000  1.0 -0.4418766201
O  O24  1  0.92070000  0.24700000  0.09220000  1.0 -0.4547250657
O  O25  1  0.67800000  0.46040000  0.40740000  1.0 -0.5173791933
O  O26  1  0.66010000  0.57030000  0.13600000  1.0 -0.4418766201
O  O27  1  0.75300000  0.67370000  0.09220000  1.0 -0.4547250657
O  O28  1  0.46040000  0.78240000  0.40740000  1.0 -0.5173791933
O  O29  1  0.57030000  0.91020000  0.13600000  1.0 -0.4418766201
O  O30  1  0.67370000  0.92070000  0.09220000  1.0 -0.4559979965
O  O31  1  0.21760000  0.67800000  0.40740000  1.0 -0.5173791933
O  O32  1  0.08980000  0.66010000  0.13600000  1.0 -0.4418766201
O  O33  1  0.07930000  0.75300000  0.09220000  1.0 -0.4547250657
O  O34  1  0.32200000  0.53960000  0.40740000  1.0 -0.5173791933
O  O35  1  0.33990000  0.42970000  0.13600000  1.0 -0.4418766201
O  O36  1  0.24700000  0.32630000  0.09220000  1.0 -0.4559979965
O  O37  1  0.67800000  0.21760000  0.40740000  1.0 -0.5173791933
O  O38  1  0.66010000  0.08980000  0.13600000  1.0 -0.4418766201
O  O39  1  0.75300000  0.07930000  0.09220000  1.0 -0.4547250657
O  O40  1  0.53960000  0.32200000  0.40740000  1.0 -0.5173791933
O  O41  1  0.42970000  0.33990000  0.13600000  1.0 -0.4418766201
O  O42  1  0.32630000  0.24700000  0.09220000  1.0 -0.4559979965
O  O43  1  0.78240000  0.46040000  0.40740000  1.0 -0.5173791933
O  O44  1  0.91020000  0.57030000  0.13600000  1.0 -0.4418766201
O  O45  1  0.92070000  0.67370000  0.09220000  1.0 -0.4547250657
O  O46  1  0.32200000  0.78240000  0.40740000  1.0 -0.5173791933
O  O47  1  0.33990000  0.91020000  0.13600000  1.0 -0.4418766201
O  O48  1  0.24700000  0.92070000  0.09220000  1.0 -0.4559979965
O  O49  1  0.46040000  0.67800000  0.40740000  1.0 -0.5173791933
O  O50  1  0.57030000  0.66010000  0.13600000  1.0 -0.4418766201
O  O51  1  0.67370000  0.75300000  0.09220000  1.0 -0.4559979965
O  O52  1  0.21760000  0.53960000  0.40740000  1.0 -0.5173791933
O  O53  1  0.08980000  0.42970000  0.13600000  1.0 -0.4418766201
O  O54  1  0.07930000  0.32630000  0.09220000  1.0 -0.4559979965
O  O55  1  0.46040000  0.78240000  0.59260000  1.0 -0.5173791933
O  O56  1  0.57030000  0.91020000  0.86400000  1.0 -0.4418766201
O  O57  1  0.67370000  0.92070000  0.90780000  1.0 -0.4559979965
O  O58  1  0.21760000  0.67800000  0.59260000  1.0 -0.5173791933
O  O59  1  0.08980000  0.66010000  0.86400000  1.0 -0.4418766201
O  O60  1  0.07930000  0.75300000  0.90780000  1.0 -0.4559979965
O  O61  1  0.32200000  0.53960000  0.59260000  1.0 -0.5173791933
O  O62  1  0.33990000  0.42970000  0.86400000  1.0 -0.4418766201
O  O63  1  0.24700000  0.32630000  0.90780000  1.0 -0.4559979965
O  O64  1  0.53960000  0.21760000  0.59260000  1.0 -0.5173791933
O  O65  1  0.42970000  0.08980000  0.86400000  1.0 -0.4418766201
O  O66  1  0.32630000  0.07930000  0.90780000  1.0 -0.4559979965
O  O67  1  0.78240000  0.32200000  0.59260000  1.0 -0.5173791933
O  O68  1  0.91020000  0.33990000  0.86400000  1.0 -0.4418766201
O  O69  1  0.92070000  0.24700000  0.90780000  1.0 -0.4559979965
O  O70  1  0.67800000  0.46040000  0.59260000  1.0 -0.5173791933
O  O71  1  0.66010000  0.57030000  0.86400000  1.0 -0.4418766201
O  O72  1  0.75300000  0.67370000  0.90780000  1.0 -0.4559979965
O  O73  1  0.33333333  0.66666667  0.50000000  1.0 -0.94271318
O  O74  1  0.66666667  0.33333333  0.50000000  1.0 -0.9485836415
O  O75  1  0.38650000  0.00000000  0.00000000  1.0 -0.7706487465
O  O76  1  0.61350000  0.61350000  0.00000000  1.0 -0.7706487465
O  O77  1  0.00000000  0.38650000  0.00000000  1.0 -0.7706487465
O  O78  1  0.61350000  0.00000000  0.00000000  1.0 -0.7706487465
O  O79  1  0.38650000  0.38650000  0.00000000  1.0 -0.7706487465
O  O80  1  0.00000000  0.61350000  0.00000000  1.0 -0.7706487465
O  O81  1  0.50000000  0.00000000  0.79800000  1.0 -0.6461849896
O  O82  1  0.50000000  0.50000000  0.79800000  1.0 -0.6461849896
O  O83  1  0.00000000  0.50000000  0.79800000  1.0 -0.6422294764
O  O84  1  0.50000000  0.00000000  0.20200000  1.0 -0.6422294764
O  O85  1  0.00000000  0.50000000  0.20200000  1.0 -0.6422294764
O  O86  1  0.50000000  0.50000000  0.20200000  1.0 -0.6422294764
O  O87  1  0.50000000  0.00000000  0.00000000  1.0 -0.8869951753
O  O88  1  0.50000000  0.50000000  0.00000000  1.0 -0.8869951753
O  O89  1  0.00000000  0.50000000  0.00000000  1.0 -0.8869951753
