# DDEC6 charges by PACMAN v1.1 (https://github.com/mtap-research/PACMAN-charge/)
data_HEGKAP_FSR_pacman
_symmetry_space_group_name_H-M   'P 1'
_cell_length_a   14.89990000
_cell_length_b   14.89990000
_cell_length_c   19.13620000
_cell_angle_alpha   90.00000000
_cell_angle_beta   90.00000000
_cell_angle_gamma   90.00000000
_symmetry_Int_Tables_number   1
_chemical_formula_structural   ZnH28C20NO4
_chemical_formula_sum   'Zn8 H224 C160 N8 O32'
_cell_volume   4248.37073632
_cell_formula_units_Z   8
loop_
 _symmetry_equiv_pos_site_id
 _symmetry_equiv_pos_as_xyz
  1  'x, y, z'
loop_
 _atom_site_type_symbol
 _atom_site_label
 _atom_site_symmetry_multiplicity
 _atom_site_fract_x
 _atom_site_fract_y
 _atom_site_fract_z
 _atom_site_occupancy
 _atom_site_charge
Zn  Zn1  1  0.50000000  0.00000000  0.83865000  1.0 0.668619569
Zn  Zn2  1  0.00000000  0.50000000  0.66135000  1.0 0.668619569
Zn  Zn3  1  0.00000000  0.50000000  0.16135000  1.0 0.668619569
Zn  Zn4  1  0.50000000  0.00000000  0.33865000  1.0 0.668619569
Zn  Zn5  1  0.50000000  0.00000000  0.68555000  1.0 0.6639585902
Zn  Zn6  1  0.00000000  0.50000000  0.81445000  1.0 0.6639585902
Zn  Zn7  1  0.00000000  0.50000000  0.31445000  1.0 0.6639585902
Zn  Zn8  1  0.50000000  0.00000000  0.18555000  1.0 0.6639585902
H  H1  1  0.75190000  0.15230000  0.86030000  1.0 0.1334994506
H  H2  1  0.34770000  0.25190000  0.86030000  1.0 0.1334994506
H  H3  1  0.25190000  0.34770000  0.63970000  1.0 0.1334994506
H  H4  1  0.24810000  0.84770000  0.86030000  1.0 0.1334994506
H  H5  1  0.15230000  0.75190000  0.63970000  1.0 0.1334994506
H  H6  1  0.65230000  0.74810000  0.86030000  1.0 0.1334994506
H  H7  1  0.74810000  0.65230000  0.63970000  1.0 0.1334994506
H  H8  1  0.84770000  0.24810000  0.63970000  1.0 0.1334994506
H  H9  1  0.74810000  0.34770000  0.13970000  1.0 0.1334994506
H  H10  1  0.15230000  0.24810000  0.13970000  1.0 0.1334994506
H  H11  1  0.24810000  0.15230000  0.36030000  1.0 0.1334994506
H  H12  1  0.25190000  0.65230000  0.13970000  1.0 0.1334994506
H  H13  1  0.34770000  0.74810000  0.36030000  1.0 0.1334994506
H  H14  1  0.84770000  0.75190000  0.13970000  1.0 0.1334994506
H  H15  1  0.75190000  0.84770000  0.36030000  1.0 0.1334994506
H  H16  1  0.65230000  0.25190000  0.36030000  1.0 0.1334994506
H  H17  1  0.73940000  0.13560000  0.64920000  1.0 0.1368311454
H  H18  1  0.36440000  0.23940000  0.64920000  1.0 0.1368311454
H  H19  1  0.23940000  0.36440000  0.85080000  1.0 0.1368311454
H  H20  1  0.26060000  0.86440000  0.64920000  1.0 0.1368311454
H  H21  1  0.13560000  0.73940000  0.85080000  1.0 0.1368311454
H  H22  1  0.63560000  0.76060000  0.64920000  1.0 0.1368311454
H  H23  1  0.76060000  0.63560000  0.85080000  1.0 0.1368311454
H  H24  1  0.86440000  0.26060000  0.85080000  1.0 0.1368311454
H  H25  1  0.76060000  0.36440000  0.35080000  1.0 0.1368311454
H  H26  1  0.13560000  0.26060000  0.35080000  1.0 0.1368311454
H  H27  1  0.26060000  0.13560000  0.14920000  1.0 0.1368311454
H  H28  1  0.23940000  0.63560000  0.35080000  1.0 0.1368311454
H  H29  1  0.36440000  0.76060000  0.14920000  1.0 0.1368311454
H  H30  1  0.86440000  0.73940000  0.35080000  1.0 0.1368311454
H  H31  1  0.73940000  0.86440000  0.14920000  1.0 0.1368311454
H  H32  1  0.63560000  0.23940000  0.14920000  1.0 0.1368311454
H  H33  1  0.49930000  0.13680000  0.95430000  1.0 0.0628232289
H  H34  1  0.36320000  0.99930000  0.95430000  1.0 0.0628232289
H  H35  1  0.99930000  0.36320000  0.54570000  1.0 0.0628232289
H  H36  1  0.50070000  0.86320000  0.95430000  1.0 0.0628232289
H  H37  1  0.13680000  0.49930000  0.54570000  1.0 0.0628232289
H  H38  1  0.63680000  0.00070000  0.95430000  1.0 0.0628232289
H  H39  1  0.00070000  0.63680000  0.54570000  1.0 0.0628232289
H  H40  1  0.86320000  0.50070000  0.54570000  1.0 0.0628232289
H  H41  1  0.00070000  0.36320000  0.04570000  1.0 0.0628232289
H  H42  1  0.13680000  0.50070000  0.04570000  1.0 0.0628232289
H  H43  1  0.50070000  0.13680000  0.45430000  1.0 0.0628232289
H  H44  1  0.99930000  0.63680000  0.04570000  1.0 0.0628232289
H  H45  1  0.36320000  0.00070000  0.45430000  1.0 0.0628232289
H  H46  1  0.86320000  0.49930000  0.04570000  1.0 0.0628232289
H  H47  1  0.49930000  0.86320000  0.45430000  1.0 0.0628232289
H  H48  1  0.63680000  0.99930000  0.45430000  1.0 0.0628232289
H  H49  1  0.59850000  0.09500000  0.95400000  1.0 0.067373539
H  H50  1  0.40500000  0.09850000  0.95400000  1.0 0.067373539
H  H51  1  0.09850000  0.40500000  0.54600000  1.0 0.067373539
H  H52  1  0.40150000  0.90500000  0.95400000  1.0 0.067373539
H  H53  1  0.09500000  0.59850000  0.54600000  1.0 0.067373539
H  H54  1  0.59500000  0.90150000  0.95400000  1.0 0.067373539
H  H55  1  0.90150000  0.59500000  0.54600000  1.0 0.067373539
H  H56  1  0.90500000  0.40150000  0.54600000  1.0 0.067373539
H  H57  1  0.90150000  0.40500000  0.04600000  1.0 0.067373539
H  H58  1  0.09500000  0.40150000  0.04600000  1.0 0.067373539
H  H59  1  0.40150000  0.09500000  0.45400000  1.0 0.067373539
H  H60  1  0.09850000  0.59500000  0.04600000  1.0 0.067373539
H  H61  1  0.40500000  0.90150000  0.45400000  1.0 0.067373539
H  H62  1  0.90500000  0.59850000  0.04600000  1.0 0.067373539
H  H63  1  0.59850000  0.90500000  0.45400000  1.0 0.067373539
H  H64  1  0.59500000  0.09850000  0.45400000  1.0 0.067373539
H  H65  1  0.59910000  0.09480000  0.06800000  1.0 0.0628232289
H  H66  1  0.40520000  0.09910000  0.06800000  1.0 0.0628232289
H  H67  1  0.09910000  0.40520000  0.43200000  1.0 0.0628232289
H  H68  1  0.40090000  0.90520000  0.06800000  1.0 0.0628232289
H  H69  1  0.09480000  0.59910000  0.43200000  1.0 0.0628232289
H  H70  1  0.59480000  0.90090000  0.06800000  1.0 0.0628232289
H  H71  1  0.90090000  0.59480000  0.43200000  1.0 0.0628232289
H  H72  1  0.90520000  0.40090000  0.43200000  1.0 0.0628232289
H  H73  1  0.90090000  0.40520000  0.93200000  1.0 0.0628232289
H  H74  1  0.09480000  0.40090000  0.93200000  1.0 0.0628232289
H  H75  1  0.40090000  0.09480000  0.56800000  1.0 0.0628232289
H  H76  1  0.09910000  0.59480000  0.93200000  1.0 0.0628232289
H  H77  1  0.40520000  0.90090000  0.56800000  1.0 0.0628232289
H  H78  1  0.90520000  0.59910000  0.93200000  1.0 0.0628232289
H  H79  1  0.59910000  0.90520000  0.56800000  1.0 0.0628232289
H  H80  1  0.59480000  0.09910000  0.56800000  1.0 0.0628232289
H  H81  1  0.50030000  0.13720000  0.06830000  1.0 0.0628232289
H  H82  1  0.36280000  0.00030000  0.06830000  1.0 0.0628232289
H  H83  1  0.00030000  0.36280000  0.43170000  1.0 0.0628232289
H  H84  1  0.49970000  0.86280000  0.06830000  1.0 0.0628232289
H  H85  1  0.13720000  0.50030000  0.43170000  1.0 0.0628232289
H  H86  1  0.63720000  0.99970000  0.06830000  1.0 0.0628232289
H  H87  1  0.99970000  0.63720000  0.43170000  1.0 0.0628232289
H  H88  1  0.86280000  0.49970000  0.43170000  1.0 0.0628232289
H  H89  1  0.99970000  0.36280000  0.93170000  1.0 0.0628232289
H  H90  1  0.13720000  0.49970000  0.93170000  1.0 0.0628232289
H  H91  1  0.49970000  0.13720000  0.56830000  1.0 0.0628232289
H  H92  1  0.00030000  0.63720000  0.93170000  1.0 0.0628232289
H  H93  1  0.36280000  0.99970000  0.56830000  1.0 0.0628232289
H  H94  1  0.86280000  0.50030000  0.93170000  1.0 0.0628232289
H  H95  1  0.50030000  0.86280000  0.56830000  1.0 0.0628232289
H  H96  1  0.63720000  0.00030000  0.56830000  1.0 0.0628232289
H  H97  1  0.56460000  0.12040000  0.95640000  1.0 0.067373539
H  H98  1  0.37960000  0.06460000  0.95640000  1.0 0.067373539
H  H99  1  0.06460000  0.37960000  0.54360000  1.0 0.067373539
H  H100  1  0.43540000  0.87960000  0.95640000  1.0 0.067373539
H  H101  1  0.12040000  0.56460000  0.54360000  1.0 0.067373539
H  H102  1  0.62040000  0.93540000  0.95640000  1.0 0.067373539
H  H103  1  0.93540000  0.62040000  0.54360000  1.0 0.067373539
H  H104  1  0.87960000  0.43540000  0.54360000  1.0 0.067373539
H  H105  1  0.93540000  0.37960000  0.04360000  1.0 0.067373539
H  H106  1  0.12040000  0.43540000  0.04360000  1.0 0.067373539
H  H107  1  0.43540000  0.12040000  0.45640000  1.0 0.067373539
H  H108  1  0.06460000  0.62040000  0.04360000  1.0 0.067373539
H  H109  1  0.37960000  0.93540000  0.45640000  1.0 0.067373539
H  H110  1  0.87960000  0.56460000  0.04360000  1.0 0.067373539
H  H111  1  0.56460000  0.87960000  0.45640000  1.0 0.067373539
H  H112  1  0.62040000  0.06460000  0.45640000  1.0 0.067373539
H  H113  1  0.46350000  0.13190000  0.95510000  1.0 0.0628232289
H  H114  1  0.36810000  0.96350000  0.95510000  1.0 0.0628232289
H  H115  1  0.96350000  0.36810000  0.54490000  1.0 0.0628232289
H  H116  1  0.53650000  0.86810000  0.95510000  1.0 0.0628232289
H  H117  1  0.13190000  0.46350000  0.54490000  1.0 0.0628232289
H  H118  1  0.63190000  0.03650000  0.95510000  1.0 0.0628232289
H  H119  1  0.03650000  0.63190000  0.54490000  1.0 0.0628232289
H  H120  1  0.86810000  0.53650000  0.54490000  1.0 0.0628232289
H  H121  1  0.03650000  0.36810000  0.04490000  1.0 0.0628232289
H  H122  1  0.13190000  0.53650000  0.04490000  1.0 0.0628232289
H  H123  1  0.53650000  0.13190000  0.45510000  1.0 0.0628232289
H  H124  1  0.96350000  0.63190000  0.04490000  1.0 0.0628232289
H  H125  1  0.36810000  0.03650000  0.45510000  1.0 0.0628232289
H  H126  1  0.86810000  0.46350000  0.04490000  1.0 0.0628232289
H  H127  1  0.46350000  0.86810000  0.45510000  1.0 0.0628232289
H  H128  1  0.63190000  0.96350000  0.45510000  1.0 0.0628232289
H  H129  1  0.46720000  0.13240000  0.06900000  1.0 0.0628232289
H  H130  1  0.36760000  0.96720000  0.06900000  1.0 0.067373539
H  H131  1  0.96720000  0.36760000  0.43100000  1.0 0.067373539
H  H132  1  0.53280000  0.86760000  0.06900000  1.0 0.067373539
H  H133  1  0.13240000  0.46720000  0.43100000  1.0 0.067373539
H  H134  1  0.63240000  0.03280000  0.06900000  1.0 0.0628232289
H  H135  1  0.03280000  0.63240000  0.43100000  1.0 0.067373539
H  H136  1  0.86760000  0.53280000  0.43100000  1.0 0.067373539
H  H137  1  0.03280000  0.36760000  0.93100000  1.0 0.067373539
H  H138  1  0.13240000  0.53280000  0.93100000  1.0 0.067373539
H  H139  1  0.53280000  0.13240000  0.56900000  1.0 0.0628232289
H  H140  1  0.96720000  0.63240000  0.93100000  1.0 0.067373539
H  H141  1  0.36760000  0.03280000  0.56900000  1.0 0.0628232289
H  H142  1  0.86760000  0.46720000  0.93100000  1.0 0.067373539
H  H143  1  0.46720000  0.86760000  0.56900000  1.0 0.067373539
H  H144  1  0.63240000  0.96720000  0.56900000  1.0 0.067373539
H  H145  1  0.56760000  0.11870000  0.07030000  1.0 0.067373539
H  H146  1  0.38130000  0.06760000  0.07030000  1.0 0.067373539
H  H147  1  0.06760000  0.38130000  0.42970000  1.0 0.067373539
H  H148  1  0.43240000  0.88130000  0.07030000  1.0 0.067373539
H  H149  1  0.11870000  0.56760000  0.42970000  1.0 0.067373539
H  H150  1  0.61870000  0.93240000  0.07030000  1.0 0.067373539
H  H151  1  0.93240000  0.61870000  0.42970000  1.0 0.067373539
H  H152  1  0.88130000  0.43240000  0.42970000  1.0 0.067373539
H  H153  1  0.93240000  0.38130000  0.92970000  1.0 0.067373539
H  H154  1  0.11870000  0.43240000  0.92970000  1.0 0.067373539
H  H155  1  0.43240000  0.11870000  0.57030000  1.0 0.067373539
H  H156  1  0.06760000  0.61870000  0.92970000  1.0 0.067373539
H  H157  1  0.38130000  0.93240000  0.57030000  1.0 0.067373539
H  H158  1  0.88130000  0.56760000  0.92970000  1.0 0.067373539
H  H159  1  0.56760000  0.88130000  0.57030000  1.0 0.067373539
H  H160  1  0.61870000  0.06760000  0.57030000  1.0 0.067373539
H  H161  1  0.61600000  0.07080000  0.95640000  1.0 0.067373539
H  H162  1  0.42920000  0.11600000  0.95640000  1.0 0.067373539
H  H163  1  0.11600000  0.42920000  0.54360000  1.0 0.067373539
H  H164  1  0.38400000  0.92920000  0.95640000  1.0 0.067373539
H  H165  1  0.07080000  0.61600000  0.54360000  1.0 0.067373539
H  H166  1  0.57080000  0.88400000  0.95640000  1.0 0.067373539
H  H167  1  0.88400000  0.57080000  0.54360000  1.0 0.067373539
H  H168  1  0.92920000  0.38400000  0.54360000  1.0 0.067373539
H  H169  1  0.88400000  0.42920000  0.04360000  1.0 0.067373539
H  H170  1  0.07080000  0.38400000  0.04360000  1.0 0.067373539
H  H171  1  0.38400000  0.07080000  0.45640000  1.0 0.067373539
H  H172  1  0.11600000  0.57080000  0.04360000  1.0 0.067373539
H  H173  1  0.42920000  0.88400000  0.45640000  1.0 0.067373539
H  H174  1  0.92920000  0.61600000  0.04360000  1.0 0.067373539
H  H175  1  0.61600000  0.92920000  0.45640000  1.0 0.067373539
H  H176  1  0.57080000  0.11600000  0.45640000  1.0 0.067373539
H  H177  1  0.53560000  0.13150000  0.95420000  1.0 0.067373539
H  H178  1  0.36850000  0.03560000  0.95420000  1.0 0.067373539
H  H179  1  0.03560000  0.36850000  0.54580000  1.0 0.067373539
H  H180  1  0.46440000  0.86850000  0.95420000  1.0 0.067373539
H  H181  1  0.13150000  0.53560000  0.54580000  1.0 0.067373539
H  H182  1  0.63150000  0.96440000  0.95420000  1.0 0.067373539
H  H183  1  0.96440000  0.63150000  0.54580000  1.0 0.067373539
H  H184  1  0.86850000  0.46440000  0.54580000  1.0 0.067373539
H  H185  1  0.96440000  0.36850000  0.04580000  1.0 0.067373539
H  H186  1  0.13150000  0.46440000  0.04580000  1.0 0.067373539
H  H187  1  0.46440000  0.13150000  0.45420000  1.0 0.067373539
H  H188  1  0.03560000  0.63150000  0.04580000  1.0 0.067373539
H  H189  1  0.36850000  0.96440000  0.45420000  1.0 0.067373539
H  H190  1  0.86850000  0.53560000  0.04580000  1.0 0.067373539
H  H191  1  0.53560000  0.86850000  0.45420000  1.0 0.067373539
H  H192  1  0.63150000  0.03560000  0.45420000  1.0 0.067373539
H  H193  1  0.54120000  0.12990000  0.06750000  1.0 0.067373539
H  H194  1  0.37010000  0.04120000  0.06750000  1.0 0.067373539
H  H195  1  0.04120000  0.37010000  0.43250000  1.0 0.067373539
H  H196  1  0.45880000  0.87010000  0.06750000  1.0 0.067373539
H  H197  1  0.12990000  0.54120000  0.43250000  1.0 0.067373539
H  H198  1  0.62990000  0.95880000  0.06750000  1.0 0.067373539
H  H199  1  0.95880000  0.62990000  0.43250000  1.0 0.067373539
H  H200  1  0.87010000  0.45880000  0.43250000  1.0 0.067373539
H  H201  1  0.95880000  0.37010000  0.93250000  1.0 0.067373539
H  H202  1  0.12990000  0.45880000  0.93250000  1.0 0.067373539
H  H203  1  0.45880000  0.12990000  0.56750000  1.0 0.067373539
H  H204  1  0.04120000  0.62990000  0.93250000  1.0 0.067373539
H  H205  1  0.37010000  0.95880000  0.56750000  1.0 0.067373539
H  H206  1  0.87010000  0.54120000  0.93250000  1.0 0.067373539
H  H207  1  0.54120000  0.87010000  0.56750000  1.0 0.067373539
H  H208  1  0.62990000  0.04120000  0.56750000  1.0 0.067373539
H  H209  1  0.61970000  0.06580000  0.06970000  1.0 0.0628232289
H  H210  1  0.43420000  0.11970000  0.06970000  1.0 0.0628232289
H  H211  1  0.11970000  0.43420000  0.43030000  1.0 0.0628232289
H  H212  1  0.38030000  0.93420000  0.06970000  1.0 0.0628232289
H  H213  1  0.06580000  0.61970000  0.43030000  1.0 0.0628232289
H  H214  1  0.56580000  0.88030000  0.06970000  1.0 0.0628232289
H  H215  1  0.88030000  0.56580000  0.43030000  1.0 0.0628232289
H  H216  1  0.93420000  0.38030000  0.43030000  1.0 0.0628232289
H  H217  1  0.88030000  0.43420000  0.93030000  1.0 0.0628232289
H  H218  1  0.06580000  0.38030000  0.93030000  1.0 0.0628232289
H  H219  1  0.38030000  0.06580000  0.56970000  1.0 0.0628232289
H  H220  1  0.11970000  0.56580000  0.93030000  1.0 0.0628232289
H  H221  1  0.43420000  0.88030000  0.56970000  1.0 0.0628232289
H  H222  1  0.93420000  0.61970000  0.93030000  1.0 0.0628232289
H  H223  1  0.61970000  0.93420000  0.56970000  1.0 0.0628232289
H  H224  1  0.56580000  0.11970000  0.56970000  1.0 0.0628232289
C  C1  1  0.73272000  0.13576000  0.75560000  1.0 0.032059205
C  C2  1  0.36424000  0.23272000  0.75560000  1.0 0.032059205
C  C3  1  0.23272000  0.36424000  0.74440000  1.0 0.032059205
C  C4  1  0.26728000  0.86424000  0.75560000  1.0 0.032059205
C  C5  1  0.13576000  0.73272000  0.74440000  1.0 0.032059205
C  C6  1  0.63576000  0.76728000  0.75560000  1.0 0.032059205
C  C7  1  0.76728000  0.63576000  0.74440000  1.0 0.032059205
C  C8  1  0.86424000  0.26728000  0.74440000  1.0 0.032059205
C  C9  1  0.76728000  0.36424000  0.24440000  1.0 0.032059205
C  C10  1  0.13576000  0.26728000  0.24440000  1.0 0.032059205
C  C11  1  0.26728000  0.13576000  0.25560000  1.0 0.032059205
C  C12  1  0.23272000  0.63576000  0.24440000  1.0 0.032059205
C  C13  1  0.36424000  0.76728000  0.25560000  1.0 0.032059205
C  C14  1  0.86424000  0.73272000  0.24440000  1.0 0.032059205
C  C15  1  0.73272000  0.86424000  0.25560000  1.0 0.032059205
C  C16  1  0.63576000  0.23272000  0.25560000  1.0 0.032059205
C  C17  1  0.77107000  0.17198000  0.81554000  1.0 -0.1505569707
C  C18  1  0.32802000  0.27107000  0.81554000  1.0 -0.1505569707
C  C19  1  0.27107000  0.32802000  0.68446000  1.0 -0.1505569707
C  C20  1  0.22893000  0.82802000  0.81554000  1.0 -0.1505569707
C  C21  1  0.17198000  0.77107000  0.68446000  1.0 -0.1505569707
C  C22  1  0.67198000  0.72893000  0.81554000  1.0 -0.1505569707
C  C23  1  0.72893000  0.67198000  0.68446000  1.0 -0.1505569707
C  C24  1  0.82802000  0.22893000  0.68446000  1.0 -0.1505569707
C  C25  1  0.72893000  0.32802000  0.18446000  1.0 -0.1505569707
C  C26  1  0.17198000  0.22893000  0.18446000  1.0 -0.1505569707
C  C27  1  0.22893000  0.17198000  0.31554000  1.0 -0.1505569707
C  C28  1  0.27107000  0.67198000  0.18446000  1.0 -0.1505569707
C  C29  1  0.32802000  0.72893000  0.31554000  1.0 -0.1505569707
C  C30  1  0.82802000  0.77107000  0.18446000  1.0 -0.1505569707
C  C31  1  0.77107000  0.82802000  0.31554000  1.0 -0.1505569707
C  C32  1  0.67198000  0.27107000  0.31554000  1.0 -0.1505569707
C  C33  1  0.76320000  0.16274000  0.69019000  1.0 -0.1631147455
C  C34  1  0.33726000  0.26320000  0.69019000  1.0 -0.1631147455
C  C35  1  0.26320000  0.33726000  0.80981000  1.0 -0.1631147455
C  C36  1  0.23680000  0.83726000  0.69019000  1.0 -0.1631147455
C  C37  1  0.16274000  0.76320000  0.80981000  1.0 -0.1631147455
C  C38  1  0.66274000  0.73680000  0.69019000  1.0 -0.1631147455
C  C39  1  0.73680000  0.66274000  0.80981000  1.0 -0.1631147455
C  C40  1  0.83726000  0.23680000  0.80981000  1.0 -0.1631147455
C  C41  1  0.73680000  0.33726000  0.30981000  1.0 -0.1631147455
C  C42  1  0.16274000  0.23680000  0.30981000  1.0 -0.1631147455
C  C43  1  0.23680000  0.16274000  0.19019000  1.0 -0.1631147455
C  C44  1  0.26320000  0.66274000  0.30981000  1.0 -0.1631147455
C  C45  1  0.33726000  0.73680000  0.19019000  1.0 -0.1631147455
C  C46  1  0.83726000  0.76320000  0.30981000  1.0 -0.1631147455
C  C47  1  0.76320000  0.83726000  0.19019000  1.0 -0.1631147455
C  C48  1  0.66274000  0.26320000  0.19019000  1.0 -0.1631147455
C  C49  1  0.65400000  0.07355000  0.76085000  1.0 0.3222997353
C  C50  1  0.42645000  0.15400000  0.76085000  1.0 0.3222997353
C  C51  1  0.15400000  0.42645000  0.73915000  1.0 0.3222997353
C  C52  1  0.34600000  0.92645000  0.76085000  1.0 0.3222997353
C  C53  1  0.07355000  0.65400000  0.73915000  1.0 0.3222997353
C  C54  1  0.57355000  0.84600000  0.76085000  1.0 0.3222997353
C  C55  1  0.84600000  0.57355000  0.73915000  1.0 0.3222997353
C  C56  1  0.92645000  0.34600000  0.73915000  1.0 0.3222997353
C  C57  1  0.84600000  0.42645000  0.23915000  1.0 0.3222997353
C  C58  1  0.07355000  0.34600000  0.23915000  1.0 0.3222997353
C  C59  1  0.34600000  0.07355000  0.26085000  1.0 0.3222997353
C  C60  1  0.15400000  0.57355000  0.23915000  1.0 0.3222997353
C  C61  1  0.42645000  0.84600000  0.26085000  1.0 0.3222997353
C  C62  1  0.92645000  0.65400000  0.23915000  1.0 0.3222997353
C  C63  1  0.65400000  0.92645000  0.26085000  1.0 0.3222997353
C  C64  1  0.57355000  0.15400000  0.26085000  1.0 0.3222997353
C  C65  1  0.53660000  0.08660000  0.97160000  1.0 -0.0772402695
C  C66  1  0.41340000  0.03660000  0.97160000  1.0 -0.0772402695
C  C67  1  0.03660000  0.41340000  0.52840000  1.0 -0.0772402695
C  C68  1  0.46340000  0.91340000  0.97160000  1.0 -0.0772402695
C  C69  1  0.08660000  0.53660000  0.52840000  1.0 -0.0772402695
C  C70  1  0.58660000  0.96340000  0.97160000  1.0 -0.0772402695
C  C71  1  0.96340000  0.58660000  0.52840000  1.0 -0.0772402695
C  C72  1  0.91340000  0.46340000  0.52840000  1.0 -0.0772402695
C  C73  1  0.96340000  0.41340000  0.02840000  1.0 -0.0772402695
C  C74  1  0.08660000  0.46340000  0.02840000  1.0 -0.0772402695
C  C75  1  0.46340000  0.08660000  0.47160000  1.0 -0.0772402695
C  C76  1  0.03660000  0.58660000  0.02840000  1.0 -0.0772402695
C  C77  1  0.41340000  0.96340000  0.47160000  1.0 -0.0772402695
C  C78  1  0.91340000  0.53660000  0.02840000  1.0 -0.0772402695
C  C79  1  0.53660000  0.91340000  0.47160000  1.0 -0.0772402695
C  C80  1  0.58660000  0.03660000  0.47160000  1.0 -0.0772402695
C  C81  1  0.53690000  0.08640000  0.05090000  1.0 -0.0710169413
C  C82  1  0.41360000  0.03690000  0.05090000  1.0 -0.0710169413
C  C83  1  0.03690000  0.41360000  0.44910000  1.0 -0.0710169413
C  C84  1  0.46310000  0.91360000  0.05090000  1.0 -0.0710169413
C  C85  1  0.08640000  0.53690000  0.44910000  1.0 -0.0710169413
C  C86  1  0.58640000  0.96310000  0.05090000  1.0 -0.0710169413
C  C87  1  0.96310000  0.58640000  0.44910000  1.0 -0.0710169413
C  C88  1  0.91360000  0.46310000  0.44910000  1.0 -0.0710169413
C  C89  1  0.96310000  0.41360000  0.94910000  1.0 -0.0710169413
C  C90  1  0.08640000  0.46310000  0.94910000  1.0 -0.0710169413
C  C91  1  0.46310000  0.08640000  0.55090000  1.0 -0.0710169413
C  C92  1  0.03690000  0.58640000  0.94910000  1.0 -0.0710169413
C  C93  1  0.41360000  0.96310000  0.55090000  1.0 -0.0710169413
C  C94  1  0.91360000  0.53690000  0.94910000  1.0 -0.0710169413
C  C95  1  0.53690000  0.91360000  0.55090000  1.0 -0.0710169413
C  C96  1  0.58640000  0.03690000  0.55090000  1.0 -0.0710169413
C  C97  1  0.55810000  0.92660000  0.97300000  1.0 -0.0710169413
C  C98  1  0.57340000  0.05810000  0.97300000  1.0 -0.0710169413
C  C99  1  0.05810000  0.57340000  0.52700000  1.0 -0.0710169413
C  C100  1  0.44190000  0.07340000  0.97300000  1.0 -0.0710169413
C  C101  1  0.92660000  0.55810000  0.52700000  1.0 -0.0710169413
C  C102  1  0.42660000  0.94190000  0.97300000  1.0 -0.0710169413
C  C103  1  0.94190000  0.42660000  0.52700000  1.0 -0.0710169413
C  C104  1  0.07340000  0.44190000  0.52700000  1.0 -0.0710169413
C  C105  1  0.94190000  0.57340000  0.02700000  1.0 -0.0710169413
C  C106  1  0.92660000  0.44190000  0.02700000  1.0 -0.0710169413
C  C107  1  0.44190000  0.92660000  0.47300000  1.0 -0.0710169413
C  C108  1  0.05810000  0.42660000  0.02700000  1.0 -0.0710169413
C  C109  1  0.57340000  0.94190000  0.47300000  1.0 -0.0710169413
C  C110  1  0.07340000  0.55810000  0.02700000  1.0 -0.0710169413
C  C111  1  0.55810000  0.07340000  0.47300000  1.0 -0.0710169413
C  C112  1  0.42660000  0.05810000  0.47300000  1.0 -0.0710169413
C  C113  1  0.57430000  0.05680000  0.05230000  1.0 -0.0710169413
C  C114  1  0.44320000  0.07430000  0.05230000  1.0 -0.0710169413
C  C115  1  0.07430000  0.44320000  0.44770000  1.0 -0.0710169413
C  C116  1  0.42570000  0.94320000  0.05230000  1.0 -0.0710169413
C  C117  1  0.05680000  0.57430000  0.44770000  1.0 -0.0710169413
C  C118  1  0.55680000  0.92570000  0.05230000  1.0 -0.0710169413
C  C119  1  0.92570000  0.55680000  0.44770000  1.0 -0.0710169413
C  C120  1  0.94320000  0.42570000  0.44770000  1.0 -0.0710169413
C  C121  1  0.92570000  0.44320000  0.94770000  1.0 -0.0710169413
C  C122  1  0.05680000  0.42570000  0.94770000  1.0 -0.0710169413
C  C123  1  0.42570000  0.05680000  0.55230000  1.0 -0.0710169413
C  C124  1  0.07430000  0.55680000  0.94770000  1.0 -0.0710169413
C  C125  1  0.44320000  0.92570000  0.55230000  1.0 -0.0710169413
C  C126  1  0.94320000  0.57430000  0.94770000  1.0 -0.0710169413
C  C127  1  0.57430000  0.94320000  0.55230000  1.0 -0.0710169413
C  C128  1  0.55680000  0.07430000  0.55230000  1.0 -0.0710169413
C  C129  1  0.40790000  0.98760000  0.97260000  1.0 -0.0710169413
C  C130  1  0.51240000  0.90790000  0.97260000  1.0 -0.0710169413
C  C131  1  0.90790000  0.51240000  0.52740000  1.0 -0.0710169413
C  C132  1  0.59210000  0.01240000  0.97260000  1.0 -0.0710169413
C  C133  1  0.98760000  0.40790000  0.52740000  1.0 -0.0710169413
C  C134  1  0.48760000  0.09210000  0.97260000  1.0 -0.0710169413
C  C135  1  0.09210000  0.48760000  0.52740000  1.0 -0.0710169413
C  C136  1  0.01240000  0.59210000  0.52740000  1.0 -0.0710169413
C  C137  1  0.09210000  0.51240000  0.02740000  1.0 -0.0710169413
C  C138  1  0.98760000  0.59210000  0.02740000  1.0 -0.0710169413
C  C139  1  0.59210000  0.98760000  0.47260000  1.0 -0.0710169413
C  C140  1  0.90790000  0.48760000  0.02740000  1.0 -0.0710169413
C  C141  1  0.51240000  0.09210000  0.47260000  1.0 -0.0710169413
C  C142  1  0.01240000  0.40790000  0.02740000  1.0 -0.0710169413
C  C143  1  0.40790000  0.01240000  0.47260000  1.0 -0.0710169413
C  C144  1  0.48760000  0.90790000  0.47260000  1.0 -0.0710169413
C  C145  1  0.49020000  0.09270000  0.05140000  1.0 -0.0710169413
C  C146  1  0.40730000  0.99020000  0.05140000  1.0 -0.0710169413
C  C147  1  0.99020000  0.40730000  0.44860000  1.0 -0.0710169413
C  C148  1  0.50980000  0.90730000  0.05140000  1.0 -0.0710169413
C  C149  1  0.09270000  0.49020000  0.44860000  1.0 -0.0710169413
C  C150  1  0.59270000  0.00980000  0.05140000  1.0 -0.0710169413
C  C151  1  0.00980000  0.59270000  0.44860000  1.0 -0.0710169413
C  C152  1  0.90730000  0.50980000  0.44860000  1.0 -0.0710169413
C  C153  1  0.00980000  0.40730000  0.94860000  1.0 -0.0710169413
C  C154  1  0.09270000  0.50980000  0.94860000  1.0 -0.0710169413
C  C155  1  0.50980000  0.09270000  0.55140000  1.0 -0.0710169413
C  C156  1  0.99020000  0.59270000  0.94860000  1.0 -0.0710169413
C  C157  1  0.40730000  0.00980000  0.55140000  1.0 -0.0710169413
C  C158  1  0.90730000  0.49020000  0.94860000  1.0 -0.0710169413
C  C159  1  0.49020000  0.90730000  0.55140000  1.0 -0.0710169413
C  C160  1  0.59270000  0.99020000  0.55140000  1.0 -0.0710169413
N  N1  1  0.50000000  0.00000000  0.94550000  1.0 -0.0870118424
N  N2  1  0.00000000  0.50000000  0.55450000  1.0 -0.0870118424
N  N3  1  0.00000000  0.50000000  0.05450000  1.0 -0.0870118424
N  N4  1  0.50000000  0.00000000  0.44550000  1.0 -0.0870118424
N  N5  1  0.50000000  0.00000000  0.07910000  1.0 -0.0772402695
N  N6  1  0.00000000  0.50000000  0.42090000  1.0 -0.0772402695
N  N7  1  0.00000000  0.50000000  0.92090000  1.0 -0.0772402695
N  N8  1  0.50000000  0.00000000  0.57910000  1.0 -0.0772402695
O  O1  1  0.62996000  0.03327000  0.70598000  1.0 -0.4825808558
O  O2  1  0.46673000  0.12996000  0.70598000  1.0 -0.4825808558
O  O3  1  0.12996000  0.46673000  0.79402000  1.0 -0.4825808558
O  O4  1  0.37004000  0.96673000  0.70598000  1.0 -0.4825808558
O  O5  1  0.03327000  0.62996000  0.79402000  1.0 -0.4825808558
O  O6  1  0.53327000  0.87004000  0.70598000  1.0 -0.4825808558
O  O7  1  0.87004000  0.53327000  0.79402000  1.0 -0.4825808558
O  O8  1  0.96673000  0.37004000  0.79402000  1.0 -0.4825808558
O  O9  1  0.87004000  0.46673000  0.29402000  1.0 -0.4825808558
O  O10  1  0.03327000  0.37004000  0.29402000  1.0 -0.4825808558
O  O11  1  0.37004000  0.03327000  0.20598000  1.0 -0.4825808558
O  O12  1  0.12996000  0.53327000  0.29402000  1.0 -0.4825808558
O  O13  1  0.46673000  0.87004000  0.20598000  1.0 -0.4825808558
O  O14  1  0.96673000  0.62996000  0.29402000  1.0 -0.4825808558
O  O15  1  0.62996000  0.96673000  0.20598000  1.0 -0.4825808558
O  O16  1  0.53327000  0.12996000  0.20598000  1.0 -0.4825808558
O  O17  1  0.61626000  0.06780000  0.81939000  1.0 -0.4727868404
O  O18  1  0.43220000  0.11626000  0.81939000  1.0 -0.4727868404
O  O19  1  0.11626000  0.43220000  0.68061000  1.0 -0.4727868404
O  O20  1  0.38374000  0.93220000  0.81939000  1.0 -0.4727868404
O  O21  1  0.06780000  0.61626000  0.68061000  1.0 -0.4727868404
O  O22  1  0.56780000  0.88374000  0.81939000  1.0 -0.4727868404
O  O23  1  0.88374000  0.56780000  0.68061000  1.0 -0.4727868404
O  O24  1  0.93220000  0.38374000  0.68061000  1.0 -0.4727868404
O  O25  1  0.88374000  0.43220000  0.18061000  1.0 -0.4727868404
O  O26  1  0.06780000  0.38374000  0.18061000  1.0 -0.4727868404
O  O27  1  0.38374000  0.06780000  0.31939000  1.0 -0.4727868404
O  O28  1  0.11626000  0.56780000  0.18061000  1.0 -0.4727868404
O  O29  1  0.43220000  0.88374000  0.31939000  1.0 -0.4727868404
O  O30  1  0.93220000  0.61626000  0.18061000  1.0 -0.4727868404
O  O31  1  0.61626000  0.93220000  0.31939000  1.0 -0.4727868404
O  O32  1  0.56780000  0.11626000  0.31939000  1.0 -0.4727868404
