# DDEC6 charges by PACMAN v1.1 (https://github.com/mtap-research/PACMAN-charge/)
data_HEHCOO_FSR_pacman
_symmetry_space_group_name_H-M   'P 1'
_cell_length_a   21.85800000
_cell_length_b   21.85800000
_cell_length_c   23.33300000
_cell_angle_alpha   90.00000000
_cell_angle_beta   90.00000000
_cell_angle_gamma   120.00000000
_symmetry_Int_Tables_number   1
_chemical_formula_structural   CdCoH22C34N10ClO4
_chemical_formula_sum   'Cd6 Co6 H132 C204 N60 Cl6 O24'
_cell_volume   9654.32814144
_cell_formula_units_Z   6
loop_
 _symmetry_equiv_pos_site_id
 _symmetry_equiv_pos_as_xyz
  1  'x, y, z'
loop_
 _atom_site_type_symbol
 _atom_site_label
 _atom_site_symmetry_multiplicity
 _atom_site_fract_x
 _atom_site_fract_y
 _atom_site_fract_z
 _atom_site_occupancy
 _atom_site_charge
Cd  Cd1  1  0.40648000  0.53599000  0.12868000  1.0 0.719682071
Cd  Cd2  1  0.46401000  0.87049000  0.46201000  1.0 0.719682071
Cd  Cd3  1  0.12951000  0.59352000  0.79535000  1.0 0.719682071
Cd  Cd4  1  0.53599000  0.40648000  0.87132000  1.0 0.719682071
Cd  Cd5  1  0.59352000  0.12951000  0.20465000  1.0 0.719682071
Cd  Cd6  1  0.87049000  0.46401000  0.53799000  1.0 0.719682071
Co  Co1  1  0.47385000  0.36371000  0.14712000  1.0 0.5567864015
Co  Co2  1  0.63629000  0.11014000  0.48045000  1.0 0.5567864015
Co  Co3  1  0.88986000  0.52615000  0.81379000  1.0 0.5567864015
Co  Co4  1  0.36371000  0.47385000  0.85288000  1.0 0.5567864015
Co  Co5  1  0.52615000  0.88986000  0.18621000  1.0 0.5567864015
Co  Co6  1  0.11014000  0.63629000  0.51955000  1.0 0.5567864015
H  H1  1  0.54620000  0.64350000  0.18620000  1.0 0.1004545141
H  H2  1  0.35650000  0.90270000  0.51953000  1.0 0.1004545141
H  H3  1  0.09730000  0.45380000  0.85287000  1.0 0.1004545141
H  H4  1  0.64350000  0.54620000  0.81380000  1.0 0.1004545141
H  H5  1  0.45380000  0.09730000  0.14713000  1.0 0.1004545141
H  H6  1  0.90270000  0.35650000  0.48047000  1.0 0.1004545141
H  H7  1  0.62030000  0.66840000  0.26370000  1.0 0.1396117878
H  H8  1  0.33160000  0.95190000  0.59703000  1.0 0.1396117878
H  H9  1  0.04810000  0.37970000  0.93037000  1.0 0.1396117878
H  H10  1  0.66840000  0.62030000  0.73630000  1.0 0.1396117878
H  H11  1  0.37970000  0.04810000  0.06963000  1.0 0.1396117878
H  H12  1  0.95190000  0.33160000  0.40297000  1.0 0.1396117878
H  H13  1  0.64100000  0.57820000  0.29640000  1.0 0.1188533285
H  H14  1  0.42180000  0.06280000  0.62973000  1.0 0.1188533285
H  H15  1  0.93720000  0.35900000  0.96307000  1.0 0.1188533285
H  H16  1  0.57820000  0.64100000  0.70360000  1.0 0.1188533285
H  H17  1  0.35900000  0.93720000  0.03693000  1.0 0.1188533285
H  H18  1  0.06280000  0.42180000  0.37027000  1.0 0.1188533285
H  H19  1  0.55210000  0.46430000  0.28230000  1.0 0.1474879209
H  H20  1  0.53570000  0.08780000  0.61563000  1.0 0.1474879209
H  H21  1  0.91220000  0.44790000  0.94897000  1.0 0.1474879209
H  H22  1  0.46430000  0.55210000  0.71770000  1.0 0.1474879209
H  H23  1  0.44790000  0.91220000  0.05103000  1.0 0.1474879209
H  H24  1  0.08780000  0.53570000  0.38437000  1.0 0.1474879209
H  H25  1  0.27940000  0.25920000  0.27850000  1.0 0.1474879209
H  H26  1  0.74080000  0.02020000  0.61183000  1.0 0.1474879209
H  H27  1  0.97980000  0.72060000  0.94517000  1.0 0.1474879209
H  H28  1  0.25920000  0.27940000  0.72150000  1.0 0.1474879209
H  H29  1  0.72060000  0.97980000  0.05483000  1.0 0.1474879209
H  H30  1  0.02020000  0.74080000  0.38817000  1.0 0.1474879209
H  H31  1  0.23560000  0.13990000  0.24000000  1.0 0.1188533285
H  H32  1  0.86010000  0.09570000  0.57333000  1.0 0.1188533285
H  H33  1  0.90430000  0.76440000  0.90667000  1.0 0.1188533285
H  H34  1  0.13990000  0.23560000  0.76000000  1.0 0.1188533285
H  H35  1  0.76440000  0.90430000  0.09333000  1.0 0.1188533285
H  H36  1  0.09570000  0.86010000  0.42667000  1.0 0.1188533285
H  H37  1  0.29880000  0.12450000  0.16230000  1.0 0.1474879209
H  H38  1  0.87550000  0.17430000  0.49563000  1.0 0.1474879209
H  H39  1  0.82570000  0.70120000  0.82897000  1.0 0.1474879209
H  H40  1  0.12450000  0.29880000  0.83770000  1.0 0.1474879209
H  H41  1  0.70120000  0.82570000  0.17103000  1.0 0.1474879209
H  H42  1  0.17430000  0.87550000  0.50437000  1.0 0.1474879209
H  H43  1  0.55100000  0.23990000  0.07630000  1.0 0.1396117878
H  H44  1  0.76010000  0.31110000  0.40963000  1.0 0.1396117878
H  H45  1  0.68890000  0.44900000  0.74297000  1.0 0.1396117878
H  H46  1  0.23990000  0.55100000  0.92370000  1.0 0.1396117878
H  H47  1  0.44900000  0.68890000  0.25703000  1.0 0.1396117878
H  H48  1  0.31110000  0.76010000  0.59037000  1.0 0.1396117878
H  H49  1  0.61680000  0.25230000  0.99760000  1.0 0.1474879209
H  H50  1  0.74770000  0.36450000  0.33093000  1.0 0.1474879209
H  H51  1  0.63550000  0.38320000  0.66427000  1.0 0.1474879209
H  H52  1  0.25230000  0.61680000  0.00240000  1.0 0.1474879209
H  H53  1  0.38320000  0.63550000  0.33573000  1.0 0.1474879209
H  H54  1  0.36450000  0.74770000  0.66907000  1.0 0.1474879209
H  H55  1  0.61690000  0.32410000  0.91890000  1.0 0.1004545141
H  H56  1  0.67590000  0.29280000  0.25223000  1.0 0.1004545141
H  H57  1  0.70720000  0.38310000  0.58557000  1.0 0.1004545141
H  H58  1  0.32410000  0.61690000  0.08110000  1.0 0.1004545141
H  H59  1  0.38310000  0.70720000  0.41443000  1.0 0.1004545141
H  H60  1  0.29280000  0.67590000  0.74777000  1.0 0.1004545141
H  H61  1  0.47450000  0.35030000  0.99830000  1.0 0.1188533285
H  H62  1  0.64970000  0.12420000  0.33163000  1.0 0.1188533285
H  H63  1  0.87580000  0.52550000  0.66497000  1.0 0.1188533285
H  H64  1  0.35030000  0.47450000  0.00170000  1.0 0.1188533285
H  H65  1  0.52550000  0.87580000  0.33503000  1.0 0.1188533285
H  H66  1  0.12420000  0.64970000  0.66837000  1.0 0.1188533285
H  H67  1  0.24910000  0.41830000  0.13360000  1.0 0.1079252322
H  H68  1  0.58170000  0.83080000  0.46693000  1.0 0.1079252322
H  H69  1  0.16920000  0.75090000  0.80027000  1.0 0.1079252322
H  H70  1  0.41830000  0.24910000  0.86640000  1.0 0.1079252322
H  H71  1  0.75090000  0.16920000  0.19973000  1.0 0.1079252322
H  H72  1  0.83080000  0.58170000  0.53307000  1.0 0.1079252322
H  H73  1  0.16780000  0.29920000  0.10530000  1.0 0.1322455962
H  H74  1  0.70080000  0.86860000  0.43863000  1.0 0.1322455962
H  H75  1  0.13140000  0.83220000  0.77197000  1.0 0.1322455962
H  H76  1  0.29920000  0.16780000  0.89470000  1.0 0.1322455962
H  H77  1  0.83220000  0.13140000  0.22803000  1.0 0.1322455962
H  H78  1  0.86860000  0.70080000  0.56137000  1.0 0.1322455962
H  H79  1  0.21130000  0.23430000  0.05810000  1.0 0.1188533285
H  H80  1  0.76570000  0.97700000  0.39143000  1.0 0.1188533285
H  H81  1  0.02300000  0.78870000  0.72477000  1.0 0.1188533285
H  H82  1  0.23430000  0.21130000  0.94190000  1.0 0.1188533285
H  H83  1  0.78870000  0.02300000  0.27523000  1.0 0.1188533285
H  H84  1  0.97700000  0.76570000  0.60857000  1.0 0.1188533285
H  H85  1  0.33460000  0.28140000  0.05390000  1.0 0.1322455962
H  H86  1  0.71860000  0.05320000  0.38723000  1.0 0.1322455962
H  H87  1  0.94680000  0.66540000  0.72057000  1.0 0.1322455962
H  H88  1  0.28140000  0.33460000  0.94610000  1.0 0.1322455962
H  H89  1  0.66540000  0.94680000  0.27943000  1.0 0.1322455962
H  H90  1  0.05320000  0.71860000  0.61277000  1.0 0.1322455962
H  H91  1  0.61230000  0.58590000  0.05090000  1.0 0.1322455962
H  H92  1  0.41410000  0.02640000  0.38423000  1.0 0.1322455962
H  H93  1  0.97360000  0.38770000  0.71757000  1.0 0.1322455962
H  H94  1  0.58590000  0.61230000  0.94910000  1.0 0.1322455962
H  H95  1  0.38770000  0.97360000  0.28243000  1.0 0.1322455962
H  H96  1  0.02640000  0.41410000  0.61577000  1.0 0.1322455962
H  H97  1  0.72100000  0.60290000  0.08700000  1.0 0.1188533285
H  H98  1  0.39710000  0.11810000  0.42033000  1.0 0.1188533285
H  H99  1  0.88190000  0.27900000  0.75367000  1.0 0.1188533285
H  H100  1  0.60290000  0.72100000  0.91300000  1.0 0.1188533285
H  H101  1  0.27900000  0.88190000  0.24633000  1.0 0.1188533285
H  H102  1  0.11810000  0.39710000  0.57967000  1.0 0.1188533285
H  H103  1  0.71910000  0.52440000  0.15560000  1.0 0.1474879209
H  H104  1  0.47560000  0.19470000  0.48893000  1.0 0.1474879209
H  H105  1  0.80530000  0.28090000  0.82227000  1.0 0.1474879209
H  H106  1  0.52440000  0.71910000  0.84440000  1.0 0.1474879209
H  H107  1  0.28090000  0.80530000  0.17773000  1.0 0.1474879209
H  H108  1  0.19470000  0.47560000  0.51107000  1.0 0.1474879209
H  H109  1  0.46190000  0.11180000  0.28980000  1.0 0.1004545141
H  H110  1  0.88820000  0.35010000  0.62313000  1.0 0.1004545141
H  H111  1  0.64990000  0.53810000  0.95647000  1.0 0.1004545141
H  H112  1  0.11180000  0.46190000  0.71020000  1.0 0.1004545141
H  H113  1  0.53810000  0.64990000  0.04353000  1.0 0.1004545141
H  H114  1  0.35010000  0.88820000  0.37687000  1.0 0.1004545141
H  H115  1  0.42310000  0.18310000  0.32910000  1.0 0.1188533285
H  H116  1  0.81690000  0.24000000  0.66243000  1.0 0.1188533285
H  H117  1  0.76000000  0.57690000  0.99577000  1.0 0.1188533285
H  H118  1  0.18310000  0.42310000  0.67090000  1.0 0.1188533285
H  H119  1  0.57690000  0.76000000  0.00423000  1.0 0.1188533285
H  H120  1  0.24000000  0.81690000  0.33757000  1.0 0.1188533285
H  H121  1  0.46310000  0.29730000  0.29090000  1.0 0.1322455962
H  H122  1  0.70270000  0.16580000  0.62423000  1.0 0.1322455962
H  H123  1  0.83420000  0.53690000  0.95757000  1.0 0.1322455962
H  H124  1  0.29730000  0.46310000  0.70910000  1.0 0.1322455962
H  H125  1  0.53690000  0.83420000  0.04243000  1.0 0.1322455962
H  H126  1  0.16580000  0.70270000  0.37577000  1.0 0.1322455962
H  H127  1  0.57550000  0.25830000  0.17460000  1.0 0.1188533285
H  H128  1  0.74170000  0.31720000  0.50793000  1.0 0.1188533285
H  H129  1  0.68280000  0.42450000  0.84127000  1.0 0.1188533285
H  H130  1  0.25830000  0.57550000  0.82540000  1.0 0.1188533285
H  H131  1  0.42450000  0.68280000  0.15873000  1.0 0.1188533285
H  H132  1  0.31720000  0.74170000  0.49207000  1.0 0.1188533285
C  C1  1  0.54520000  0.60620000  0.20780000  1.0 0.0805253582
C  C2  1  0.39380000  0.93900000  0.54113000  1.0 0.0805253582
C  C3  1  0.06100000  0.45480000  0.87447000  1.0 0.0805253582
C  C4  1  0.60620000  0.54520000  0.79220000  1.0 0.0805253582
C  C5  1  0.45480000  0.06100000  0.12553000  1.0 0.0805253582
C  C6  1  0.93900000  0.39380000  0.45887000  1.0 0.0805253582
C  C7  1  0.59280000  0.62140000  0.25010000  1.0 -0.1685096922
C  C8  1  0.37860000  0.97140000  0.58343000  1.0 -0.1685096922
C  C9  1  0.02860000  0.40720000  0.91677000  1.0 -0.1685096922
C  C10  1  0.62140000  0.59280000  0.74990000  1.0 -0.1685096922
C  C11  1  0.40720000  0.02860000  0.08323000  1.0 -0.1685096922
C  C12  1  0.97140000  0.37860000  0.41657000  1.0 -0.1685096922
C  C13  1  0.60130000  0.56810000  0.27330000  1.0 -0.0390752545
C  C14  1  0.43190000  0.03320000  0.60663000  1.0 -0.0390752545
C  C15  1  0.96680000  0.39870000  0.93997000  1.0 -0.0390752545
C  C16  1  0.56810000  0.60130000  0.72670000  1.0 -0.0390752545
C  C17  1  0.39870000  0.96680000  0.06003000  1.0 -0.0390752545
C  C18  1  0.03320000  0.43190000  0.39337000  1.0 -0.0390752545
C  C19  1  0.55150000  0.50180000  0.26220000  1.0 -0.1984913797
C  C20  1  0.49820000  0.04970000  0.59553000  1.0 -0.1984913797
C  C21  1  0.95030000  0.44850000  0.92887000  1.0 -0.1984913797
C  C22  1  0.50180000  0.55150000  0.73780000  1.0 -0.1984913797
C  C23  1  0.44850000  0.95030000  0.07113000  1.0 -0.1984913797
C  C24  1  0.04970000  0.49820000  0.40447000  1.0 -0.1984913797
C  C25  1  0.49740000  0.48540000  0.22110000  1.0 0.3894417121
C  C26  1  0.51460000  0.01200000  0.55443000  1.0 0.3894417121
C  C27  1  0.98800000  0.50260000  0.88777000  1.0 0.3894417121
C  C28  1  0.48540000  0.49740000  0.77890000  1.0 0.3894417121
C  C29  1  0.50260000  0.98800000  0.11223000  1.0 0.3894417121
C  C30  1  0.01200000  0.51460000  0.44557000  1.0 0.3894417121
C  C31  1  0.39740000  0.37750000  0.23780000  1.0 0.4279862428
C  C32  1  0.62250000  0.01990000  0.57113000  1.0 0.4279862428
C  C33  1  0.98010000  0.60260000  0.90447000  1.0 0.4279862428
C  C34  1  0.37750000  0.39740000  0.76220000  1.0 0.4279862428
C  C35  1  0.60260000  0.98010000  0.09553000  1.0 0.4279862428
C  C36  1  0.01990000  0.62250000  0.42887000  1.0 0.4279862428
C  C37  1  0.35900000  0.30160000  0.21970000  1.0 0.1079252322
C  C38  1  0.69840000  0.05740000  0.55303000  1.0 0.1079252322
C  C39  1  0.94260000  0.64100000  0.88637000  1.0 0.1079252322
C  C40  1  0.30160000  0.35900000  0.78030000  1.0 0.1079252322
C  C41  1  0.64100000  0.94260000  0.11363000  1.0 0.1079252322
C  C42  1  0.05740000  0.69840000  0.44697000  1.0 0.1079252322
C  C43  1  0.30140000  0.25010000  0.24710000  1.0 -0.1471748997
C  C44  1  0.74990000  0.05130000  0.58043000  1.0 -0.1412385552
C  C45  1  0.94870000  0.69860000  0.91377000  1.0 -0.1471748997
C  C46  1  0.25010000  0.30140000  0.75290000  1.0 -0.1471748997
C  C47  1  0.69860000  0.94870000  0.08623000  1.0 -0.1412385552
C  C48  1  0.05130000  0.74990000  0.41957000  1.0 -0.1412385552
C  C49  1  0.27620000  0.17940000  0.22420000  1.0 -0.0317045832
C  C50  1  0.82060000  0.09680000  0.55753000  1.0 -0.0317045832
C  C51  1  0.90320000  0.72380000  0.89087000  1.0 -0.0317045832
C  C52  1  0.17940000  0.27620000  0.77580000  1.0 -0.0317045832
C  C53  1  0.72380000  0.90320000  0.10913000  1.0 -0.0317045832
C  C54  1  0.09680000  0.82060000  0.44247000  1.0 -0.0317045832
C  C55  1  0.31350000  0.17020000  0.17740000  1.0 -0.1685096922
C  C56  1  0.82980000  0.14330000  0.51073000  1.0 -0.1685096922
C  C57  1  0.85670000  0.68650000  0.84407000  1.0 -0.1685096922
C  C58  1  0.17020000  0.31350000  0.82260000  1.0 -0.1685096922
C  C59  1  0.68650000  0.85670000  0.15593000  1.0 -0.1685096922
C  C60  1  0.14330000  0.82980000  0.48927000  1.0 -0.1685096922
C  C61  1  0.36870000  0.22660000  0.15560000  1.0 0.1079252322
C  C62  1  0.77340000  0.14210000  0.48893000  1.0 0.1079252322
C  C63  1  0.85790000  0.63130000  0.82227000  1.0 0.1079252322
C  C64  1  0.22660000  0.36870000  0.84440000  1.0 0.1079252322
C  C65  1  0.63130000  0.85790000  0.17773000  1.0 0.1079252322
C  C66  1  0.14210000  0.77340000  0.51107000  1.0 0.1079252322
C  C67  1  0.41350000  0.22640000  0.10450000  1.0 0.4107589756
C  C68  1  0.77360000  0.18710000  0.43783000  1.0 0.4107589756
C  C69  1  0.81290000  0.58650000  0.77117000  1.0 0.4107589756
C  C70  1  0.22640000  0.41350000  0.89550000  1.0 0.4107589756
C  C71  1  0.58650000  0.81290000  0.22883000  1.0 0.4107589756
C  C72  1  0.18710000  0.77360000  0.56217000  1.0 0.4107589756
C  C73  1  0.50980000  0.29740000  0.04690000  1.0 0.1635684107
C  C74  1  0.70260000  0.21240000  0.38023000  1.0 0.1635684107
C  C75  1  0.78760000  0.49020000  0.71357000  1.0 0.1635684107
C  C76  1  0.29740000  0.50980000  0.95310000  1.0 0.1635684107
C  C77  1  0.49020000  0.78760000  0.28643000  1.0 0.1635684107
C  C78  1  0.21240000  0.70260000  0.61977000  1.0 0.1635684107
C  C79  1  0.55020000  0.26680000  0.04460000  1.0 -0.1087586175
C  C80  1  0.73320000  0.28340000  0.37793000  1.0 -0.1087586175
C  C81  1  0.71660000  0.44980000  0.71127000  1.0 -0.1087586175
C  C82  1  0.26680000  0.55020000  0.95540000  1.0 -0.1087586175
C  C83  1  0.44980000  0.71660000  0.28873000  1.0 -0.1087586175
C  C84  1  0.28340000  0.73320000  0.62207000  1.0 -0.1087586175
C  C85  1  0.58830000  0.27380000  0.99900000  1.0 -0.0991812687
C  C86  1  0.72620000  0.31450000  0.33233000  1.0 -0.0991812687
C  C87  1  0.68550000  0.41170000  0.66567000  1.0 -0.0991812687
C  C88  1  0.27380000  0.58830000  0.00100000  1.0 -0.0991812687
C  C89  1  0.41170000  0.68550000  0.33433000  1.0 -0.0991812687
C  C90  1  0.31450000  0.72620000  0.66767000  1.0 -0.0991812687
C  C91  1  0.58650000  0.31470000  0.95080000  1.0 0.1004545141
C  C92  1  0.68530000  0.27180000  0.28413000  1.0 0.1004545141
C  C93  1  0.72820000  0.41350000  0.61747000  1.0 0.0941783656
C  C94  1  0.31470000  0.58650000  0.04920000  1.0 0.0941783656
C  C95  1  0.41350000  0.72820000  0.38253000  1.0 0.0941783656
C  C96  1  0.27180000  0.68530000  0.71587000  1.0 0.0941783656
C  C97  1  0.50540000  0.33140000  0.99820000  1.0 -0.0069433835
C  C98  1  0.66860000  0.17400000  0.33153000  1.0 -0.0069433835
C  C99  1  0.82600000  0.49460000  0.66487000  1.0 -0.0069433835
C  C100  1  0.33140000  0.50540000  0.00180000  1.0 -0.0069433835
C  C101  1  0.49460000  0.82600000  0.33513000  1.0 -0.0069433835
C  C102  1  0.17400000  0.66860000  0.66847000  1.0 -0.0069433835
C  C103  1  0.26630000  0.38960000  0.11800000  1.0 0.1004545141
C  C104  1  0.61040000  0.87670000  0.45133000  1.0 0.1004545141
C  C105  1  0.12330000  0.73370000  0.78467000  1.0 0.1004545141
C  C106  1  0.38960000  0.26630000  0.88200000  1.0 0.1004545141
C  C107  1  0.73370000  0.12330000  0.21533000  1.0 0.1004545141
C  C108  1  0.87670000  0.61040000  0.54867000  1.0 0.1004545141
C  C109  1  0.21710000  0.31870000  0.09950000  1.0 -0.1596984407
C  C110  1  0.68130000  0.89840000  0.43283000  1.0 -0.1596984407
C  C111  1  0.10160000  0.78290000  0.76617000  1.0 -0.1596984407
C  C112  1  0.31870000  0.21710000  0.90050000  1.0 -0.1596984407
C  C113  1  0.78290000  0.10160000  0.23383000  1.0 -0.1596984407
C  C114  1  0.89840000  0.68130000  0.56717000  1.0 -0.1596984407
C  C115  1  0.24260000  0.27970000  0.07340000  1.0 -0.0390752545
C  C116  1  0.72030000  0.96290000  0.40673000  1.0 -0.0390752545
C  C117  1  0.03710000  0.75740000  0.74007000  1.0 -0.0390752545
C  C118  1  0.27970000  0.24260000  0.92660000  1.0 -0.0390752545
C  C119  1  0.75740000  0.03710000  0.25993000  1.0 -0.0390752545
C  C120  1  0.96290000  0.72030000  0.59327000  1.0 -0.0390752545
C  C121  1  0.31570000  0.30830000  0.07000000  1.0 -0.2292620903
C  C122  1  0.69170000  0.00740000  0.40333000  1.0 -0.2292620903
C  C123  1  0.99260000  0.68430000  0.73667000  1.0 -0.2292620903
C  C124  1  0.30830000  0.31570000  0.93000000  1.0 -0.2292620903
C  C125  1  0.68430000  0.99260000  0.26333000  1.0 -0.2292620903
C  C126  1  0.00740000  0.69170000  0.59667000  1.0 -0.2292620903
C  C127  1  0.36070000  0.37650000  0.09020000  1.0 0.3587002341
C  C128  1  0.62350000  0.98420000  0.42353000  1.0 0.3587002341
C  C129  1  0.01580000  0.63930000  0.75687000  1.0 0.3587002341
C  C130  1  0.37650000  0.36070000  0.90980000  1.0 0.3587002341
C  C131  1  0.63930000  0.01580000  0.24313000  1.0 0.3587002341
C  C132  1  0.98420000  0.62350000  0.57647000  1.0 0.3587002341
C  C133  1  0.47970000  0.46850000  0.07560000  1.0 0.422663255
C  C134  1  0.53150000  0.01120000  0.40893000  1.0 0.422663255
C  C135  1  0.98880000  0.52030000  0.74227000  1.0 0.422663255
C  C136  1  0.46850000  0.47970000  0.92440000  1.0 0.422663255
C  C137  1  0.52030000  0.98880000  0.25773000  1.0 0.422663255
C  C138  1  0.01120000  0.53150000  0.59107000  1.0 0.422663255
C  C139  1  0.55220000  0.48760000  0.09060000  1.0 0.1322455962
C  C140  1  0.51240000  0.06460000  0.42393000  1.0 0.1322455962
C  C141  1  0.93540000  0.44780000  0.75727000  1.0 0.1322455962
C  C142  1  0.48760000  0.55220000  0.90940000  1.0 0.1322455962
C  C143  1  0.44780000  0.93540000  0.24273000  1.0 0.1322455962
C  C144  1  0.06460000  0.51240000  0.57607000  1.0 0.1322455962
C  C145  1  0.61430000  0.55210000  0.07520000  1.0 -0.1471748997
C  C146  1  0.44790000  0.06220000  0.40853000  1.0 -0.1471748997
C  C147  1  0.93780000  0.38570000  0.74187000  1.0 -0.1471748997
C  C148  1  0.55210000  0.61430000  0.92480000  1.0 -0.1471748997
C  C149  1  0.38570000  0.93780000  0.25813000  1.0 -0.1471748997
C  C150  1  0.06220000  0.44790000  0.59147000  1.0 -0.1471748997
C  C151  1  0.67750000  0.56260000  0.09770000  1.0 -0.0598019029
C  C152  1  0.43740000  0.11490000  0.43103000  1.0 -0.0598019029
C  C153  1  0.88510000  0.32250000  0.76437000  1.0 -0.0598019029
C  C154  1  0.56260000  0.67750000  0.90230000  1.0 -0.0598019029
C  C155  1  0.32250000  0.88510000  0.23563000  1.0 -0.0598019029
C  C156  1  0.11490000  0.43740000  0.56897000  1.0 -0.0598019029
C  C157  1  0.67680000  0.51380000  0.13610000  1.0 -0.1412385552
C  C158  1  0.48620000  0.16300000  0.46943000  1.0 -0.1412385552
C  C159  1  0.83700000  0.32320000  0.80277000  1.0 -0.1412385552
C  C160  1  0.51380000  0.67680000  0.86390000  1.0 -0.1412385552
C  C161  1  0.32320000  0.83700000  0.19723000  1.0 -0.1412385552
C  C162  1  0.16300000  0.48620000  0.53057000  1.0 -0.1412385552
C  C163  1  0.62100000  0.45520000  0.14580000  1.0 0.0941783656
C  C164  1  0.54480000  0.16580000  0.47913000  1.0 0.0941783656
C  C165  1  0.83420000  0.37900000  0.81247000  1.0 0.0941783656
C  C166  1  0.45520000  0.62100000  0.85420000  1.0 0.0941783656
C  C167  1  0.37900000  0.83420000  0.18753000  1.0 0.0941783656
C  C168  1  0.16580000  0.54480000  0.52087000  1.0 0.0941783656
C  C169  1  0.60840000  0.39620000  0.18870000  1.0 0.4392325912
C  C170  1  0.60380000  0.21220000  0.52203000  1.0 0.4392325912
C  C171  1  0.78780000  0.39160000  0.85537000  1.0 0.4392325912
C  C172  1  0.39620000  0.60840000  0.81130000  1.0 0.4392325912
C  C173  1  0.39160000  0.78780000  0.14463000  1.0 0.4392325912
C  C174  1  0.21220000  0.60380000  0.47797000  1.0 0.4392325912
C  C175  1  0.47760000  0.15730000  0.27380000  1.0 0.0380210141
C  C176  1  0.84270000  0.32030000  0.60713000  1.0 0.0380210141
C  C177  1  0.67970000  0.52240000  0.94047000  1.0 0.0380210141
C  C178  1  0.15730000  0.47760000  0.72620000  1.0 0.0380210141
C  C179  1  0.52240000  0.67970000  0.05953000  1.0 0.0380210141
C  C180  1  0.32030000  0.84270000  0.39287000  1.0 0.0380210141
C  C181  1  0.45430000  0.19930000  0.29720000  1.0 -0.1301496759
C  C182  1  0.80070000  0.25500000  0.63053000  1.0 -0.1301496759
C  C183  1  0.74500000  0.54570000  0.96387000  1.0 -0.1301496759
C  C184  1  0.19930000  0.45430000  0.70280000  1.0 -0.1301496759
C  C185  1  0.54570000  0.74500000  0.03613000  1.0 -0.1301496759
C  C186  1  0.25500000  0.80070000  0.36947000  1.0 -0.1301496759
C  C187  1  0.47650000  0.26620000  0.27390000  1.0 -0.1301496759
C  C188  1  0.73380000  0.21030000  0.60723000  1.0 -0.1301496759
C  C189  1  0.78970000  0.52350000  0.94057000  1.0 -0.1301496759
C  C190  1  0.26620000  0.47650000  0.72610000  1.0 -0.1301496759
C  C191  1  0.52350000  0.78970000  0.05943000  1.0 -0.1301496759
C  C192  1  0.21030000  0.73380000  0.39277000  1.0 -0.1301496759
C  C193  1  0.51910000  0.28600000  0.22470000  1.0 0.1829170917
C  C194  1  0.71400000  0.23310000  0.55803000  1.0 0.1829170917
C  C195  1  0.76690000  0.48090000  0.89137000  1.0 0.1829170917
C  C196  1  0.28600000  0.51910000  0.77530000  1.0 0.1829170917
C  C197  1  0.48090000  0.76690000  0.10863000  1.0 0.1829170917
C  C198  1  0.23310000  0.71400000  0.44197000  1.0 0.1829170917
C  C199  1  0.54290000  0.24260000  0.20560000  1.0 -0.0180909016
C  C200  1  0.75740000  0.30030000  0.53893000  1.0 -0.0180909016
C  C201  1  0.69970000  0.45710000  0.87227000  1.0 -0.0180909016
C  C202  1  0.24260000  0.54290000  0.79440000  1.0 -0.0180909016
C  C203  1  0.45710000  0.69970000  0.12773000  1.0 -0.0180909016
C  C204  1  0.30030000  0.75740000  0.46107000  1.0 -0.0180909016
N  N1  1  0.49680000  0.53940000  0.19580000  1.0 -0.3027636843
N  N2  1  0.46060000  0.95740000  0.52913000  1.0 -0.3027636843
N  N3  1  0.04260000  0.50320000  0.86247000  1.0 -0.3027636843
N  N4  1  0.53940000  0.49680000  0.80420000  1.0 -0.3027636843
N  N5  1  0.50320000  0.04260000  0.13753000  1.0 -0.3027636843
N  N6  1  0.95740000  0.46060000  0.47087000  1.0 -0.3027636843
N  N7  1  0.45470000  0.41670000  0.20590000  1.0 -0.4408067331
N  N8  1  0.58330000  0.03800000  0.53923000  1.0 -0.4408067331
N  N9  1  0.96200000  0.54530000  0.87257000  1.0 -0.4408067331
N  N10  1  0.41670000  0.45470000  0.79410000  1.0 -0.4408067331
N  N11  1  0.54530000  0.96200000  0.12743000  1.0 -0.4408067331
N  N12  1  0.03800000  0.58330000  0.46077000  1.0 -0.4408067331
N  N13  1  0.39190000  0.28990000  0.17740000  1.0 -0.1984913797
N  N14  1  0.71010000  0.10200000  0.51073000  1.0 -0.1984913797
N  N15  1  0.89800000  0.60810000  0.84407000  1.0 -0.1984913797
N  N16  1  0.28990000  0.39190000  0.82260000  1.0 -0.1984913797
N  N17  1  0.60810000  0.89800000  0.15593000  1.0 -0.1984913797
N  N18  1  0.10200000  0.71010000  0.48927000  1.0 -0.1984913797
N  N19  1  0.46450000  0.28750000  0.09530000  1.0 -0.3863133992
N  N20  1  0.71250000  0.17700000  0.42863000  1.0 -0.3849734034
N  N21  1  0.82300000  0.53550000  0.76197000  1.0 -0.3863133992
N  N22  1  0.28750000  0.46450000  0.90470000  1.0 -0.3863133992
N  N23  1  0.53550000  0.82300000  0.23803000  1.0 -0.3863133992
N  N24  1  0.17700000  0.71250000  0.57137000  1.0 -0.3863133992
N  N25  1  0.54250000  0.33820000  0.95220000  1.0 -0.1984913797
N  N26  1  0.66180000  0.20430000  0.28553000  1.0 -0.1984913797
N  N27  1  0.79570000  0.45750000  0.61887000  1.0 -0.1984913797
N  N28  1  0.33820000  0.54250000  0.04780000  1.0 -0.1948368962
N  N29  1  0.45750000  0.79570000  0.38113000  1.0 -0.1984913797
N  N30  1  0.20430000  0.66180000  0.71447000  1.0 -0.1984913797
N  N31  1  0.33680000  0.41560000  0.11310000  1.0 -0.2945558991
N  N32  1  0.58440000  0.92120000  0.44643000  1.0 -0.2945558991
N  N33  1  0.07880000  0.66320000  0.77977000  1.0 -0.3027636843
N  N34  1  0.41560000  0.33680000  0.88690000  1.0 -0.2945558991
N  N35  1  0.66320000  0.07880000  0.22023000  1.0 -0.2945558991
N  N36  1  0.92120000  0.58440000  0.55357000  1.0 -0.2945558991
N  N37  1  0.43370000  0.40160000  0.09200000  1.0 -0.4497433718
N  N38  1  0.59840000  0.03210000  0.42533000  1.0 -0.4497433718
N  N39  1  0.96790000  0.56630000  0.75867000  1.0 -0.4497433718
N  N40  1  0.40160000  0.43370000  0.90800000  1.0 -0.4497433718
N  N41  1  0.56630000  0.96790000  0.24133000  1.0 -0.4497433718
N  N42  1  0.03210000  0.59840000  0.57467000  1.0 -0.4497433718
N  N43  1  0.55780000  0.44070000  0.12280000  1.0 -0.2196375114
N  N44  1  0.55930000  0.11710000  0.45613000  1.0 -0.2196375114
N  N45  1  0.88290000  0.44220000  0.78947000  1.0 -0.2142721679
N  N46  1  0.44070000  0.55780000  0.87720000  1.0 -0.2142721679
N  N47  1  0.44220000  0.88290000  0.21053000  1.0 -0.2196375114
N  N48  1  0.11710000  0.55930000  0.54387000  1.0 -0.2142721679
N  N49  1  0.54010000  0.35100000  0.19600000  1.0 -0.4328129059
N  N50  1  0.64900000  0.18910000  0.52933000  1.0 -0.4328129059
N  N51  1  0.81090000  0.45990000  0.86267000  1.0 -0.4328129059
N  N52  1  0.35100000  0.54010000  0.80400000  1.0 -0.4328129059
N  N53  1  0.45990000  0.81090000  0.13733000  1.0 -0.4328129059
N  N54  1  0.18910000  0.64900000  0.47067000  1.0 -0.4328129059
N  N55  1  0.52250000  0.17850000  0.22840000  1.0 -0.2196375114
N  N56  1  0.82150000  0.34400000  0.56173000  1.0 -0.2196375114
N  N57  1  0.65600000  0.47750000  0.89507000  1.0 -0.2196375114
N  N58  1  0.17850000  0.52250000  0.77160000  1.0 -0.2196375114
N  N59  1  0.47750000  0.65600000  0.10493000  1.0 -0.2196375114
N  N60  1  0.34400000  0.82150000  0.43827000  1.0 -0.2196375114
Cl  Cl1  1  0.33547000  0.55130000  0.20429000  1.0 -0.5665253665
Cl  Cl2  1  0.44870000  0.78417000  0.53762000  1.0 -0.5665253665
Cl  Cl3  1  0.21583000  0.66453000  0.87096000  1.0 -0.5645008351
Cl  Cl4  1  0.55130000  0.33547000  0.79571000  1.0 -0.5645008351
Cl  Cl5  1  0.66453000  0.21583000  0.12904000  1.0 -0.5665253665
Cl  Cl6  1  0.78417000  0.44870000  0.46238000  1.0 -0.5665253665
O  O1  1  0.37200000  0.39710000  0.27740000  1.0 -0.4615461196
O  O2  1  0.60290000  0.97490000  0.61073000  1.0 -0.4615461196
O  O3  1  0.02510000  0.62800000  0.94407000  1.0 -0.4615461196
O  O4  1  0.39710000  0.37200000  0.72260000  1.0 -0.4615461196
O  O5  1  0.62800000  0.02510000  0.05593000  1.0 -0.4615461196
O  O6  1  0.97490000  0.60290000  0.38927000  1.0 -0.4615461196
O  O7  1  0.39650000  0.16860000  0.07980000  1.0 -0.4830594699
O  O8  1  0.83140000  0.22790000  0.41313000  1.0 -0.4830594699
O  O9  1  0.77210000  0.60350000  0.74647000  1.0 -0.4830594699
O  O10  1  0.16860000  0.39650000  0.92020000  1.0 -0.4830594699
O  O11  1  0.60350000  0.77210000  0.25353000  1.0 -0.4830594699
O  O12  1  0.22790000  0.83140000  0.58687000  1.0 -0.4830594699
O  O13  1  0.46620000  0.51230000  0.05220000  1.0 -0.4830594699
O  O14  1  0.48770000  0.95390000  0.38553000  1.0 -0.4830594699
O  O15  1  0.04610000  0.53380000  0.71887000  1.0 -0.4830594699
O  O16  1  0.51230000  0.46620000  0.94780000  1.0 -0.4830594699
O  O17  1  0.53380000  0.04610000  0.28113000  1.0 -0.4830594699
O  O18  1  0.95390000  0.48770000  0.61447000  1.0 -0.4830594699
O  O19  1  0.65910000  0.39590000  0.21180000  1.0 -0.4615461196
O  O20  1  0.60410000  0.26320000  0.54513000  1.0 -0.4615461196
O  O21  1  0.73680000  0.34090000  0.87847000  1.0 -0.4615461196
O  O22  1  0.39590000  0.65910000  0.78820000  1.0 -0.4615461196
O  O23  1  0.34090000  0.73680000  0.12153000  1.0 -0.4615461196
O  O24  1  0.26320000  0.60410000  0.45487000  1.0 -0.4615461196
