# DDEC6 charges by PACMAN v1.1 (https://github.com/mtap-research/PACMAN-charge/)
data_HEHGUZ_ion_pacman
_symmetry_space_group_name_H-M   'P 1'
_cell_length_a   24.46730000
_cell_length_b   24.46730000
_cell_length_c   24.46730000
_cell_angle_alpha   111.22700000
_cell_angle_beta   111.22700000
_cell_angle_gamma   111.22700000
_symmetry_Int_Tables_number   1
_chemical_formula_structural   Ag14H57C57S(ClO)3
_chemical_formula_sum   'Ag84 H342 C342 S6 Cl18 O18'
_cell_volume   10478.75343233
_cell_formula_units_Z   6
loop_
 _symmetry_equiv_pos_site_id
 _symmetry_equiv_pos_as_xyz
  1  'x, y, z'
loop_
 _atom_site_type_symbol
 _atom_site_label
 _atom_site_symmetry_multiplicity
 _atom_site_fract_x
 _atom_site_fract_y
 _atom_site_fract_z
 _atom_site_occupancy
 _atom_site_charge
Ag  Ag1  1  0.97068000  0.17318000  0.92401000  1.0 0.3611322485
Ag  Ag2  1  0.81043000  0.11844000  0.82115000  1.0 0.3841741425
Ag  Ag3  1  0.70424000  0.15529000  0.99165000  1.0 0.2400835
Ag  Ag4  1  0.89730000  0.13995000  0.76776000  1.0 0.3338035437
Ag  Ag5  1  0.81815000  0.27383000  0.99743000  1.0 0.2918416056
Ag  Ag6  1  0.70607000  0.19490000  0.13243000  1.0 0.4195959412
Ag  Ag7  1  0.56915000  0.06986000  0.07906000  1.0 0.227049037
Ag  Ag8  1  0.79194000  0.31066000  0.88964000  1.0 0.3611322485
Ag  Ag9  1  0.69557000  0.12242000  0.85517000  1.0 0.4273856027
Ag  Ag10  1  0.56592000  0.04573000  0.94967000  1.0 0.3912246269
Ag  Ag11  1  0.94884000  0.40107000  0.04229000  1.0 0.4025928122
Ag  Ag12  1  0.94324000  0.24530000  0.02828000  1.0 0.4273856027
Ag  Ag13  1  0.05930000  0.32607000  0.99243000  1.0 0.405114491
Ag  Ag14  1  0.72446000  0.17172000  0.76258000  1.0 0.2685508969
Ag  Ag15  1  0.17318000  0.92401000  0.97068000  1.0 0.3611322485
Ag  Ag16  1  0.11844000  0.82115000  0.81043000  1.0 0.3841741425
Ag  Ag17  1  0.15529000  0.99165000  0.70424000  1.0 0.2400835
Ag  Ag18  1  0.13995000  0.76776000  0.89730000  1.0 0.3338035437
Ag  Ag19  1  0.27383000  0.99743000  0.81815000  1.0 0.2918416056
Ag  Ag20  1  0.19490000  0.13243000  0.70607000  1.0 0.4195959412
Ag  Ag21  1  0.06986000  0.07906000  0.56915000  1.0 0.227049037
Ag  Ag22  1  0.31066000  0.88964000  0.79194000  1.0 0.3611322485
Ag  Ag23  1  0.12242000  0.85517000  0.69557000  1.0 0.4273856027
Ag  Ag24  1  0.04573000  0.94967000  0.56592000  1.0 0.3912246269
Ag  Ag25  1  0.40107000  0.04229000  0.94884000  1.0 0.4025928122
Ag  Ag26  1  0.24530000  0.02828000  0.94324000  1.0 0.4273856027
Ag  Ag27  1  0.32607000  0.99243000  0.05930000  1.0 0.405114491
Ag  Ag28  1  0.17172000  0.76258000  0.72446000  1.0 0.2685508969
Ag  Ag29  1  0.92401000  0.97068000  0.17318000  1.0 0.3611322485
Ag  Ag30  1  0.82115000  0.81043000  0.11844000  1.0 0.3841741425
Ag  Ag31  1  0.99165000  0.70424000  0.15529000  1.0 0.2400835
Ag  Ag32  1  0.76776000  0.89730000  0.13995000  1.0 0.3338035437
Ag  Ag33  1  0.99743000  0.81815000  0.27383000  1.0 0.2918416056
Ag  Ag34  1  0.13243000  0.70607000  0.19490000  1.0 0.4195959412
Ag  Ag35  1  0.07906000  0.56915000  0.06986000  1.0 0.227049037
Ag  Ag36  1  0.88964000  0.79194000  0.31066000  1.0 0.3611322485
Ag  Ag37  1  0.85517000  0.69557000  0.12242000  1.0 0.4273856027
Ag  Ag38  1  0.94967000  0.56592000  0.04573000  1.0 0.3912246269
Ag  Ag39  1  0.04229000  0.94884000  0.40107000  1.0 0.4025928122
Ag  Ag40  1  0.02828000  0.94324000  0.24530000  1.0 0.4273856027
Ag  Ag41  1  0.99243000  0.05930000  0.32607000  1.0 0.405114491
Ag  Ag42  1  0.76258000  0.72446000  0.17172000  1.0 0.2685508969
Ag  Ag43  1  0.02932000  0.82682000  0.07599000  1.0 0.3611322485
Ag  Ag44  1  0.18957000  0.88156000  0.17885000  1.0 0.3841741425
Ag  Ag45  1  0.29576000  0.84471000  0.00835000  1.0 0.2400835
Ag  Ag46  1  0.10270000  0.86005000  0.23224000  1.0 0.3338035437
Ag  Ag47  1  0.18185000  0.72617000  0.00257000  1.0 0.2918416056
Ag  Ag48  1  0.29393000  0.80510000  0.86757000  1.0 0.4195959412
Ag  Ag49  1  0.43085000  0.93014000  0.92094000  1.0 0.227049037
Ag  Ag50  1  0.20806000  0.68934000  0.11036000  1.0 0.3611322485
Ag  Ag51  1  0.30443000  0.87758000  0.14483000  1.0 0.4273856027
Ag  Ag52  1  0.43408000  0.95427000  0.05033000  1.0 0.3912246269
Ag  Ag53  1  0.05116000  0.59893000  0.95771000  1.0 0.4025928122
Ag  Ag54  1  0.05676000  0.75470000  0.97172000  1.0 0.4273856027
Ag  Ag55  1  0.94070000  0.67393000  0.00757000  1.0 0.405114491
Ag  Ag56  1  0.27554000  0.82828000  0.23742000  1.0 0.2685508969
Ag  Ag57  1  0.82682000  0.07599000  0.02932000  1.0 0.3611322485
Ag  Ag58  1  0.88156000  0.17885000  0.18957000  1.0 0.3841741425
Ag  Ag59  1  0.84471000  0.00835000  0.29576000  1.0 0.2400835
Ag  Ag60  1  0.86005000  0.23224000  0.10270000  1.0 0.3338035437
Ag  Ag61  1  0.72617000  0.00257000  0.18185000  1.0 0.2918416056
Ag  Ag62  1  0.80510000  0.86757000  0.29393000  1.0 0.4195959412
Ag  Ag63  1  0.93014000  0.92094000  0.43085000  1.0 0.227049037
Ag  Ag64  1  0.68934000  0.11036000  0.20806000  1.0 0.3611322485
Ag  Ag65  1  0.87758000  0.14483000  0.30443000  1.0 0.4273856027
Ag  Ag66  1  0.95427000  0.05033000  0.43408000  1.0 0.3912246269
Ag  Ag67  1  0.59893000  0.95771000  0.05116000  1.0 0.4025928122
Ag  Ag68  1  0.75470000  0.97172000  0.05676000  1.0 0.4273856027
Ag  Ag69  1  0.67393000  0.00757000  0.94070000  1.0 0.405114491
Ag  Ag70  1  0.82828000  0.23742000  0.27554000  1.0 0.2685508969
Ag  Ag71  1  0.07599000  0.02932000  0.82682000  1.0 0.3611322485
Ag  Ag72  1  0.17885000  0.18957000  0.88156000  1.0 0.3841741425
Ag  Ag73  1  0.00835000  0.29576000  0.84471000  1.0 0.2400835
Ag  Ag74  1  0.23224000  0.10270000  0.86005000  1.0 0.3338035437
Ag  Ag75  1  0.00257000  0.18185000  0.72617000  1.0 0.2918416056
Ag  Ag76  1  0.86757000  0.29393000  0.80510000  1.0 0.4195959412
Ag  Ag77  1  0.92094000  0.43085000  0.93014000  1.0 0.227049037
Ag  Ag78  1  0.11036000  0.20806000  0.68934000  1.0 0.3611322485
Ag  Ag79  1  0.14483000  0.30443000  0.87758000  1.0 0.4273856027
Ag  Ag80  1  0.05033000  0.43408000  0.95427000  1.0 0.3912246269
Ag  Ag81  1  0.95771000  0.05116000  0.59893000  1.0 0.4025928122
Ag  Ag82  1  0.97172000  0.05676000  0.75470000  1.0 0.4273856027
Ag  Ag83  1  0.00757000  0.94070000  0.67393000  1.0 0.405114491
Ag  Ag84  1  0.23742000  0.27554000  0.82828000  1.0 0.2685508969
H  H1  1  0.51860000  0.95230000  0.71470000  1.0 0.0904070678
H  H2  1  0.63930000  0.26230000  0.77630000  1.0 0.0839036099
H  H3  1  0.57970000  0.27910000  0.77890000  1.0 0.1189946149
H  H4  1  0.91950000  0.97540000  0.83880000  1.0 0.1003251213
H  H5  1  0.48130000  0.89370000  0.15140000  1.0 0.0839036099
H  H6  1  0.50280000  0.16090000  0.74030000  1.0 0.1098714421
H  H7  1  0.56230000  0.14410000  0.73780000  1.0 0.1003251213
H  H8  1  0.58590000  0.25180000  0.86360000  1.0 0.1003251213
H  H9  1  0.80500000  0.37940000  0.23030000  1.0 0.1003251213
H  H10  1  0.87670000  0.02960000  0.93270000  1.0 0.1003251213
H  H11  1  0.91270000  0.98370000  0.93660000  1.0 0.1003251213
H  H12  1  0.65810000  0.26780000  0.01300000  1.0 0.1003251213
H  H13  1  0.60560000  0.29340000  0.98470000  1.0 0.1189946149
H  H14  1  0.52640000  0.22640000  0.00340000  1.0 0.0839036099
H  H15  1  0.41080000  0.87200000  0.69640000  1.0 0.1098714421
H  H16  1  0.45380000  0.90490000  0.78280000  1.0 0.0904070678
H  H17  1  0.58080000  0.90570000  0.64840000  1.0 0.1189946149
H  H18  1  0.91530000  0.42370000  0.20680000  1.0 0.1003251213
H  H19  1  0.90420000  0.47710000  0.26080000  1.0 0.1189946149
H  H20  1  0.91580000  0.42240000  0.32940000  1.0 0.1003251213
H  H21  1  0.92690000  0.36890000  0.27520000  1.0 0.0904070678
H  H22  1  0.67700000  0.32410000  0.12740000  1.0 0.1098714421
H  H23  1  0.62430000  0.34970000  0.09900000  1.0 0.1003251213
H  H24  1  0.09520000  0.42290000  0.19840000  1.0 0.0839036099
H  H25  1  0.55990000  0.86590000  0.20260000  1.0 0.1098714421
H  H26  1  0.62440000  0.92820000  0.20810000  1.0 0.0904070678
H  H27  1  0.52780000  0.86840000  0.77470000  1.0 0.0839036099
H  H28  1  0.48480000  0.83540000  0.68810000  1.0 0.1098714421
H  H29  1  0.13770000  0.32850000  0.22690000  1.0 0.1189946149
H  H30  1  0.21140000  0.33160000  0.24130000  1.0 0.1098714421
H  H31  1  0.72910000  0.94490000  0.72070000  1.0 0.1003251213
H  H32  1  0.65750000  0.86180000  0.66270000  1.0 0.1003251213
H  H33  1  0.55390000  0.95550000  0.27860000  1.0 0.1098714421
H  H34  1  0.61840000  0.01780000  0.28410000  1.0 0.1098714421
H  H35  1  0.62200000  0.87680000  0.74650000  1.0 0.1003251213
H  H36  1  0.69440000  0.96080000  0.80520000  1.0 0.1098714421
H  H37  1  0.03190000  0.46290000  0.27060000  1.0 0.1189946149
H  H38  1  0.11860000  0.50520000  0.30480000  1.0 0.1189946149
H  H39  1  0.81620000  0.88780000  0.82330000  1.0 0.1003251213
H  H40  1  0.78020000  0.93370000  0.81940000  1.0 0.1003251213
H  H41  1  0.11410000  0.41060000  0.29410000  1.0 0.1098714421
H  H42  1  0.02730000  0.36810000  0.25990000  1.0 0.1189946149
H  H43  1  0.25390000  0.43810000  0.22670000  1.0 0.1098714421
H  H44  1  0.18000000  0.43490000  0.21230000  1.0 0.1098714421
H  H45  1  0.58600000  0.26820000  0.28300000  1.0 0.1393211054
H  H46  1  0.67410000  0.32660000  0.33810000  1.0 0.1393211054
H  H47  1  0.19290000  0.32310000  0.14770000  1.0 0.1003251213
H  H48  1  0.58610000  0.29210000  0.20410000  1.0 0.1287062459
H  H49  1  0.67430000  0.35080000  0.25940000  1.0 0.1501865584
H  H50  1  0.59200000  0.20920000  0.20520000  1.0 0.1393211054
H  H51  1  0.95230000  0.71470000  0.51860000  1.0 0.0904070678
H  H52  1  0.26230000  0.77630000  0.63930000  1.0 0.0839036099
H  H53  1  0.27910000  0.77890000  0.57970000  1.0 0.1189946149
H  H54  1  0.97540000  0.83880000  0.91950000  1.0 0.1003251213
H  H55  1  0.89370000  0.15140000  0.48130000  1.0 0.0839036099
H  H56  1  0.16090000  0.74030000  0.50280000  1.0 0.1098714421
H  H57  1  0.14410000  0.73780000  0.56230000  1.0 0.1003251213
H  H58  1  0.25180000  0.86360000  0.58590000  1.0 0.1003251213
H  H59  1  0.37940000  0.23030000  0.80500000  1.0 0.1003251213
H  H60  1  0.02960000  0.93270000  0.87670000  1.0 0.1003251213
H  H61  1  0.98370000  0.93660000  0.91270000  1.0 0.1003251213
H  H62  1  0.26780000  0.01300000  0.65810000  1.0 0.1003251213
H  H63  1  0.29340000  0.98470000  0.60560000  1.0 0.1189946149
H  H64  1  0.22640000  0.00340000  0.52640000  1.0 0.0839036099
H  H65  1  0.87200000  0.69640000  0.41080000  1.0 0.1098714421
H  H66  1  0.90490000  0.78280000  0.45380000  1.0 0.0904070678
H  H67  1  0.90570000  0.64840000  0.58080000  1.0 0.1189946149
H  H68  1  0.42370000  0.20680000  0.91530000  1.0 0.1003251213
H  H69  1  0.47710000  0.26080000  0.90420000  1.0 0.1189946149
H  H70  1  0.42240000  0.32940000  0.91580000  1.0 0.1003251213
H  H71  1  0.36890000  0.27520000  0.92690000  1.0 0.0904070678
H  H72  1  0.32410000  0.12740000  0.67700000  1.0 0.1098714421
H  H73  1  0.34970000  0.09900000  0.62430000  1.0 0.1003251213
H  H74  1  0.42290000  0.19840000  0.09520000  1.0 0.0839036099
H  H75  1  0.86590000  0.20260000  0.55990000  1.0 0.1098714421
H  H76  1  0.92820000  0.20810000  0.62440000  1.0 0.0904070678
H  H77  1  0.86840000  0.77470000  0.52780000  1.0 0.0839036099
H  H78  1  0.83540000  0.68810000  0.48480000  1.0 0.1098714421
H  H79  1  0.32850000  0.22690000  0.13770000  1.0 0.1189946149
H  H80  1  0.33160000  0.24130000  0.21140000  1.0 0.1098714421
H  H81  1  0.94490000  0.72070000  0.72910000  1.0 0.1003251213
H  H82  1  0.86180000  0.66270000  0.65750000  1.0 0.1003251213
H  H83  1  0.95550000  0.27860000  0.55390000  1.0 0.1098714421
H  H84  1  0.01780000  0.28410000  0.61840000  1.0 0.1098714421
H  H85  1  0.87680000  0.74650000  0.62200000  1.0 0.1003251213
H  H86  1  0.96080000  0.80520000  0.69440000  1.0 0.1098714421
H  H87  1  0.46290000  0.27060000  0.03190000  1.0 0.1189946149
H  H88  1  0.50520000  0.30480000  0.11860000  1.0 0.1189946149
H  H89  1  0.88780000  0.82330000  0.81620000  1.0 0.1003251213
H  H90  1  0.93370000  0.81940000  0.78020000  1.0 0.1003251213
H  H91  1  0.41060000  0.29410000  0.11410000  1.0 0.1098714421
H  H92  1  0.36810000  0.25990000  0.02730000  1.0 0.1189946149
H  H93  1  0.43810000  0.22670000  0.25390000  1.0 0.1098714421
H  H94  1  0.43490000  0.21230000  0.18000000  1.0 0.1098714421
H  H95  1  0.26820000  0.28300000  0.58600000  1.0 0.1393211054
H  H96  1  0.32660000  0.33810000  0.67410000  1.0 0.1393211054
H  H97  1  0.32310000  0.14770000  0.19290000  1.0 0.1003251213
H  H98  1  0.29210000  0.20410000  0.58610000  1.0 0.1287062459
H  H99  1  0.35080000  0.25940000  0.67430000  1.0 0.1501865584
H  H100  1  0.20920000  0.20520000  0.59200000  1.0 0.1393211054
H  H101  1  0.71470000  0.51860000  0.95230000  1.0 0.0904070678
H  H102  1  0.77630000  0.63930000  0.26230000  1.0 0.0839036099
H  H103  1  0.77890000  0.57970000  0.27910000  1.0 0.1189946149
H  H104  1  0.83880000  0.91950000  0.97540000  1.0 0.1003251213
H  H105  1  0.15140000  0.48130000  0.89370000  1.0 0.0839036099
H  H106  1  0.74030000  0.50280000  0.16090000  1.0 0.1098714421
H  H107  1  0.73780000  0.56230000  0.14410000  1.0 0.1003251213
H  H108  1  0.86360000  0.58590000  0.25180000  1.0 0.1003251213
H  H109  1  0.23030000  0.80500000  0.37940000  1.0 0.1003251213
H  H110  1  0.93270000  0.87670000  0.02960000  1.0 0.1003251213
H  H111  1  0.93660000  0.91270000  0.98370000  1.0 0.1003251213
H  H112  1  0.01300000  0.65810000  0.26780000  1.0 0.1003251213
H  H113  1  0.98470000  0.60560000  0.29340000  1.0 0.1189946149
H  H114  1  0.00340000  0.52640000  0.22640000  1.0 0.0839036099
H  H115  1  0.69640000  0.41080000  0.87200000  1.0 0.1098714421
H  H116  1  0.78280000  0.45380000  0.90490000  1.0 0.0904070678
H  H117  1  0.64840000  0.58080000  0.90570000  1.0 0.1189946149
H  H118  1  0.20680000  0.91530000  0.42370000  1.0 0.1003251213
H  H119  1  0.26080000  0.90420000  0.47710000  1.0 0.1189946149
H  H120  1  0.32940000  0.91580000  0.42240000  1.0 0.1003251213
H  H121  1  0.27520000  0.92690000  0.36890000  1.0 0.0904070678
H  H122  1  0.12740000  0.67700000  0.32410000  1.0 0.1098714421
H  H123  1  0.09900000  0.62430000  0.34970000  1.0 0.1003251213
H  H124  1  0.19840000  0.09520000  0.42290000  1.0 0.0839036099
H  H125  1  0.20260000  0.55990000  0.86590000  1.0 0.1098714421
H  H126  1  0.20810000  0.62440000  0.92820000  1.0 0.0904070678
H  H127  1  0.77470000  0.52780000  0.86840000  1.0 0.0839036099
H  H128  1  0.68810000  0.48480000  0.83540000  1.0 0.1098714421
H  H129  1  0.22690000  0.13770000  0.32850000  1.0 0.1189946149
H  H130  1  0.24130000  0.21140000  0.33160000  1.0 0.1098714421
H  H131  1  0.72070000  0.72910000  0.94490000  1.0 0.1003251213
H  H132  1  0.66270000  0.65750000  0.86180000  1.0 0.1003251213
H  H133  1  0.27860000  0.55390000  0.95550000  1.0 0.1098714421
H  H134  1  0.28410000  0.61840000  0.01780000  1.0 0.1098714421
H  H135  1  0.74650000  0.62200000  0.87680000  1.0 0.1003251213
H  H136  1  0.80520000  0.69440000  0.96080000  1.0 0.1098714421
H  H137  1  0.27060000  0.03190000  0.46290000  1.0 0.1189946149
H  H138  1  0.30480000  0.11860000  0.50520000  1.0 0.1189946149
H  H139  1  0.82330000  0.81620000  0.88780000  1.0 0.1003251213
H  H140  1  0.81940000  0.78020000  0.93370000  1.0 0.1003251213
H  H141  1  0.29410000  0.11410000  0.41060000  1.0 0.1098714421
H  H142  1  0.25990000  0.02730000  0.36810000  1.0 0.1189946149
H  H143  1  0.22670000  0.25390000  0.43810000  1.0 0.1098714421
H  H144  1  0.21230000  0.18000000  0.43490000  1.0 0.1098714421
H  H145  1  0.28300000  0.58600000  0.26820000  1.0 0.1393211054
H  H146  1  0.33810000  0.67410000  0.32660000  1.0 0.1393211054
H  H147  1  0.14770000  0.19290000  0.32310000  1.0 0.1003251213
H  H148  1  0.20410000  0.58610000  0.29210000  1.0 0.1287062459
H  H149  1  0.25940000  0.67430000  0.35080000  1.0 0.1501865584
H  H150  1  0.20520000  0.59200000  0.20920000  1.0 0.1393211054
H  H151  1  0.48140000  0.04770000  0.28530000  1.0 0.0904070678
H  H152  1  0.36070000  0.73770000  0.22370000  1.0 0.0839036099
H  H153  1  0.42030000  0.72090000  0.22110000  1.0 0.1189946149
H  H154  1  0.08050000  0.02460000  0.16120000  1.0 0.1003251213
H  H155  1  0.51870000  0.10630000  0.84860000  1.0 0.0839036099
H  H156  1  0.49720000  0.83910000  0.25970000  1.0 0.1098714421
H  H157  1  0.43770000  0.85590000  0.26220000  1.0 0.1003251213
H  H158  1  0.41410000  0.74820000  0.13640000  1.0 0.1003251213
H  H159  1  0.19500000  0.62060000  0.76970000  1.0 0.1003251213
H  H160  1  0.12330000  0.97040000  0.06730000  1.0 0.1003251213
H  H161  1  0.08730000  0.01630000  0.06340000  1.0 0.1003251213
H  H162  1  0.34190000  0.73220000  0.98700000  1.0 0.1003251213
H  H163  1  0.39440000  0.70660000  0.01530000  1.0 0.1189946149
H  H164  1  0.47360000  0.77360000  0.99660000  1.0 0.0839036099
H  H165  1  0.58920000  0.12800000  0.30360000  1.0 0.1098714421
H  H166  1  0.54620000  0.09510000  0.21720000  1.0 0.0904070678
H  H167  1  0.41920000  0.09430000  0.35160000  1.0 0.1189946149
H  H168  1  0.08470000  0.57630000  0.79320000  1.0 0.1003251213
H  H169  1  0.09580000  0.52290000  0.73920000  1.0 0.1189946149
H  H170  1  0.08420000  0.57760000  0.67060000  1.0 0.1003251213
H  H171  1  0.07310000  0.63110000  0.72480000  1.0 0.0904070678
H  H172  1  0.32300000  0.67590000  0.87260000  1.0 0.1098714421
H  H173  1  0.37570000  0.65030000  0.90100000  1.0 0.1003251213
H  H174  1  0.90480000  0.57710000  0.80160000  1.0 0.0839036099
H  H175  1  0.44010000  0.13410000  0.79740000  1.0 0.1098714421
H  H176  1  0.37560000  0.07180000  0.79190000  1.0 0.0904070678
H  H177  1  0.47220000  0.13160000  0.22530000  1.0 0.0839036099
H  H178  1  0.51520000  0.16460000  0.31190000  1.0 0.1098714421
H  H179  1  0.86230000  0.67150000  0.77310000  1.0 0.1189946149
H  H180  1  0.78860000  0.66840000  0.75870000  1.0 0.1098714421
H  H181  1  0.27090000  0.05510000  0.27930000  1.0 0.1003251213
H  H182  1  0.34250000  0.13820000  0.33730000  1.0 0.1003251213
H  H183  1  0.44610000  0.04450000  0.72140000  1.0 0.1098714421
H  H184  1  0.38160000  0.98220000  0.71590000  1.0 0.1098714421
H  H185  1  0.37800000  0.12320000  0.25350000  1.0 0.1003251213
H  H186  1  0.30560000  0.03920000  0.19480000  1.0 0.1098714421
H  H187  1  0.96810000  0.53710000  0.72940000  1.0 0.1189946149
H  H188  1  0.88140000  0.49480000  0.69520000  1.0 0.1189946149
H  H189  1  0.18380000  0.11220000  0.17670000  1.0 0.1003251213
H  H190  1  0.21980000  0.06630000  0.18060000  1.0 0.1003251213
H  H191  1  0.88590000  0.58940000  0.70590000  1.0 0.1098714421
H  H192  1  0.97270000  0.63190000  0.74010000  1.0 0.1189946149
H  H193  1  0.74610000  0.56190000  0.77330000  1.0 0.1098714421
H  H194  1  0.82000000  0.56510000  0.78770000  1.0 0.1098714421
H  H195  1  0.41400000  0.73180000  0.71700000  1.0 0.1393211054
H  H196  1  0.32590000  0.67340000  0.66190000  1.0 0.1393211054
H  H197  1  0.80710000  0.67690000  0.85230000  1.0 0.1003251213
H  H198  1  0.41390000  0.70790000  0.79590000  1.0 0.1287062459
H  H199  1  0.32570000  0.64920000  0.74060000  1.0 0.1501865584
H  H200  1  0.40800000  0.79080000  0.79480000  1.0 0.1393211054
H  H201  1  0.04770000  0.28530000  0.48140000  1.0 0.0904070678
H  H202  1  0.73770000  0.22370000  0.36070000  1.0 0.0839036099
H  H203  1  0.72090000  0.22110000  0.42030000  1.0 0.1189946149
H  H204  1  0.02460000  0.16120000  0.08050000  1.0 0.1003251213
H  H205  1  0.10630000  0.84860000  0.51870000  1.0 0.0839036099
H  H206  1  0.83910000  0.25970000  0.49720000  1.0 0.1098714421
H  H207  1  0.85590000  0.26220000  0.43770000  1.0 0.1003251213
H  H208  1  0.74820000  0.13640000  0.41410000  1.0 0.1003251213
H  H209  1  0.62060000  0.76970000  0.19500000  1.0 0.1003251213
H  H210  1  0.97040000  0.06730000  0.12330000  1.0 0.1003251213
H  H211  1  0.01630000  0.06340000  0.08730000  1.0 0.1003251213
H  H212  1  0.73220000  0.98700000  0.34190000  1.0 0.1003251213
H  H213  1  0.70660000  0.01530000  0.39440000  1.0 0.1189946149
H  H214  1  0.77360000  0.99660000  0.47360000  1.0 0.0839036099
H  H215  1  0.12800000  0.30360000  0.58920000  1.0 0.1098714421
H  H216  1  0.09510000  0.21720000  0.54620000  1.0 0.0904070678
H  H217  1  0.09430000  0.35160000  0.41920000  1.0 0.1189946149
H  H218  1  0.57630000  0.79320000  0.08470000  1.0 0.1003251213
H  H219  1  0.52290000  0.73920000  0.09580000  1.0 0.1189946149
H  H220  1  0.57760000  0.67060000  0.08420000  1.0 0.1003251213
H  H221  1  0.63110000  0.72480000  0.07310000  1.0 0.0904070678
H  H222  1  0.67590000  0.87260000  0.32300000  1.0 0.1098714421
H  H223  1  0.65030000  0.90100000  0.37570000  1.0 0.1003251213
H  H224  1  0.57710000  0.80160000  0.90480000  1.0 0.0839036099
H  H225  1  0.13410000  0.79740000  0.44010000  1.0 0.1098714421
H  H226  1  0.07180000  0.79190000  0.37560000  1.0 0.0904070678
H  H227  1  0.13160000  0.22530000  0.47220000  1.0 0.0839036099
H  H228  1  0.16460000  0.31190000  0.51520000  1.0 0.1098714421
H  H229  1  0.67150000  0.77310000  0.86230000  1.0 0.1189946149
H  H230  1  0.66840000  0.75870000  0.78860000  1.0 0.1098714421
H  H231  1  0.05510000  0.27930000  0.27090000  1.0 0.1003251213
H  H232  1  0.13820000  0.33730000  0.34250000  1.0 0.1003251213
H  H233  1  0.04450000  0.72140000  0.44610000  1.0 0.1098714421
H  H234  1  0.98220000  0.71590000  0.38160000  1.0 0.1098714421
H  H235  1  0.12320000  0.25350000  0.37800000  1.0 0.1003251213
H  H236  1  0.03920000  0.19480000  0.30560000  1.0 0.1098714421
H  H237  1  0.53710000  0.72940000  0.96810000  1.0 0.1189946149
H  H238  1  0.49480000  0.69520000  0.88140000  1.0 0.1189946149
H  H239  1  0.11220000  0.17670000  0.18380000  1.0 0.1003251213
H  H240  1  0.06630000  0.18060000  0.21980000  1.0 0.1003251213
H  H241  1  0.58940000  0.70590000  0.88590000  1.0 0.1098714421
H  H242  1  0.63190000  0.74010000  0.97270000  1.0 0.1189946149
H  H243  1  0.56190000  0.77330000  0.74610000  1.0 0.1098714421
H  H244  1  0.56510000  0.78770000  0.82000000  1.0 0.1098714421
H  H245  1  0.73180000  0.71700000  0.41400000  1.0 0.1393211054
H  H246  1  0.67340000  0.66190000  0.32590000  1.0 0.1393211054
H  H247  1  0.67690000  0.85230000  0.80710000  1.0 0.1003251213
H  H248  1  0.70790000  0.79590000  0.41390000  1.0 0.1287062459
H  H249  1  0.64920000  0.74060000  0.32570000  1.0 0.1501865584
H  H250  1  0.79080000  0.79480000  0.40800000  1.0 0.1393211054
H  H251  1  0.28530000  0.48140000  0.04770000  1.0 0.0904070678
H  H252  1  0.22370000  0.36070000  0.73770000  1.0 0.0839036099
H  H253  1  0.22110000  0.42030000  0.72090000  1.0 0.1189946149
H  H254  1  0.16120000  0.08050000  0.02460000  1.0 0.1003251213
H  H255  1  0.84860000  0.51870000  0.10630000  1.0 0.0839036099
H  H256  1  0.25970000  0.49720000  0.83910000  1.0 0.1098714421
H  H257  1  0.26220000  0.43770000  0.85590000  1.0 0.1003251213
H  H258  1  0.13640000  0.41410000  0.74820000  1.0 0.1003251213
H  H259  1  0.76970000  0.19500000  0.62060000  1.0 0.1003251213
H  H260  1  0.06730000  0.12330000  0.97040000  1.0 0.1003251213
H  H261  1  0.06340000  0.08730000  0.01630000  1.0 0.1003251213
H  H262  1  0.98700000  0.34190000  0.73220000  1.0 0.1003251213
H  H263  1  0.01530000  0.39440000  0.70660000  1.0 0.1189946149
H  H264  1  0.99660000  0.47360000  0.77360000  1.0 0.0839036099
H  H265  1  0.30360000  0.58920000  0.12800000  1.0 0.1098714421
H  H266  1  0.21720000  0.54620000  0.09510000  1.0 0.0904070678
H  H267  1  0.35160000  0.41920000  0.09430000  1.0 0.1189946149
H  H268  1  0.79320000  0.08470000  0.57630000  1.0 0.1003251213
H  H269  1  0.73920000  0.09580000  0.52290000  1.0 0.1189946149
H  H270  1  0.67060000  0.08420000  0.57760000  1.0 0.1003251213
H  H271  1  0.72480000  0.07310000  0.63110000  1.0 0.0904070678
H  H272  1  0.87260000  0.32300000  0.67590000  1.0 0.1098714421
H  H273  1  0.90100000  0.37570000  0.65030000  1.0 0.1003251213
H  H274  1  0.80160000  0.90480000  0.57710000  1.0 0.0839036099
H  H275  1  0.79740000  0.44010000  0.13410000  1.0 0.1098714421
H  H276  1  0.79190000  0.37560000  0.07180000  1.0 0.0904070678
H  H277  1  0.22530000  0.47220000  0.13160000  1.0 0.0839036099
H  H278  1  0.31190000  0.51520000  0.16460000  1.0 0.1098714421
H  H279  1  0.77310000  0.86230000  0.67150000  1.0 0.1189946149
H  H280  1  0.75870000  0.78860000  0.66840000  1.0 0.1098714421
H  H281  1  0.27930000  0.27090000  0.05510000  1.0 0.1003251213
H  H282  1  0.33730000  0.34250000  0.13820000  1.0 0.1003251213
H  H283  1  0.72140000  0.44610000  0.04450000  1.0 0.1098714421
H  H284  1  0.71590000  0.38160000  0.98220000  1.0 0.1098714421
H  H285  1  0.25350000  0.37800000  0.12320000  1.0 0.1003251213
H  H286  1  0.19480000  0.30560000  0.03920000  1.0 0.1098714421
H  H287  1  0.72940000  0.96810000  0.53710000  1.0 0.1189946149
H  H288  1  0.69520000  0.88140000  0.49480000  1.0 0.1189946149
H  H289  1  0.17670000  0.18380000  0.11220000  1.0 0.1003251213
H  H290  1  0.18060000  0.21980000  0.06630000  1.0 0.1003251213
H  H291  1  0.70590000  0.88590000  0.58940000  1.0 0.1098714421
H  H292  1  0.74010000  0.97270000  0.63190000  1.0 0.1189946149
H  H293  1  0.77330000  0.74610000  0.56190000  1.0 0.1098714421
H  H294  1  0.78770000  0.82000000  0.56510000  1.0 0.1098714421
H  H295  1  0.71700000  0.41400000  0.73180000  1.0 0.1393211054
H  H296  1  0.66190000  0.32590000  0.67340000  1.0 0.1393211054
H  H297  1  0.85230000  0.80710000  0.67690000  1.0 0.1003251213
H  H298  1  0.79590000  0.41390000  0.70790000  1.0 0.1287062459
H  H299  1  0.74060000  0.32570000  0.64920000  1.0 0.1501865584
H  H300  1  0.79480000  0.40800000  0.79080000  1.0 0.1393211054
H  H301  1  0.34360000  0.79820000  0.39770000  1.0 0.1189946149
H  H302  1  0.41680000  0.83390000  0.35990000  1.0 0.1189946149
H  H303  1  0.58040000  0.99560000  0.56470000  1.0 0.1189946149
H  H304  1  0.50710000  0.95980000  0.60240000  1.0 0.1189946149
H  H305  1  0.53810000  0.89630000  0.38590000  1.0 0.1501865584
H  H306  1  0.60370000  0.96450000  0.46450000  1.0 0.1501865584
H  H307  1  0.54630000  0.97080000  0.41390000  1.0 0.1501865584
H  H308  1  0.39770000  0.34360000  0.79820000  1.0 0.1189946149
H  H309  1  0.35990000  0.41680000  0.83390000  1.0 0.1189946149
H  H310  1  0.56470000  0.58040000  0.99560000  1.0 0.1189946149
H  H311  1  0.60240000  0.50710000  0.95980000  1.0 0.1189946149
H  H312  1  0.38590000  0.53810000  0.89630000  1.0 0.1501865584
H  H313  1  0.46450000  0.60370000  0.96450000  1.0 0.1501865584
H  H314  1  0.41390000  0.54630000  0.97080000  1.0 0.1501865584
H  H315  1  0.79820000  0.39770000  0.34360000  1.0 0.1189946149
H  H316  1  0.83390000  0.35990000  0.41680000  1.0 0.1189946149
H  H317  1  0.99560000  0.56470000  0.58040000  1.0 0.1189946149
H  H318  1  0.95980000  0.60240000  0.50710000  1.0 0.1189946149
H  H319  1  0.89630000  0.38590000  0.53810000  1.0 0.1501865584
H  H320  1  0.96450000  0.46450000  0.60370000  1.0 0.1501865584
H  H321  1  0.97080000  0.41390000  0.54630000  1.0 0.1501865584
H  H322  1  0.65640000  0.20180000  0.60230000  1.0 0.1189946149
H  H323  1  0.58320000  0.16610000  0.64010000  1.0 0.1189946149
H  H324  1  0.41960000  0.00440000  0.43530000  1.0 0.1189946149
H  H325  1  0.49290000  0.04020000  0.39760000  1.0 0.1189946149
H  H326  1  0.46190000  0.10370000  0.61410000  1.0 0.1501865584
H  H327  1  0.39630000  0.03550000  0.53550000  1.0 0.1501865584
H  H328  1  0.45370000  0.02920000  0.58610000  1.0 0.1501865584
H  H329  1  0.60230000  0.65640000  0.20180000  1.0 0.1189946149
H  H330  1  0.64010000  0.58320000  0.16610000  1.0 0.1189946149
H  H331  1  0.43530000  0.41960000  0.00440000  1.0 0.1189946149
H  H332  1  0.39760000  0.49290000  0.04020000  1.0 0.1189946149
H  H333  1  0.61410000  0.46190000  0.10370000  1.0 0.1501865584
H  H334  1  0.53550000  0.39630000  0.03550000  1.0 0.1501865584
H  H335  1  0.58610000  0.45370000  0.02920000  1.0 0.1501865584
H  H336  1  0.20180000  0.60230000  0.65640000  1.0 0.1189946149
H  H337  1  0.16610000  0.64010000  0.58320000  1.0 0.1189946149
H  H338  1  0.00440000  0.43530000  0.41960000  1.0 0.1189946149
H  H339  1  0.04020000  0.39760000  0.49290000  1.0 0.1189946149
H  H340  1  0.10370000  0.61410000  0.46190000  1.0 0.1501865584
H  H341  1  0.03550000  0.53550000  0.39630000  1.0 0.1501865584
H  H342  1  0.02920000  0.58610000  0.45370000  1.0 0.1501865584
C  C1  1  0.62670000  0.05710000  0.88970000  1.0 -0.469265687
C  C2  1  0.04300000  0.25730000  0.03550000  1.0 -0.4412634103
C  C3  1  0.88060000  0.07840000  0.81190000  1.0 -0.469265687
C  C4  1  0.88370000  0.03830000  0.82730000  1.0 0.0299156294
C  C5  1  0.80090000  0.30190000  0.14990000  1.0 0.0299156294
C  C6  1  0.92170000  0.33160000  0.08970000  1.0 -0.478352074
C  C7  1  0.66800000  0.23550000  0.87670000  1.0 0.04743918
C  C8  1  0.66520000  0.01340000  0.72420000  1.0 0.04743918
C  C9  1  0.77380000  0.24820000  0.09360000  1.0 -0.432919908
C  C10  1  0.56870000  0.01060000  0.12350000  1.0 -0.469265687
C  C11  1  0.58320000  0.13790000  0.04200000  1.0 -0.432919908
C  C12  1  0.69120000  0.07410000  0.74910000  1.0 -0.432919908
C  C13  1  0.55550000  0.97750000  0.14820000  1.0 0.0580017217
C  C14  1  0.98230000  0.36710000  0.14240000  1.0 0.0159346603
C  C15  1  0.58130000  0.00800000  0.82820000  1.0 0.04743918
C  C16  1  0.09290000  0.29200000  0.09280000  1.0 0.04743918
C  C17  1  0.73330000  0.23120000  0.24890000  1.0 -0.432919908
C  C18  1  0.52330000  0.94510000  0.75350000  1.0 0.0299156294
C  C19  1  0.72160000  0.23840000  0.91260000  1.0 -0.4879515998
C  C20  1  0.58110000  0.18240000  0.03590000  1.0 0.0389135323
C  C21  1  0.60050000  0.25180000  0.78360000  1.0 -0.1986858862
C  C22  1  0.88820000  0.99020000  0.84630000  1.0 0.0105739968
C  C23  1  0.53340000  0.92950000  0.17690000  1.0 0.0299156294
C  C24  1  0.55350000  0.17970000  0.76020000  1.0 -0.1986858862
C  C25  1  0.60560000  0.23530000  0.83670000  1.0 0.0299156294
C  C26  1  0.83740000  0.37000000  0.21900000  1.0 0.0105739968
C  C27  1  0.88260000  0.99290000  0.90650000  1.0 -0.1986858862
C  C28  1  0.69370000  0.24580000  0.24960000  1.0 -0.0029300516
C  C29  1  0.62390000  0.27900000  0.01620000  1.0 -0.1912902038
C  C30  1  0.57510000  0.23690000  0.02730000  1.0 0.0105739968
C  C31  1  0.45640000  0.89420000  0.74110000  1.0 -0.1912902038
C  C32  1  0.63130000  0.93880000  0.69110000  1.0 -0.0122578333
C  C33  1  0.89810000  0.43080000  0.23820000  1.0 -0.1986858862
C  C34  1  0.90590000  0.39680000  0.28150000  1.0 -0.2292196746
C  C35  1  0.63600000  0.31420000  0.08680000  1.0 -0.2095752108
C  C36  1  0.05600000  0.40990000  0.20590000  1.0 0.0105739968
C  C37  1  0.58120000  0.91230000  0.20840000  1.0 -0.2095752108
C  C38  1  0.50110000  0.87190000  0.73610000  1.0 -0.2095752108
C  C39  1  0.17610000  0.34080000  0.21910000  1.0 -0.2095752108
C  C40  1  0.67870000  0.91120000  0.70100000  1.0 -0.2095752108
C  C41  1  0.57770000  0.96760000  0.25560000  1.0 -0.1912902038
C  C42  1  0.65780000  0.92020000  0.75460000  1.0 -0.2453776705
C  C43  1  0.07120000  0.45930000  0.27150000  1.0 -0.175459901
C  C44  1  0.82420000  0.93480000  0.83820000  1.0 -0.1986858862
C  C45  1  0.06870000  0.40410000  0.26560000  1.0 -0.175459901
C  C46  1  0.20380000  0.40960000  0.21050000  1.0 -0.2292196746
C  C47  1  0.63180000  0.29190000  0.28820000  1.0 -0.1404627718
C  C48  1  0.16150000  0.33460000  0.15890000  1.0 0.0105739968
C  C49  1  0.63180000  0.30650000  0.24270000  1.0 -0.1532694804
C  C50  1  0.63900000  0.25600000  0.24340000  1.0 -0.0122578333
C  C51  1  0.05710000  0.88970000  0.62670000  1.0 -0.469265687
C  C52  1  0.25730000  0.03550000  0.04300000  1.0 -0.4412634103
C  C53  1  0.07840000  0.81190000  0.88060000  1.0 -0.469265687
C  C54  1  0.03830000  0.82730000  0.88370000  1.0 0.0299156294
C  C55  1  0.30190000  0.14990000  0.80090000  1.0 0.0299156294
C  C56  1  0.33160000  0.08970000  0.92170000  1.0 -0.478352074
C  C57  1  0.23550000  0.87670000  0.66800000  1.0 0.04743918
C  C58  1  0.01340000  0.72420000  0.66520000  1.0 0.04743918
C  C59  1  0.24820000  0.09360000  0.77380000  1.0 -0.432919908
C  C60  1  0.01060000  0.12350000  0.56870000  1.0 -0.469265687
C  C61  1  0.13790000  0.04200000  0.58320000  1.0 -0.432919908
C  C62  1  0.07410000  0.74910000  0.69120000  1.0 -0.432919908
C  C63  1  0.97750000  0.14820000  0.55550000  1.0 0.0580017217
C  C64  1  0.36710000  0.14240000  0.98230000  1.0 0.0105739968
C  C65  1  0.00800000  0.82820000  0.58130000  1.0 0.04743918
C  C66  1  0.29200000  0.09280000  0.09290000  1.0 0.04743918
C  C67  1  0.23120000  0.24890000  0.73330000  1.0 -0.432919908
C  C68  1  0.94510000  0.75350000  0.52330000  1.0 0.0299156294
C  C69  1  0.23840000  0.91260000  0.72160000  1.0 -0.4879515998
C  C70  1  0.18240000  0.03590000  0.58110000  1.0 0.0389135323
C  C71  1  0.25180000  0.78360000  0.60050000  1.0 -0.1986858862
C  C72  1  0.99020000  0.84630000  0.88820000  1.0 0.0105739968
C  C73  1  0.92950000  0.17690000  0.53340000  1.0 0.0299156294
C  C74  1  0.17970000  0.76020000  0.55350000  1.0 -0.1986858862
C  C75  1  0.23530000  0.83670000  0.60560000  1.0 0.0299156294
C  C76  1  0.37000000  0.21900000  0.83740000  1.0 0.0105739968
C  C77  1  0.99290000  0.90650000  0.88260000  1.0 -0.1986858862
C  C78  1  0.24580000  0.24960000  0.69370000  1.0 -0.0029300516
C  C79  1  0.27900000  0.01620000  0.62390000  1.0 -0.1912902038
C  C80  1  0.23690000  0.02730000  0.57510000  1.0 0.0105739968
C  C81  1  0.89420000  0.74110000  0.45640000  1.0 -0.1912902038
C  C82  1  0.93880000  0.69110000  0.63130000  1.0 -0.0122578333
C  C83  1  0.43080000  0.23820000  0.89810000  1.0 -0.1986858862
C  C84  1  0.39680000  0.28150000  0.90590000  1.0 -0.2292196746
C  C85  1  0.31420000  0.08680000  0.63600000  1.0 -0.2095752108
C  C86  1  0.40990000  0.20590000  0.05600000  1.0 0.0105739968
C  C87  1  0.91230000  0.20840000  0.58120000  1.0 -0.2095752108
C  C88  1  0.87190000  0.73610000  0.50110000  1.0 -0.2095752108
C  C89  1  0.34080000  0.21910000  0.17610000  1.0 -0.2095752108
C  C90  1  0.91120000  0.70100000  0.67870000  1.0 -0.2095752108
C  C91  1  0.96760000  0.25560000  0.57770000  1.0 -0.1912902038
C  C92  1  0.92020000  0.75460000  0.65780000  1.0 -0.2453776705
C  C93  1  0.45930000  0.27150000  0.07120000  1.0 -0.175459901
C  C94  1  0.93480000  0.83820000  0.82420000  1.0 -0.1986858862
C  C95  1  0.40410000  0.26560000  0.06870000  1.0 -0.175459901
C  C96  1  0.40960000  0.21050000  0.20380000  1.0 -0.2292196746
C  C97  1  0.29190000  0.28820000  0.63180000  1.0 -0.1404627718
C  C98  1  0.33460000  0.15890000  0.16150000  1.0 0.0105739968
C  C99  1  0.30650000  0.24270000  0.63180000  1.0 -0.1532694804
C  C100  1  0.25600000  0.24340000  0.63900000  1.0 -0.0122578333
C  C101  1  0.88970000  0.62670000  0.05710000  1.0 -0.478352074
C  C102  1  0.03550000  0.04300000  0.25730000  1.0 -0.4412634103
C  C103  1  0.81190000  0.88060000  0.07840000  1.0 -0.469265687
C  C104  1  0.82730000  0.88370000  0.03830000  1.0 0.0299156294
C  C105  1  0.14990000  0.80090000  0.30190000  1.0 0.0299156294
C  C106  1  0.08970000  0.92170000  0.33160000  1.0 -0.478352074
C  C107  1  0.87670000  0.66800000  0.23550000  1.0 0.04743918
C  C108  1  0.72420000  0.66520000  0.01340000  1.0 0.04743918
C  C109  1  0.09360000  0.77380000  0.24820000  1.0 -0.432919908
C  C110  1  0.12350000  0.56870000  0.01060000  1.0 -0.469265687
C  C111  1  0.04200000  0.58320000  0.13790000  1.0 -0.432919908
C  C112  1  0.74910000  0.69120000  0.07410000  1.0 -0.432919908
C  C113  1  0.14820000  0.55550000  0.97750000  1.0 0.0580017217
C  C114  1  0.14240000  0.98230000  0.36710000  1.0 0.0159346603
C  C115  1  0.82820000  0.58130000  0.00800000  1.0 0.04743918
C  C116  1  0.09280000  0.09290000  0.29200000  1.0 0.04743918
C  C117  1  0.24890000  0.73330000  0.23120000  1.0 -0.432919908
C  C118  1  0.75350000  0.52330000  0.94510000  1.0 0.0299156294
C  C119  1  0.91260000  0.72160000  0.23840000  1.0 -0.4879515998
C  C120  1  0.03590000  0.58110000  0.18240000  1.0 0.0389135323
C  C121  1  0.78360000  0.60050000  0.25180000  1.0 -0.1986858862
C  C122  1  0.84630000  0.88820000  0.99020000  1.0 0.0105739968
C  C123  1  0.17690000  0.53340000  0.92950000  1.0 0.0299156294
C  C124  1  0.76020000  0.55350000  0.17970000  1.0 -0.1986858862
C  C125  1  0.83670000  0.60560000  0.23530000  1.0 0.0299156294
C  C126  1  0.21900000  0.83740000  0.37000000  1.0 0.0105739968
C  C127  1  0.90650000  0.88260000  0.99290000  1.0 -0.1986858862
C  C128  1  0.24960000  0.69370000  0.24580000  1.0 -0.0029300516
C  C129  1  0.01620000  0.62390000  0.27900000  1.0 -0.1912902038
C  C130  1  0.02730000  0.57510000  0.23690000  1.0 0.0105739968
C  C131  1  0.74110000  0.45640000  0.89420000  1.0 -0.1912902038
C  C132  1  0.69110000  0.63130000  0.93880000  1.0 -0.0122578333
C  C133  1  0.23820000  0.89810000  0.43080000  1.0 -0.1986858862
C  C134  1  0.28150000  0.90590000  0.39680000  1.0 -0.2292196746
C  C135  1  0.08680000  0.63600000  0.31420000  1.0 -0.2095752108
C  C136  1  0.20590000  0.05600000  0.40990000  1.0 0.0105739968
C  C137  1  0.20840000  0.58120000  0.91230000  1.0 -0.2095752108
C  C138  1  0.73610000  0.50110000  0.87190000  1.0 -0.2095752108
C  C139  1  0.21910000  0.17610000  0.34080000  1.0 -0.2095752108
C  C140  1  0.70100000  0.67870000  0.91120000  1.0 -0.2095752108
C  C141  1  0.25560000  0.57770000  0.96760000  1.0 -0.1912902038
C  C142  1  0.75460000  0.65780000  0.92020000  1.0 -0.2453776705
C  C143  1  0.27150000  0.07120000  0.45930000  1.0 -0.175459901
C  C144  1  0.83820000  0.82420000  0.93480000  1.0 -0.1986858862
C  C145  1  0.26560000  0.06870000  0.40410000  1.0 -0.175459901
C  C146  1  0.21050000  0.20380000  0.40960000  1.0 -0.2292196746
C  C147  1  0.28820000  0.63180000  0.29190000  1.0 -0.1404627718
C  C148  1  0.15890000  0.16150000  0.33460000  1.0 0.0105739968
C  C149  1  0.24270000  0.63180000  0.30650000  1.0 -0.1532694804
C  C150  1  0.24340000  0.63900000  0.25600000  1.0 -0.0122578333
C  C151  1  0.37330000  0.94290000  0.11030000  1.0 -0.469265687
C  C152  1  0.95700000  0.74270000  0.96450000  1.0 -0.4412634103
C  C153  1  0.11940000  0.92160000  0.18810000  1.0 -0.469265687
C  C154  1  0.11630000  0.96170000  0.17270000  1.0 0.0299156294
C  C155  1  0.19910000  0.69810000  0.85010000  1.0 0.0299156294
C  C156  1  0.07830000  0.66840000  0.91030000  1.0 -0.478352074
C  C157  1  0.33200000  0.76450000  0.12330000  1.0 0.04743918
C  C158  1  0.33480000  0.98660000  0.27580000  1.0 0.04743918
C  C159  1  0.22620000  0.75180000  0.90640000  1.0 -0.432919908
C  C160  1  0.43130000  0.98940000  0.87650000  1.0 -0.469265687
C  C161  1  0.41680000  0.86210000  0.95800000  1.0 -0.432919908
C  C162  1  0.30880000  0.92590000  0.25090000  1.0 -0.432919908
C  C163  1  0.44450000  0.02250000  0.85180000  1.0 0.0580017217
C  C164  1  0.01770000  0.63290000  0.85760000  1.0 0.0105739968
C  C165  1  0.41870000  0.99200000  0.17180000  1.0 0.04743918
C  C166  1  0.90710000  0.70800000  0.90720000  1.0 0.04743918
C  C167  1  0.26670000  0.76880000  0.75110000  1.0 -0.432919908
C  C168  1  0.47670000  0.05490000  0.24650000  1.0 0.0299156294
C  C169  1  0.27840000  0.76160000  0.08740000  1.0 -0.4879515998
C  C170  1  0.41890000  0.81760000  0.96410000  1.0 0.0389135323
C  C171  1  0.39950000  0.74820000  0.21640000  1.0 -0.1986858862
C  C172  1  0.11180000  0.00980000  0.15370000  1.0 0.0105739968
C  C173  1  0.46660000  0.07050000  0.82310000  1.0 0.0299156294
C  C174  1  0.44650000  0.82030000  0.23980000  1.0 -0.1986858862
C  C175  1  0.39440000  0.76470000  0.16330000  1.0 0.0299156294
C  C176  1  0.16260000  0.63000000  0.78100000  1.0 0.0105739968
C  C177  1  0.11740000  0.00710000  0.09350000  1.0 -0.1986858862
C  C178  1  0.30630000  0.75420000  0.75040000  1.0 -0.0029300516
C  C179  1  0.37610000  0.72100000  0.98380000  1.0 -0.1912902038
C  C180  1  0.42490000  0.76310000  0.97270000  1.0 0.0105739968
C  C181  1  0.54360000  0.10580000  0.25890000  1.0 -0.1912902038
C  C182  1  0.36870000  0.06120000  0.30890000  1.0 -0.0122578333
C  C183  1  0.10190000  0.56920000  0.76180000  1.0 -0.1986858862
C  C184  1  0.09410000  0.60320000  0.71850000  1.0 -0.2292196746
C  C185  1  0.36400000  0.68580000  0.91320000  1.0 -0.2095752108
C  C186  1  0.94400000  0.59010000  0.79410000  1.0 0.0105739968
C  C187  1  0.41880000  0.08770000  0.79160000  1.0 -0.2095752108
C  C188  1  0.49890000  0.12810000  0.26390000  1.0 -0.2095752108
C  C189  1  0.82390000  0.65920000  0.78090000  1.0 -0.2095752108
C  C190  1  0.32130000  0.08880000  0.29900000  1.0 -0.2095752108
C  C191  1  0.42230000  0.03240000  0.74440000  1.0 -0.1912902038
C  C192  1  0.34220000  0.07980000  0.24540000  1.0 -0.2453776705
C  C193  1  0.92880000  0.54070000  0.72850000  1.0 -0.175459901
C  C194  1  0.17580000  0.06520000  0.16180000  1.0 -0.1986858862
C  C195  1  0.93130000  0.59590000  0.73440000  1.0 -0.175459901
C  C196  1  0.79620000  0.59040000  0.78950000  1.0 -0.2292196746
C  C197  1  0.36820000  0.70810000  0.71180000  1.0 -0.1404627718
C  C198  1  0.83850000  0.66540000  0.84110000  1.0 0.0105739968
C  C199  1  0.36820000  0.69350000  0.75730000  1.0 -0.1532694804
C  C200  1  0.36100000  0.74400000  0.75660000  1.0 -0.0122578333
C  C201  1  0.94290000  0.11030000  0.37330000  1.0 -0.469265687
C  C202  1  0.74270000  0.96450000  0.95700000  1.0 -0.4412634103
C  C203  1  0.92160000  0.18810000  0.11940000  1.0 -0.469265687
C  C204  1  0.96170000  0.17270000  0.11630000  1.0 0.0299156294
C  C205  1  0.69810000  0.85010000  0.19910000  1.0 0.0299156294
C  C206  1  0.66840000  0.91030000  0.07830000  1.0 -0.478352074
C  C207  1  0.76450000  0.12330000  0.33200000  1.0 0.04743918
C  C208  1  0.98660000  0.27580000  0.33480000  1.0 0.04743918
C  C209  1  0.75180000  0.90640000  0.22620000  1.0 -0.4412634103
C  C210  1  0.98940000  0.87650000  0.43130000  1.0 -0.469265687
C  C211  1  0.86210000  0.95800000  0.41680000  1.0 -0.432919908
C  C212  1  0.92590000  0.25090000  0.30880000  1.0 -0.432919908
C  C213  1  0.02250000  0.85180000  0.44450000  1.0 0.0580017217
C  C214  1  0.63290000  0.85760000  0.01770000  1.0 0.0159346603
C  C215  1  0.99200000  0.17180000  0.41870000  1.0 0.04743918
C  C216  1  0.70800000  0.90720000  0.90710000  1.0 0.04743918
C  C217  1  0.76880000  0.75110000  0.26670000  1.0 -0.432919908
C  C218  1  0.05490000  0.24650000  0.47670000  1.0 0.0299156294
C  C219  1  0.76160000  0.08740000  0.27840000  1.0 -0.4879515998
C  C220  1  0.81760000  0.96410000  0.41890000  1.0 0.0389135323
C  C221  1  0.74820000  0.21640000  0.39950000  1.0 -0.1986858862
C  C222  1  0.00980000  0.15370000  0.11180000  1.0 0.0105739968
C  C223  1  0.07050000  0.82310000  0.46660000  1.0 0.0299156294
C  C224  1  0.82030000  0.23980000  0.44650000  1.0 -0.1986858862
C  C225  1  0.76470000  0.16330000  0.39440000  1.0 0.0299156294
C  C226  1  0.63000000  0.78100000  0.16260000  1.0 0.0105739968
C  C227  1  0.00710000  0.09350000  0.11740000  1.0 -0.1986858862
C  C228  1  0.75420000  0.75040000  0.30630000  1.0 -0.0029300516
C  C229  1  0.72100000  0.98380000  0.37610000  1.0 -0.1912902038
C  C230  1  0.76310000  0.97270000  0.42490000  1.0 0.0105739968
C  C231  1  0.10580000  0.25890000  0.54360000  1.0 -0.1912902038
C  C232  1  0.06120000  0.30890000  0.36870000  1.0 -0.0122578333
C  C233  1  0.56920000  0.76180000  0.10190000  1.0 -0.1986858862
C  C234  1  0.60320000  0.71850000  0.09410000  1.0 -0.2292196746
C  C235  1  0.68580000  0.91320000  0.36400000  1.0 -0.2095752108
C  C236  1  0.59010000  0.79410000  0.94400000  1.0 0.0105739968
C  C237  1  0.08770000  0.79160000  0.41880000  1.0 -0.2095752108
C  C238  1  0.12810000  0.26390000  0.49890000  1.0 -0.2095752108
C  C239  1  0.65920000  0.78090000  0.82390000  1.0 -0.2095752108
C  C240  1  0.08880000  0.29900000  0.32130000  1.0 -0.2095752108
C  C241  1  0.03240000  0.74440000  0.42230000  1.0 -0.1912902038
C  C242  1  0.07980000  0.24540000  0.34220000  1.0 -0.2453776705
C  C243  1  0.54070000  0.72850000  0.92880000  1.0 -0.175459901
C  C244  1  0.06520000  0.16180000  0.17580000  1.0 -0.1986858862
C  C245  1  0.59590000  0.73440000  0.93130000  1.0 -0.175459901
C  C246  1  0.59040000  0.78950000  0.79620000  1.0 -0.2292196746
C  C247  1  0.70810000  0.71180000  0.36820000  1.0 -0.1404627718
C  C248  1  0.66540000  0.84110000  0.83850000  1.0 0.0105739968
C  C249  1  0.69350000  0.75730000  0.36820000  1.0 -0.1532694804
C  C250  1  0.74400000  0.75660000  0.36100000  1.0 -0.0122578333
C  C251  1  0.11030000  0.37330000  0.94290000  1.0 -0.469265687
C  C252  1  0.96450000  0.95700000  0.74270000  1.0 -0.4412634103
C  C253  1  0.18810000  0.11940000  0.92160000  1.0 -0.469265687
C  C254  1  0.17270000  0.11630000  0.96170000  1.0 0.0299156294
C  C255  1  0.85010000  0.19910000  0.69810000  1.0 0.0299156294
C  C256  1  0.91030000  0.07830000  0.66840000  1.0 -0.478352074
C  C257  1  0.12330000  0.33200000  0.76450000  1.0 0.04743918
C  C258  1  0.27580000  0.33480000  0.98660000  1.0 0.04743918
C  C259  1  0.90640000  0.22620000  0.75180000  1.0 -0.432919908
C  C260  1  0.87650000  0.43130000  0.98940000  1.0 -0.469265687
C  C261  1  0.95800000  0.41680000  0.86210000  1.0 -0.432919908
C  C262  1  0.25090000  0.30880000  0.92590000  1.0 -0.432919908
C  C263  1  0.85180000  0.44450000  0.02250000  1.0 0.0580017217
C  C264  1  0.85760000  0.01770000  0.63290000  1.0 0.0159346603
C  C265  1  0.17180000  0.41870000  0.99200000  1.0 0.04743918
C  C266  1  0.90720000  0.90710000  0.70800000  1.0 0.04743918
C  C267  1  0.75110000  0.26670000  0.76880000  1.0 -0.432919908
C  C268  1  0.24650000  0.47670000  0.05490000  1.0 0.0299156294
C  C269  1  0.08740000  0.27840000  0.76160000  1.0 -0.4879515998
C  C270  1  0.96410000  0.41890000  0.81760000  1.0 0.0389135323
C  C271  1  0.21640000  0.39950000  0.74820000  1.0 -0.1986858862
C  C272  1  0.15370000  0.11180000  0.00980000  1.0 0.0105739968
C  C273  1  0.82310000  0.46660000  0.07050000  1.0 0.0299156294
C  C274  1  0.23980000  0.44650000  0.82030000  1.0 -0.1986858862
C  C275  1  0.16330000  0.39440000  0.76470000  1.0 0.0299156294
C  C276  1  0.78100000  0.16260000  0.63000000  1.0 0.0105739968
C  C277  1  0.09350000  0.11740000  0.00710000  1.0 -0.1986858862
C  C278  1  0.75040000  0.30630000  0.75420000  1.0 -0.0029300516
C  C279  1  0.98380000  0.37610000  0.72100000  1.0 -0.1912902038
C  C280  1  0.97270000  0.42490000  0.76310000  1.0 0.0105739968
C  C281  1  0.25890000  0.54360000  0.10580000  1.0 -0.1912902038
C  C282  1  0.30890000  0.36870000  0.06120000  1.0 -0.0122578333
C  C283  1  0.76180000  0.10190000  0.56920000  1.0 -0.1986858862
C  C284  1  0.71850000  0.09410000  0.60320000  1.0 -0.2292196746
C  C285  1  0.91320000  0.36400000  0.68580000  1.0 -0.2095752108
C  C286  1  0.79410000  0.94400000  0.59010000  1.0 0.0105739968
C  C287  1  0.79160000  0.41880000  0.08770000  1.0 -0.2095752108
C  C288  1  0.26390000  0.49890000  0.12810000  1.0 -0.2095752108
C  C289  1  0.78090000  0.82390000  0.65920000  1.0 -0.2095752108
C  C290  1  0.29900000  0.32130000  0.08880000  1.0 -0.2095752108
C  C291  1  0.74440000  0.42230000  0.03240000  1.0 -0.1912902038
C  C292  1  0.24540000  0.34220000  0.07980000  1.0 -0.2453776705
C  C293  1  0.72850000  0.92880000  0.54070000  1.0 -0.175459901
C  C294  1  0.16180000  0.17580000  0.06520000  1.0 -0.1986858862
C  C295  1  0.73440000  0.93130000  0.59590000  1.0 -0.175459901
C  C296  1  0.78950000  0.79620000  0.59040000  1.0 -0.2292196746
C  C297  1  0.71180000  0.36820000  0.70810000  1.0 -0.1404627718
C  C298  1  0.84110000  0.83850000  0.66540000  1.0 0.0105739968
C  C299  1  0.75730000  0.36820000  0.69350000  1.0 -0.1532694804
C  C300  1  0.75660000  0.36100000  0.74400000  1.0 -0.0122578333
C  C301  1  0.39160000  0.83820000  0.43150000  1.0 -0.0996534161
C  C302  1  0.43520000  0.85950000  0.40920000  1.0 -0.1676326625
C  C303  1  0.50570000  0.91830000  0.45900000  1.0 0.1939929269
C  C304  1  0.53230000  0.95550000  0.53080000  1.0 -0.1532694804
C  C305  1  0.48880000  0.93430000  0.55320000  1.0 -0.0934749899
C  C306  1  0.41890000  0.87610000  0.50400000  1.0 -0.1143425636
C  C307  1  0.55330000  0.93960000  0.42760000  1.0 -0.4879515998
C  C308  1  0.43150000  0.39160000  0.83820000  1.0 -0.0996534161
C  C309  1  0.40920000  0.43520000  0.85950000  1.0 -0.1676326625
C  C310  1  0.45900000  0.50570000  0.91830000  1.0 0.1939929269
C  C311  1  0.53080000  0.53230000  0.95550000  1.0 -0.1532694804
C  C312  1  0.55320000  0.48880000  0.93430000  1.0 -0.0934749899
C  C313  1  0.50400000  0.41890000  0.87610000  1.0 -0.1143425636
C  C314  1  0.42760000  0.55330000  0.93960000  1.0 -0.4879515998
C  C315  1  0.83820000  0.43150000  0.39160000  1.0 -0.0996534161
C  C316  1  0.85950000  0.40920000  0.43520000  1.0 -0.1676326625
C  C317  1  0.91830000  0.45900000  0.50570000  1.0 0.1939929269
C  C318  1  0.95550000  0.53080000  0.53230000  1.0 -0.1532694804
C  C319  1  0.93430000  0.55320000  0.48880000  1.0 -0.0934749899
C  C320  1  0.87610000  0.50400000  0.41890000  1.0 -0.1143425636
C  C321  1  0.93960000  0.42760000  0.55330000  1.0 -0.4879515998
C  C322  1  0.60840000  0.16180000  0.56850000  1.0 -0.0996534161
C  C323  1  0.56480000  0.14050000  0.59080000  1.0 -0.1676326625
C  C324  1  0.49430000  0.08170000  0.54100000  1.0 0.1939929269
C  C325  1  0.46770000  0.04450000  0.46920000  1.0 -0.1532694804
C  C326  1  0.51120000  0.06570000  0.44680000  1.0 -0.0934749899
C  C327  1  0.58110000  0.12390000  0.49600000  1.0 -0.1150325321
C  C328  1  0.44670000  0.06040000  0.57240000  1.0 -0.4879515998
C  C329  1  0.56850000  0.60840000  0.16180000  1.0 -0.0996534161
C  C330  1  0.59080000  0.56480000  0.14050000  1.0 -0.1676326625
C  C331  1  0.54100000  0.49430000  0.08170000  1.0 0.1939929269
C  C332  1  0.46920000  0.46770000  0.04450000  1.0 -0.1532694804
C  C333  1  0.44680000  0.51120000  0.06570000  1.0 -0.0934749899
C  C334  1  0.49600000  0.58110000  0.12390000  1.0 -0.1150325321
C  C335  1  0.57240000  0.44670000  0.06040000  1.0 -0.4879515998
C  C336  1  0.16180000  0.56850000  0.60840000  1.0 -0.0996534161
C  C337  1  0.14050000  0.59080000  0.56480000  1.0 -0.1676326625
C  C338  1  0.08170000  0.54100000  0.49430000  1.0 0.1939929269
C  C339  1  0.04450000  0.46920000  0.46770000  1.0 -0.1532694804
C  C340  1  0.06570000  0.44680000  0.51120000  1.0 -0.0934749899
C  C341  1  0.12390000  0.49600000  0.58110000  1.0 -0.1150325321
C  C342  1  0.06040000  0.57240000  0.44670000  1.0 -0.4879515998
S  S1  1  0.36550000  0.85370000  0.53540000  1.0 1.17773426
S  S2  1  0.53540000  0.36550000  0.85370000  1.0 1.17773426
S  S3  1  0.85370000  0.53540000  0.36550000  1.0 1.17773426
S  S4  1  0.63450000  0.14630000  0.46460000  1.0 1.17773426
S  S5  1  0.46460000  0.63450000  0.14630000  1.0 1.17773426
S  S6  1  0.14630000  0.46460000  0.63450000  1.0 1.17773426
Cl  Cl1  1  0.81395000  0.12285000  0.93586000  1.0 -0.5226418532
Cl  Cl2  1  0.90059000  0.26733000  0.90967000  1.0 -0.5667263625
Cl  Cl3  1  0.55121000  0.92277000  0.92267000  1.0 -0.478352074
Cl  Cl4  1  0.12285000  0.93586000  0.81395000  1.0 -0.5226418532
Cl  Cl5  1  0.26733000  0.90967000  0.90059000  1.0 -0.5667263625
Cl  Cl6  1  0.92277000  0.92267000  0.55121000  1.0 -0.478352074
Cl  Cl7  1  0.93586000  0.81395000  0.12285000  1.0 -0.5226418532
Cl  Cl8  1  0.90967000  0.90059000  0.26733000  1.0 -0.5667263625
Cl  Cl9  1  0.92267000  0.55121000  0.92277000  1.0 -0.478352074
Cl  Cl10  1  0.18605000  0.87715000  0.06414000  1.0 -0.5226418532
Cl  Cl11  1  0.09941000  0.73267000  0.09033000  1.0 -0.5667263625
Cl  Cl12  1  0.44879000  0.07723000  0.07733000  1.0 -0.478352074
Cl  Cl13  1  0.87715000  0.06414000  0.18605000  1.0 -0.5226418532
Cl  Cl14  1  0.73267000  0.09033000  0.09941000  1.0 -0.5667263625
Cl  Cl15  1  0.07723000  0.07733000  0.44879000  1.0 -0.478352074
Cl  Cl16  1  0.06414000  0.18605000  0.87715000  1.0 -0.5226418532
Cl  Cl17  1  0.09033000  0.09941000  0.73267000  1.0 -0.5667263625
Cl  Cl18  1  0.07733000  0.44879000  0.07723000  1.0 -0.478352074
O  O1  1  0.28650000  0.78050000  0.46830000  1.0 -0.6510656037
O  O2  1  0.36640000  0.91930000  0.57870000  1.0 -0.6172048904
O  O3  1  0.40190000  0.82780000  0.57470000  1.0 -0.6025179781
O  O4  1  0.46830000  0.28650000  0.78050000  1.0 -0.6510656037
O  O5  1  0.57870000  0.36640000  0.91930000  1.0 -0.6172048904
O  O6  1  0.57470000  0.40190000  0.82780000  1.0 -0.6025179781
O  O7  1  0.78050000  0.46830000  0.28650000  1.0 -0.6510656037
O  O8  1  0.91930000  0.57870000  0.36640000  1.0 -0.6172048904
O  O9  1  0.82780000  0.57470000  0.40190000  1.0 -0.6025179781
O  O10  1  0.71350000  0.21950000  0.53170000  1.0 -0.6510656037
O  O11  1  0.63360000  0.08070000  0.42130000  1.0 -0.6172048904
O  O12  1  0.59810000  0.17220000  0.42530000  1.0 -0.6025179781
O  O13  1  0.53170000  0.71350000  0.21950000  1.0 -0.6510656037
O  O14  1  0.42130000  0.63360000  0.08070000  1.0 -0.6172048904
O  O15  1  0.42530000  0.59810000  0.17220000  1.0 -0.6025179781
O  O16  1  0.21950000  0.53170000  0.71350000  1.0 -0.6510656037
O  O17  1  0.08070000  0.42130000  0.63360000  1.0 -0.6172048904
O  O18  1  0.17220000  0.42530000  0.59810000  1.0 -0.6025179781
