# DDEC6 charges by PACMAN v1.1 (https://github.com/mtap-research/PACMAN-charge/)
data_HEJYOO_ASR_pacman
_symmetry_space_group_name_H-M   'P 1'
_cell_length_a   16.77140000
_cell_length_b   16.77140000
_cell_length_c   14.46870000
_cell_angle_alpha   90.00000000
_cell_angle_beta   90.00000000
_cell_angle_gamma   120.00000000
_symmetry_Int_Tables_number   1
_chemical_formula_structural   Zn3Cr3H54C78N6O25
_chemical_formula_sum   'Zn3 Cr3 H54 C78 N6 O25'
_cell_volume   3524.51024798
_cell_formula_units_Z   1
loop_
 _symmetry_equiv_pos_site_id
 _symmetry_equiv_pos_as_xyz
  1  'x, y, z'
loop_
 _atom_site_type_symbol
 _atom_site_label
 _atom_site_symmetry_multiplicity
 _atom_site_fract_x
 _atom_site_fract_y
 _atom_site_fract_z
 _atom_site_occupancy
 _atom_site_charge
Zn  Zn1  1  0.00000000  0.34512000  0.00000000  1.0 0.6513419845
Zn  Zn2  1  0.34512000  0.00000000  0.00000000  1.0 0.6513419845
Zn  Zn3  1  0.65488000  0.65488000  0.00000000  1.0 0.6513419845
Cr  Cr1  1  0.88514000  0.00000000  0.50000000  1.0 1.4121886589
Cr  Cr2  1  0.11486000  0.11486000  0.50000000  1.0 1.4162155487
Cr  Cr3  1  0.00000000  0.88514000  0.50000000  1.0 1.4121886589
H  H1  1  0.12700000  0.29780000  0.10760000  1.0 0.0826132366
H  H2  1  0.13000000  0.23540000  0.24850000  1.0 0.1096229358
H  H3  1  0.87250000  0.18420000  0.29370000  1.0 0.1096229358
H  H4  1  0.87310000  0.24470000  0.15960000  1.0 0.0826132366
H  H5  1  0.17080000  0.87300000  0.10760000  1.0 0.0826132366
H  H6  1  0.10540000  0.87000000  0.24850000  1.0 0.1096229358
H  H7  1  0.31170000  0.12750000  0.29370000  1.0 0.1096229358
H  H8  1  0.37160000  0.12690000  0.15960000  1.0 0.0826132366
H  H9  1  0.70220000  0.82920000  0.10760000  1.0 0.0826132366
H  H10  1  0.76460000  0.89460000  0.24850000  1.0 0.1096229358
H  H11  1  0.81580000  0.68830000  0.29370000  1.0 0.1096229358
H  H12  1  0.75530000  0.62840000  0.15960000  1.0 0.0826132366
H  H13  1  0.12700000  0.29780000  0.89240000  1.0 0.0826132366
H  H14  1  0.13000000  0.23540000  0.75150000  1.0 0.1096229358
H  H15  1  0.87250000  0.18420000  0.70630000  1.0 0.1096229358
H  H16  1  0.87310000  0.24470000  0.84040000  1.0 0.0826132366
H  H17  1  0.17080000  0.87300000  0.89240000  1.0 0.0826132366
H  H18  1  0.10540000  0.87000000  0.75150000  1.0 0.1096229358
H  H19  1  0.31170000  0.12750000  0.70630000  1.0 0.1096229358
H  H20  1  0.37160000  0.12690000  0.84040000  1.0 0.0826132366
H  H21  1  0.70220000  0.82920000  0.89240000  1.0 0.0826132366
H  H22  1  0.76460000  0.89460000  0.75150000  1.0 0.1096229358
H  H23  1  0.81580000  0.68830000  0.70630000  1.0 0.1096229358
H  H24  1  0.75530000  0.62840000  0.84040000  1.0 0.0826132366
H  H25  1  0.82920000  0.70220000  0.89240000  1.0 0.0826132366
H  H26  1  0.89460000  0.76460000  0.75150000  1.0 0.1096229358
H  H27  1  0.68830000  0.81580000  0.70630000  1.0 0.1096229358
H  H28  1  0.62840000  0.75530000  0.84040000  1.0 0.0826132366
H  H29  1  0.29780000  0.12700000  0.89240000  1.0 0.0826132366
H  H30  1  0.23540000  0.13000000  0.75150000  1.0 0.1096229358
H  H31  1  0.18420000  0.87250000  0.70630000  1.0 0.1096229358
H  H32  1  0.24470000  0.87310000  0.84040000  1.0 0.0826132366
H  H33  1  0.87300000  0.17080000  0.89240000  1.0 0.0826132366
H  H34  1  0.87000000  0.10540000  0.75150000  1.0 0.1096229358
H  H35  1  0.12750000  0.31170000  0.70630000  1.0 0.1096229358
H  H36  1  0.12690000  0.37160000  0.84040000  1.0 0.0826132366
H  H37  1  0.82920000  0.70220000  0.10760000  1.0 0.0826132366
H  H38  1  0.89460000  0.76460000  0.24850000  1.0 0.1096229358
H  H39  1  0.68830000  0.81580000  0.29370000  1.0 0.1096229358
H  H40  1  0.62840000  0.75530000  0.15960000  1.0 0.0826132366
H  H41  1  0.29780000  0.12700000  0.10760000  1.0 0.0826132366
H  H42  1  0.23540000  0.13000000  0.24850000  1.0 0.1096229358
H  H43  1  0.18420000  0.87250000  0.29370000  1.0 0.1096229358
H  H44  1  0.24470000  0.87310000  0.15960000  1.0 0.0826132366
H  H45  1  0.87300000  0.17080000  0.10760000  1.0 0.0826132366
H  H46  1  0.87000000  0.10540000  0.24850000  1.0 0.1096229358
H  H47  1  0.12750000  0.31170000  0.29370000  1.0 0.1096229358
H  H48  1  0.12690000  0.37160000  0.15960000  1.0 0.0826132366
H  H49  1  0.81640000  0.45580000  0.00000000  1.0 0.1323037245
H  H50  1  0.63940000  0.18360000  0.00000000  1.0 0.1323037245
H  H51  1  0.54420000  0.36060000  0.00000000  1.0 0.1323037245
H  H52  1  0.36060000  0.54420000  0.00000000  1.0 0.1323037245
H  H53  1  0.45580000  0.81640000  0.00000000  1.0 0.1323037245
H  H54  1  0.18360000  0.63940000  0.00000000  1.0 0.1323037245
C  C1  1  0.07450000  0.27440000  0.14650000  1.0 0.0066528189
C  C2  1  0.07580000  0.23520000  0.22890000  1.0 -0.0892885733
C  C3  1  0.92480000  0.20580000  0.25460000  1.0 -0.0701046334
C  C4  1  0.92680000  0.24310000  0.17740000  1.0 0.0215857213
C  C5  1  0.19990000  0.92550000  0.14650000  1.0 0.0066528189
C  C6  1  0.15940000  0.92420000  0.22890000  1.0 -0.0892885733
C  C7  1  0.28100000  0.07520000  0.25460000  1.0 -0.0701046334
C  C8  1  0.31630000  0.07320000  0.17740000  1.0 0.0215857213
C  C9  1  0.72560000  0.80010000  0.14650000  1.0 0.0066528189
C  C10  1  0.76480000  0.84060000  0.22890000  1.0 -0.0892885733
C  C11  1  0.79420000  0.71900000  0.25460000  1.0 -0.0701046334
C  C12  1  0.75690000  0.68370000  0.17740000  1.0 0.0215857213
C  C13  1  0.07450000  0.27440000  0.85350000  1.0 0.0066528189
C  C14  1  0.07580000  0.23520000  0.77110000  1.0 -0.0892885733
C  C15  1  0.92480000  0.20580000  0.74540000  1.0 -0.0701046334
C  C16  1  0.92680000  0.24310000  0.82260000  1.0 0.0215857213
C  C17  1  0.19990000  0.92550000  0.85350000  1.0 0.0066528189
C  C18  1  0.15940000  0.92420000  0.77110000  1.0 -0.0892885733
C  C19  1  0.28100000  0.07520000  0.74540000  1.0 -0.0701046334
C  C20  1  0.31630000  0.07320000  0.82260000  1.0 0.0215857213
C  C21  1  0.72560000  0.80010000  0.85350000  1.0 0.0066528189
C  C22  1  0.76480000  0.84060000  0.77110000  1.0 -0.0892885733
C  C23  1  0.79420000  0.71900000  0.74540000  1.0 -0.0701046334
C  C24  1  0.75690000  0.68370000  0.82260000  1.0 0.0215857213
C  C25  1  0.80010000  0.72560000  0.85350000  1.0 0.0066528189
C  C26  1  0.84060000  0.76480000  0.77110000  1.0 -0.0892885733
C  C27  1  0.71900000  0.79420000  0.74540000  1.0 -0.0701046334
C  C28  1  0.68370000  0.75690000  0.82260000  1.0 0.0215857213
C  C29  1  0.27440000  0.07450000  0.85350000  1.0 0.0066528189
C  C30  1  0.23520000  0.07580000  0.77110000  1.0 -0.0892885733
C  C31  1  0.20580000  0.92480000  0.74540000  1.0 -0.0701046334
C  C32  1  0.24310000  0.92680000  0.82260000  1.0 0.0215857213
C  C33  1  0.92550000  0.19990000  0.85350000  1.0 0.0066528189
C  C34  1  0.92420000  0.15940000  0.77110000  1.0 -0.0892885733
C  C35  1  0.07520000  0.28100000  0.74540000  1.0 -0.0701046334
C  C36  1  0.07320000  0.31630000  0.82260000  1.0 0.0215857213
C  C37  1  0.80010000  0.72560000  0.14650000  1.0 0.0066528189
C  C38  1  0.84060000  0.76480000  0.22890000  1.0 -0.0892885733
C  C39  1  0.71900000  0.79420000  0.25460000  1.0 -0.0701046334
C  C40  1  0.68370000  0.75690000  0.17740000  1.0 0.0215857213
C  C41  1  0.27440000  0.07450000  0.14650000  1.0 0.0066528189
C  C42  1  0.23520000  0.07580000  0.22890000  1.0 -0.0892885733
C  C43  1  0.20580000  0.92480000  0.25460000  1.0 -0.0701046334
C  C44  1  0.24310000  0.92680000  0.17740000  1.0 0.0215857213
C  C45  1  0.92550000  0.19990000  0.14650000  1.0 0.0066528189
C  C46  1  0.92420000  0.15940000  0.22890000  1.0 -0.0892885733
C  C47  1  0.07520000  0.28100000  0.25460000  1.0 -0.0701046334
C  C48  1  0.07320000  0.31630000  0.17740000  1.0 0.0215857213
C  C49  1  0.75500000  0.40560000  0.00000000  1.0 -0.1343107114
C  C50  1  0.74010000  0.31710000  0.00000000  1.0 -0.0153508464
C  C51  1  0.81950000  0.29770000  0.00000000  1.0 0.5294944145
C  C52  1  0.65060000  0.24500000  0.00000000  1.0 -0.1343107114
C  C53  1  0.57700000  0.25990000  0.00000000  1.0 -0.0153508464
C  C54  1  0.47820000  0.18050000  0.00000000  1.0 0.5294944145
C  C55  1  0.59440000  0.34940000  0.00000000  1.0 -0.1343107114
C  C56  1  0.68290000  0.42300000  0.00000000  1.0 -0.0153508464
C  C57  1  0.70230000  0.52180000  0.00000000  1.0 0.5294944145
C  C58  1  0.34940000  0.59440000  0.00000000  1.0 -0.1343107114
C  C59  1  0.42300000  0.68290000  0.00000000  1.0 -0.0153508464
C  C60  1  0.52180000  0.70230000  0.00000000  1.0 0.5294944145
C  C61  1  0.40560000  0.75500000  0.00000000  1.0 -0.1343107114
C  C62  1  0.31710000  0.74010000  0.00000000  1.0 -0.0153508464
C  C63  1  0.29770000  0.81950000  0.00000000  1.0 0.5294944145
C  C64  1  0.24500000  0.65060000  0.00000000  1.0 -0.1343107114
C  C65  1  0.25990000  0.57700000  0.00000000  1.0 -0.0153508464
C  C66  1  0.18050000  0.47820000  0.00000000  1.0 0.5294944145
C  C67  1  0.00000000  0.19660000  0.28180000  1.0 -0.0300644356
C  C68  1  0.00000000  0.14840000  0.36860000  1.0 0.5190080998
C  C69  1  0.19660000  0.00000000  0.28180000  1.0 -0.0300644356
C  C70  1  0.14840000  0.00000000  0.36860000  1.0 0.5190080998
C  C71  1  0.80340000  0.80340000  0.28180000  1.0 -0.0300644356
C  C72  1  0.85160000  0.85160000  0.36860000  1.0 0.5190080998
C  C73  1  0.00000000  0.19660000  0.71820000  1.0 -0.0300644356
C  C74  1  0.00000000  0.14840000  0.63140000  1.0 0.5190080998
C  C75  1  0.19660000  0.00000000  0.71820000  1.0 -0.0300644356
C  C76  1  0.14840000  0.00000000  0.63140000  1.0 0.5190080998
C  C77  1  0.80340000  0.80340000  0.71820000  1.0 -0.0300644356
C  C78  1  0.85160000  0.85160000  0.63140000  1.0 0.5190080998
N  N1  1  0.00000000  0.28120000  0.11780000  1.0 -0.2024225645
N  N2  1  0.28120000  0.00000000  0.11780000  1.0 -0.2024225645
N  N3  1  0.71880000  0.71880000  0.11780000  1.0 -0.2024225645
N  N4  1  0.00000000  0.28120000  0.88220000  1.0 -0.2024225645
N  N5  1  0.28120000  0.00000000  0.88220000  1.0 -0.2024225645
N  N6  1  0.71880000  0.71880000  0.88220000  1.0 -0.2024225645
O  O1  1  0.92250000  0.09210000  0.40180000  1.0 -0.5620531442
O  O2  1  0.16960000  0.07750000  0.40180000  1.0 -0.5620531442
O  O3  1  0.90790000  0.83040000  0.40180000  1.0 -0.5620531442
O  O4  1  0.92250000  0.09210000  0.59820000  1.0 -0.5620531442
O  O5  1  0.16960000  0.07750000  0.59820000  1.0 -0.5620531442
O  O6  1  0.90790000  0.83040000  0.59820000  1.0 -0.5620531442
O  O7  1  0.83040000  0.90790000  0.59820000  1.0 -0.5620531442
O  O8  1  0.09210000  0.92250000  0.59820000  1.0 -0.5620531442
O  O9  1  0.07750000  0.16960000  0.59820000  1.0 -0.5620531442
O  O10  1  0.83040000  0.90790000  0.40180000  1.0 -0.5620531442
O  O11  1  0.09210000  0.92250000  0.40180000  1.0 -0.5620531442
O  O12  1  0.07750000  0.16960000  0.40180000  1.0 -0.5620531442
O  O13  1  0.89760000  0.36700000  0.00000000  1.0 -0.4995925777
O  O14  1  0.80390000  0.21840000  0.00000000  1.0 -0.5314258538
O  O15  1  0.46940000  0.10240000  0.00000000  1.0 -0.4995925777
O  O16  1  0.41450000  0.19610000  0.00000000  1.0 -0.5314258538
O  O17  1  0.63300000  0.53060000  0.00000000  1.0 -0.4995925777
O  O18  1  0.78160000  0.58550000  0.00000000  1.0 -0.5314258538
O  O19  1  0.53060000  0.63300000  0.00000000  1.0 -0.4995925777
O  O20  1  0.58550000  0.78160000  0.00000000  1.0 -0.5314258538
O  O21  1  0.36700000  0.89760000  0.00000000  1.0 -0.4995925777
O  O22  1  0.21840000  0.80390000  0.00000000  1.0 -0.5314258538
O  O23  1  0.10240000  0.46940000  0.00000000  1.0 -0.4995925777
O  O24  1  0.19610000  0.41450000  0.00000000  1.0 -0.5314258538
O  O25  1  0.00000000  0.00000000  0.50000000  1.0 -1.0956287287
