# DDEC6 charges by PACMAN v1.1 (https://github.com/mtap-research/PACMAN-charge/)
data_HELWON_ASR_pacman
_symmetry_space_group_name_H-M   'P 1'
_cell_length_a   20.13470000
_cell_length_b   20.13470000
_cell_length_c   20.13470000
_cell_angle_alpha   55.28380000
_cell_angle_beta   55.28380000
_cell_angle_gamma   55.28380000
_symmetry_Int_Tables_number   1
_chemical_formula_structural   CuH3C17NO4
_chemical_formula_sum   'Cu6 H18 C102 N6 O24'
_cell_volume   5139.30512794
_cell_formula_units_Z   6
loop_
 _symmetry_equiv_pos_site_id
 _symmetry_equiv_pos_as_xyz
  1  'x, y, z'
loop_
 _atom_site_type_symbol
 _atom_site_label
 _atom_site_symmetry_multiplicity
 _atom_site_fract_x
 _atom_site_fract_y
 _atom_site_fract_z
 _atom_site_occupancy
 _atom_site_charge
Cu  Cu1  1  0.99791000  0.99791000  0.56804000  1.0 0.8639289536
Cu  Cu2  1  0.56804000  0.99791000  0.99791000  1.0 0.8639289536
Cu  Cu3  1  0.99791000  0.56804000  0.99791000  1.0 0.8639289536
Cu  Cu4  1  0.00209000  0.00209000  0.43196000  1.0 0.8639289536
Cu  Cu5  1  0.00209000  0.43196000  0.00209000  1.0 0.8639289536
Cu  Cu6  1  0.43196000  0.00209000  0.00209000  1.0 0.8639289536
H  H1  1  0.74160000  0.02520000  0.52610000  1.0 0.1518729649
H  H2  1  0.52610000  0.74160000  0.02520000  1.0 0.1518729649
H  H3  1  0.02520000  0.52610000  0.74160000  1.0 0.1518729649
H  H4  1  0.97480000  0.25840000  0.47390000  1.0 0.1518729649
H  H5  1  0.25840000  0.47390000  0.97480000  1.0 0.1518729649
H  H6  1  0.47390000  0.97480000  0.25840000  1.0 0.1518729649
H  H7  1  0.25840000  0.97480000  0.47390000  1.0 0.1518729649
H  H8  1  0.47390000  0.25840000  0.97480000  1.0 0.1518729649
H  H9  1  0.97480000  0.47390000  0.25840000  1.0 0.1518729649
H  H10  1  0.02520000  0.74160000  0.52610000  1.0 0.1518729649
H  H11  1  0.74160000  0.52610000  0.02520000  1.0 0.1518729649
H  H12  1  0.52610000  0.02520000  0.74160000  1.0 0.1518729649
H  H13  1  0.72980000  0.03040000  0.72980000  1.0 0.1518729649
H  H14  1  0.72980000  0.72980000  0.03040000  1.0 0.1518729649
H  H15  1  0.03040000  0.72980000  0.72980000  1.0 0.1518729649
H  H16  1  0.96960000  0.27020000  0.27020000  1.0 0.1518729649
H  H17  1  0.27020000  0.27020000  0.96960000  1.0 0.1518729649
H  H18  1  0.27020000  0.96960000  0.27020000  1.0 0.1518729649
C  C1  1  0.84062000  0.02462000  0.57352000  1.0 0.5846197404
C  C2  1  0.71154000  0.02634000  0.58184000  1.0 -0.162432569
C  C3  1  0.74974000  0.02884000  0.62034000  1.0 -0.0140284426
C  C4  1  0.59170000  0.94620000  0.52640000  1.0 -0.0505815261
C  C5  1  0.51160000  0.07970000  0.58820000  1.0 0.0224208261
C  C6  1  0.56660000  0.95370000  0.63640000  1.0 -0.0505815261
C  C7  1  0.47380000  0.07100000  0.54680000  1.0 -0.0401116922
C  C8  1  0.57352000  0.84062000  0.02462000  1.0 0.5846197404
C  C9  1  0.58184000  0.71154000  0.02634000  1.0 -0.162432569
C  C10  1  0.62034000  0.74974000  0.02884000  1.0 -0.0140284426
C  C11  1  0.52640000  0.59170000  0.94620000  1.0 -0.0505815261
C  C12  1  0.58820000  0.51160000  0.07970000  1.0 0.0224208261
C  C13  1  0.63640000  0.56660000  0.95370000  1.0 -0.0505815261
C  C14  1  0.54680000  0.47380000  0.07100000  1.0 -0.0401116922
C  C15  1  0.02462000  0.57352000  0.84062000  1.0 0.5846197404
C  C16  1  0.02634000  0.58184000  0.71154000  1.0 -0.162432569
C  C17  1  0.02884000  0.62034000  0.74974000  1.0 -0.0140284426
C  C18  1  0.94620000  0.52640000  0.59170000  1.0 -0.0505815261
C  C19  1  0.07970000  0.58820000  0.51160000  1.0 0.0224208261
C  C20  1  0.95370000  0.63640000  0.56660000  1.0 -0.0505815261
C  C21  1  0.07100000  0.54680000  0.47380000  1.0 -0.0401116922
C  C22  1  0.97538000  0.15938000  0.42648000  1.0 0.5846197404
C  C23  1  0.97366000  0.28846000  0.41816000  1.0 -0.162432569
C  C24  1  0.97116000  0.25026000  0.37966000  1.0 -0.0140284426
C  C25  1  0.05380000  0.40830000  0.47360000  1.0 -0.0505815261
C  C26  1  0.92030000  0.48840000  0.41180000  1.0 0.0224208261
C  C27  1  0.04630000  0.43340000  0.36360000  1.0 -0.0505815261
C  C28  1  0.92900000  0.52620000  0.45320000  1.0 -0.0401116922
C  C29  1  0.15938000  0.42648000  0.97538000  1.0 0.5846197404
C  C30  1  0.28846000  0.41816000  0.97366000  1.0 -0.162432569
C  C31  1  0.25026000  0.37966000  0.97116000  1.0 -0.0140284426
C  C32  1  0.40830000  0.47360000  0.05380000  1.0 -0.0505815261
C  C33  1  0.48840000  0.41180000  0.92030000  1.0 0.0224208261
C  C34  1  0.43340000  0.36360000  0.04630000  1.0 -0.0505815261
C  C35  1  0.52620000  0.45320000  0.92900000  1.0 -0.0401116922
C  C36  1  0.42648000  0.97538000  0.15938000  1.0 0.5846197404
C  C37  1  0.41816000  0.97366000  0.28846000  1.0 -0.162432569
C  C38  1  0.37966000  0.97116000  0.25026000  1.0 -0.0140284426
C  C39  1  0.47360000  0.05380000  0.40830000  1.0 -0.0505815261
C  C40  1  0.41180000  0.92030000  0.48840000  1.0 0.0224208261
C  C41  1  0.36360000  0.04630000  0.43340000  1.0 -0.0505815261
C  C42  1  0.45320000  0.92900000  0.52620000  1.0 -0.0401116922
C  C43  1  0.15938000  0.97538000  0.42648000  1.0 0.5846197404
C  C44  1  0.28846000  0.97366000  0.41816000  1.0 -0.162432569
C  C45  1  0.25026000  0.97116000  0.37966000  1.0 -0.0140284426
C  C46  1  0.40830000  0.05380000  0.47360000  1.0 -0.0505815261
C  C47  1  0.48840000  0.92030000  0.41180000  1.0 0.0224208261
C  C48  1  0.43340000  0.04630000  0.36360000  1.0 -0.0505815261
C  C49  1  0.52620000  0.92900000  0.45320000  1.0 -0.0401116922
C  C50  1  0.42648000  0.15938000  0.97538000  1.0 0.5846197404
C  C51  1  0.41816000  0.28846000  0.97366000  1.0 -0.162432569
C  C52  1  0.37966000  0.25026000  0.97116000  1.0 -0.0140284426
C  C53  1  0.47360000  0.40830000  0.05380000  1.0 -0.0505815261
C  C54  1  0.41180000  0.48840000  0.92030000  1.0 0.0224208261
C  C55  1  0.36360000  0.43340000  0.04630000  1.0 -0.0505815261
C  C56  1  0.45320000  0.52620000  0.92900000  1.0 -0.0401116922
C  C57  1  0.97538000  0.42648000  0.15938000  1.0 0.5846197404
C  C58  1  0.97366000  0.41816000  0.28846000  1.0 -0.162432569
C  C59  1  0.97116000  0.37966000  0.25026000  1.0 -0.0140284426
C  C60  1  0.05380000  0.47360000  0.40830000  1.0 -0.0505815261
C  C61  1  0.92030000  0.41180000  0.48840000  1.0 0.0224208261
C  C62  1  0.04630000  0.36360000  0.43340000  1.0 -0.0505815261
C  C63  1  0.92900000  0.45320000  0.52620000  1.0 -0.0401116922
C  C64  1  0.02462000  0.84062000  0.57352000  1.0 0.5846197404
C  C65  1  0.02634000  0.71154000  0.58184000  1.0 -0.162432569
C  C66  1  0.02884000  0.74974000  0.62034000  1.0 -0.0140284426
C  C67  1  0.94620000  0.59170000  0.52640000  1.0 -0.0505815261
C  C68  1  0.07970000  0.51160000  0.58820000  1.0 0.0224208261
C  C69  1  0.95370000  0.56660000  0.63640000  1.0 -0.0505815261
C  C70  1  0.07100000  0.47380000  0.54680000  1.0 -0.0401116922
C  C71  1  0.84062000  0.57352000  0.02462000  1.0 0.5846197404
C  C72  1  0.71154000  0.58184000  0.02634000  1.0 -0.162432569
C  C73  1  0.74974000  0.62034000  0.02884000  1.0 -0.0140284426
C  C74  1  0.59170000  0.52640000  0.94620000  1.0 -0.0505815261
C  C75  1  0.51160000  0.58820000  0.07970000  1.0 0.0224208261
C  C76  1  0.56660000  0.63640000  0.95370000  1.0 -0.0505815261
C  C77  1  0.47380000  0.54680000  0.07100000  1.0 -0.0401116922
C  C78  1  0.57352000  0.02462000  0.84062000  1.0 0.5846197404
C  C79  1  0.58184000  0.02634000  0.71154000  1.0 -0.162432569
C  C80  1  0.62034000  0.02884000  0.74974000  1.0 -0.0140284426
C  C81  1  0.52640000  0.94620000  0.59170000  1.0 -0.0505815261
C  C82  1  0.58820000  0.07970000  0.51160000  1.0 0.0224208261
C  C83  1  0.63640000  0.95370000  0.56660000  1.0 -0.0505815261
C  C84  1  0.54680000  0.07100000  0.47380000  1.0 -0.0401116922
C  C85  1  0.70404000  0.02954000  0.70404000  1.0 -0.1127058246
C  C86  1  0.62840000  0.02545000  0.62840000  1.0 0.1146849664
C  C87  1  0.51727000  0.00672000  0.51727000  1.0 0.0513845543
C  C88  1  0.70404000  0.70404000  0.02954000  1.0 -0.1127058246
C  C89  1  0.62840000  0.62840000  0.02545000  1.0 0.1146849664
C  C90  1  0.51727000  0.51727000  0.00672000  1.0 0.0513845543
C  C91  1  0.02954000  0.70404000  0.70404000  1.0 -0.1127058246
C  C92  1  0.02545000  0.62840000  0.62840000  1.0 0.1146849664
C  C93  1  0.00672000  0.51727000  0.51727000  1.0 0.0513845543
C  C94  1  0.97046000  0.29596000  0.29596000  1.0 -0.1127058246
C  C95  1  0.97455000  0.37160000  0.37160000  1.0 0.1146849664
C  C96  1  0.99328000  0.48273000  0.48273000  1.0 0.0513845543
C  C97  1  0.29596000  0.29596000  0.97046000  1.0 -0.1127058246
C  C98  1  0.37160000  0.37160000  0.97455000  1.0 0.1146849664
C  C99  1  0.48273000  0.48273000  0.99328000  1.0 0.0513845543
C  C100  1  0.29596000  0.97046000  0.29596000  1.0 -0.1127058246
C  C101  1  0.37160000  0.97455000  0.37160000  1.0 0.1146849664
C  C102  1  0.48273000  0.99328000  0.48273000  1.0 0.0513845543
N  N1  1  0.59109000  0.01814000  0.59109000  1.0 0.0932953989
N  N2  1  0.59109000  0.59109000  0.01814000  1.0 0.0932953989
N  N3  1  0.01814000  0.59109000  0.59109000  1.0 0.0932953989
N  N4  1  0.98186000  0.40891000  0.40891000  1.0 0.0932953989
N  N5  1  0.40891000  0.40891000  0.98186000  1.0 0.0932953989
N  N6  1  0.40891000  0.98186000  0.40891000  1.0 0.0932953989
O  O1  1  0.87389000  0.02037000  0.61395000  1.0 -0.5151456796
O  O2  1  0.87800000  0.02380000  0.49850000  1.0 -0.5095811547
O  O3  1  0.61395000  0.87389000  0.02037000  1.0 -0.5095811547
O  O4  1  0.49850000  0.87800000  0.02380000  1.0 -0.5095811547
O  O5  1  0.02037000  0.61395000  0.87389000  1.0 -0.5095811547
O  O6  1  0.02380000  0.49850000  0.87800000  1.0 -0.5095811547
O  O7  1  0.97963000  0.12611000  0.38605000  1.0 -0.5151456796
O  O8  1  0.97620000  0.12200000  0.50150000  1.0 -0.5095811547
O  O9  1  0.12611000  0.38605000  0.97963000  1.0 -0.5151456796
O  O10  1  0.12200000  0.50150000  0.97620000  1.0 -0.5095811547
O  O11  1  0.38605000  0.97963000  0.12611000  1.0 -0.5095811547
O  O12  1  0.50150000  0.97620000  0.12200000  1.0 -0.5095811547
O  O13  1  0.12611000  0.97963000  0.38605000  1.0 -0.5095811547
O  O14  1  0.12200000  0.97620000  0.50150000  1.0 -0.5095811547
O  O15  1  0.38605000  0.12611000  0.97963000  1.0 -0.5151456796
O  O16  1  0.50150000  0.12200000  0.97620000  1.0 -0.5095811547
O  O17  1  0.97963000  0.38605000  0.12611000  1.0 -0.5151456796
O  O18  1  0.97620000  0.50150000  0.12200000  1.0 -0.5095811547
O  O19  1  0.02037000  0.87389000  0.61395000  1.0 -0.5151456796
O  O20  1  0.02380000  0.87800000  0.49850000  1.0 -0.5095811547
O  O21  1  0.87389000  0.61395000  0.02037000  1.0 -0.5095811547
O  O22  1  0.87800000  0.49850000  0.02380000  1.0 -0.5095811547
O  O23  1  0.61395000  0.02037000  0.87389000  1.0 -0.5151456796
O  O24  1  0.49850000  0.02380000  0.87800000  1.0 -0.5095811547
