# DDEC6 charges by PACMAN v1.1 (https://github.com/mtap-research/PACMAN-charge/)
data_HENFOY_ASR_pacman
_symmetry_space_group_name_H-M   'P 1'
_cell_length_a   21.53300000
_cell_length_b   36.31200000
_cell_length_c   22.02000000
_cell_angle_alpha   90.00000000
_cell_angle_beta   102.93000000
_cell_angle_gamma   90.00000000
_symmetry_Int_Tables_number   1
_chemical_formula_structural   Ti9Cu8H50C45I8(N6O11)2
_chemical_formula_sum   'Ti36 Cu32 H200 C180 I32 N48 O88'
_cell_volume   16781.01064159
_cell_formula_units_Z   4
loop_
 _symmetry_equiv_pos_site_id
 _symmetry_equiv_pos_as_xyz
  1  'x, y, z'
loop_
 _atom_site_type_symbol
 _atom_site_label
 _atom_site_symmetry_multiplicity
 _atom_site_fract_x
 _atom_site_fract_y
 _atom_site_fract_z
 _atom_site_occupancy
 _atom_site_charge
Ti  Ti1  1  0.39217000  0.66092000  0.61077000  1.0 1.8600809729
Ti  Ti2  1  0.32068000  0.74336000  0.52971000  1.0 1.7809509731
Ti  Ti3  1  0.41881000  0.69435000  0.48738000  1.0 1.5696581996
Ti  Ti4  1  0.31521000  0.37505000  0.66708000  1.0 1.7586881018
Ti  Ti5  1  0.16197000  0.42056000  0.60316000  1.0 1.853676086
Ti  Ti6  1  0.69112000  0.51668000  0.78510000  1.0 2.0204842484
Ti  Ti7  1  0.78820000  0.56743000  0.91634000  1.0 1.5185546077
Ti  Ti8  1  0.34115000  0.46433000  0.08781000  1.0 1.853676086
Ti  Ti9  1  0.19614000  0.34125000  0.57523000  1.0 1.6310689843
Ti  Ti10  1  0.60783000  0.16092000  0.88923000  1.0 1.8600809729
Ti  Ti11  1  0.67932000  0.24336000  0.97029000  1.0 1.7809509731
Ti  Ti12  1  0.58119000  0.19435000  0.01262000  1.0 1.5696581996
Ti  Ti13  1  0.68479000  0.87505000  0.83292000  1.0 1.7586881018
Ti  Ti14  1  0.83803000  0.92056000  0.89684000  1.0 1.853676086
Ti  Ti15  1  0.30888000  0.01668000  0.71490000  1.0 2.0357461369
Ti  Ti16  1  0.21180000  0.06743000  0.58366000  1.0 1.4989346659
Ti  Ti17  1  0.65885000  0.96433000  0.41219000  1.0 1.8600809729
Ti  Ti18  1  0.80386000  0.84125000  0.92477000  1.0 1.6310689843
Ti  Ti19  1  0.60783000  0.33908000  0.38923000  1.0 1.853676086
Ti  Ti20  1  0.67932000  0.25664000  0.47029000  1.0 1.7809509731
Ti  Ti21  1  0.58119000  0.30565000  0.51262000  1.0 1.5696581996
Ti  Ti22  1  0.68479000  0.62495000  0.33292000  1.0 1.7586881018
Ti  Ti23  1  0.83803000  0.57944000  0.39684000  1.0 1.853676086
Ti  Ti24  1  0.30888000  0.48332000  0.21490000  1.0 2.031845609
Ti  Ti25  1  0.21180000  0.43257000  0.08366000  1.0 1.4989346659
Ti  Ti26  1  0.65885000  0.53567000  0.91219000  1.0 1.853676086
Ti  Ti27  1  0.80386000  0.65875000  0.42477000  1.0 1.6310689843
Ti  Ti28  1  0.39217000  0.83908000  0.11077000  1.0 1.8600809729
Ti  Ti29  1  0.32068000  0.75664000  0.02971000  1.0 1.7809509731
Ti  Ti30  1  0.41881000  0.80565000  0.98738000  1.0 1.5696581996
Ti  Ti31  1  0.31521000  0.12495000  0.16708000  1.0 1.7586881018
Ti  Ti32  1  0.16197000  0.07944000  0.10316000  1.0 1.853676086
Ti  Ti33  1  0.69112000  0.98332000  0.28510000  1.0 2.0204842484
Ti  Ti34  1  0.78820000  0.93257000  0.41634000  1.0 1.4989346659
Ti  Ti35  1  0.34115000  0.03567000  0.58781000  1.0 1.8600809729
Ti  Ti36  1  0.19614000  0.15875000  0.07523000  1.0 1.6310689843
Cu  Cu1  1  0.11523000  0.85594000  0.77047000  1.0 0.1296706874
Cu  Cu2  1  0.11146000  0.79472000  0.71115000  1.0 0.120070025
Cu  Cu3  1  0.10694000  0.85628000  0.64805000  1.0 0.1296706874
Cu  Cu4  1  0.01144000  0.83394000  0.68916000  1.0 0.1296706874
Cu  Cu5  1  0.15247000  0.64035000  0.79743000  1.0 0.1296706874
Cu  Cu6  1  0.19196000  0.57200000  0.80974000  1.0 0.1375569661
Cu  Cu7  1  0.06625000  0.58992000  0.77994000  1.0 0.1375569661
Cu  Cu8  1  0.13476000  0.60173000  0.89244000  1.0 0.1296706874
Cu  Cu9  1  0.88477000  0.35594000  0.72953000  1.0 0.1296706874
Cu  Cu10  1  0.88854000  0.29472000  0.78885000  1.0 0.120070025
Cu  Cu11  1  0.89306000  0.35628000  0.85195000  1.0 0.1296706874
Cu  Cu12  1  0.98856000  0.33394000  0.81084000  1.0 0.1296706874
Cu  Cu13  1  0.84753000  0.14035000  0.70257000  1.0 0.1296706874
Cu  Cu14  1  0.80804000  0.07200000  0.69026000  1.0 0.1375569661
Cu  Cu15  1  0.93375000  0.08992000  0.72006000  1.0 0.1375569661
Cu  Cu16  1  0.86524000  0.10173000  0.60756000  1.0 0.1296706874
Cu  Cu17  1  0.88477000  0.14406000  0.22953000  1.0 0.1296706874
Cu  Cu18  1  0.88854000  0.20528000  0.28885000  1.0 0.120070025
Cu  Cu19  1  0.89306000  0.14372000  0.35195000  1.0 0.1296706874
Cu  Cu20  1  0.98856000  0.16606000  0.31084000  1.0 0.1296706874
Cu  Cu21  1  0.84753000  0.35965000  0.20257000  1.0 0.1296706874
Cu  Cu22  1  0.80804000  0.42800000  0.19026000  1.0 0.1296706874
Cu  Cu23  1  0.93375000  0.41008000  0.22006000  1.0 0.1296706874
Cu  Cu24  1  0.86524000  0.39827000  0.10756000  1.0 0.1296706874
Cu  Cu25  1  0.11523000  0.64406000  0.27047000  1.0 0.120070025
Cu  Cu26  1  0.11146000  0.70528000  0.21115000  1.0 0.120070025
Cu  Cu27  1  0.10694000  0.64372000  0.14805000  1.0 0.1296706874
Cu  Cu28  1  0.01144000  0.66606000  0.18916000  1.0 0.1296706874
Cu  Cu29  1  0.15247000  0.85965000  0.29743000  1.0 0.1296706874
Cu  Cu30  1  0.19196000  0.92800000  0.30974000  1.0 0.1375569661
Cu  Cu31  1  0.06625000  0.91008000  0.27994000  1.0 0.1375569661
Cu  Cu32  1  0.13476000  0.89827000  0.39244000  1.0 0.1296706874
H  H1  1  0.11740000  0.71770000  0.77130000  1.0 0.0823941696
H  H2  1  0.20860000  0.76110000  0.65460000  1.0 0.0896194014
H  H3  1  0.24780000  0.66170000  0.72470000  1.0 0.1004772525
H  H4  1  0.33250000  0.55780000  0.85500000  1.0 0.0823941696
H  H5  1  0.20570000  0.50780000  0.73070000  1.0 0.0896194014
H  H6  1  0.99320000  0.56050000  0.66200000  1.0 0.0715327656
H  H7  1  0.93920000  0.58150000  0.81390000  1.0 0.0896194014
H  H8  1  0.10550000  0.63630000  0.00930000  1.0 0.0896194014
H  H9  1  0.38780000  0.74480000  0.38110000  1.0 0.0594678753
H  H10  1  0.55550000  0.64650000  0.56520000  1.0 0.1004772525
H  H11  1  0.56900000  0.60590000  0.54760000  1.0 0.1375569661
H  H12  1  0.54070000  0.63440000  0.49510000  1.0 0.1004772525
H  H13  1  0.43090000  0.60200000  0.45770000  1.0 0.1004772525
H  H14  1  0.46340000  0.56890000  0.49840000  1.0 0.1296706874
H  H15  1  0.40100000  0.58630000  0.51110000  1.0 0.1098968468
H  H16  1  0.26290000  0.75500000  0.37630000  1.0 0.1098968468
H  H17  1  0.29510000  0.76120000  0.31990000  1.0 0.1098968468
H  H18  1  0.29610000  0.72210000  0.35000000  1.0 0.1098968468
H  H19  1  0.40300000  0.79770000  0.44960000  1.0 0.1098968468
H  H20  1  0.40240000  0.80030000  0.37840000  1.0 0.1098968468
H  H21  1  0.34130000  0.81070000  0.40220000  1.0 0.1098968468
H  H22  1  0.37750000  0.46860000  0.78460000  1.0 0.1004772525
H  H23  1  0.82420000  0.52980000  0.67400000  1.0 0.0823941696
H  H24  1  0.17800000  0.57320000  0.15140000  1.0 0.120070025
H  H25  1  0.23350000  0.65500000  0.37090000  1.0 0.1004772525
H  H26  1  0.21460000  0.60130000  0.51910000  1.0 0.1004772525
H  H27  1  0.08920000  0.59540000  0.36740000  1.0 0.0823941696
H  H28  1  0.36990000  0.29540000  0.65520000  1.0 0.0415999381
H  H29  1  0.06420000  0.34730000  0.49700000  1.0 0.0594678753
H  H30  1  0.22690000  0.41240000  0.94980000  1.0 0.0505047052
H  H31  1  0.30550000  0.28740000  0.72570000  1.0 0.0896194014
H  H32  1  0.25690000  0.26480000  0.67580000  1.0 0.1004772525
H  H33  1  0.32530000  0.24910000  0.70300000  1.0 0.1004772525
H  H34  1  0.32350000  0.24550000  0.58630000  1.0 0.120070025
H  H35  1  0.27140000  0.27470000  0.55820000  1.0 0.0415999381
H  H36  1  0.34280000  0.28180000  0.55670000  1.0 0.1004772525
H  H37  1  0.01930000  0.33560000  0.56990000  1.0 0.120070025
H  H38  1  0.02720000  0.37570000  0.59700000  1.0 0.1098968468
H  H39  1  0.97510000  0.36730000  0.53650000  1.0 0.1098968468
H  H40  1  0.01320000  0.41640000  0.49310000  1.0 0.120070025
H  H41  1  0.07840000  0.41430000  0.47280000  1.0 0.0896194014
H  H42  1  0.02020000  0.39090000  0.43760000  1.0 0.1296706874
H  H43  1  0.31160000  0.39860000  0.91750000  1.0 0.120070025
H  H44  1  0.34140000  0.43790000  0.93040000  1.0 0.120070025
H  H45  1  0.34680000  0.40970000  0.98520000  1.0 0.1004772525
H  H46  1  0.25750000  0.48390000  0.93300000  1.0 0.1296706874
H  H47  1  0.22060000  0.45740000  0.88110000  1.0 0.1098968468
H  H48  1  0.19000000  0.46920000  0.93650000  1.0 0.120070025
H  H49  1  0.25290000  0.34750000  0.83830000  1.0 0.1004772525
H  H50  1  0.10390000  0.32370000  0.90680000  1.0 0.0896194014
H  H51  1  0.88260000  0.21770000  0.72870000  1.0 0.0823941696
H  H52  1  0.79140000  0.26110000  0.84540000  1.0 0.0896194014
H  H53  1  0.75220000  0.16170000  0.77530000  1.0 0.1004772525
H  H54  1  0.66750000  0.05780000  0.64500000  1.0 0.0823941696
H  H55  1  0.79430000  0.00780000  0.76930000  1.0 0.0896194014
H  H56  1  0.00680000  0.06050000  0.83800000  1.0 0.0715327656
H  H57  1  0.06080000  0.08150000  0.68610000  1.0 0.0896194014
H  H58  1  0.89450000  0.13630000  0.49070000  1.0 0.0896194014
H  H59  1  0.61220000  0.24480000  0.11890000  1.0 0.0594678753
H  H60  1  0.44450000  0.14650000  0.93480000  1.0 0.1004772525
H  H61  1  0.43100000  0.10590000  0.95240000  1.0 0.1296706874
H  H62  1  0.45930000  0.13440000  0.00490000  1.0 0.1004772525
H  H63  1  0.56910000  0.10200000  0.04230000  1.0 0.1004772525
H  H64  1  0.53660000  0.06890000  0.00160000  1.0 0.1296706874
H  H65  1  0.59900000  0.08630000  0.98890000  1.0 0.1098968468
H  H66  1  0.73710000  0.25500000  0.12370000  1.0 0.1098968468
H  H67  1  0.70490000  0.26120000  0.18010000  1.0 0.1004772525
H  H68  1  0.70390000  0.22210000  0.15000000  1.0 0.1098968468
H  H69  1  0.59700000  0.29770000  0.05040000  1.0 0.1004772525
H  H70  1  0.59760000  0.30030000  0.12160000  1.0 0.1098968468
H  H71  1  0.65870000  0.31070000  0.09780000  1.0 0.1098968468
H  H72  1  0.62250000  0.96860000  0.71540000  1.0 0.1004772525
H  H73  1  0.17580000  0.02980000  0.82600000  1.0 0.0896194014
H  H74  1  0.82200000  0.07320000  0.34860000  1.0 0.120070025
H  H75  1  0.76650000  0.15500000  0.12910000  1.0 0.1004772525
H  H76  1  0.78540000  0.10130000  0.98090000  1.0 0.1004772525
H  H77  1  0.91080000  0.09540000  0.13260000  1.0 0.0823941696
H  H78  1  0.63010000  0.79540000  0.84480000  1.0 0.0415999381
H  H79  1  0.93580000  0.84730000  0.00300000  1.0 0.0594678753
H  H80  1  0.77310000  0.91240000  0.55020000  1.0 0.0505047052
H  H81  1  0.69450000  0.78740000  0.77430000  1.0 0.0823941696
H  H82  1  0.74310000  0.76480000  0.82420000  1.0 0.1004772525
H  H83  1  0.67470000  0.74910000  0.79700000  1.0 0.1004772525
H  H84  1  0.67650000  0.74550000  0.91370000  1.0 0.120070025
H  H85  1  0.72860000  0.77470000  0.94180000  1.0 0.0505047052
H  H86  1  0.65720000  0.78180000  0.94330000  1.0 0.1004772525
H  H87  1  0.98070000  0.83560000  0.93010000  1.0 0.120070025
H  H88  1  0.97280000  0.87570000  0.90300000  1.0 0.1098968468
H  H89  1  0.02490000  0.86730000  0.96350000  1.0 0.1098968468
H  H90  1  0.98680000  0.91640000  0.00690000  1.0 0.120070025
H  H91  1  0.92160000  0.91430000  0.02720000  1.0 0.0896194014
H  H92  1  0.97980000  0.89090000  0.06240000  1.0 0.1296706874
H  H93  1  0.68840000  0.89860000  0.58250000  1.0 0.120070025
H  H94  1  0.65860000  0.93790000  0.56960000  1.0 0.120070025
H  H95  1  0.65320000  0.90970000  0.51480000  1.0 0.1004772525
H  H96  1  0.74250000  0.98390000  0.56700000  1.0 0.1296706874
H  H97  1  0.77940000  0.95740000  0.61890000  1.0 0.1098968468
H  H98  1  0.81000000  0.96920000  0.56350000  1.0 0.120070025
H  H99  1  0.74710000  0.84750000  0.66170000  1.0 0.1004772525
H  H100  1  0.89610000  0.82370000  0.59320000  1.0 0.0896194014
H  H101  1  0.88260000  0.28230000  0.22870000  1.0 0.0823941696
H  H102  1  0.79140000  0.23890000  0.34540000  1.0 0.0896194014
H  H103  1  0.75220000  0.33830000  0.27530000  1.0 0.1004772525
H  H104  1  0.66750000  0.44220000  0.14500000  1.0 0.0823941696
H  H105  1  0.79430000  0.49220000  0.26930000  1.0 0.0896194014
H  H106  1  0.00680000  0.43950000  0.33800000  1.0 0.0715327656
H  H107  1  0.06080000  0.41850000  0.18610000  1.0 0.0896194014
H  H108  1  0.89450000  0.36370000  0.99070000  1.0 0.0896194014
H  H109  1  0.61220000  0.25520000  0.61890000  1.0 0.0594678753
H  H110  1  0.44450000  0.35350000  0.43480000  1.0 0.1004772525
H  H111  1  0.43100000  0.39410000  0.45240000  1.0 0.1296706874
H  H112  1  0.45930000  0.36560000  0.50490000  1.0 0.1004772525
H  H113  1  0.56910000  0.39800000  0.54230000  1.0 0.1004772525
H  H114  1  0.53660000  0.43110000  0.50160000  1.0 0.120070025
H  H115  1  0.59900000  0.41370000  0.48890000  1.0 0.1098968468
H  H116  1  0.73710000  0.24500000  0.62370000  1.0 0.1098968468
H  H117  1  0.70490000  0.23880000  0.68010000  1.0 0.1098968468
H  H118  1  0.70390000  0.27790000  0.65000000  1.0 0.1098968468
H  H119  1  0.59700000  0.20230000  0.55040000  1.0 0.1004772525
H  H120  1  0.59760000  0.19970000  0.62160000  1.0 0.1098968468
H  H121  1  0.65870000  0.18930000  0.59780000  1.0 0.1098968468
H  H122  1  0.62250000  0.53140000  0.21540000  1.0 0.1004772525
H  H123  1  0.17580000  0.47020000  0.32600000  1.0 0.0896194014
H  H124  1  0.82200000  0.42680000  0.84860000  1.0 0.120070025
H  H125  1  0.76650000  0.34500000  0.62910000  1.0 0.1004772525
H  H126  1  0.78540000  0.39870000  0.48090000  1.0 0.1004772525
H  H127  1  0.91080000  0.40460000  0.63260000  1.0 0.0823941696
H  H128  1  0.63010000  0.70460000  0.34480000  1.0 0.0415999381
H  H129  1  0.93580000  0.65270000  0.50300000  1.0 0.0594678753
H  H130  1  0.77310000  0.58760000  0.05020000  1.0 0.0505047052
H  H131  1  0.69450000  0.71260000  0.27430000  1.0 0.0823941696
H  H132  1  0.74310000  0.73520000  0.32420000  1.0 0.1004772525
H  H133  1  0.67470000  0.75090000  0.29700000  1.0 0.1004772525
H  H134  1  0.67650000  0.75450000  0.41370000  1.0 0.120070025
H  H135  1  0.72860000  0.72530000  0.44180000  1.0 0.0505047052
H  H136  1  0.65720000  0.71820000  0.44330000  1.0 0.1004772525
H  H137  1  0.98070000  0.66440000  0.43010000  1.0 0.120070025
H  H138  1  0.97280000  0.62430000  0.40300000  1.0 0.1098968468
H  H139  1  0.02490000  0.63270000  0.46350000  1.0 0.1098968468
H  H140  1  0.98680000  0.58360000  0.50690000  1.0 0.120070025
H  H141  1  0.92160000  0.58570000  0.52720000  1.0 0.0896194014
H  H142  1  0.97980000  0.60910000  0.56240000  1.0 0.1296706874
H  H143  1  0.68840000  0.60140000  0.08250000  1.0 0.120070025
H  H144  1  0.65860000  0.56210000  0.06960000  1.0 0.120070025
H  H145  1  0.65320000  0.59030000  0.01480000  1.0 0.1004772525
H  H146  1  0.74250000  0.51610000  0.06700000  1.0 0.1296706874
H  H147  1  0.77940000  0.54260000  0.11890000  1.0 0.1098968468
H  H148  1  0.81000000  0.53080000  0.06350000  1.0 0.120070025
H  H149  1  0.74710000  0.65250000  0.16170000  1.0 0.1004772525
H  H150  1  0.89610000  0.67630000  0.09320000  1.0 0.0896194014
H  H151  1  0.11740000  0.78230000  0.27130000  1.0 0.0823941696
H  H152  1  0.20860000  0.73890000  0.15460000  1.0 0.0896194014
H  H153  1  0.24780000  0.83830000  0.22470000  1.0 0.1004772525
H  H154  1  0.33250000  0.94220000  0.35500000  1.0 0.0823941696
H  H155  1  0.20570000  0.99220000  0.23070000  1.0 0.1004772525
H  H156  1  0.99320000  0.93950000  0.16200000  1.0 0.0715327656
H  H157  1  0.93920000  0.91850000  0.31390000  1.0 0.0896194014
H  H158  1  0.10550000  0.86370000  0.50930000  1.0 0.0896194014
H  H159  1  0.38780000  0.75520000  0.88110000  1.0 0.0594678753
H  H160  1  0.55550000  0.85350000  0.06520000  1.0 0.1004772525
H  H161  1  0.56900000  0.89410000  0.04760000  1.0 0.1296706874
H  H162  1  0.54070000  0.86560000  0.99510000  1.0 0.1004772525
H  H163  1  0.43090000  0.89800000  0.95770000  1.0 0.1004772525
H  H164  1  0.46340000  0.93110000  0.99840000  1.0 0.120070025
H  H165  1  0.40100000  0.91370000  0.01110000  1.0 0.1098968468
H  H166  1  0.26290000  0.74500000  0.87630000  1.0 0.1098968468
H  H167  1  0.29510000  0.73880000  0.81990000  1.0 0.1098968468
H  H168  1  0.29610000  0.77790000  0.85000000  1.0 0.1098968468
H  H169  1  0.40300000  0.70230000  0.94960000  1.0 0.1004772525
H  H170  1  0.40240000  0.69970000  0.87840000  1.0 0.1098968468
H  H171  1  0.34130000  0.68930000  0.90220000  1.0 0.1098968468
H  H172  1  0.37750000  0.03140000  0.28460000  1.0 0.1004772525
H  H173  1  0.82420000  0.97020000  0.17400000  1.0 0.0896194014
H  H174  1  0.17800000  0.92680000  0.65140000  1.0 0.1098968468
H  H175  1  0.23350000  0.84500000  0.87090000  1.0 0.1004772525
H  H176  1  0.21460000  0.89870000  0.01910000  1.0 0.1004772525
H  H177  1  0.08920000  0.90460000  0.86740000  1.0 0.0823941696
H  H178  1  0.36990000  0.20460000  0.15520000  1.0 0.0415999381
H  H179  1  0.06420000  0.15270000  0.99700000  1.0 0.0594678753
H  H180  1  0.22690000  0.08760000  0.44980000  1.0 0.0505047052
H  H181  1  0.30550000  0.21260000  0.22570000  1.0 0.0823941696
H  H182  1  0.25690000  0.23520000  0.17580000  1.0 0.1004772525
H  H183  1  0.32530000  0.25090000  0.20300000  1.0 0.1004772525
H  H184  1  0.32350000  0.25450000  0.08630000  1.0 0.1098968468
H  H185  1  0.27140000  0.22530000  0.05820000  1.0 0.0415999381
H  H186  1  0.34280000  0.21820000  0.05670000  1.0 0.1004772525
H  H187  1  0.01930000  0.16440000  0.06990000  1.0 0.120070025
H  H188  1  0.02720000  0.12430000  0.09700000  1.0 0.1098968468
H  H189  1  0.97510000  0.13270000  0.03650000  1.0 0.1098968468
H  H190  1  0.01320000  0.08360000  0.99310000  1.0 0.120070025
H  H191  1  0.07840000  0.08570000  0.97280000  1.0 0.0896194014
H  H192  1  0.02020000  0.10910000  0.93760000  1.0 0.1296706874
H  H193  1  0.31160000  0.10140000  0.41750000  1.0 0.120070025
H  H194  1  0.34140000  0.06210000  0.43040000  1.0 0.120070025
H  H195  1  0.34680000  0.09030000  0.48520000  1.0 0.1004772525
H  H196  1  0.25750000  0.01610000  0.43300000  1.0 0.1296706874
H  H197  1  0.22060000  0.04260000  0.38110000  1.0 0.1098968468
H  H198  1  0.19000000  0.03080000  0.43650000  1.0 0.120070025
H  H199  1  0.25290000  0.15250000  0.33830000  1.0 0.1004772525
H  H200  1  0.10390000  0.17630000  0.40680000  1.0 0.0896194014
C  C1  1  0.14850000  0.71525000  0.74822000  1.0 0.1806649295
C  C2  1  0.20120000  0.74179000  0.67984000  1.0 0.0896194014
C  C3  1  0.23569000  0.71035000  0.68325000  1.0 -0.1525902392
C  C4  1  0.22309000  0.68289000  0.72129000  1.0 0.0715327656
C  C5  1  0.28514000  0.70808000  0.64596000  1.0 0.6375338456
C  C6  1  0.32130000  0.53776000  0.82840000  1.0 0.1806649295
C  C7  1  0.24643000  0.50891000  0.75609000  1.0 0.0896194014
C  C8  1  0.96170000  0.55991000  0.68478000  1.0 0.1881604356
C  C9  1  0.93040000  0.57173000  0.77380000  1.0 0.0896194014
C  C10  1  0.18580000  0.56458000  0.00969000  1.0 0.1881604356
C  C11  1  0.12808000  0.61532000  0.02542000  1.0 0.2113671622
C  C12  1  0.29437000  0.64753000  0.48692000  1.0 0.6255807198
C  C13  1  0.47670000  0.61612000  0.54090000  1.0 0.3584483163
C  C14  1  0.35575000  0.75670000  0.39989000  1.0 0.1998089797
C  C15  1  0.29023000  0.48260000  0.74990000  1.0 -0.1377531343
C  C16  1  0.87280000  0.55619000  0.75168000  1.0 -0.1792381609
C  C17  1  0.19620000  0.55777000  0.07462000  1.0 -0.1680038997
C  C18  1  0.23321000  0.63136000  0.45154000  1.0 -0.1588690061
C  C19  1  0.54090000  0.62662000  0.53680000  1.0 -0.54850268
C  C20  1  0.44010000  0.59137000  0.49870000  1.0 -0.54850268
C  C21  1  0.29790000  0.74805000  0.35820000  1.0 -0.470809715
C  C22  1  0.37747000  0.79454000  0.40820000  1.0 -0.470809715
C  C23  1  0.34720000  0.48663000  0.78610000  1.0 0.0415999381
C  C24  1  0.27553000  0.45020000  0.70595000  1.0 0.6530191994
C  C25  1  0.86230000  0.54179000  0.69085000  1.0 0.1098968468
C  C26  1  0.82330000  0.55140000  0.78758000  1.0 0.6255807198
C  C27  1  0.17200000  0.57883000  0.10928000  1.0 0.0594678753
C  C28  1  0.23980000  0.52376000  0.10050000  1.0 0.6375338456
C  C29  1  0.20963000  0.63981000  0.39098000  1.0 0.0823941696
C  C30  1  0.19880000  0.60825000  0.47780000  1.0 0.0823941696
C  C31  1  0.12710000  0.60540000  0.39020000  1.0 0.1628160274
C  C32  1  0.19970000  0.35874000  0.72520000  1.0 0.5851524866
C  C33  1  0.32460000  0.28948000  0.64044000  1.0 0.1375569661
C  C34  1  0.06210000  0.36932000  0.52230000  1.0 0.2300348265
C  C35  1  0.25760000  0.43260000  0.95950000  1.0 0.2300348265
C  C36  1  0.17130000  0.34687000  0.77470000  1.0 -0.2031106108
C  C37  1  0.30100000  0.27108000  0.69060000  1.0 -0.4515710129
C  C38  1  0.31470000  0.27137000  0.58035000  1.0 -0.4439555549
C  C39  1  0.01720000  0.36131000  0.55950000  1.0 -0.480028701
C  C40  1  0.04160000  0.40055000  0.47740000  1.0 -0.480028701
C  C41  1  0.32020000  0.41840000  0.94700000  1.0 -0.470809715
C  C42  1  0.22920000  0.46320000  0.92480000  1.0 -0.480028701
C  C43  1  0.10980000  0.34521000  0.77288000  1.0 0.1881604356
C  C44  1  0.21060000  0.34003000  0.83060000  1.0 0.0505047052
C  C45  1  0.12110000  0.32631000  0.87190000  1.0 0.1628160274
C  C46  1  0.85150000  0.21525000  0.75178000  1.0 0.1806649295
C  C47  1  0.79880000  0.24179000  0.82016000  1.0 0.0896194014
C  C48  1  0.76431000  0.21035000  0.81675000  1.0 -0.1525902392
C  C49  1  0.77691000  0.18289000  0.77871000  1.0 0.0715327656
C  C50  1  0.71486000  0.20808000  0.85404000  1.0 0.6375338456
C  C51  1  0.67870000  0.03776000  0.67160000  1.0 0.1806649295
C  C52  1  0.75357000  0.00891000  0.74391000  1.0 0.0896194014
C  C53  1  0.03830000  0.05991000  0.81522000  1.0 0.1881604356
C  C54  1  0.06960000  0.07173000  0.72620000  1.0 0.0896194014
C  C55  1  0.81420000  0.06458000  0.49031000  1.0 0.1806649295
C  C56  1  0.87192000  0.11532000  0.47458000  1.0 0.2113671622
C  C57  1  0.70563000  0.14753000  0.01308000  1.0 0.6255807198
C  C58  1  0.52330000  0.11612000  0.95910000  1.0 0.3660715318
C  C59  1  0.64425000  0.25670000  0.10011000  1.0 0.1998089797
C  C60  1  0.70977000  0.98260000  0.75010000  1.0 -0.1377531343
C  C61  1  0.12720000  0.05619000  0.74832000  1.0 -0.1792381609
C  C62  1  0.80380000  0.05777000  0.42538000  1.0 -0.1588690061
C  C63  1  0.76679000  0.13136000  0.04846000  1.0 -0.1588690061
C  C64  1  0.45910000  0.12662000  0.96320000  1.0 -0.5380174124
C  C65  1  0.55990000  0.09137000  0.00130000  1.0 -0.54850268
C  C66  1  0.70210000  0.24805000  0.14180000  1.0 -0.470809715
C  C67  1  0.62253000  0.29454000  0.09180000  1.0 -0.4614469164
C  C68  1  0.65280000  0.98663000  0.71390000  1.0 0.0415999381
C  C69  1  0.72447000  0.95020000  0.79405000  1.0 0.6530191994
C  C70  1  0.13770000  0.04179000  0.80915000  1.0 0.1098968468
C  C71  1  0.17670000  0.05140000  0.71242000  1.0 0.6184296008
C  C72  1  0.82800000  0.07883000  0.39072000  1.0 0.0594678753
C  C73  1  0.76020000  0.02376000  0.39950000  1.0 0.6375338456
C  C74  1  0.79037000  0.13981000  0.10902000  1.0 0.0823941696
C  C75  1  0.80120000  0.10825000  0.02220000  1.0 0.0823941696
C  C76  1  0.87290000  0.10540000  0.10980000  1.0 0.1663830078
C  C77  1  0.80030000  0.85874000  0.77480000  1.0 0.5843274391
C  C78  1  0.67540000  0.78948000  0.85956000  1.0 0.1375569661
C  C79  1  0.93790000  0.86932000  0.97770000  1.0 0.2300348265
C  C80  1  0.74240000  0.93260000  0.54050000  1.0 0.2300348265
C  C81  1  0.82870000  0.84687000  0.72530000  1.0 -0.2031106108
C  C82  1  0.69900000  0.77108000  0.80940000  1.0 -0.4515710129
C  C83  1  0.68530000  0.77137000  0.91965000  1.0 -0.4515710129
C  C84  1  0.98280000  0.86131000  0.94050000  1.0 -0.480028701
C  C85  1  0.95840000  0.90055000  0.02260000  1.0 -0.480028701
C  C86  1  0.67980000  0.91840000  0.55300000  1.0 -0.470809715
C  C87  1  0.77080000  0.96320000  0.57520000  1.0 -0.4861307943
C  C88  1  0.89020000  0.84521000  0.72712000  1.0 0.1881604356
C  C89  1  0.78940000  0.84003000  0.66940000  1.0 0.0505047052
C  C90  1  0.87890000  0.82631000  0.62810000  1.0 0.1628160274
C  C91  1  0.85150000  0.28475000  0.25178000  1.0 0.1806649295
C  C92  1  0.79880000  0.25821000  0.32016000  1.0 0.0896194014
C  C93  1  0.76431000  0.28965000  0.31675000  1.0 -0.1525902392
C  C94  1  0.77691000  0.31711000  0.27871000  1.0 0.0715327656
C  C95  1  0.71486000  0.29192000  0.35404000  1.0 0.6375338456
C  C96  1  0.67870000  0.46224000  0.17160000  1.0 0.1806649295
C  C97  1  0.75357000  0.49109000  0.24391000  1.0 0.0896194014
C  C98  1  0.03830000  0.44009000  0.31522000  1.0 0.1881604356
C  C99  1  0.06960000  0.42827000  0.22620000  1.0 0.0896194014
C  C100  1  0.81420000  0.43542000  0.99031000  1.0 0.1806649295
C  C101  1  0.87192000  0.38468000  0.97458000  1.0 0.2113671622
C  C102  1  0.70563000  0.35247000  0.51308000  1.0 0.6255807198
C  C103  1  0.52330000  0.38388000  0.45910000  1.0 0.3584483163
C  C104  1  0.64425000  0.24330000  0.60011000  1.0 0.1998089797
C  C105  1  0.70977000  0.51740000  0.25010000  1.0 -0.1377531343
C  C106  1  0.12720000  0.44381000  0.24832000  1.0 -0.1792381609
C  C107  1  0.80380000  0.44223000  0.92538000  1.0 -0.1588690061
C  C108  1  0.76679000  0.36864000  0.54846000  1.0 -0.1588690061
C  C109  1  0.45910000  0.37338000  0.46320000  1.0 -0.5380174124
C  C110  1  0.55990000  0.40863000  0.50130000  1.0 -0.54850268
C  C111  1  0.70210000  0.25195000  0.64180000  1.0 -0.470809715
C  C112  1  0.62253000  0.20546000  0.59180000  1.0 -0.4614469164
C  C113  1  0.65280000  0.51337000  0.21390000  1.0 0.0415999381
C  C114  1  0.72447000  0.54980000  0.29405000  1.0 0.6530191994
C  C115  1  0.13770000  0.45821000  0.30915000  1.0 0.1098968468
C  C116  1  0.17670000  0.44860000  0.21242000  1.0 0.6184296008
C  C117  1  0.82800000  0.42117000  0.89072000  1.0 0.0594678753
C  C118  1  0.76020000  0.47624000  0.89950000  1.0 0.6375338456
C  C119  1  0.79037000  0.36019000  0.60902000  1.0 0.0823941696
C  C120  1  0.80120000  0.39175000  0.52220000  1.0 0.0823941696
C  C121  1  0.87290000  0.39460000  0.60980000  1.0 0.1663830078
C  C122  1  0.80030000  0.64126000  0.27480000  1.0 0.5851524866
C  C123  1  0.67540000  0.71052000  0.35956000  1.0 0.1375569661
C  C124  1  0.93790000  0.63068000  0.47770000  1.0 0.2300348265
C  C125  1  0.74240000  0.56740000  0.04050000  1.0 0.2300348265
C  C126  1  0.82870000  0.65313000  0.22530000  1.0 -0.2031106108
C  C127  1  0.69900000  0.72892000  0.30940000  1.0 -0.4614469164
C  C128  1  0.68530000  0.72863000  0.41965000  1.0 -0.4515710129
C  C129  1  0.98280000  0.63869000  0.44050000  1.0 -0.480028701
C  C130  1  0.95840000  0.59945000  0.52260000  1.0 -0.480028701
C  C131  1  0.67980000  0.58160000  0.05300000  1.0 -0.470809715
C  C132  1  0.77080000  0.53680000  0.07520000  1.0 -0.480028701
C  C133  1  0.89020000  0.65479000  0.22712000  1.0 0.1881604356
C  C134  1  0.78940000  0.65997000  0.16940000  1.0 0.0505047052
C  C135  1  0.87890000  0.67369000  0.12810000  1.0 0.1628160274
C  C136  1  0.14850000  0.78475000  0.24822000  1.0 0.1806649295
C  C137  1  0.20120000  0.75821000  0.17984000  1.0 0.0896194014
C  C138  1  0.23569000  0.78965000  0.18325000  1.0 -0.1525902392
C  C139  1  0.22309000  0.81711000  0.22129000  1.0 0.0715327656
C  C140  1  0.28514000  0.79192000  0.14596000  1.0 0.6375338456
C  C141  1  0.32130000  0.96224000  0.32840000  1.0 0.1806649295
C  C142  1  0.24643000  0.99109000  0.25609000  1.0 0.0896194014
C  C143  1  0.96170000  0.94009000  0.18478000  1.0 0.1881604356
C  C144  1  0.93040000  0.92827000  0.27380000  1.0 0.1004772525
C  C145  1  0.18580000  0.93542000  0.50969000  1.0 0.1806649295
C  C146  1  0.12808000  0.88468000  0.52542000  1.0 0.2113671622
C  C147  1  0.29437000  0.85247000  0.98692000  1.0 0.6255807198
C  C148  1  0.47670000  0.88388000  0.04090000  1.0 0.3584483163
C  C149  1  0.35575000  0.74330000  0.89989000  1.0 0.1998089797
C  C150  1  0.29023000  0.01740000  0.24990000  1.0 -0.1377531343
C  C151  1  0.87280000  0.94381000  0.25168000  1.0 -0.1792381609
C  C152  1  0.19620000  0.94223000  0.57462000  1.0 -0.1680038997
C  C153  1  0.23321000  0.86864000  0.95154000  1.0 -0.1588690061
C  C154  1  0.54090000  0.87338000  0.03680000  1.0 -0.5380174124
C  C155  1  0.44010000  0.90863000  0.99870000  1.0 -0.54850268
C  C156  1  0.29790000  0.75195000  0.85820000  1.0 -0.470809715
C  C157  1  0.37747000  0.70546000  0.90820000  1.0 -0.4614469164
C  C158  1  0.34720000  0.01337000  0.28610000  1.0 0.0415999381
C  C159  1  0.27553000  0.04980000  0.20595000  1.0 0.6530191994
C  C160  1  0.86230000  0.95821000  0.19085000  1.0 0.1098968468
C  C161  1  0.82330000  0.94860000  0.28758000  1.0 0.6184296008
C  C162  1  0.17200000  0.92117000  0.60928000  1.0 0.0594678753
C  C163  1  0.23980000  0.97624000  0.60050000  1.0 0.6375338456
C  C164  1  0.20963000  0.86019000  0.89098000  1.0 0.0823941696
C  C165  1  0.19880000  0.89175000  0.97780000  1.0 0.0823941696
C  C166  1  0.12710000  0.89460000  0.89020000  1.0 0.1628160274
C  C167  1  0.19970000  0.14126000  0.22520000  1.0 0.5851524866
C  C168  1  0.32460000  0.21052000  0.14044000  1.0 0.1375569661
C  C169  1  0.06210000  0.13068000  0.02230000  1.0 0.2300348265
C  C170  1  0.25760000  0.06740000  0.45950000  1.0 0.2300348265
C  C171  1  0.17130000  0.15313000  0.27470000  1.0 -0.2031106108
C  C172  1  0.30100000  0.22892000  0.19060000  1.0 -0.4515710129
C  C173  1  0.31470000  0.22863000  0.08035000  1.0 -0.4439555549
C  C174  1  0.01720000  0.13869000  0.05950000  1.0 -0.480028701
C  C175  1  0.04160000  0.09945000  0.97740000  1.0 -0.480028701
C  C176  1  0.32020000  0.08160000  0.44700000  1.0 -0.470809715
C  C177  1  0.22920000  0.03680000  0.42480000  1.0 -0.480028701
C  C178  1  0.10980000  0.15479000  0.27288000  1.0 0.1881604356
C  C179  1  0.21060000  0.15997000  0.33060000  1.0 0.0505047052
C  C180  1  0.12110000  0.17369000  0.37190000  1.0 0.1628160274
I  I1  1  0.21768000  0.83918000  0.72599000  1.0 -0.3544182384
I  I2  1  0.04881000  0.79619000  0.79927000  1.0 -0.3553467893
I  I3  1  0.04343000  0.90631000  0.70488000  1.0 -0.3308202188
I  I4  1  0.04225000  0.80060000  0.59174000  1.0 -0.2930355096
I  I5  1  0.13302000  0.59384000  0.69402000  1.0 -0.373169055
I  I6  1  0.05049000  0.65169000  0.84372000  1.0 -0.2782697508
I  I7  1  0.25478000  0.62355000  0.88414000  1.0 -0.3904873633
I  I8  1  0.10752000  0.53191000  0.85429000  1.0 -0.3208437627
I  I9  1  0.78232000  0.33918000  0.77401000  1.0 -0.3544182384
I  I10  1  0.95119000  0.29619000  0.70073000  1.0 -0.3553467893
I  I11  1  0.95657000  0.40631000  0.79512000  1.0 -0.3308202188
I  I12  1  0.95775000  0.30060000  0.90826000  1.0 -0.2930355096
I  I13  1  0.86698000  0.09384000  0.80598000  1.0 -0.373169055
I  I14  1  0.94951000  0.15169000  0.65628000  1.0 -0.2782697508
I  I15  1  0.74522000  0.12355000  0.61586000  1.0 -0.3904873633
I  I16  1  0.89248000  0.03191000  0.64571000  1.0 -0.3208437627
I  I17  1  0.78232000  0.16082000  0.27401000  1.0 -0.3544182384
I  I18  1  0.95119000  0.20381000  0.20073000  1.0 -0.3553467893
I  I19  1  0.95657000  0.09369000  0.29512000  1.0 -0.3308202188
I  I20  1  0.95775000  0.19940000  0.40826000  1.0 -0.2930355096
I  I21  1  0.86698000  0.40616000  0.30598000  1.0 -0.373169055
I  I22  1  0.94951000  0.34831000  0.15628000  1.0 -0.2782697508
I  I23  1  0.74522000  0.37645000  0.11586000  1.0 -0.3904873633
I  I24  1  0.89248000  0.46809000  0.14571000  1.0 -0.3208437627
I  I25  1  0.21768000  0.66082000  0.22599000  1.0 -0.3544182384
I  I26  1  0.04881000  0.70381000  0.29927000  1.0 -0.3544182384
I  I27  1  0.04343000  0.59369000  0.20488000  1.0 -0.3308202188
I  I28  1  0.04225000  0.69940000  0.09174000  1.0 -0.2930355096
I  I29  1  0.13302000  0.90616000  0.19402000  1.0 -0.373169055
I  I30  1  0.05049000  0.84831000  0.34372000  1.0 -0.2782697508
I  I31  1  0.25478000  0.87645000  0.38414000  1.0 -0.3904873633
I  I32  1  0.10752000  0.96809000  0.35429000  1.0 -0.3208437627
N  N1  1  0.15556000  0.62779000  0.35979000  1.0 -0.241151029
N  N2  1  0.15710000  0.74470000  0.71267000  1.0 -0.241151029
N  N3  1  0.13823000  0.60888000  0.08722000  1.0 -0.241151029
N  N4  1  0.08290000  0.33470000  0.81670000  1.0 -0.2229360209
N  N5  1  0.17847000  0.68438000  0.75338000  1.0 -0.2229360209
N  N6  1  0.26060000  0.53563000  0.79698000  1.0 -0.241151029
N  N7  1  0.97548000  0.57370000  0.74078000  1.0 -0.241151029
N  N8  1  0.14906000  0.59288000  0.98649000  1.0 -0.241151029
N  N9  1  0.36480000  0.51512000  0.82530000  1.0 -0.295846552
N  N10  1  0.90561000  0.54504000  0.65756000  1.0 -0.3208437627
N  N11  1  0.14350000  0.59475000  0.44805000  1.0 -0.3208437627
N  N12  1  0.18720000  0.32145000  0.87750000  1.0 -0.3208437627
N  N13  1  0.84444000  0.12779000  0.14021000  1.0 -0.241151029
N  N14  1  0.84290000  0.24470000  0.78733000  1.0 -0.241151029
N  N15  1  0.86177000  0.10888000  0.41278000  1.0 -0.241151029
N  N16  1  0.91710000  0.83470000  0.68330000  1.0 -0.2229360209
N  N17  1  0.82153000  0.18438000  0.74662000  1.0 -0.2229360209
N  N18  1  0.73940000  0.03563000  0.70302000  1.0 -0.241151029
N  N19  1  0.02452000  0.07370000  0.75922000  1.0 -0.241151029
N  N20  1  0.85094000  0.09288000  0.51351000  1.0 -0.241151029
N  N21  1  0.63520000  0.01512000  0.67470000  1.0 -0.2930355096
N  N22  1  0.09439000  0.04504000  0.84244000  1.0 -0.3308202188
N  N23  1  0.85650000  0.09475000  0.05195000  1.0 -0.3208437627
N  N24  1  0.81280000  0.82145000  0.62250000  1.0 -0.3208437627
N  N25  1  0.84444000  0.37221000  0.64021000  1.0 -0.241151029
N  N26  1  0.84290000  0.25530000  0.28733000  1.0 -0.241151029
N  N27  1  0.86177000  0.39112000  0.91278000  1.0 -0.241151029
N  N28  1  0.91710000  0.66530000  0.18330000  1.0 -0.2229360209
N  N29  1  0.82153000  0.31562000  0.24662000  1.0 -0.2229360209
N  N30  1  0.73940000  0.46437000  0.20302000  1.0 -0.241151029
N  N31  1  0.02452000  0.42630000  0.25922000  1.0 -0.241151029
N  N32  1  0.85094000  0.40712000  0.01351000  1.0 -0.241151029
N  N33  1  0.63520000  0.48488000  0.17470000  1.0 -0.295846552
N  N34  1  0.09439000  0.45496000  0.34244000  1.0 -0.3208437627
N  N35  1  0.85650000  0.40525000  0.55195000  1.0 -0.3208437627
N  N36  1  0.81280000  0.67855000  0.12250000  1.0 -0.3308202188
N  N37  1  0.15556000  0.87221000  0.85979000  1.0 -0.241151029
N  N38  1  0.15710000  0.75530000  0.21267000  1.0 -0.241151029
N  N39  1  0.13823000  0.89112000  0.58722000  1.0 -0.241151029
N  N40  1  0.08290000  0.16530000  0.31670000  1.0 -0.2229360209
N  N41  1  0.17847000  0.81562000  0.25338000  1.0 -0.2229360209
N  N42  1  0.26060000  0.96437000  0.29698000  1.0 -0.241151029
N  N43  1  0.97548000  0.92630000  0.24078000  1.0 -0.241151029
N  N44  1  0.14906000  0.90712000  0.48649000  1.0 -0.241151029
N  N45  1  0.36480000  0.98488000  0.32530000  1.0 -0.295846552
N  N46  1  0.90561000  0.95496000  0.15756000  1.0 -0.3208437627
N  N47  1  0.14350000  0.90525000  0.94805000  1.0 -0.3208437627
N  N48  1  0.18720000  0.17855000  0.37750000  1.0 -0.3308202188
O  O1  1  0.32060000  0.67904000  0.65334000  1.0 -0.6587904149
O  O2  1  0.28781000  0.73486000  0.61008000  1.0 -0.6529872024
O  O3  1  0.30830000  0.64285000  0.54514000  1.0 -0.6032743921
O  O4  1  0.37686000  0.70607000  0.55729000  1.0 -1.2793750369
O  O5  1  0.44082000  0.65027000  0.54538000  1.0 -0.8935971462
O  O6  1  0.36364000  0.73870000  0.45911000  1.0 -0.8343744183
O  O7  1  0.32912000  0.66451000  0.45550000  1.0 -0.6310682897
O  O8  1  0.31502000  0.42611000  0.70845000  1.0 -0.6032743921
O  O9  1  0.22111000  0.45286000  0.66941000  1.0 -0.6701903645
O  O10  1  0.77393000  0.53358000  0.76256000  1.0 -0.7182724877
O  O11  1  0.83459000  0.56565000  0.83876000  1.0 -0.6310682897
O  O12  1  0.24732000  0.51984000  0.15693000  1.0 -0.6088756078
O  O13  1  0.27480000  0.51198000  0.06340000  1.0 -0.6183816039
O  O14  1  0.23263000  0.38808000  0.61014000  1.0 -1.3049474561
O  O15  1  0.25488000  0.36423000  0.73150000  1.0 -0.5274910533
O  O16  1  0.28321000  0.32783000  0.62534000  1.0 -0.8612871457
O  O17  1  0.12433000  0.37646000  0.55529000  1.0 -0.8385361139
O  O18  1  0.28661000  0.45216000  0.14404000  1.0 -1.3280905091
O  O19  1  0.37810000  0.49898000  0.17168000  1.0 -1.2793750369
O  O20  1  0.26950000  0.43855000  0.02734000  1.0 -0.8612871457
O  O21  1  0.16780000  0.33739000  0.67250000  1.0 -0.4271591061
O  O22  1  0.15420000  0.38555000  0.68750000  1.0 -0.4439555549
O  O23  1  0.67940000  0.17904000  0.84666000  1.0 -0.6701903645
O  O24  1  0.71219000  0.23486000  0.88992000  1.0 -0.6587904149
O  O25  1  0.69170000  0.14285000  0.95486000  1.0 -0.6032743921
O  O26  1  0.62314000  0.20607000  0.94271000  1.0 -1.2917701566
O  O27  1  0.55918000  0.15027000  0.95462000  1.0 -0.8935971462
O  O28  1  0.63636000  0.23870000  0.04089000  1.0 -0.8343744183
O  O29  1  0.67088000  0.16451000  0.04450000  1.0 -0.6310682897
O  O30  1  0.68498000  0.92611000  0.79155000  1.0 -0.6032743921
O  O31  1  0.77889000  0.95286000  0.83059000  1.0 -0.6701903645
O  O32  1  0.22607000  0.03358000  0.73744000  1.0 -0.7138325774
O  O33  1  0.16541000  0.06565000  0.66124000  1.0 -0.6183816039
O  O34  1  0.75268000  0.01984000  0.34307000  1.0 -0.6088756078
O  O35  1  0.72520000  0.01198000  0.43660000  1.0 -0.6183816039
O  O36  1  0.76737000  0.88808000  0.88986000  1.0 -1.2917701566
O  O37  1  0.74512000  0.86423000  0.76850000  1.0 -0.5274910533
O  O38  1  0.71679000  0.82783000  0.87466000  1.0 -0.8612871457
O  O39  1  0.87567000  0.87646000  0.94471000  1.0 -0.8385361139
O  O40  1  0.71339000  0.95216000  0.35596000  1.0 -1.3093310201
O  O41  1  0.62190000  0.99898000  0.32832000  1.0 -1.2917701566
O  O42  1  0.73050000  0.93855000  0.47266000  1.0 -0.8656555021
O  O43  1  0.83220000  0.83739000  0.82750000  1.0 -0.4271591061
O  O44  1  0.84580000  0.88555000  0.81250000  1.0 -0.4515710129
O  O45  1  0.67940000  0.32096000  0.34666000  1.0 -0.6701903645
O  O46  1  0.71219000  0.26514000  0.38992000  1.0 -0.6587904149
O  O47  1  0.69170000  0.35715000  0.45486000  1.0 -0.6032743921
O  O48  1  0.62314000  0.29393000  0.44271000  1.0 -1.2793750369
O  O49  1  0.55918000  0.34973000  0.45462000  1.0 -0.8935971462
O  O50  1  0.63636000  0.26130000  0.54089000  1.0 -0.8385361139
O  O51  1  0.67088000  0.33549000  0.54450000  1.0 -0.6310682897
O  O52  1  0.68498000  0.57389000  0.29155000  1.0 -0.6032743921
O  O53  1  0.77889000  0.54714000  0.33059000  1.0 -0.6758437955
O  O54  1  0.22607000  0.46642000  0.23744000  1.0 -0.7182724877
O  O55  1  0.16541000  0.43435000  0.16124000  1.0 -0.6183816039
O  O56  1  0.75268000  0.48016000  0.84307000  1.0 -0.6032743921
O  O57  1  0.72520000  0.48802000  0.93660000  1.0 -0.6088756078
O  O58  1  0.76737000  0.61192000  0.38986000  1.0 -1.2917701566
O  O59  1  0.74512000  0.63577000  0.26850000  1.0 -0.5274910533
O  O60  1  0.71679000  0.67217000  0.37466000  1.0 -0.8612871457
O  O61  1  0.87567000  0.62354000  0.44471000  1.0 -0.8385361139
O  O62  1  0.71339000  0.54784000  0.85596000  1.0 -1.3206874931
O  O63  1  0.62190000  0.50102000  0.82832000  1.0 -1.2734435403
O  O64  1  0.73050000  0.56145000  0.97266000  1.0 -0.8612871457
O  O65  1  0.83220000  0.66261000  0.32750000  1.0 -0.4271591061
O  O66  1  0.84580000  0.61445000  0.31250000  1.0 -0.4439555549
O  O67  1  0.32060000  0.82096000  0.15334000  1.0 -0.6701903645
O  O68  1  0.28781000  0.76514000  0.11008000  1.0 -0.6587904149
O  O69  1  0.30830000  0.85715000  0.04514000  1.0 -0.6032743921
O  O70  1  0.37686000  0.79393000  0.05729000  1.0 -1.2793750369
O  O71  1  0.44082000  0.84973000  0.04538000  1.0 -0.8935971462
O  O72  1  0.36364000  0.76130000  0.95911000  1.0 -0.8385361139
O  O73  1  0.32912000  0.83549000  0.95550000  1.0 -0.6310682897
O  O74  1  0.31502000  0.07389000  0.20845000  1.0 -0.6032743921
O  O75  1  0.22111000  0.04714000  0.16941000  1.0 -0.6701903645
O  O76  1  0.77393000  0.96642000  0.26256000  1.0 -0.7182724877
O  O77  1  0.83459000  0.93435000  0.33876000  1.0 -0.6310682897
O  O78  1  0.24732000  0.98016000  0.65693000  1.0 -0.6088756078
O  O79  1  0.27480000  0.98802000  0.56340000  1.0 -0.6183816039
O  O80  1  0.23263000  0.11192000  0.11014000  1.0 -1.2917701566
O  O81  1  0.25488000  0.13577000  0.23150000  1.0 -0.5274910533
O  O82  1  0.28321000  0.17217000  0.12534000  1.0 -0.8612871457
O  O83  1  0.12433000  0.12354000  0.05529000  1.0 -0.8385361139
O  O84  1  0.28661000  0.04784000  0.64404000  1.0 -1.3206874931
O  O85  1  0.37810000  0.00102000  0.67168000  1.0 -1.2793750369
O  O86  1  0.26950000  0.06145000  0.52734000  1.0 -0.8612871457
O  O87  1  0.16780000  0.16261000  0.17250000  1.0 -0.4271591061
O  O88  1  0.15420000  0.11445000  0.18750000  1.0 -0.4439555549
