# DDEC6 charges by PACMAN v1.1 (https://github.com/mtap-research/PACMAN-charge/)
data_HENFOY_FSR_pacman
_symmetry_space_group_name_H-M   'P 1'
_cell_length_a   21.53300000
_cell_length_b   36.31200000
_cell_length_c   22.02000000
_cell_angle_alpha   90.00000000
_cell_angle_beta   102.93000000
_cell_angle_gamma   90.00000000
_symmetry_Int_Tables_number   1
_chemical_formula_structural   Ti9Cu8H123C78I8(N3O10)4
_chemical_formula_sum   'Ti36 Cu32 H492 C312 I32 N48 O160'
_cell_volume   16781.01064159
_cell_formula_units_Z   4
loop_
 _symmetry_equiv_pos_site_id
 _symmetry_equiv_pos_as_xyz
  1  'x, y, z'
loop_
 _atom_site_type_symbol
 _atom_site_label
 _atom_site_symmetry_multiplicity
 _atom_site_fract_x
 _atom_site_fract_y
 _atom_site_fract_z
 _atom_site_occupancy
 _atom_site_charge
Ti  Ti1  1  0.39217000  0.66092000  0.61077000  1.0 1.9985103925
Ti  Ti2  1  0.32068000  0.74336000  0.52971000  1.0 1.95914193
Ti  Ti3  1  0.41881000  0.69435000  0.48738000  1.0 1.9111516079
Ti  Ti4  1  0.31521000  0.37505000  0.66708000  1.0 1.95914193
Ti  Ti5  1  0.16197000  0.42056000  0.60316000  1.0 1.9729488989
Ti  Ti6  1  0.69112000  0.51668000  0.78510000  1.0 1.9822670421
Ti  Ti7  1  0.78820000  0.56743000  0.91634000  1.0 2.0629923742
Ti  Ti8  1  0.34115000  0.46433000  0.08781000  1.0 2.010444363
Ti  Ti9  1  0.19614000  0.34125000  0.57523000  1.0 2.021258851
Ti  Ti10  1  0.60783000  0.16092000  0.88923000  1.0 1.9985103925
Ti  Ti11  1  0.67932000  0.24336000  0.97029000  1.0 1.95914193
Ti  Ti12  1  0.58119000  0.19435000  0.01262000  1.0 1.9111516079
Ti  Ti13  1  0.68479000  0.87505000  0.83292000  1.0 1.95914193
Ti  Ti14  1  0.83803000  0.92056000  0.89684000  1.0 1.9729488989
Ti  Ti15  1  0.30888000  0.01668000  0.71490000  1.0 1.98825713
Ti  Ti16  1  0.21180000  0.06743000  0.58366000  1.0 2.0629923742
Ti  Ti17  1  0.65885000  0.96433000  0.41219000  1.0 2.010444363
Ti  Ti18  1  0.80386000  0.84125000  0.92477000  1.0 2.021258851
Ti  Ti19  1  0.60783000  0.33908000  0.38923000  1.0 1.9985103925
Ti  Ti20  1  0.67932000  0.25664000  0.47029000  1.0 1.95914193
Ti  Ti21  1  0.58119000  0.30565000  0.51262000  1.0 1.9111516079
Ti  Ti22  1  0.68479000  0.62495000  0.33292000  1.0 1.95914193
Ti  Ti23  1  0.83803000  0.57944000  0.39684000  1.0 1.9729488989
Ti  Ti24  1  0.30888000  0.48332000  0.21490000  1.0 1.98825713
Ti  Ti25  1  0.21180000  0.43257000  0.08366000  1.0 2.0657004913
Ti  Ti26  1  0.65885000  0.53567000  0.91219000  1.0 1.9985103925
Ti  Ti27  1  0.80386000  0.65875000  0.42477000  1.0 2.021258851
Ti  Ti28  1  0.39217000  0.83908000  0.11077000  1.0 1.9985103925
Ti  Ti29  1  0.32068000  0.75664000  0.02971000  1.0 1.95914193
Ti  Ti30  1  0.41881000  0.80565000  0.98738000  1.0 1.9111516079
Ti  Ti31  1  0.31521000  0.12495000  0.16708000  1.0 1.95914193
Ti  Ti32  1  0.16197000  0.07944000  0.10316000  1.0 1.9729488989
Ti  Ti33  1  0.69112000  0.98332000  0.28510000  1.0 1.9822670421
Ti  Ti34  1  0.78820000  0.93257000  0.41634000  1.0 2.0629923742
Ti  Ti35  1  0.34115000  0.03567000  0.58781000  1.0 2.010444363
Ti  Ti36  1  0.19614000  0.15875000  0.07523000  1.0 2.021258851
Cu  Cu1  1  0.11523000  0.85594000  0.77047000  1.0 0.1496834649
Cu  Cu2  1  0.11146000  0.79472000  0.71115000  1.0 0.1400588802
Cu  Cu3  1  0.10694000  0.85628000  0.64805000  1.0 0.1400588802
Cu  Cu4  1  0.01144000  0.83394000  0.68916000  1.0 0.1400588802
Cu  Cu5  1  0.15247000  0.64035000  0.79743000  1.0 0.1400588802
Cu  Cu6  1  0.19196000  0.57200000  0.80974000  1.0 0.1496834649
Cu  Cu7  1  0.06625000  0.58992000  0.77994000  1.0 0.1400588802
Cu  Cu8  1  0.13476000  0.60173000  0.89244000  1.0 0.1496834649
Cu  Cu9  1  0.88477000  0.35594000  0.72953000  1.0 0.1496834649
Cu  Cu10  1  0.88854000  0.29472000  0.78885000  1.0 0.1400588802
Cu  Cu11  1  0.89306000  0.35628000  0.85195000  1.0 0.1496834649
Cu  Cu12  1  0.98856000  0.33394000  0.81084000  1.0 0.1308854148
Cu  Cu13  1  0.84753000  0.14035000  0.70257000  1.0 0.1400588802
Cu  Cu14  1  0.80804000  0.07200000  0.69026000  1.0 0.1496834649
Cu  Cu15  1  0.93375000  0.08992000  0.72006000  1.0 0.1496834649
Cu  Cu16  1  0.86524000  0.10173000  0.60756000  1.0 0.1496834649
Cu  Cu17  1  0.88477000  0.14406000  0.22953000  1.0 0.1496834649
Cu  Cu18  1  0.88854000  0.20528000  0.28885000  1.0 0.1400588802
Cu  Cu19  1  0.89306000  0.14372000  0.35195000  1.0 0.1496834649
Cu  Cu20  1  0.98856000  0.16606000  0.31084000  1.0 0.1400588802
Cu  Cu21  1  0.84753000  0.35965000  0.20257000  1.0 0.1400588802
Cu  Cu22  1  0.80804000  0.42800000  0.19026000  1.0 0.1496834649
Cu  Cu23  1  0.93375000  0.41008000  0.22006000  1.0 0.1400588802
Cu  Cu24  1  0.86524000  0.39827000  0.10756000  1.0 0.1496834649
Cu  Cu25  1  0.11523000  0.64406000  0.27047000  1.0 0.1400588802
Cu  Cu26  1  0.11146000  0.70528000  0.21115000  1.0 0.1400588802
Cu  Cu27  1  0.10694000  0.64372000  0.14805000  1.0 0.1400588802
Cu  Cu28  1  0.01144000  0.66606000  0.18916000  1.0 0.1308854148
Cu  Cu29  1  0.15247000  0.85965000  0.29743000  1.0 0.1400588802
Cu  Cu30  1  0.19196000  0.92800000  0.30974000  1.0 0.1496834649
Cu  Cu31  1  0.06625000  0.91008000  0.27994000  1.0 0.1400588802
Cu  Cu32  1  0.13476000  0.89827000  0.39244000  1.0 0.1496834649
H  H1  1  0.11740000  0.71770000  0.77130000  1.0 0.1206431472
H  H2  1  0.20860000  0.76110000  0.65460000  1.0 0.1308854148
H  H3  1  0.24780000  0.66170000  0.72470000  1.0 0.1308854148
H  H4  1  0.33250000  0.55780000  0.85500000  1.0 0.1206431472
H  H5  1  0.20570000  0.50780000  0.73070000  1.0 0.1400588802
H  H6  1  0.99320000  0.56050000  0.66200000  1.0 0.1206431472
H  H7  1  0.93920000  0.58150000  0.81390000  1.0 0.1308854148
H  H8  1  0.10550000  0.63630000  0.00930000  1.0 0.1206431472
H  H9  1  0.33870000  0.57710000  0.59020000  1.0 0.080157814
H  H10  1  0.46220000  0.67710000  0.77050000  1.0 0.1093889056
H  H11  1  0.38780000  0.74480000  0.38110000  1.0 0.0899059126
H  H12  1  0.35980000  0.81650000  0.62750000  1.0 0.080157814
H  H13  1  0.41400000  0.55000000  0.70310000  1.0 0.1400588802
H  H14  1  0.37600000  0.52570000  0.64830000  1.0 0.1206431472
H  H15  1  0.43520000  0.54850000  0.63950000  1.0 0.1496834649
H  H16  1  0.27970000  0.60630000  0.63890000  1.0 0.1400588802
H  H17  1  0.28130000  0.56510000  0.66030000  1.0 0.1308854148
H  H18  1  0.32140000  0.59480000  0.70390000  1.0 0.1400588802
H  H19  1  0.55550000  0.64650000  0.56520000  1.0 0.1683274998
H  H20  1  0.56900000  0.60590000  0.54760000  1.0 0.1683274998
H  H21  1  0.54070000  0.63440000  0.49510000  1.0 0.1577310243
H  H22  1  0.43090000  0.60200000  0.45770000  1.0 0.1683274998
H  H23  1  0.46340000  0.56890000  0.49840000  1.0 0.1683274998
H  H24  1  0.40100000  0.58630000  0.51110000  1.0 0.1784590657
H  H25  1  0.41520000  0.73610000  0.72190000  1.0 0.1400588802
H  H26  1  0.48600000  0.74720000  0.75090000  1.0 0.1308854148
H  H27  1  0.46530000  0.73720000  0.68000000  1.0 0.1496834649
H  H28  1  0.55260000  0.71530000  0.70440000  1.0 0.1206431472
H  H29  1  0.56200000  0.71920000  0.77680000  1.0 0.1206431472
H  H30  1  0.57640000  0.68160000  0.74790000  1.0 0.1496834649
H  H31  1  0.26290000  0.75500000  0.37630000  1.0 0.1496834649
H  H32  1  0.29510000  0.76120000  0.31990000  1.0 0.1400588802
H  H33  1  0.29610000  0.72210000  0.35000000  1.0 0.1496834649
H  H34  1  0.40300000  0.79770000  0.44960000  1.0 0.1496834649
H  H35  1  0.40240000  0.80030000  0.37840000  1.0 0.1400588802
H  H36  1  0.34130000  0.81070000  0.40220000  1.0 0.1496834649
H  H37  1  0.14060000  0.72530000  0.53530000  1.0 0.1496834649
H  H38  1  0.09970000  0.71270000  0.47060000  1.0 0.1496834649
H  H39  1  0.16140000  0.69090000  0.50170000  1.0 0.1496834649
H  H40  1  0.17580000  0.78410000  0.42100000  1.0 0.1496834649
H  H41  1  0.11160000  0.77430000  0.43950000  1.0 0.1496834649
H  H42  1  0.16980000  0.78850000  0.49030000  1.0 0.1496834649
H  H43  1  0.25510000  0.82660000  0.58000000  1.0 0.1308854148
H  H44  1  0.29090000  0.86440000  0.59200000  1.0 0.1400588802
H  H45  1  0.27550000  0.84720000  0.52500000  1.0 0.1496834649
H  H46  1  0.39180000  0.85470000  0.52420000  1.0 0.1496834649
H  H47  1  0.41100000  0.86790000  0.59370000  1.0 0.1400588802
H  H48  1  0.44240000  0.83250000  0.57290000  1.0 0.1308854148
H  H49  1  0.37750000  0.46860000  0.78460000  1.0 0.1496834649
H  H50  1  0.82420000  0.52980000  0.67400000  1.0 0.1206431472
H  H51  1  0.17800000  0.57320000  0.15140000  1.0 0.1400588802
H  H52  1  0.23350000  0.65500000  0.37090000  1.0 0.1308854148
H  H53  1  0.21460000  0.60130000  0.51910000  1.0 0.1308854148
H  H54  1  0.45350000  0.63190000  0.36520000  1.0 0.080157814
H  H55  1  0.49950000  0.74590000  0.58290000  1.0 0.1206431472
H  H56  1  0.41540000  0.69750000  0.30190000  1.0 0.1496834649
H  H57  1  0.40800000  0.65780000  0.27320000  1.0 0.1496834649
H  H58  1  0.36380000  0.67070000  0.31690000  1.0 0.1496834649
H  H59  1  0.51350000  0.77850000  0.47520000  1.0 0.1683274998
H  H60  1  0.54770000  0.79620000  0.53890000  1.0 0.1577310243
H  H61  1  0.58550000  0.77000000  0.50360000  1.0 0.1577310243
H  H62  1  0.61890000  0.73470000  0.57750000  1.0 0.1496834649
H  H63  1  0.58540000  0.71850000  0.62790000  1.0 0.1577310243
H  H64  1  0.58630000  0.69590000  0.56750000  1.0 0.1496834649
H  H65  1  0.08920000  0.59540000  0.36740000  1.0 0.1206431472
H  H66  1  0.35020000  0.33390000  0.79750000  1.0 0.0744102754
H  H67  1  0.42270000  0.40420000  0.57110000  1.0 0.0744102754
H  H68  1  0.36990000  0.29540000  0.65520000  1.0 0.080157814
H  H69  1  0.06420000  0.34730000  0.49700000  1.0 0.0899059126
H  H70  1  0.11130000  0.48250000  0.47580000  1.0 0.080157814
H  H71  1  0.02810000  0.42400000  0.67980000  1.0 0.0997923555
H  H72  1  0.22690000  0.41240000  0.94980000  1.0 0.0899059126
H  H73  1  0.44200000  0.38640000  0.82540000  1.0 0.1496834649
H  H74  1  0.36910000  0.39370000  0.81980000  1.0 0.1496834649
H  H75  1  0.40630000  0.36730000  0.87160000  1.0 0.1400588802
H  H76  1  0.43340000  0.29900000  0.77700000  1.0 0.1577310243
H  H77  1  0.48020000  0.33240000  0.79460000  1.0 0.1496834649
H  H78  1  0.45160000  0.31320000  0.84600000  1.0 0.1308854148
H  H79  1  0.33320000  0.43950000  0.52550000  1.0 0.1577310243
H  H80  1  0.33610000  0.46060000  0.58820000  1.0 0.1496834649
H  H81  1  0.38960000  0.46660000  0.55110000  1.0 0.1400588802
H  H82  1  0.43860000  0.45160000  0.67330000  1.0 0.1496834649
H  H83  1  0.45360000  0.41010000  0.69000000  1.0 0.1496834649
H  H84  1  0.49160000  0.43100000  0.64770000  1.0 0.1400588802
H  H85  1  0.30550000  0.28740000  0.72570000  1.0 0.1496834649
H  H86  1  0.25690000  0.26480000  0.67580000  1.0 0.1683274998
H  H87  1  0.32530000  0.24910000  0.70300000  1.0 0.1400588802
H  H88  1  0.32350000  0.24550000  0.58630000  1.0 0.1400588802
H  H89  1  0.27140000  0.27470000  0.55820000  1.0 0.1577310243
H  H90  1  0.34280000  0.28180000  0.55670000  1.0 0.1496834649
H  H91  1  0.01930000  0.33560000  0.56990000  1.0 0.1577310243
H  H92  1  0.02720000  0.37570000  0.59700000  1.0 0.1496834649
H  H93  1  0.97510000  0.36730000  0.53650000  1.0 0.1308854148
H  H94  1  0.01320000  0.41640000  0.49310000  1.0 0.1496834649
H  H95  1  0.07840000  0.41430000  0.47280000  1.0 0.1496834649
H  H96  1  0.02020000  0.39090000  0.43760000  1.0 0.1496834649
H  H97  1  0.24450000  0.48730000  0.50450000  1.0 0.1496834649
H  H98  1  0.19910000  0.48170000  0.43880000  1.0 0.1400588802
H  H99  1  0.20660000  0.52080000  0.46960000  1.0 0.1400588802
H  H100  1  0.09170000  0.50960000  0.55480000  1.0 0.1496834649
H  H101  1  0.16320000  0.50970000  0.59120000  1.0 0.1496834649
H  H102  1  0.14000000  0.53730000  0.53600000  1.0 0.1400588802
H  H103  1  0.01760000  0.49110000  0.60010000  1.0 0.1400588802
H  H104  1  0.97680000  0.45590000  0.57740000  1.0 0.1400588802
H  H105  1  0.96300000  0.47930000  0.63270000  1.0 0.1308854148
H  H106  1  0.31160000  0.39860000  0.91750000  1.0 0.1093889056
H  H107  1  0.34140000  0.43790000  0.93040000  1.0 0.1400588802
H  H108  1  0.34680000  0.40970000  0.98520000  1.0 0.1577310243
H  H109  1  0.25750000  0.48390000  0.93300000  1.0 0.1496834649
H  H110  1  0.22060000  0.45740000  0.88110000  1.0 0.1093889056
H  H111  1  0.19000000  0.46920000  0.93650000  1.0 0.1577310243
H  H112  1  0.25290000  0.34750000  0.83830000  1.0 0.1400588802
H  H113  1  0.10390000  0.32370000  0.90680000  1.0 0.1308854148
H  H114  1  0.55240000  0.68210000  0.40590000  1.0 0.1577310243
H  H115  1  0.54870000  0.67170000  0.33610000  1.0 0.1496834649
H  H116  1  0.51800000  0.70850000  0.35250000  1.0 0.1496834649
H  H117  1  0.71210000  0.43310000  0.74940000  1.0 0.0997923555
H  H118  1  0.76730000  0.46010000  0.65970000  1.0 0.1400588802
H  H119  1  0.78460000  0.42410000  0.69920000  1.0 0.1206431472
H  H120  1  0.79770000  0.46270000  0.73120000  1.0 0.1496834649
H  H121  1  0.61950000  0.42300000  0.66690000  1.0 0.1400588802
H  H122  1  0.67790000  0.40220000  0.65170000  1.0 0.1308854148
H  H123  1  0.65500000  0.43950000  0.61820000  1.0 0.1400588802
H  H124  1  0.88260000  0.21770000  0.72870000  1.0 0.1206431472
H  H125  1  0.79140000  0.26110000  0.84540000  1.0 0.1308854148
H  H126  1  0.75220000  0.16170000  0.77530000  1.0 0.1308854148
H  H127  1  0.66750000  0.05780000  0.64500000  1.0 0.1206431472
H  H128  1  0.79430000  0.00780000  0.76930000  1.0 0.1308854148
H  H129  1  0.00680000  0.06050000  0.83800000  1.0 0.1206431472
H  H130  1  0.06080000  0.08150000  0.68610000  1.0 0.1308854148
H  H131  1  0.89450000  0.13630000  0.49070000  1.0 0.1206431472
H  H132  1  0.66130000  0.07710000  0.90980000  1.0 0.080157814
H  H133  1  0.53780000  0.17710000  0.72950000  1.0 0.1093889056
H  H134  1  0.61220000  0.24480000  0.11890000  1.0 0.0899059126
H  H135  1  0.64020000  0.31650000  0.87250000  1.0 0.080157814
H  H136  1  0.58600000  0.05000000  0.79690000  1.0 0.1400588802
H  H137  1  0.62400000  0.02570000  0.85170000  1.0 0.1206431472
H  H138  1  0.56480000  0.04850000  0.86050000  1.0 0.1496834649
H  H139  1  0.72030000  0.10630000  0.86110000  1.0 0.1400588802
H  H140  1  0.71870000  0.06510000  0.83970000  1.0 0.1308854148
H  H141  1  0.67860000  0.09480000  0.79610000  1.0 0.1496834649
H  H142  1  0.44450000  0.14650000  0.93480000  1.0 0.1683274998
H  H143  1  0.43100000  0.10590000  0.95240000  1.0 0.1683274998
H  H144  1  0.45930000  0.13440000  0.00490000  1.0 0.1577310243
H  H145  1  0.56910000  0.10200000  0.04230000  1.0 0.1683274998
H  H146  1  0.53660000  0.06890000  0.00160000  1.0 0.1683274998
H  H147  1  0.59900000  0.08630000  0.98890000  1.0 0.1784590657
H  H148  1  0.58480000  0.23610000  0.77810000  1.0 0.1400588802
H  H149  1  0.51400000  0.24720000  0.74910000  1.0 0.1308854148
H  H150  1  0.53470000  0.23720000  0.82000000  1.0 0.1496834649
H  H151  1  0.44740000  0.21530000  0.79560000  1.0 0.1206431472
H  H152  1  0.43800000  0.21920000  0.72320000  1.0 0.1206431472
H  H153  1  0.42360000  0.18160000  0.75210000  1.0 0.1496834649
H  H154  1  0.73710000  0.25500000  0.12370000  1.0 0.1496834649
H  H155  1  0.70490000  0.26120000  0.18010000  1.0 0.1400588802
H  H156  1  0.70390000  0.22210000  0.15000000  1.0 0.1496834649
H  H157  1  0.59700000  0.29770000  0.05040000  1.0 0.1496834649
H  H158  1  0.59760000  0.30030000  0.12160000  1.0 0.1400588802
H  H159  1  0.65870000  0.31070000  0.09780000  1.0 0.1496834649
H  H160  1  0.85940000  0.22530000  0.96470000  1.0 0.1496834649
H  H161  1  0.90030000  0.21270000  0.02940000  1.0 0.1496834649
H  H162  1  0.83860000  0.19090000  0.99830000  1.0 0.1496834649
H  H163  1  0.82420000  0.28410000  0.07900000  1.0 0.1496834649
H  H164  1  0.88840000  0.27430000  0.06050000  1.0 0.1496834649
H  H165  1  0.83020000  0.28850000  0.00970000  1.0 0.1496834649
H  H166  1  0.74490000  0.32660000  0.92000000  1.0 0.1308854148
H  H167  1  0.70910000  0.36440000  0.90800000  1.0 0.1400588802
H  H168  1  0.72450000  0.34720000  0.97500000  1.0 0.1496834649
H  H169  1  0.60820000  0.35470000  0.97580000  1.0 0.1496834649
H  H170  1  0.58900000  0.36790000  0.90630000  1.0 0.1400588802
H  H171  1  0.55760000  0.33250000  0.92710000  1.0 0.1308854148
H  H172  1  0.62250000  0.96860000  0.71540000  1.0 0.1496834649
H  H173  1  0.17580000  0.02980000  0.82600000  1.0 0.1308854148
H  H174  1  0.82200000  0.07320000  0.34860000  1.0 0.1400588802
H  H175  1  0.76650000  0.15500000  0.12910000  1.0 0.1308854148
H  H176  1  0.78540000  0.10130000  0.98090000  1.0 0.1308854148
H  H177  1  0.54650000  0.13190000  0.13480000  1.0 0.080157814
H  H178  1  0.50050000  0.24590000  0.91710000  1.0 0.1206431472
H  H179  1  0.58460000  0.19750000  0.19810000  1.0 0.1496834649
H  H180  1  0.59200000  0.15780000  0.22680000  1.0 0.1496834649
H  H181  1  0.63620000  0.17070000  0.18310000  1.0 0.1496834649
H  H182  1  0.48650000  0.27850000  0.02480000  1.0 0.1683274998
H  H183  1  0.45230000  0.29620000  0.96110000  1.0 0.1577310243
H  H184  1  0.41450000  0.27000000  0.99640000  1.0 0.1577310243
H  H185  1  0.38110000  0.23470000  0.92250000  1.0 0.1496834649
H  H186  1  0.41460000  0.21850000  0.87210000  1.0 0.1577310243
H  H187  1  0.41370000  0.19590000  0.93250000  1.0 0.1496834649
H  H188  1  0.91080000  0.09540000  0.13260000  1.0 0.1206431472
H  H189  1  0.64980000  0.83390000  0.70250000  1.0 0.0744102754
H  H190  1  0.57730000  0.90420000  0.92890000  1.0 0.0744102754
H  H191  1  0.63010000  0.79540000  0.84480000  1.0 0.080157814
H  H192  1  0.93580000  0.84730000  0.00300000  1.0 0.0899059126
H  H193  1  0.88870000  0.98250000  0.02420000  1.0 0.080157814
H  H194  1  0.97190000  0.92400000  0.82020000  1.0 0.0997923555
H  H195  1  0.77310000  0.91240000  0.55020000  1.0 0.0899059126
H  H196  1  0.55800000  0.88640000  0.67460000  1.0 0.1496834649
H  H197  1  0.63090000  0.89370000  0.68020000  1.0 0.1496834649
H  H198  1  0.59370000  0.86730000  0.62840000  1.0 0.1400588802
H  H199  1  0.56660000  0.79900000  0.72300000  1.0 0.1577310243
H  H200  1  0.51980000  0.83240000  0.70540000  1.0 0.1496834649
H  H201  1  0.54840000  0.81320000  0.65400000  1.0 0.1308854148
H  H202  1  0.66680000  0.93950000  0.97450000  1.0 0.1577310243
H  H203  1  0.66390000  0.96060000  0.91180000  1.0 0.1496834649
H  H204  1  0.61040000  0.96660000  0.94890000  1.0 0.1400588802
H  H205  1  0.56140000  0.95160000  0.82670000  1.0 0.1496834649
H  H206  1  0.54640000  0.91010000  0.81000000  1.0 0.1496834649
H  H207  1  0.50840000  0.93100000  0.85230000  1.0 0.1400588802
H  H208  1  0.69450000  0.78740000  0.77430000  1.0 0.1496834649
H  H209  1  0.74310000  0.76480000  0.82420000  1.0 0.1683274998
H  H210  1  0.67470000  0.74910000  0.79700000  1.0 0.1400588802
H  H211  1  0.67650000  0.74550000  0.91370000  1.0 0.1400588802
H  H212  1  0.72860000  0.77470000  0.94180000  1.0 0.1577310243
H  H213  1  0.65720000  0.78180000  0.94330000  1.0 0.1496834649
H  H214  1  0.98070000  0.83560000  0.93010000  1.0 0.1577310243
H  H215  1  0.97280000  0.87570000  0.90300000  1.0 0.1496834649
H  H216  1  0.02490000  0.86730000  0.96350000  1.0 0.1308854148
H  H217  1  0.98680000  0.91640000  0.00690000  1.0 0.1496834649
H  H218  1  0.92160000  0.91430000  0.02720000  1.0 0.1496834649
H  H219  1  0.97980000  0.89090000  0.06240000  1.0 0.1496834649
H  H220  1  0.75550000  0.98730000  0.99550000  1.0 0.1496834649
H  H221  1  0.80090000  0.98170000  0.06120000  1.0 0.1400588802
H  H222  1  0.79340000  0.02080000  0.03040000  1.0 0.1400588802
H  H223  1  0.90830000  0.00960000  0.94520000  1.0 0.1496834649
H  H224  1  0.83680000  0.00970000  0.90880000  1.0 0.1496834649
H  H225  1  0.86000000  0.03730000  0.96400000  1.0 0.1400588802
H  H226  1  0.98240000  0.99110000  0.89990000  1.0 0.1400588802
H  H227  1  0.02320000  0.95590000  0.92260000  1.0 0.1400588802
H  H228  1  0.03700000  0.97930000  0.86730000  1.0 0.1308854148
H  H229  1  0.68840000  0.89860000  0.58250000  1.0 0.1093889056
H  H230  1  0.65860000  0.93790000  0.56960000  1.0 0.1400588802
H  H231  1  0.65320000  0.90970000  0.51480000  1.0 0.1577310243
H  H232  1  0.74250000  0.98390000  0.56700000  1.0 0.1496834649
H  H233  1  0.77940000  0.95740000  0.61890000  1.0 0.1093889056
H  H234  1  0.81000000  0.96920000  0.56350000  1.0 0.1577310243
H  H235  1  0.74710000  0.84750000  0.66170000  1.0 0.1400588802
H  H236  1  0.89610000  0.82370000  0.59320000  1.0 0.1308854148
H  H237  1  0.44760000  0.18210000  0.09410000  1.0 0.1577310243
H  H238  1  0.45130000  0.17170000  0.16390000  1.0 0.1496834649
H  H239  1  0.48200000  0.20850000  0.14750000  1.0 0.1496834649
H  H240  1  0.28790000  0.93310000  0.75060000  1.0 0.0997923555
H  H241  1  0.23270000  0.96010000  0.84030000  1.0 0.1400588802
H  H242  1  0.21540000  0.92410000  0.80080000  1.0 0.1206431472
H  H243  1  0.20230000  0.96270000  0.76880000  1.0 0.1496834649
H  H244  1  0.38050000  0.92300000  0.83310000  1.0 0.1400588802
H  H245  1  0.32210000  0.90220000  0.84830000  1.0 0.1308854148
H  H246  1  0.34500000  0.93950000  0.88180000  1.0 0.1400588802
H  H247  1  0.88260000  0.28230000  0.22870000  1.0 0.1206431472
H  H248  1  0.79140000  0.23890000  0.34540000  1.0 0.1308854148
H  H249  1  0.75220000  0.33830000  0.27530000  1.0 0.1308854148
H  H250  1  0.66750000  0.44220000  0.14500000  1.0 0.1206431472
H  H251  1  0.79430000  0.49220000  0.26930000  1.0 0.1400588802
H  H252  1  0.00680000  0.43950000  0.33800000  1.0 0.1206431472
H  H253  1  0.06080000  0.41850000  0.18610000  1.0 0.1308854148
H  H254  1  0.89450000  0.36370000  0.99070000  1.0 0.1206431472
H  H255  1  0.66130000  0.42290000  0.40980000  1.0 0.080157814
H  H256  1  0.53780000  0.32290000  0.22950000  1.0 0.1093889056
H  H257  1  0.61220000  0.25520000  0.61890000  1.0 0.0899059126
H  H258  1  0.64020000  0.18350000  0.37250000  1.0 0.080157814
H  H259  1  0.58600000  0.45000000  0.29690000  1.0 0.1400588802
H  H260  1  0.62400000  0.47430000  0.35170000  1.0 0.1206431472
H  H261  1  0.56480000  0.45150000  0.36050000  1.0 0.1496834649
H  H262  1  0.72030000  0.39370000  0.36110000  1.0 0.1400588802
H  H263  1  0.71870000  0.43490000  0.33970000  1.0 0.1308854148
H  H264  1  0.67860000  0.40520000  0.29610000  1.0 0.1400588802
H  H265  1  0.44450000  0.35350000  0.43480000  1.0 0.1683274998
H  H266  1  0.43100000  0.39410000  0.45240000  1.0 0.1683274998
H  H267  1  0.45930000  0.36560000  0.50490000  1.0 0.1577310243
H  H268  1  0.56910000  0.39800000  0.54230000  1.0 0.1683274998
H  H269  1  0.53660000  0.43110000  0.50160000  1.0 0.1683274998
H  H270  1  0.59900000  0.41370000  0.48890000  1.0 0.1784590657
H  H271  1  0.58480000  0.26390000  0.27810000  1.0 0.1400588802
H  H272  1  0.51400000  0.25280000  0.24910000  1.0 0.1308854148
H  H273  1  0.53470000  0.26280000  0.32000000  1.0 0.1496834649
H  H274  1  0.44740000  0.28470000  0.29560000  1.0 0.1206431472
H  H275  1  0.43800000  0.28080000  0.22320000  1.0 0.1206431472
H  H276  1  0.42360000  0.31840000  0.25210000  1.0 0.1496834649
H  H277  1  0.73710000  0.24500000  0.62370000  1.0 0.1496834649
H  H278  1  0.70490000  0.23880000  0.68010000  1.0 0.1400588802
H  H279  1  0.70390000  0.27790000  0.65000000  1.0 0.1496834649
H  H280  1  0.59700000  0.20230000  0.55040000  1.0 0.1496834649
H  H281  1  0.59760000  0.19970000  0.62160000  1.0 0.1400588802
H  H282  1  0.65870000  0.18930000  0.59780000  1.0 0.1496834649
H  H283  1  0.85940000  0.27470000  0.46470000  1.0 0.1496834649
H  H284  1  0.90030000  0.28730000  0.52940000  1.0 0.1496834649
H  H285  1  0.83860000  0.30910000  0.49830000  1.0 0.1496834649
H  H286  1  0.82420000  0.21590000  0.57900000  1.0 0.1496834649
H  H287  1  0.88840000  0.22570000  0.56050000  1.0 0.1496834649
H  H288  1  0.83020000  0.21150000  0.50970000  1.0 0.1496834649
H  H289  1  0.74490000  0.17340000  0.42000000  1.0 0.1308854148
H  H290  1  0.70910000  0.13560000  0.40800000  1.0 0.1400588802
H  H291  1  0.72450000  0.15280000  0.47500000  1.0 0.1496834649
H  H292  1  0.60820000  0.14530000  0.47580000  1.0 0.1496834649
H  H293  1  0.58900000  0.13210000  0.40630000  1.0 0.1400588802
H  H294  1  0.55760000  0.16750000  0.42710000  1.0 0.1308854148
H  H295  1  0.62250000  0.53140000  0.21540000  1.0 0.1496834649
H  H296  1  0.17580000  0.47020000  0.32600000  1.0 0.1308854148
H  H297  1  0.82200000  0.42680000  0.84860000  1.0 0.1400588802
H  H298  1  0.76650000  0.34500000  0.62910000  1.0 0.1308854148
H  H299  1  0.78540000  0.39870000  0.48090000  1.0 0.1308854148
H  H300  1  0.54650000  0.36810000  0.63480000  1.0 0.080157814
H  H301  1  0.50050000  0.25410000  0.41710000  1.0 0.1206431472
H  H302  1  0.58460000  0.30250000  0.69810000  1.0 0.1496834649
H  H303  1  0.59200000  0.34220000  0.72680000  1.0 0.1496834649
H  H304  1  0.63620000  0.32930000  0.68310000  1.0 0.1496834649
H  H305  1  0.48650000  0.22150000  0.52480000  1.0 0.1683274998
H  H306  1  0.45230000  0.20380000  0.46110000  1.0 0.1577310243
H  H307  1  0.41450000  0.23000000  0.49640000  1.0 0.1577310243
H  H308  1  0.38110000  0.26530000  0.42250000  1.0 0.1496834649
H  H309  1  0.41460000  0.28150000  0.37210000  1.0 0.1577310243
H  H310  1  0.41370000  0.30410000  0.43250000  1.0 0.1496834649
H  H311  1  0.91080000  0.40460000  0.63260000  1.0 0.1206431472
H  H312  1  0.64980000  0.66610000  0.20250000  1.0 0.080157814
H  H313  1  0.57730000  0.59580000  0.42890000  1.0 0.0744102754
H  H314  1  0.63010000  0.70460000  0.34480000  1.0 0.080157814
H  H315  1  0.93580000  0.65270000  0.50300000  1.0 0.0899059126
H  H316  1  0.88870000  0.51750000  0.52420000  1.0 0.080157814
H  H317  1  0.97190000  0.57600000  0.32020000  1.0 0.0997923555
H  H318  1  0.77310000  0.58760000  0.05020000  1.0 0.0899059126
H  H319  1  0.55800000  0.61360000  0.17460000  1.0 0.1496834649
H  H320  1  0.63090000  0.60630000  0.18020000  1.0 0.1496834649
H  H321  1  0.59370000  0.63270000  0.12840000  1.0 0.1400588802
H  H322  1  0.56660000  0.70100000  0.22300000  1.0 0.1577310243
H  H323  1  0.51980000  0.66760000  0.20540000  1.0 0.1496834649
H  H324  1  0.54840000  0.68680000  0.15400000  1.0 0.1308854148
H  H325  1  0.66680000  0.56050000  0.47450000  1.0 0.1577310243
H  H326  1  0.66390000  0.53940000  0.41180000  1.0 0.1496834649
H  H327  1  0.61040000  0.53340000  0.44890000  1.0 0.1400588802
H  H328  1  0.56140000  0.54840000  0.32670000  1.0 0.1496834649
H  H329  1  0.54640000  0.58990000  0.31000000  1.0 0.1496834649
H  H330  1  0.50840000  0.56900000  0.35230000  1.0 0.1400588802
H  H331  1  0.69450000  0.71260000  0.27430000  1.0 0.1496834649
H  H332  1  0.74310000  0.73520000  0.32420000  1.0 0.1683274998
H  H333  1  0.67470000  0.75090000  0.29700000  1.0 0.1400588802
H  H334  1  0.67650000  0.75450000  0.41370000  1.0 0.1400588802
H  H335  1  0.72860000  0.72530000  0.44180000  1.0 0.1577310243
H  H336  1  0.65720000  0.71820000  0.44330000  1.0 0.1496834649
H  H337  1  0.98070000  0.66440000  0.43010000  1.0 0.1577310243
H  H338  1  0.97280000  0.62430000  0.40300000  1.0 0.1496834649
H  H339  1  0.02490000  0.63270000  0.46350000  1.0 0.1308854148
H  H340  1  0.98680000  0.58360000  0.50690000  1.0 0.1496834649
H  H341  1  0.92160000  0.58570000  0.52720000  1.0 0.1496834649
H  H342  1  0.97980000  0.60910000  0.56240000  1.0 0.1496834649
H  H343  1  0.75550000  0.51270000  0.49550000  1.0 0.1496834649
H  H344  1  0.80090000  0.51830000  0.56120000  1.0 0.1400588802
H  H345  1  0.79340000  0.47920000  0.53040000  1.0 0.1400588802
H  H346  1  0.90830000  0.49040000  0.44520000  1.0 0.1496834649
H  H347  1  0.83680000  0.49030000  0.40880000  1.0 0.1496834649
H  H348  1  0.86000000  0.46270000  0.46400000  1.0 0.1400588802
H  H349  1  0.98240000  0.50890000  0.39990000  1.0 0.1400588802
H  H350  1  0.02320000  0.54410000  0.42260000  1.0 0.1400588802
H  H351  1  0.03700000  0.52070000  0.36730000  1.0 0.1308854148
H  H352  1  0.68840000  0.60140000  0.08250000  1.0 0.1093889056
H  H353  1  0.65860000  0.56210000  0.06960000  1.0 0.1400588802
H  H354  1  0.65320000  0.59030000  0.01480000  1.0 0.1577310243
H  H355  1  0.74250000  0.51610000  0.06700000  1.0 0.1496834649
H  H356  1  0.77940000  0.54260000  0.11890000  1.0 0.1093889056
H  H357  1  0.81000000  0.53080000  0.06350000  1.0 0.1577310243
H  H358  1  0.74710000  0.65250000  0.16170000  1.0 0.1400588802
H  H359  1  0.89610000  0.67630000  0.09320000  1.0 0.1400588802
H  H360  1  0.44760000  0.31790000  0.59410000  1.0 0.1577310243
H  H361  1  0.45130000  0.32830000  0.66390000  1.0 0.1496834649
H  H362  1  0.48200000  0.29150000  0.64750000  1.0 0.1496834649
H  H363  1  0.28790000  0.56690000  0.25060000  1.0 0.0899059126
H  H364  1  0.23270000  0.53990000  0.34030000  1.0 0.1400588802
H  H365  1  0.21540000  0.57590000  0.30080000  1.0 0.1206431472
H  H366  1  0.20230000  0.53730000  0.26880000  1.0 0.1496834649
H  H367  1  0.38050000  0.57700000  0.33310000  1.0 0.1400588802
H  H368  1  0.32210000  0.59780000  0.34830000  1.0 0.1308854148
H  H369  1  0.34500000  0.56050000  0.38180000  1.0 0.1400588802
H  H370  1  0.11740000  0.78230000  0.27130000  1.0 0.1206431472
H  H371  1  0.20860000  0.73890000  0.15460000  1.0 0.1308854148
H  H372  1  0.24780000  0.83830000  0.22470000  1.0 0.1308854148
H  H373  1  0.33250000  0.94220000  0.35500000  1.0 0.1206431472
H  H374  1  0.20570000  0.99220000  0.23070000  1.0 0.1400588802
H  H375  1  0.99320000  0.93950000  0.16200000  1.0 0.1206431472
H  H376  1  0.93920000  0.91850000  0.31390000  1.0 0.1308854148
H  H377  1  0.10550000  0.86370000  0.50930000  1.0 0.1206431472
H  H378  1  0.33870000  0.92290000  0.09020000  1.0 0.080157814
H  H379  1  0.46220000  0.82290000  0.27050000  1.0 0.1093889056
H  H380  1  0.38780000  0.75520000  0.88110000  1.0 0.0899059126
H  H381  1  0.35980000  0.68350000  0.12750000  1.0 0.080157814
H  H382  1  0.41400000  0.95000000  0.20310000  1.0 0.1400588802
H  H383  1  0.37600000  0.97430000  0.14830000  1.0 0.1206431472
H  H384  1  0.43520000  0.95150000  0.13950000  1.0 0.1496834649
H  H385  1  0.27970000  0.89370000  0.13890000  1.0 0.1400588802
H  H386  1  0.28130000  0.93490000  0.16030000  1.0 0.1308854148
H  H387  1  0.32140000  0.90520000  0.20390000  1.0 0.1400588802
H  H388  1  0.55550000  0.85350000  0.06520000  1.0 0.1683274998
H  H389  1  0.56900000  0.89410000  0.04760000  1.0 0.1683274998
H  H390  1  0.54070000  0.86560000  0.99510000  1.0 0.1577310243
H  H391  1  0.43090000  0.89800000  0.95770000  1.0 0.1683274998
H  H392  1  0.46340000  0.93110000  0.99840000  1.0 0.1683274998
H  H393  1  0.40100000  0.91370000  0.01110000  1.0 0.1784590657
H  H394  1  0.41520000  0.76390000  0.22190000  1.0 0.1400588802
H  H395  1  0.48600000  0.75280000  0.25090000  1.0 0.1308854148
H  H396  1  0.46530000  0.76280000  0.18000000  1.0 0.1496834649
H  H397  1  0.55260000  0.78470000  0.20440000  1.0 0.1206431472
H  H398  1  0.56200000  0.78080000  0.27680000  1.0 0.1206431472
H  H399  1  0.57640000  0.81840000  0.24790000  1.0 0.1496834649
H  H400  1  0.26290000  0.74500000  0.87630000  1.0 0.1496834649
H  H401  1  0.29510000  0.73880000  0.81990000  1.0 0.1400588802
H  H402  1  0.29610000  0.77790000  0.85000000  1.0 0.1496834649
H  H403  1  0.40300000  0.70230000  0.94960000  1.0 0.1496834649
H  H404  1  0.40240000  0.69970000  0.87840000  1.0 0.1400588802
H  H405  1  0.34130000  0.68930000  0.90220000  1.0 0.1496834649
H  H406  1  0.14060000  0.77470000  0.03530000  1.0 0.1496834649
H  H407  1  0.09970000  0.78730000  0.97060000  1.0 0.1496834649
H  H408  1  0.16140000  0.80910000  0.00170000  1.0 0.1496834649
H  H409  1  0.17580000  0.71590000  0.92100000  1.0 0.1496834649
H  H410  1  0.11160000  0.72570000  0.93950000  1.0 0.1496834649
H  H411  1  0.16980000  0.71150000  0.99030000  1.0 0.1496834649
H  H412  1  0.25510000  0.67340000  0.08000000  1.0 0.1308854148
H  H413  1  0.29090000  0.63560000  0.09200000  1.0 0.1400588802
H  H414  1  0.27550000  0.65280000  0.02500000  1.0 0.1496834649
H  H415  1  0.39180000  0.64530000  0.02420000  1.0 0.1496834649
H  H416  1  0.41100000  0.63210000  0.09370000  1.0 0.1400588802
H  H417  1  0.44240000  0.66750000  0.07290000  1.0 0.1308854148
H  H418  1  0.37750000  0.03140000  0.28460000  1.0 0.1496834649
H  H419  1  0.82420000  0.97020000  0.17400000  1.0 0.1308854148
H  H420  1  0.17800000  0.92680000  0.65140000  1.0 0.1400588802
H  H421  1  0.23350000  0.84500000  0.87090000  1.0 0.1308854148
H  H422  1  0.21460000  0.89870000  0.01910000  1.0 0.1308854148
H  H423  1  0.45350000  0.86810000  0.86520000  1.0 0.080157814
H  H424  1  0.49950000  0.75410000  0.08290000  1.0 0.1206431472
H  H425  1  0.41540000  0.80250000  0.80190000  1.0 0.1496834649
H  H426  1  0.40800000  0.84220000  0.77320000  1.0 0.1496834649
H  H427  1  0.36380000  0.82930000  0.81690000  1.0 0.1496834649
H  H428  1  0.51350000  0.72150000  0.97520000  1.0 0.1683274998
H  H429  1  0.54770000  0.70380000  0.03890000  1.0 0.1577310243
H  H430  1  0.58550000  0.73000000  0.00360000  1.0 0.1577310243
H  H431  1  0.61890000  0.76530000  0.07750000  1.0 0.1496834649
H  H432  1  0.58540000  0.78150000  0.12790000  1.0 0.1577310243
H  H433  1  0.58630000  0.80410000  0.06750000  1.0 0.1496834649
H  H434  1  0.08920000  0.90460000  0.86740000  1.0 0.1206431472
H  H435  1  0.35020000  0.16610000  0.29750000  1.0 0.0744102754
H  H436  1  0.42270000  0.09580000  0.07110000  1.0 0.0744102754
H  H437  1  0.36990000  0.20460000  0.15520000  1.0 0.080157814
H  H438  1  0.06420000  0.15270000  0.99700000  1.0 0.0899059126
H  H439  1  0.11130000  0.01750000  0.97580000  1.0 0.080157814
H  H440  1  0.02810000  0.07600000  0.17980000  1.0 0.0997923555
H  H441  1  0.22690000  0.08760000  0.44980000  1.0 0.0899059126
H  H442  1  0.44200000  0.11360000  0.32540000  1.0 0.1496834649
H  H443  1  0.36910000  0.10630000  0.31980000  1.0 0.1496834649
H  H444  1  0.40630000  0.13270000  0.37160000  1.0 0.1400588802
H  H445  1  0.43340000  0.20100000  0.27700000  1.0 0.1577310243
H  H446  1  0.48020000  0.16760000  0.29460000  1.0 0.1496834649
H  H447  1  0.45160000  0.18680000  0.34600000  1.0 0.1308854148
H  H448  1  0.33320000  0.06050000  0.02550000  1.0 0.1577310243
H  H449  1  0.33610000  0.03940000  0.08820000  1.0 0.1496834649
H  H450  1  0.38960000  0.03340000  0.05110000  1.0 0.1400588802
H  H451  1  0.43860000  0.04840000  0.17330000  1.0 0.1496834649
H  H452  1  0.45360000  0.08990000  0.19000000  1.0 0.1496834649
H  H453  1  0.49160000  0.06900000  0.14770000  1.0 0.1400588802
H  H454  1  0.30550000  0.21260000  0.22570000  1.0 0.1496834649
H  H455  1  0.25690000  0.23520000  0.17580000  1.0 0.1683274998
H  H456  1  0.32530000  0.25090000  0.20300000  1.0 0.1400588802
H  H457  1  0.32350000  0.25450000  0.08630000  1.0 0.1400588802
H  H458  1  0.27140000  0.22530000  0.05820000  1.0 0.1577310243
H  H459  1  0.34280000  0.21820000  0.05670000  1.0 0.1496834649
H  H460  1  0.01930000  0.16440000  0.06990000  1.0 0.1577310243
H  H461  1  0.02720000  0.12430000  0.09700000  1.0 0.1496834649
H  H462  1  0.97510000  0.13270000  0.03650000  1.0 0.1308854148
H  H463  1  0.01320000  0.08360000  0.99310000  1.0 0.1496834649
H  H464  1  0.07840000  0.08570000  0.97280000  1.0 0.1496834649
H  H465  1  0.02020000  0.10910000  0.93760000  1.0 0.1496834649
H  H466  1  0.24450000  0.01270000  0.00450000  1.0 0.1496834649
H  H467  1  0.19910000  0.01830000  0.93880000  1.0 0.1400588802
H  H468  1  0.20660000  0.97920000  0.96960000  1.0 0.1400588802
H  H469  1  0.09170000  0.99040000  0.05480000  1.0 0.1496834649
H  H470  1  0.16320000  0.99030000  0.09120000  1.0 0.1496834649
H  H471  1  0.14000000  0.96270000  0.03600000  1.0 0.1400588802
H  H472  1  0.01760000  0.00890000  0.10010000  1.0 0.1400588802
H  H473  1  0.97680000  0.04410000  0.07740000  1.0 0.1400588802
H  H474  1  0.96300000  0.02070000  0.13270000  1.0 0.1308854148
H  H475  1  0.31160000  0.10140000  0.41750000  1.0 0.1093889056
H  H476  1  0.34140000  0.06210000  0.43040000  1.0 0.1400588802
H  H477  1  0.34680000  0.09030000  0.48520000  1.0 0.1577310243
H  H478  1  0.25750000  0.01610000  0.43300000  1.0 0.1496834649
H  H479  1  0.22060000  0.04260000  0.38110000  1.0 0.1093889056
H  H480  1  0.19000000  0.03080000  0.43650000  1.0 0.1577310243
H  H481  1  0.25290000  0.15250000  0.33830000  1.0 0.1400588802
H  H482  1  0.10390000  0.17630000  0.40680000  1.0 0.1400588802
H  H483  1  0.55240000  0.81790000  0.90590000  1.0 0.1577310243
H  H484  1  0.54870000  0.82830000  0.83610000  1.0 0.1496834649
H  H485  1  0.51800000  0.79150000  0.85250000  1.0 0.1496834649
H  H486  1  0.71210000  0.06690000  0.24940000  1.0 0.0997923555
H  H487  1  0.76730000  0.03990000  0.15970000  1.0 0.1400588802
H  H488  1  0.78460000  0.07590000  0.19920000  1.0 0.1206431472
H  H489  1  0.79770000  0.03730000  0.23120000  1.0 0.1496834649
H  H490  1  0.61950000  0.07700000  0.16690000  1.0 0.1400588802
H  H491  1  0.67790000  0.09780000  0.15170000  1.0 0.1308854148
H  H492  1  0.65500000  0.06050000  0.11820000  1.0 0.1400588802
C  C1  1  0.14850000  0.71525000  0.74822000  1.0 0.1889311945
C  C2  1  0.20120000  0.74179000  0.67984000  1.0 0.0997923555
C  C3  1  0.23569000  0.71035000  0.68325000  1.0 -0.111494456
C  C4  1  0.22309000  0.68289000  0.72129000  1.0 0.0899059126
C  C5  1  0.28514000  0.70808000  0.64596000  1.0 0.6505945897
C  C6  1  0.32130000  0.53776000  0.82840000  1.0 0.1889311945
C  C7  1  0.24643000  0.50891000  0.75609000  1.0 0.1093889056
C  C8  1  0.96170000  0.55991000  0.68478000  1.0 0.1963822706
C  C9  1  0.93040000  0.57173000  0.77380000  1.0 0.0899059126
C  C10  1  0.18580000  0.56458000  0.00969000  1.0 0.2615401497
C  C11  1  0.12808000  0.61532000  0.02542000  1.0 0.2100717662
C  C12  1  0.29437000  0.64753000  0.48692000  1.0 0.6294719925
C  C13  1  0.35588000  0.58088000  0.63492000  1.0 0.2465801438
C  C14  1  0.47670000  0.61612000  0.54090000  1.0 0.4333404949
C  C15  1  0.47590000  0.69010000  0.73690000  1.0 0.3161635598
C  C16  1  0.35575000  0.75670000  0.39989000  1.0 0.2895839711
C  C17  1  0.17820000  0.73759000  0.46550000  1.0 0.4365629753
C  C18  1  0.34890000  0.82234000  0.58290000  1.0 0.3321148207
C  C19  1  0.29023000  0.48260000  0.74990000  1.0 -0.0954118172
C  C20  1  0.87280000  0.55619000  0.75168000  1.0 -0.121314243
C  C21  1  0.19620000  0.55777000  0.07462000  1.0 -0.1394280406
C  C22  1  0.23321000  0.63136000  0.45154000  1.0 -0.111494456
C  C23  1  0.39930000  0.54822000  0.65870000  1.0 -0.4608458037
C  C24  1  0.30596000  0.58724000  0.66146000  1.0 -0.4499196434
C  C25  1  0.54090000  0.62662000  0.53680000  1.0 -0.5385324308
C  C26  1  0.44010000  0.59137000  0.49870000  1.0 -0.5198153475
C  C27  1  0.45895000  0.73168000  0.72080000  1.0 -0.4988037623
C  C28  1  0.54919000  0.70286000  0.74200000  1.0 -0.4795832965
C  C29  1  0.29790000  0.74805000  0.35820000  1.0 -0.4795832965
C  C30  1  0.37747000  0.79454000  0.40820000  1.0 -0.4897842407
C  C31  1  0.14210000  0.71482000  0.49560000  1.0 -0.4897842407
C  C32  1  0.15720000  0.77403000  0.45310000  1.0 -0.4988037623
C  C33  1  0.28720000  0.84183000  0.56870000  1.0 -0.4897842407
C  C34  1  0.40400000  0.84680000  0.56690000  1.0 -0.4728709062
C  C35  1  0.34720000  0.48663000  0.78610000  1.0 0.0262556574
C  C36  1  0.27553000  0.45020000  0.70595000  1.0 0.6366297802
C  C37  1  0.86230000  0.54179000  0.69085000  1.0 0.1093889056
C  C38  1  0.82330000  0.55140000  0.78758000  1.0 0.6505945897
C  C39  1  0.17200000  0.57883000  0.10928000  1.0 0.0899059126
C  C40  1  0.23980000  0.52376000  0.10050000  1.0 0.6294719925
C  C41  1  0.20963000  0.63981000  0.39098000  1.0 0.0997923555
C  C42  1  0.19880000  0.60825000  0.47780000  1.0 0.080157814
C  C43  1  0.45060000  0.65880000  0.36130000  1.0 0.2348258098
C  C44  1  0.52310000  0.73760000  0.55220000  1.0 0.3372136106
C  C45  1  0.40590000  0.67228000  0.30920000  1.0 -0.4499196434
C  C46  1  0.54480000  0.77467000  0.51320000  1.0 -0.5600028389
C  C47  1  0.58370000  0.72010000  0.58400000  1.0 -0.5107877916
C  C48  1  0.12710000  0.60540000  0.39020000  1.0 0.1784590657
C  C49  1  0.38790000  0.34648000  0.78950000  1.0 0.2686669057
C  C50  1  0.40020000  0.41664000  0.59940000  1.0 0.3321148207
C  C51  1  0.19970000  0.35874000  0.72520000  1.0 0.5935647091
C  C52  1  0.32460000  0.28948000  0.64044000  1.0 0.2798808714
C  C53  1  0.06210000  0.36932000  0.52230000  1.0 0.3058822802
C  C54  1  0.14960000  0.48656000  0.50870000  1.0 0.2970703518
C  C55  1  0.04680000  0.44520000  0.66280000  1.0 0.1963822706
C  C56  1  0.25760000  0.43260000  0.95950000  1.0 0.2798808714
C  C57  1  0.40240000  0.37565000  0.82960000  1.0 -0.4728709062
C  C58  1  0.44320000  0.32040000  0.80300000  1.0 -0.4988037623
C  C59  1  0.36100000  0.44895000  0.56250000  1.0 -0.4988037623
C  C60  1  0.45090000  0.42850000  0.65820000  1.0 -0.5107877916
C  C61  1  0.17130000  0.34687000  0.77470000  1.0 -0.182770534
C  C62  1  0.30100000  0.27108000  0.69060000  1.0 -0.4608458037
C  C63  1  0.31470000  0.27137000  0.58035000  1.0 -0.4381920794
C  C64  1  0.01720000  0.36131000  0.55950000  1.0 -0.4608458037
C  C65  1  0.04160000  0.40055000  0.47740000  1.0 -0.4608458037
C  C66  1  0.20520000  0.49487000  0.47750000  1.0 -0.4728709062
C  C67  1  0.13490000  0.51295000  0.55110000  1.0 -0.4988037623
C  C68  1  0.06340000  0.47203000  0.70130000  1.0 -0.2522522476
C  C69  1  0.99570000  0.47050000  0.61310000  1.0 -0.4499196434
C  C70  1  0.32020000  0.41840000  0.94700000  1.0 -0.4226562139
C  C71  1  0.22920000  0.46320000  0.92480000  1.0 -0.4226562139
C  C72  1  0.10980000  0.34521000  0.77288000  1.0 0.2226835055
C  C73  1  0.21060000  0.34003000  0.83060000  1.0 0.0899059126
C  C74  1  0.12110000  0.32631000  0.87190000  1.0 0.1784590657
C  C75  1  0.52660000  0.68320000  0.36430000  1.0 -0.6408141056
C  C76  1  0.70820000  0.44857000  0.71220000  1.0 0.2895839711
C  C77  1  0.76920000  0.44888000  0.69960000  1.0 -0.4795832965
C  C78  1  0.66020000  0.42600000  0.65650000  1.0 -0.4608458037
C  C79  1  0.85150000  0.21525000  0.75178000  1.0 0.1889311945
C  C80  1  0.79880000  0.24179000  0.82016000  1.0 0.0997923555
C  C81  1  0.76431000  0.21035000  0.81675000  1.0 -0.111494456
C  C82  1  0.77691000  0.18289000  0.77871000  1.0 0.0899059126
C  C83  1  0.71486000  0.20808000  0.85404000  1.0 0.6505945897
C  C84  1  0.67870000  0.03776000  0.67160000  1.0 0.1889311945
C  C85  1  0.75357000  0.00891000  0.74391000  1.0 0.1093889056
C  C86  1  0.03830000  0.05991000  0.81522000  1.0 0.1963822706
C  C87  1  0.06960000  0.07173000  0.72620000  1.0 0.0997923555
C  C88  1  0.81420000  0.06458000  0.49031000  1.0 0.2615401497
C  C89  1  0.87192000  0.11532000  0.47458000  1.0 0.2100717662
C  C90  1  0.70563000  0.14753000  0.01308000  1.0 0.6294719925
C  C91  1  0.64412000  0.08088000  0.86508000  1.0 0.2465801438
C  C92  1  0.52330000  0.11612000  0.95910000  1.0 0.4333404949
C  C93  1  0.52410000  0.19010000  0.76310000  1.0 0.3161635598
C  C94  1  0.64425000  0.25670000  0.10011000  1.0 0.2798808714
C  C95  1  0.82180000  0.23759000  0.03450000  1.0 0.4333404949
C  C96  1  0.65110000  0.32234000  0.91710000  1.0 0.3321148207
C  C97  1  0.70977000  0.98260000  0.75010000  1.0 -0.0954118172
C  C98  1  0.12720000  0.05619000  0.74832000  1.0 -0.121314243
C  C99  1  0.80380000  0.05777000  0.42538000  1.0 -0.1394280406
C  C100  1  0.76679000  0.13136000  0.04846000  1.0 -0.111494456
C  C101  1  0.60070000  0.04822000  0.84130000  1.0 -0.4608458037
C  C102  1  0.69404000  0.08724000  0.83854000  1.0 -0.4499196434
C  C103  1  0.45910000  0.12662000  0.96320000  1.0 -0.5385324308
C  C104  1  0.55990000  0.09137000  0.00130000  1.0 -0.5198153475
C  C105  1  0.54105000  0.23168000  0.77920000  1.0 -0.4988037623
C  C106  1  0.45081000  0.20286000  0.75800000  1.0 -0.4728709062
C  C107  1  0.70210000  0.24805000  0.14180000  1.0 -0.4795832965
C  C108  1  0.62253000  0.29454000  0.09180000  1.0 -0.4897842407
C  C109  1  0.85790000  0.21482000  0.00440000  1.0 -0.4897842407
C  C110  1  0.84280000  0.27403000  0.04690000  1.0 -0.5107877916
C  C111  1  0.71280000  0.34183000  0.93130000  1.0 -0.4897842407
C  C112  1  0.59600000  0.34680000  0.93310000  1.0 -0.4728709062
C  C113  1  0.65280000  0.98663000  0.71390000  1.0 0.0262556574
C  C114  1  0.72447000  0.95020000  0.79405000  1.0 0.6366297802
C  C115  1  0.13770000  0.04179000  0.80915000  1.0 0.1093889056
C  C116  1  0.17670000  0.05140000  0.71242000  1.0 0.6505945897
C  C117  1  0.82800000  0.07883000  0.39072000  1.0 0.0899059126
C  C118  1  0.76020000  0.02376000  0.39950000  1.0 0.6294719925
C  C119  1  0.79037000  0.13981000  0.10902000  1.0 0.0997923555
C  C120  1  0.80120000  0.10825000  0.02220000  1.0 0.080157814
C  C121  1  0.54940000  0.15880000  0.13870000  1.0 0.2348258098
C  C122  1  0.47690000  0.23760000  0.94780000  1.0 0.3372136106
C  C123  1  0.59410000  0.17228000  0.19080000  1.0 -0.4499196434
C  C124  1  0.45520000  0.27467000  0.98680000  1.0 -0.5600028389
C  C125  1  0.41630000  0.22010000  0.91600000  1.0 -0.5107877916
C  C126  1  0.87290000  0.10540000  0.10980000  1.0 0.1784590657
C  C127  1  0.61210000  0.84648000  0.71050000  1.0 0.2686669057
C  C128  1  0.59980000  0.91664000  0.90060000  1.0 0.3321148207
C  C129  1  0.80030000  0.85874000  0.77480000  1.0 0.5935647091
C  C130  1  0.67540000  0.78948000  0.85956000  1.0 0.2798808714
C  C131  1  0.93790000  0.86932000  0.97770000  1.0 0.3058822802
C  C132  1  0.85040000  0.98656000  0.99130000  1.0 0.2970703518
C  C133  1  0.95320000  0.94520000  0.83720000  1.0 0.1963822706
C  C134  1  0.74240000  0.93260000  0.54050000  1.0 0.2798808714
C  C135  1  0.59760000  0.87565000  0.67040000  1.0 -0.4728709062
C  C136  1  0.55680000  0.82040000  0.69700000  1.0 -0.4988037623
C  C137  1  0.63900000  0.94895000  0.93750000  1.0 -0.4988037623
C  C138  1  0.54910000  0.92850000  0.84180000  1.0 -0.5107877916
C  C139  1  0.82870000  0.84687000  0.72530000  1.0 -0.182770534
C  C140  1  0.69900000  0.77108000  0.80940000  1.0 -0.4608458037
C  C141  1  0.68530000  0.77137000  0.91965000  1.0 -0.4381920794
C  C142  1  0.98280000  0.86131000  0.94050000  1.0 -0.4608458037
C  C143  1  0.95840000  0.90055000  0.02260000  1.0 -0.4608458037
C  C144  1  0.79480000  0.99487000  0.02250000  1.0 -0.4728709062
C  C145  1  0.86510000  0.01295000  0.94890000  1.0 -0.4988037623
C  C146  1  0.93660000  0.97203000  0.79870000  1.0 -0.256829476
C  C147  1  0.00430000  0.97050000  0.88690000  1.0 -0.4499196434
C  C148  1  0.67980000  0.91840000  0.55300000  1.0 -0.4226562139
C  C149  1  0.77080000  0.96320000  0.57520000  1.0 -0.4250657657
C  C150  1  0.89020000  0.84521000  0.72712000  1.0 0.2226835055
C  C151  1  0.78940000  0.84003000  0.66940000  1.0 0.0899059126
C  C152  1  0.87890000  0.82631000  0.62810000  1.0 0.1784590657
C  C153  1  0.47340000  0.18320000  0.13570000  1.0 -0.6321467723
C  C154  1  0.29180000  0.94857000  0.78780000  1.0 0.2895839711
C  C155  1  0.23080000  0.94888000  0.80040000  1.0 -0.4728709062
C  C156  1  0.33980000  0.92600000  0.84350000  1.0 -0.4608458037
C  C157  1  0.85150000  0.28475000  0.25178000  1.0 0.1889311945
C  C158  1  0.79880000  0.25821000  0.32016000  1.0 0.0997923555
C  C159  1  0.76431000  0.28965000  0.31675000  1.0 -0.111494456
C  C160  1  0.77691000  0.31711000  0.27871000  1.0 0.0899059126
C  C161  1  0.71486000  0.29192000  0.35404000  1.0 0.6505945897
C  C162  1  0.67870000  0.46224000  0.17160000  1.0 0.1889311945
C  C163  1  0.75357000  0.49109000  0.24391000  1.0 0.1093889056
C  C164  1  0.03830000  0.44009000  0.31522000  1.0 0.1963822706
C  C165  1  0.06960000  0.42827000  0.22620000  1.0 0.0997923555
C  C166  1  0.81420000  0.43542000  0.99031000  1.0 0.2615401497
C  C167  1  0.87192000  0.38468000  0.97458000  1.0 0.2100717662
C  C168  1  0.70563000  0.35247000  0.51308000  1.0 0.6294719925
C  C169  1  0.64412000  0.41912000  0.36508000  1.0 0.2465801438
C  C170  1  0.52330000  0.38388000  0.45910000  1.0 0.4333404949
C  C171  1  0.52410000  0.30990000  0.26310000  1.0 0.3161635598
C  C172  1  0.64425000  0.24330000  0.60011000  1.0 0.2798808714
C  C173  1  0.82180000  0.26241000  0.53450000  1.0 0.4333404949
C  C174  1  0.65110000  0.17766000  0.41710000  1.0 0.3321148207
C  C175  1  0.70977000  0.51740000  0.25010000  1.0 -0.0954118172
C  C176  1  0.12720000  0.44381000  0.24832000  1.0 -0.121314243
C  C177  1  0.80380000  0.44223000  0.92538000  1.0 -0.1394280406
C  C178  1  0.76679000  0.36864000  0.54846000  1.0 -0.111494456
C  C179  1  0.60070000  0.45178000  0.34130000  1.0 -0.4608458037
C  C180  1  0.69404000  0.41276000  0.33854000  1.0 -0.4499196434
C  C181  1  0.45910000  0.37338000  0.46320000  1.0 -0.5385324308
C  C182  1  0.55990000  0.40863000  0.50130000  1.0 -0.5198153475
C  C183  1  0.54105000  0.26832000  0.27920000  1.0 -0.4988037623
C  C184  1  0.45081000  0.29714000  0.25800000  1.0 -0.4795832965
C  C185  1  0.70210000  0.25195000  0.64180000  1.0 -0.4795832965
C  C186  1  0.62253000  0.20546000  0.59180000  1.0 -0.4897842407
C  C187  1  0.85790000  0.28518000  0.50440000  1.0 -0.4897842407
C  C188  1  0.84280000  0.22597000  0.54690000  1.0 -0.4988037623
C  C189  1  0.71280000  0.15817000  0.43130000  1.0 -0.4897842407
C  C190  1  0.59600000  0.15320000  0.43310000  1.0 -0.4728709062
C  C191  1  0.65280000  0.51337000  0.21390000  1.0 0.0262556574
C  C192  1  0.72447000  0.54980000  0.29405000  1.0 0.6366297802
C  C193  1  0.13770000  0.45821000  0.30915000  1.0 0.1093889056
C  C194  1  0.17670000  0.44860000  0.21242000  1.0 0.6505945897
C  C195  1  0.82800000  0.42117000  0.89072000  1.0 0.0899059126
C  C196  1  0.76020000  0.47624000  0.89950000  1.0 0.6294719925
C  C197  1  0.79037000  0.36019000  0.60902000  1.0 0.0997923555
C  C198  1  0.80120000  0.39175000  0.52220000  1.0 0.080157814
C  C199  1  0.54940000  0.34120000  0.63870000  1.0 0.2348258098
C  C200  1  0.47690000  0.26240000  0.44780000  1.0 0.3372136106
C  C201  1  0.59410000  0.32772000  0.69080000  1.0 -0.4499196434
C  C202  1  0.45520000  0.22533000  0.48680000  1.0 -0.5600028389
C  C203  1  0.41630000  0.27990000  0.41600000  1.0 -0.5107877916
C  C204  1  0.87290000  0.39460000  0.60980000  1.0 0.1784590657
C  C205  1  0.61210000  0.65352000  0.21050000  1.0 0.2686669057
C  C206  1  0.59980000  0.58336000  0.40060000  1.0 0.3321148207
C  C207  1  0.80030000  0.64126000  0.27480000  1.0 0.5935647091
C  C208  1  0.67540000  0.71052000  0.35956000  1.0 0.2798808714
C  C209  1  0.93790000  0.63068000  0.47770000  1.0 0.3058822802
C  C210  1  0.85040000  0.51344000  0.49130000  1.0 0.2970703518
C  C211  1  0.95320000  0.55480000  0.33720000  1.0 0.1963822706
C  C212  1  0.74240000  0.56740000  0.04050000  1.0 0.2798808714
C  C213  1  0.59760000  0.62435000  0.17040000  1.0 -0.4728709062
C  C214  1  0.55680000  0.67960000  0.19700000  1.0 -0.4988037623
C  C215  1  0.63900000  0.55105000  0.43750000  1.0 -0.4988037623
C  C216  1  0.54910000  0.57150000  0.34180000  1.0 -0.5107877916
C  C217  1  0.82870000  0.65313000  0.22530000  1.0 -0.182770534
C  C218  1  0.69900000  0.72892000  0.30940000  1.0 -0.4608458037
C  C219  1  0.68530000  0.72863000  0.41965000  1.0 -0.4381920794
C  C220  1  0.98280000  0.63869000  0.44050000  1.0 -0.4608458037
C  C221  1  0.95840000  0.59945000  0.52260000  1.0 -0.4608458037
C  C222  1  0.79480000  0.50513000  0.52250000  1.0 -0.4728709062
C  C223  1  0.86510000  0.48705000  0.44890000  1.0 -0.4988037623
C  C224  1  0.93660000  0.52797000  0.29870000  1.0 -0.256829476
C  C225  1  0.00430000  0.52950000  0.38690000  1.0 -0.4499196434
C  C226  1  0.67980000  0.58160000  0.05300000  1.0 -0.4226562139
C  C227  1  0.77080000  0.53680000  0.07520000  1.0 -0.4226562139
C  C228  1  0.89020000  0.65479000  0.22712000  1.0 0.2226835055
C  C229  1  0.78940000  0.65997000  0.16940000  1.0 0.0899059126
C  C230  1  0.87890000  0.67369000  0.12810000  1.0 0.1784590657
C  C231  1  0.47340000  0.31680000  0.63570000  1.0 -0.6321467723
C  C232  1  0.29180000  0.55143000  0.28780000  1.0 0.2895839711
C  C233  1  0.23080000  0.55112000  0.30040000  1.0 -0.4728709062
C  C234  1  0.33980000  0.57400000  0.34350000  1.0 -0.4608458037
C  C235  1  0.14850000  0.78475000  0.24822000  1.0 0.1889311945
C  C236  1  0.20120000  0.75821000  0.17984000  1.0 0.0997923555
C  C237  1  0.23569000  0.78965000  0.18325000  1.0 -0.111494456
C  C238  1  0.22309000  0.81711000  0.22129000  1.0 0.0899059126
C  C239  1  0.28514000  0.79192000  0.14596000  1.0 0.6505945897
C  C240  1  0.32130000  0.96224000  0.32840000  1.0 0.1889311945
C  C241  1  0.24643000  0.99109000  0.25609000  1.0 0.1093889056
C  C242  1  0.96170000  0.94009000  0.18478000  1.0 0.1963822706
C  C243  1  0.93040000  0.92827000  0.27380000  1.0 0.0997923555
C  C244  1  0.18580000  0.93542000  0.50969000  1.0 0.2615401497
C  C245  1  0.12808000  0.88468000  0.52542000  1.0 0.2100717662
C  C246  1  0.29437000  0.85247000  0.98692000  1.0 0.6294719925
C  C247  1  0.35588000  0.91912000  0.13492000  1.0 0.2465801438
C  C248  1  0.47670000  0.88388000  0.04090000  1.0 0.4333404949
C  C249  1  0.47590000  0.80990000  0.23690000  1.0 0.3161635598
C  C250  1  0.35575000  0.74330000  0.89989000  1.0 0.2798808714
C  C251  1  0.17820000  0.76241000  0.96550000  1.0 0.4365629753
C  C252  1  0.34890000  0.67766000  0.08290000  1.0 0.3321148207
C  C253  1  0.29023000  0.01740000  0.24990000  1.0 -0.0946046883
C  C254  1  0.87280000  0.94381000  0.25168000  1.0 -0.121314243
C  C255  1  0.19620000  0.94223000  0.57462000  1.0 -0.1394280406
C  C256  1  0.23321000  0.86864000  0.95154000  1.0 -0.111494456
C  C257  1  0.39930000  0.95178000  0.15870000  1.0 -0.4608458037
C  C258  1  0.30596000  0.91276000  0.16146000  1.0 -0.4499196434
C  C259  1  0.54090000  0.87338000  0.03680000  1.0 -0.5385324308
C  C260  1  0.44010000  0.90863000  0.99870000  1.0 -0.5198153475
C  C261  1  0.45895000  0.76832000  0.22080000  1.0 -0.4988037623
C  C262  1  0.54919000  0.79714000  0.24200000  1.0 -0.4795832965
C  C263  1  0.29790000  0.75195000  0.85820000  1.0 -0.4795832965
C  C264  1  0.37747000  0.70546000  0.90820000  1.0 -0.4897842407
C  C265  1  0.14210000  0.78518000  0.99560000  1.0 -0.4897842407
C  C266  1  0.15720000  0.72597000  0.95310000  1.0 -0.4988037623
C  C267  1  0.28720000  0.65817000  0.06870000  1.0 -0.4897842407
C  C268  1  0.40400000  0.65320000  0.06690000  1.0 -0.4728709062
C  C269  1  0.34720000  0.01337000  0.28610000  1.0 0.0262556574
C  C270  1  0.27553000  0.04980000  0.20595000  1.0 0.6366297802
C  C271  1  0.86230000  0.95821000  0.19085000  1.0 0.1093889056
C  C272  1  0.82330000  0.94860000  0.28758000  1.0 0.6505945897
C  C273  1  0.17200000  0.92117000  0.60928000  1.0 0.0899059126
C  C274  1  0.23980000  0.97624000  0.60050000  1.0 0.6294719925
C  C275  1  0.20963000  0.86019000  0.89098000  1.0 0.0997923555
C  C276  1  0.19880000  0.89175000  0.97780000  1.0 0.080157814
C  C277  1  0.45060000  0.84120000  0.86130000  1.0 0.2348258098
C  C278  1  0.52310000  0.76240000  0.05220000  1.0 0.3372136106
C  C279  1  0.40590000  0.82772000  0.80920000  1.0 -0.4499196434
C  C280  1  0.54480000  0.72533000  0.01320000  1.0 -0.5600028389
C  C281  1  0.58370000  0.77990000  0.08400000  1.0 -0.5107877916
C  C282  1  0.12710000  0.89460000  0.89020000  1.0 0.1784590657
C  C283  1  0.38790000  0.15352000  0.28950000  1.0 0.2686669057
C  C284  1  0.40020000  0.08336000  0.09940000  1.0 0.3321148207
C  C285  1  0.19970000  0.14126000  0.22520000  1.0 0.5935647091
C  C286  1  0.32460000  0.21052000  0.14044000  1.0 0.2798808714
C  C287  1  0.06210000  0.13068000  0.02230000  1.0 0.3058822802
C  C288  1  0.14960000  0.01344000  0.00870000  1.0 0.2970703518
C  C289  1  0.04680000  0.05480000  0.16280000  1.0 0.1963822706
C  C290  1  0.25760000  0.06740000  0.45950000  1.0 0.2798808714
C  C291  1  0.40240000  0.12435000  0.32960000  1.0 -0.4728709062
C  C292  1  0.44320000  0.17960000  0.30300000  1.0 -0.4988037623
C  C293  1  0.36100000  0.05105000  0.06250000  1.0 -0.4988037623
C  C294  1  0.45090000  0.07150000  0.15820000  1.0 -0.5107877916
C  C295  1  0.17130000  0.15313000  0.27470000  1.0 -0.182770534
C  C296  1  0.30100000  0.22892000  0.19060000  1.0 -0.4608458037
C  C297  1  0.31470000  0.22863000  0.08035000  1.0 -0.4381920794
C  C298  1  0.01720000  0.13869000  0.05950000  1.0 -0.4608458037
C  C299  1  0.04160000  0.09945000  0.97740000  1.0 -0.4608458037
C  C300  1  0.20520000  0.00513000  0.97750000  1.0 -0.4728709062
C  C301  1  0.13490000  0.98705000  0.05110000  1.0 -0.4988037623
C  C302  1  0.06340000  0.02797000  0.20130000  1.0 -0.2522522476
C  C303  1  0.99570000  0.02950000  0.11310000  1.0 -0.4499196434
C  C304  1  0.32020000  0.08160000  0.44700000  1.0 -0.4226562139
C  C305  1  0.22920000  0.03680000  0.42480000  1.0 -0.4226562139
C  C306  1  0.10980000  0.15479000  0.27288000  1.0 0.2226835055
C  C307  1  0.21060000  0.15997000  0.33060000  1.0 0.0899059126
C  C308  1  0.12110000  0.17369000  0.37190000  1.0 0.1784590657
C  C309  1  0.52660000  0.81680000  0.86430000  1.0 -0.6408141056
C  C310  1  0.70820000  0.05143000  0.21220000  1.0 0.2895839711
C  C311  1  0.76920000  0.05112000  0.19960000  1.0 -0.4795832965
C  C312  1  0.66020000  0.07400000  0.15650000  1.0 -0.4608458037
I  I1  1  0.21768000  0.83918000  0.72599000  1.0 -0.3278342882
I  I2  1  0.04881000  0.79619000  0.79927000  1.0 -0.3240108291
I  I3  1  0.04343000  0.90631000  0.70488000  1.0 -0.256829476
I  I4  1  0.04225000  0.80060000  0.59174000  1.0 -0.277210767
I  I5  1  0.13302000  0.59384000  0.69402000  1.0 -0.3004648784
I  I6  1  0.05049000  0.65169000  0.84372000  1.0 -0.2522522476
I  I7  1  0.25478000  0.62355000  0.88414000  1.0 -0.3481449062
I  I8  1  0.10752000  0.53191000  0.85429000  1.0 -0.1955225268
I  I9  1  0.78232000  0.33918000  0.77401000  1.0 -0.3278342882
I  I10  1  0.95119000  0.29619000  0.70073000  1.0 -0.3240108291
I  I11  1  0.95657000  0.40631000  0.79512000  1.0 -0.256829476
I  I12  1  0.95775000  0.30060000  0.90826000  1.0 -0.277210767
I  I13  1  0.86698000  0.09384000  0.80598000  1.0 -0.3004648784
I  I14  1  0.94951000  0.15169000  0.65628000  1.0 -0.2522522476
I  I15  1  0.74522000  0.12355000  0.61586000  1.0 -0.3481449062
I  I16  1  0.89248000  0.03191000  0.64571000  1.0 -0.1955225268
I  I17  1  0.78232000  0.16082000  0.27401000  1.0 -0.3278342882
I  I18  1  0.95119000  0.20381000  0.20073000  1.0 -0.3278342882
I  I19  1  0.95657000  0.09369000  0.29512000  1.0 -0.256829476
I  I20  1  0.95775000  0.19940000  0.40826000  1.0 -0.277210767
I  I21  1  0.86698000  0.40616000  0.30598000  1.0 -0.3004648784
I  I22  1  0.94951000  0.34831000  0.15628000  1.0 -0.2522522476
I  I23  1  0.74522000  0.37645000  0.11586000  1.0 -0.3481449062
I  I24  1  0.89248000  0.46809000  0.14571000  1.0 -0.1927405322
I  I25  1  0.21768000  0.66082000  0.22599000  1.0 -0.3278342882
I  I26  1  0.04881000  0.70381000  0.29927000  1.0 -0.3240108291
I  I27  1  0.04343000  0.59369000  0.20488000  1.0 -0.2522522476
I  I28  1  0.04225000  0.69940000  0.09174000  1.0 -0.277210767
I  I29  1  0.13302000  0.90616000  0.19402000  1.0 -0.3004648784
I  I30  1  0.05049000  0.84831000  0.34372000  1.0 -0.2522522476
I  I31  1  0.25478000  0.87645000  0.38414000  1.0 -0.3481449062
I  I32  1  0.10752000  0.96809000  0.35429000  1.0 -0.1927405322
N  N1  1  0.15556000  0.62779000  0.35979000  1.0 -0.182770534
N  N2  1  0.15710000  0.74470000  0.71267000  1.0 -0.182770534
N  N3  1  0.13823000  0.60888000  0.08722000  1.0 -0.1927405322
N  N4  1  0.08290000  0.33470000  0.81670000  1.0 -0.121314243
N  N5  1  0.17847000  0.68438000  0.75338000  1.0 -0.1709606386
N  N6  1  0.26060000  0.53563000  0.79698000  1.0 -0.1927405322
N  N7  1  0.97548000  0.57370000  0.74078000  1.0 -0.182770534
N  N8  1  0.14906000  0.59288000  0.98649000  1.0 -0.1709606386
N  N9  1  0.36480000  0.51512000  0.82530000  1.0 -0.1709606386
N  N10  1  0.90561000  0.54504000  0.65756000  1.0 -0.2522522476
N  N11  1  0.14350000  0.59475000  0.44805000  1.0 -0.2522522476
N  N12  1  0.18720000  0.32145000  0.87750000  1.0 -0.2522522476
N  N13  1  0.84444000  0.12779000  0.14021000  1.0 -0.182770534
N  N14  1  0.84290000  0.24470000  0.78733000  1.0 -0.182770534
N  N15  1  0.86177000  0.10888000  0.41278000  1.0 -0.1927405322
N  N16  1  0.91710000  0.83470000  0.68330000  1.0 -0.121314243
N  N17  1  0.82153000  0.18438000  0.74662000  1.0 -0.1709606386
N  N18  1  0.73940000  0.03563000  0.70302000  1.0 -0.1927405322
N  N19  1  0.02452000  0.07370000  0.75922000  1.0 -0.182770534
N  N20  1  0.85094000  0.09288000  0.51351000  1.0 -0.1709606386
N  N21  1  0.63520000  0.01512000  0.67470000  1.0 -0.1709606386
N  N22  1  0.09439000  0.04504000  0.84244000  1.0 -0.2522522476
N  N23  1  0.85650000  0.09475000  0.05195000  1.0 -0.2522522476
N  N24  1  0.81280000  0.82145000  0.62250000  1.0 -0.256829476
N  N25  1  0.84444000  0.37221000  0.64021000  1.0 -0.182770534
N  N26  1  0.84290000  0.25530000  0.28733000  1.0 -0.182770534
N  N27  1  0.86177000  0.39112000  0.91278000  1.0 -0.1927405322
N  N28  1  0.91710000  0.66530000  0.18330000  1.0 -0.121314243
N  N29  1  0.82153000  0.31562000  0.24662000  1.0 -0.1709606386
N  N30  1  0.73940000  0.46437000  0.20302000  1.0 -0.1927405322
N  N31  1  0.02452000  0.42630000  0.25922000  1.0 -0.182770534
N  N32  1  0.85094000  0.40712000  0.01351000  1.0 -0.1709606386
N  N33  1  0.63520000  0.48488000  0.17470000  1.0 -0.1709606386
N  N34  1  0.09439000  0.45496000  0.34244000  1.0 -0.2522522476
N  N35  1  0.85650000  0.40525000  0.55195000  1.0 -0.2522522476
N  N36  1  0.81280000  0.67855000  0.12250000  1.0 -0.256829476
N  N37  1  0.15556000  0.87221000  0.85979000  1.0 -0.182770534
N  N38  1  0.15710000  0.75530000  0.21267000  1.0 -0.182770534
N  N39  1  0.13823000  0.89112000  0.58722000  1.0 -0.1927405322
N  N40  1  0.08290000  0.16530000  0.31670000  1.0 -0.121314243
N  N41  1  0.17847000  0.81562000  0.25338000  1.0 -0.1709606386
N  N42  1  0.26060000  0.96437000  0.29698000  1.0 -0.1927405322
N  N43  1  0.97548000  0.92630000  0.24078000  1.0 -0.182770534
N  N44  1  0.14906000  0.90712000  0.48649000  1.0 -0.1709606386
N  N45  1  0.36480000  0.98488000  0.32530000  1.0 -0.1709606386
N  N46  1  0.90561000  0.95496000  0.15756000  1.0 -0.2522522476
N  N47  1  0.14350000  0.90525000  0.94805000  1.0 -0.2522522476
N  N48  1  0.18720000  0.17855000  0.37750000  1.0 -0.2522522476
O  O1  1  0.32060000  0.67904000  0.65334000  1.0 -0.6025768915
O  O2  1  0.28781000  0.73486000  0.61008000  1.0 -0.5719951605
O  O3  1  0.30830000  0.64285000  0.54514000  1.0 -0.5719951605
O  O4  1  0.37686000  0.70607000  0.55729000  1.0 -1.0797093311
O  O5  1  0.38997000  0.61548000  0.64217000  1.0 -0.6321467723
O  O6  1  0.44082000  0.65027000  0.54538000  1.0 -0.7991061906
O  O7  1  0.45326000  0.68008000  0.67084000  1.0 -0.6321467723
O  O8  1  0.36364000  0.73870000  0.45911000  1.0 -0.7602488663
O  O9  1  0.24255000  0.73495000  0.48673000  1.0 -0.6321467723
O  O10  1  0.33597000  0.79001000  0.54974000  1.0 -0.6408141056
O  O11  1  0.32912000  0.66451000  0.45550000  1.0 -0.5798849562
O  O12  1  0.43595000  0.67908000  0.41672000  1.0 -0.6321467723
O  O13  1  0.48916000  0.71812000  0.51282000  1.0 -0.4499196434
O  O14  1  0.31502000  0.42611000  0.70845000  1.0 -0.5198153475
O  O15  1  0.22111000  0.45286000  0.66941000  1.0 -0.5534241
O  O16  1  0.77393000  0.53358000  0.76256000  1.0 -0.5600028389
O  O17  1  0.83459000  0.56565000  0.83876000  1.0 -0.4988037623
O  O18  1  0.24732000  0.51984000  0.15693000  1.0 -0.5251520077
O  O19  1  0.27480000  0.51198000  0.06340000  1.0 -0.5534241
O  O20  1  0.23263000  0.38808000  0.61014000  1.0 -1.100751082
O  O21  1  0.37523000  0.35785000  0.72899000  1.0 -0.5908734242
O  O22  1  0.36274000  0.39144000  0.61863000  1.0 -0.5600028389
O  O23  1  0.25488000  0.36423000  0.73150000  1.0 -0.4988037623
O  O24  1  0.28321000  0.32783000  0.62534000  1.0 -0.7602488663
O  O25  1  0.12433000  0.37646000  0.55529000  1.0 -0.7297689417
O  O26  1  0.16688000  0.45150000  0.54146000  1.0 -0.6458176573
O  O27  1  0.09659000  0.43621000  0.63005000  1.0 -0.5908734242
O  O28  1  0.28661000  0.45216000  0.14404000  1.0 -1.1692131856
O  O29  1  0.37810000  0.49898000  0.17168000  1.0 -0.8202967445
O  O30  1  0.26950000  0.43855000  0.02734000  1.0 -0.7297689417
O  O31  1  0.37890000  0.48758000  0.03250000  1.0 -0.7786184648
O  O32  1  0.40420000  0.42413000  0.10840000  1.0 -0.6666447917
O  O33  1  0.15200000  0.30100000  0.57640000  1.0 -0.8202967445
O  O34  1  0.16780000  0.33739000  0.67250000  1.0 -0.3004648784
O  O35  1  0.21370000  0.34107000  0.49894000  1.0 -0.8092263937
O  O36  1  0.68133000  0.48153000  0.72674000  1.0 -0.5719951605
O  O37  1  0.64758000  0.55385000  0.73938000  1.0 -0.5600028389
O  O38  1  0.85850000  0.53580000  0.95520000  1.0 -0.7660779158
O  O39  1  0.81020000  0.61200000  0.93050000  1.0 -0.8512535492
O  O40  1  0.15420000  0.38555000  0.68750000  1.0 -0.3481449062
O  O41  1  0.67940000  0.17904000  0.84666000  1.0 -0.6025768915
O  O42  1  0.71219000  0.23486000  0.88992000  1.0 -0.5719951605
O  O43  1  0.69170000  0.14285000  0.95486000  1.0 -0.5719951605
O  O44  1  0.62314000  0.20607000  0.94271000  1.0 -1.0797093311
O  O45  1  0.61003000  0.11548000  0.85783000  1.0 -0.6321467723
O  O46  1  0.55918000  0.15027000  0.95462000  1.0 -0.7991061906
O  O47  1  0.54674000  0.18008000  0.82916000  1.0 -0.6321467723
O  O48  1  0.63636000  0.23870000  0.04089000  1.0 -0.7602488663
O  O49  1  0.75745000  0.23495000  0.01327000  1.0 -0.6321467723
O  O50  1  0.66403000  0.29001000  0.95026000  1.0 -0.6408141056
O  O51  1  0.67088000  0.16451000  0.04450000  1.0 -0.5798849562
O  O52  1  0.56405000  0.17908000  0.08328000  1.0 -0.6321467723
O  O53  1  0.51084000  0.21812000  0.98718000  1.0 -0.4499196434
O  O54  1  0.68498000  0.92611000  0.79155000  1.0 -0.5198153475
O  O55  1  0.77889000  0.95286000  0.83059000  1.0 -0.5534241
O  O56  1  0.22607000  0.03358000  0.73744000  1.0 -0.5600028389
O  O57  1  0.16541000  0.06565000  0.66124000  1.0 -0.4988037623
O  O58  1  0.75268000  0.01984000  0.34307000  1.0 -0.5198153475
O  O59  1  0.72520000  0.01198000  0.43660000  1.0 -0.5534241
O  O60  1  0.76737000  0.88808000  0.88986000  1.0 -1.100751082
O  O61  1  0.62477000  0.85785000  0.77101000  1.0 -0.5908734242
O  O62  1  0.63726000  0.89144000  0.88137000  1.0 -0.5600028389
O  O63  1  0.74512000  0.86423000  0.76850000  1.0 -0.4988037623
O  O64  1  0.71679000  0.82783000  0.87466000  1.0 -0.7602488663
O  O65  1  0.87567000  0.87646000  0.94471000  1.0 -0.7297689417
O  O66  1  0.83312000  0.95150000  0.95854000  1.0 -0.6408141056
O  O67  1  0.90341000  0.93621000  0.86995000  1.0 -0.5908734242
O  O68  1  0.71339000  0.95216000  0.35596000  1.0 -1.1692131856
O  O69  1  0.62190000  0.99898000  0.32832000  1.0 -0.8274466792
O  O70  1  0.73050000  0.93855000  0.47266000  1.0 -0.7297689417
O  O71  1  0.62110000  0.98758000  0.46750000  1.0 -0.7786184648
O  O72  1  0.59580000  0.92413000  0.39160000  1.0 -0.6666447917
O  O73  1  0.84800000  0.80100000  0.92360000  1.0 -0.8202967445
O  O74  1  0.83220000  0.83739000  0.82750000  1.0 -0.3004648784
O  O75  1  0.78630000  0.84107000  0.00106000  1.0 -0.8092263937
O  O76  1  0.31867000  0.98153000  0.77326000  1.0 -0.5719951605
O  O77  1  0.35242000  0.05385000  0.76062000  1.0 -0.5719951605
O  O78  1  0.14150000  0.03580000  0.54480000  1.0 -0.7660779158
O  O79  1  0.18980000  0.11200000  0.56950000  1.0 -0.8512535492
O  O80  1  0.84580000  0.88555000  0.81250000  1.0 -0.3481449062
O  O81  1  0.67940000  0.32096000  0.34666000  1.0 -0.6025768915
O  O82  1  0.71219000  0.26514000  0.38992000  1.0 -0.5719951605
O  O83  1  0.69170000  0.35715000  0.45486000  1.0 -0.5798849562
O  O84  1  0.62314000  0.29393000  0.44271000  1.0 -1.0797093311
O  O85  1  0.61003000  0.38452000  0.35783000  1.0 -0.6321467723
O  O86  1  0.55918000  0.34973000  0.45462000  1.0 -0.7991061906
O  O87  1  0.54674000  0.31992000  0.32916000  1.0 -0.6321467723
O  O88  1  0.63636000  0.26130000  0.54089000  1.0 -0.7602488663
O  O89  1  0.75745000  0.26505000  0.51327000  1.0 -0.6321467723
O  O90  1  0.66403000  0.20999000  0.45026000  1.0 -0.6408141056
O  O91  1  0.67088000  0.33549000  0.54450000  1.0 -0.5908734242
O  O92  1  0.56405000  0.32092000  0.58328000  1.0 -0.6321467723
O  O93  1  0.51084000  0.28188000  0.48718000  1.0 -0.4499196434
O  O94  1  0.68498000  0.57389000  0.29155000  1.0 -0.5198153475
O  O95  1  0.77889000  0.54714000  0.33059000  1.0 -0.5534241
O  O96  1  0.22607000  0.46642000  0.23744000  1.0 -0.5600028389
O  O97  1  0.16541000  0.43435000  0.16124000  1.0 -0.4988037623
O  O98  1  0.75268000  0.48016000  0.84307000  1.0 -0.5198153475
O  O99  1  0.72520000  0.48802000  0.93660000  1.0 -0.5534241
O  O100  1  0.76737000  0.61192000  0.38986000  1.0 -1.100751082
O  O101  1  0.62477000  0.64215000  0.27101000  1.0 -0.5908734242
O  O102  1  0.63726000  0.60856000  0.38137000  1.0 -0.5600028389
O  O103  1  0.74512000  0.63577000  0.26850000  1.0 -0.4988037623
O  O104  1  0.71679000  0.67217000  0.37466000  1.0 -0.7602488663
O  O105  1  0.87567000  0.62354000  0.44471000  1.0 -0.7297689417
O  O106  1  0.83312000  0.54850000  0.45854000  1.0 -0.6458176573
O  O107  1  0.90341000  0.56379000  0.36995000  1.0 -0.5908734242
O  O108  1  0.71339000  0.54784000  0.85596000  1.0 -1.1692131856
O  O109  1  0.62190000  0.50102000  0.82832000  1.0 -0.8202967445
O  O110  1  0.73050000  0.56145000  0.97266000  1.0 -0.7297689417
O  O111  1  0.62110000  0.51242000  0.96750000  1.0 -0.7786184648
O  O112  1  0.59580000  0.57587000  0.89160000  1.0 -0.6458176573
O  O113  1  0.84800000  0.69900000  0.42360000  1.0 -0.8202967445
O  O114  1  0.83220000  0.66261000  0.32750000  1.0 -0.3004648784
O  O115  1  0.78630000  0.65893000  0.50106000  1.0 -0.8202967445
O  O116  1  0.31867000  0.51847000  0.27326000  1.0 -0.5719951605
O  O117  1  0.35242000  0.44615000  0.26062000  1.0 -0.5719951605
O  O118  1  0.14150000  0.46420000  0.04480000  1.0 -0.7660779158
O  O119  1  0.18980000  0.38800000  0.06950000  1.0 -0.8512535492
O  O120  1  0.84580000  0.61445000  0.31250000  1.0 -0.3481449062
O  O121  1  0.32060000  0.82096000  0.15334000  1.0 -0.6025768915
O  O122  1  0.28781000  0.76514000  0.11008000  1.0 -0.5719951605
O  O123  1  0.30830000  0.85715000  0.04514000  1.0 -0.5798849562
O  O124  1  0.37686000  0.79393000  0.05729000  1.0 -1.0797093311
O  O125  1  0.38997000  0.88452000  0.14217000  1.0 -0.6321467723
O  O126  1  0.44082000  0.84973000  0.04538000  1.0 -0.7991061906
O  O127  1  0.45326000  0.81992000  0.17084000  1.0 -0.6321467723
O  O128  1  0.36364000  0.76130000  0.95911000  1.0 -0.7602488663
O  O129  1  0.24255000  0.76505000  0.98673000  1.0 -0.6321467723
O  O130  1  0.33597000  0.70999000  0.04974000  1.0 -0.6408141056
O  O131  1  0.32912000  0.83549000  0.95550000  1.0 -0.5908734242
O  O132  1  0.43595000  0.82092000  0.91672000  1.0 -0.6321467723
O  O133  1  0.48916000  0.78188000  0.01282000  1.0 -0.4499196434
O  O134  1  0.31502000  0.07389000  0.20845000  1.0 -0.5198153475
O  O135  1  0.22111000  0.04714000  0.16941000  1.0 -0.5534241
O  O136  1  0.77393000  0.96642000  0.26256000  1.0 -0.5600028389
O  O137  1  0.83459000  0.93435000  0.33876000  1.0 -0.4988037623
O  O138  1  0.24732000  0.98016000  0.65693000  1.0 -0.5251520077
O  O139  1  0.27480000  0.98802000  0.56340000  1.0 -0.5534241
O  O140  1  0.23263000  0.11192000  0.11014000  1.0 -1.100751082
O  O141  1  0.37523000  0.14215000  0.22899000  1.0 -0.5908734242
O  O142  1  0.36274000  0.10856000  0.11863000  1.0 -0.5600028389
O  O143  1  0.25488000  0.13577000  0.23150000  1.0 -0.4988037623
O  O144  1  0.28321000  0.17217000  0.12534000  1.0 -0.7602488663
O  O145  1  0.12433000  0.12354000  0.05529000  1.0 -0.7297689417
O  O146  1  0.16688000  0.04850000  0.04146000  1.0 -0.6408141056
O  O147  1  0.09659000  0.06379000  0.13005000  1.0 -0.5908734242
O  O148  1  0.28661000  0.04784000  0.64404000  1.0 -1.1692131856
O  O149  1  0.37810000  0.00102000  0.67168000  1.0 -0.8274466792
O  O150  1  0.26950000  0.06145000  0.52734000  1.0 -0.7297689417
O  O151  1  0.37890000  0.01242000  0.53250000  1.0 -0.7786184648
O  O152  1  0.40420000  0.07587000  0.60840000  1.0 -0.6591527859
O  O153  1  0.15200000  0.19900000  0.07640000  1.0 -0.8202967445
O  O154  1  0.16780000  0.16261000  0.17250000  1.0 -0.3004648784
O  O155  1  0.21370000  0.15893000  0.99894000  1.0 -0.8092263937
O  O156  1  0.68133000  0.01847000  0.22674000  1.0 -0.5719951605
O  O157  1  0.64758000  0.94615000  0.23938000  1.0 -0.5719951605
O  O158  1  0.85850000  0.96420000  0.45520000  1.0 -0.7602488663
O  O159  1  0.81020000  0.88800000  0.43050000  1.0 -0.8512535492
O  O160  1  0.15420000  0.11445000  0.18750000  1.0 -0.3481449062
