# DDEC6 charges by PACMAN v1.1 (https://github.com/mtap-research/PACMAN-charge/)
data_HENYUX_ASR_pacman
_symmetry_space_group_name_H-M   'P 1'
_cell_length_a   17.52100000
_cell_length_b   21.39900000
_cell_length_c   21.43200000
_cell_angle_alpha   90.00000000
_cell_angle_beta   90.00000000
_cell_angle_gamma   90.00000000
_symmetry_Int_Tables_number   1
_chemical_formula_structural   Ca2H12C29O8
_chemical_formula_sum   'Ca16 H96 C232 O64'
_cell_volume   8035.54003073
_cell_formula_units_Z   8
loop_
 _symmetry_equiv_pos_site_id
 _symmetry_equiv_pos_as_xyz
  1  'x, y, z'
loop_
 _atom_site_type_symbol
 _atom_site_label
 _atom_site_symmetry_multiplicity
 _atom_site_fract_x
 _atom_site_fract_y
 _atom_site_fract_z
 _atom_site_occupancy
 _atom_site_charge
Ca  Ca1  1  0.58501000  0.06837000  0.00088000  1.0 1.3980163847
Ca  Ca2  1  0.79071000  0.58750000  0.50537000  1.0 1.3399397647
Ca  Ca3  1  0.41499000  0.43163000  0.50088000  1.0 1.3980163847
Ca  Ca4  1  0.20929000  0.91250000  0.00537000  1.0 1.3399397647
Ca  Ca5  1  0.08501000  0.93163000  0.49912000  1.0 1.3980163847
Ca  Ca6  1  0.29071000  0.41250000  0.99463000  1.0 1.3399397647
Ca  Ca7  1  0.91499000  0.56837000  0.99912000  1.0 1.3980163847
Ca  Ca8  1  0.70929000  0.08750000  0.49463000  1.0 1.3399397647
Ca  Ca9  1  0.41499000  0.93163000  0.99912000  1.0 1.3980163847
Ca  Ca10  1  0.20929000  0.41250000  0.49463000  1.0 1.3399397647
Ca  Ca11  1  0.58501000  0.56837000  0.49912000  1.0 1.3980163847
Ca  Ca12  1  0.79071000  0.08750000  0.99463000  1.0 1.3399397647
Ca  Ca13  1  0.91499000  0.06837000  0.50088000  1.0 1.3980163847
Ca  Ca14  1  0.70929000  0.58750000  0.00537000  1.0 1.3399397647
Ca  Ca15  1  0.08501000  0.43163000  0.00088000  1.0 1.3980163847
Ca  Ca16  1  0.29071000  0.91250000  0.50537000  1.0 1.3399397647
H  H1  1  0.94980000  0.74830000  0.11330000  1.0 0.1193024512
H  H2  1  0.45920000  0.89930000  0.15050000  1.0 0.1193024512
H  H3  1  0.46710000  0.82350000  0.22960000  1.0 0.1193024512
H  H4  1  0.69040000  0.91710000  0.15030000  1.0 0.1326504726
H  H5  1  0.50860000  0.73600000  0.31330000  1.0 0.1193024512
H  H6  1  0.57060000  0.66800000  0.38190000  1.0 0.1141768066
H  H7  1  0.77620000  0.74350000  0.33630000  1.0 0.1326504726
H  H8  1  0.68930000  0.92130000  0.33760000  1.0 0.1326504726
H  H9  1  0.90780000  0.98170000  0.35980000  1.0 0.1193024512
H  H10  1  0.94900000  0.91330000  0.28170000  1.0 0.1193024512
H  H11  1  0.96480000  0.82750000  0.18790000  1.0 0.1193024512
H  H12  1  0.72270000  0.73920000  0.14950000  1.0 0.1326504726
H  H13  1  0.05020000  0.75170000  0.61330000  1.0 0.1193024512
H  H14  1  0.54080000  0.60070000  0.65050000  1.0 0.1193024512
H  H15  1  0.53290000  0.67650000  0.72960000  1.0 0.1193024512
H  H16  1  0.30960000  0.58290000  0.65030000  1.0 0.1326504726
H  H17  1  0.49140000  0.76400000  0.81330000  1.0 0.1193024512
H  H18  1  0.42940000  0.83200000  0.88190000  1.0 0.1141768066
H  H19  1  0.22380000  0.75650000  0.83630000  1.0 0.1326504726
H  H20  1  0.31070000  0.57870000  0.83760000  1.0 0.1326504726
H  H21  1  0.09220000  0.51830000  0.85980000  1.0 0.1193024512
H  H22  1  0.05100000  0.58670000  0.78170000  1.0 0.1193024512
H  H23  1  0.03520000  0.67250000  0.68790000  1.0 0.1193024512
H  H24  1  0.27730000  0.76080000  0.64950000  1.0 0.1326504726
H  H25  1  0.44980000  0.25170000  0.38670000  1.0 0.1193024512
H  H26  1  0.95920000  0.10070000  0.34950000  1.0 0.1193024512
H  H27  1  0.96710000  0.17650000  0.27040000  1.0 0.1193024512
H  H28  1  0.19040000  0.08290000  0.34970000  1.0 0.1326504726
H  H29  1  0.00860000  0.26400000  0.18670000  1.0 0.1193024512
H  H30  1  0.07060000  0.33200000  0.11810000  1.0 0.1141768066
H  H31  1  0.27620000  0.25650000  0.16370000  1.0 0.1326504726
H  H32  1  0.18930000  0.07870000  0.16240000  1.0 0.1326504726
H  H33  1  0.40780000  0.01830000  0.14020000  1.0 0.1193024512
H  H34  1  0.44900000  0.08670000  0.21830000  1.0 0.1193024512
H  H35  1  0.46480000  0.17250000  0.31210000  1.0 0.1193024512
H  H36  1  0.22270000  0.26080000  0.35050000  1.0 0.1326504726
H  H37  1  0.55020000  0.24830000  0.88670000  1.0 0.1193024512
H  H38  1  0.04080000  0.39930000  0.84950000  1.0 0.1141768066
H  H39  1  0.03290000  0.32350000  0.77040000  1.0 0.1193024512
H  H40  1  0.80960000  0.41710000  0.84970000  1.0 0.1326504726
H  H41  1  0.99140000  0.23600000  0.68670000  1.0 0.1193024512
H  H42  1  0.92940000  0.16800000  0.61810000  1.0 0.1141768066
H  H43  1  0.72380000  0.24350000  0.66370000  1.0 0.1326504726
H  H44  1  0.81070000  0.42130000  0.66240000  1.0 0.1326504726
H  H45  1  0.59220000  0.48170000  0.64020000  1.0 0.1193024512
H  H46  1  0.55100000  0.41330000  0.71830000  1.0 0.1193024512
H  H47  1  0.53520000  0.32750000  0.81210000  1.0 0.1193024512
H  H48  1  0.77730000  0.23920000  0.85050000  1.0 0.1326504726
H  H49  1  0.05020000  0.25170000  0.88670000  1.0 0.1193024512
H  H50  1  0.54080000  0.10070000  0.84950000  1.0 0.1141768066
H  H51  1  0.53290000  0.17650000  0.77040000  1.0 0.1193024512
H  H52  1  0.30960000  0.08290000  0.84970000  1.0 0.1326504726
H  H53  1  0.49140000  0.26400000  0.68670000  1.0 0.1193024512
H  H54  1  0.42940000  0.33200000  0.61810000  1.0 0.1141768066
H  H55  1  0.22380000  0.25650000  0.66370000  1.0 0.1326504726
H  H56  1  0.31070000  0.07870000  0.66240000  1.0 0.1326504726
H  H57  1  0.09220000  0.01830000  0.64020000  1.0 0.1193024512
H  H58  1  0.05100000  0.08670000  0.71830000  1.0 0.1193024512
H  H59  1  0.03520000  0.17250000  0.81210000  1.0 0.1193024512
H  H60  1  0.27730000  0.26080000  0.85050000  1.0 0.1326504726
H  H61  1  0.94980000  0.24830000  0.38670000  1.0 0.1193024512
H  H62  1  0.45920000  0.39930000  0.34950000  1.0 0.1193024512
H  H63  1  0.46710000  0.32350000  0.27040000  1.0 0.1193024512
H  H64  1  0.69040000  0.41710000  0.34970000  1.0 0.1326504726
H  H65  1  0.50860000  0.23600000  0.18670000  1.0 0.1193024512
H  H66  1  0.57060000  0.16800000  0.11810000  1.0 0.1141768066
H  H67  1  0.77620000  0.24350000  0.16370000  1.0 0.1326504726
H  H68  1  0.68930000  0.42130000  0.16240000  1.0 0.1326504726
H  H69  1  0.90780000  0.48170000  0.14020000  1.0 0.1193024512
H  H70  1  0.94900000  0.41330000  0.21830000  1.0 0.1193024512
H  H71  1  0.96480000  0.32750000  0.31210000  1.0 0.1193024512
H  H72  1  0.72270000  0.23920000  0.35050000  1.0 0.1326504726
H  H73  1  0.55020000  0.74830000  0.61330000  1.0 0.1193024512
H  H74  1  0.04080000  0.89930000  0.65050000  1.0 0.1193024512
H  H75  1  0.03290000  0.82350000  0.72960000  1.0 0.1193024512
H  H76  1  0.80960000  0.91710000  0.65030000  1.0 0.1326504726
H  H77  1  0.99140000  0.73600000  0.81330000  1.0 0.1193024512
H  H78  1  0.92940000  0.66800000  0.88190000  1.0 0.1141768066
H  H79  1  0.72380000  0.74350000  0.83630000  1.0 0.1326504726
H  H80  1  0.81070000  0.92130000  0.83760000  1.0 0.1326504726
H  H81  1  0.59220000  0.98170000  0.85980000  1.0 0.1193024512
H  H82  1  0.55100000  0.91330000  0.78170000  1.0 0.1193024512
H  H83  1  0.53520000  0.82750000  0.68790000  1.0 0.1193024512
H  H84  1  0.77730000  0.73920000  0.64950000  1.0 0.1326504726
H  H85  1  0.44980000  0.75170000  0.11330000  1.0 0.1193024512
H  H86  1  0.95920000  0.60070000  0.15050000  1.0 0.1193024512
H  H87  1  0.96710000  0.67650000  0.22960000  1.0 0.1193024512
H  H88  1  0.19040000  0.58290000  0.15030000  1.0 0.1326504726
H  H89  1  0.00860000  0.76400000  0.31330000  1.0 0.1193024512
H  H90  1  0.07060000  0.83200000  0.38190000  1.0 0.1141768066
H  H91  1  0.27620000  0.75650000  0.33630000  1.0 0.1326504726
H  H92  1  0.18930000  0.57870000  0.33760000  1.0 0.1326504726
H  H93  1  0.40780000  0.51830000  0.35980000  1.0 0.1193024512
H  H94  1  0.44900000  0.58670000  0.28170000  1.0 0.1193024512
H  H95  1  0.46480000  0.67250000  0.18790000  1.0 0.1193024512
H  H96  1  0.22270000  0.76080000  0.14950000  1.0 0.1326504726
C  C1  1  0.71780000  0.65650000  0.41134000  1.0 0.6005961997
C  C2  1  0.76740000  0.00212000  0.40603000  1.0 0.6005961997
C  C3  1  0.82800000  0.68241000  0.07922000  1.0 0.6091887866
C  C4  1  0.83600000  0.73592000  0.12506000  1.0 -0.0096289065
C  C5  1  0.90680000  0.76240000  0.13633000  1.0 -0.1107188712
C  C6  1  0.56780000  0.96185000  0.09050000  1.0 0.5788920437
C  C7  1  0.57367000  0.91466000  0.14240000  1.0 -0.0180726229
C  C8  1  0.50770000  0.88718000  0.16634000  1.0 -0.1107188712
C  C9  1  0.51210000  0.84217000  0.21326000  1.0 -0.1506444747
C  C10  1  0.58350000  0.82528000  0.23564000  1.0 0.0126724359
C  C11  1  0.64530000  0.89824000  0.16615000  1.0 -0.1506444747
C  C12  1  0.64936000  0.85423000  0.21303000  1.0 0.0169680877
C  C13  1  0.72063000  0.82932000  0.24592000  1.0 0.0380251291
C  C14  1  0.60600000  0.77905000  0.28278000  1.0 0.0126724359
C  C15  1  0.68526000  0.78070000  0.28939000  1.0 0.0169680877
C  C16  1  0.56250000  0.73720000  0.31752000  1.0 -0.1565192808
C  C17  1  0.59960000  0.69730000  0.35841000  1.0 -0.1176401694
C  C18  1  0.67840000  0.69933000  0.36574000  1.0 -0.0049066588
C  C19  1  0.72230000  0.74161000  0.33121000  1.0 -0.1565192808
C  C20  1  0.76668000  0.87809000  0.28143000  1.0 0.0126724359
C  C21  1  0.74180000  0.91934000  0.32668000  1.0 -0.1565192808
C  C22  1  0.79480000  0.95798000  0.35603000  1.0 -0.0096289065
C  C23  1  0.87200000  0.95537000  0.33930000  1.0 -0.1107188712
C  C24  1  0.89670000  0.91474000  0.29317000  1.0 -0.1565192808
C  C25  1  0.84370000  0.87597000  0.26384000  1.0 0.0126724359
C  C26  1  0.85249000  0.82898000  0.21441000  1.0 0.0126724359
C  C27  1  0.91610000  0.80930000  0.18075000  1.0 -0.1677572513
C  C28  1  0.78080000  0.80218000  0.20275000  1.0 0.0169680877
C  C29  1  0.77166000  0.75642000  0.15788000  1.0 -0.1565192808
C  C30  1  0.28220000  0.84350000  0.91134000  1.0 0.6005961997
C  C31  1  0.23260000  0.49788000  0.90603000  1.0 0.6005961997
C  C32  1  0.17200000  0.81759000  0.57922000  1.0 0.6091887866
C  C33  1  0.16400000  0.76408000  0.62506000  1.0 -0.0096289065
C  C34  1  0.09320000  0.73760000  0.63633000  1.0 -0.1107188712
C  C35  1  0.43220000  0.53815000  0.59050000  1.0 0.5788920437
C  C36  1  0.42633000  0.58534000  0.64240000  1.0 -0.0180726229
C  C37  1  0.49230000  0.61282000  0.66634000  1.0 -0.1107188712
C  C38  1  0.48790000  0.65783000  0.71326000  1.0 -0.1506444747
C  C39  1  0.41650000  0.67472000  0.73564000  1.0 0.0126724359
C  C40  1  0.35470000  0.60176000  0.66615000  1.0 -0.1506444747
C  C41  1  0.35064000  0.64577000  0.71303000  1.0 0.0169680877
C  C42  1  0.27937000  0.67068000  0.74592000  1.0 0.0380251291
C  C43  1  0.39400000  0.72095000  0.78278000  1.0 0.0126724359
C  C44  1  0.31474000  0.71930000  0.78939000  1.0 0.0126724359
C  C45  1  0.43750000  0.76280000  0.81752000  1.0 -0.1565192808
C  C46  1  0.40040000  0.80270000  0.85841000  1.0 -0.1176401694
C  C47  1  0.32160000  0.80067000  0.86574000  1.0 -0.0096289065
C  C48  1  0.27770000  0.75839000  0.83121000  1.0 -0.1565192808
C  C49  1  0.23332000  0.62191000  0.78143000  1.0 0.0126724359
C  C50  1  0.25820000  0.58066000  0.82668000  1.0 -0.1565192808
C  C51  1  0.20520000  0.54202000  0.85603000  1.0 -0.0096289065
C  C52  1  0.12800000  0.54463000  0.83930000  1.0 -0.1107188712
C  C53  1  0.10330000  0.58526000  0.79317000  1.0 -0.1565192808
C  C54  1  0.15630000  0.62403000  0.76384000  1.0 0.0126724359
C  C55  1  0.14751000  0.67102000  0.71441000  1.0 0.0126724359
C  C56  1  0.08390000  0.69070000  0.68075000  1.0 -0.1677572513
C  C57  1  0.21920000  0.69782000  0.70275000  1.0 0.0169680877
C  C58  1  0.22834000  0.74358000  0.65788000  1.0 -0.1565192808
C  C59  1  0.21780000  0.34350000  0.08866000  1.0 0.6005961997
C  C60  1  0.26740000  0.99788000  0.09397000  1.0 0.6005961997
C  C61  1  0.32800000  0.31759000  0.42078000  1.0 0.6091887866
C  C62  1  0.33600000  0.26408000  0.37494000  1.0 -0.0096289065
C  C63  1  0.40680000  0.23760000  0.36367000  1.0 -0.1107188712
C  C64  1  0.06780000  0.03815000  0.40950000  1.0 0.5788920437
C  C65  1  0.07367000  0.08534000  0.35760000  1.0 -0.0180726229
C  C66  1  0.00770000  0.11282000  0.33366000  1.0 -0.1107188712
C  C67  1  0.01210000  0.15783000  0.28674000  1.0 -0.1506444747
C  C68  1  0.08350000  0.17472000  0.26436000  1.0 0.0126724359
C  C69  1  0.14530000  0.10176000  0.33385000  1.0 -0.1506444747
C  C70  1  0.14936000  0.14577000  0.28697000  1.0 0.0169680877
C  C71  1  0.22063000  0.17068000  0.25408000  1.0 0.0380251291
C  C72  1  0.10600000  0.22095000  0.21722000  1.0 0.0126724359
C  C73  1  0.18526000  0.21930000  0.21061000  1.0 0.0169680877
C  C74  1  0.06250000  0.26280000  0.18248000  1.0 -0.1565192808
C  C75  1  0.09960000  0.30270000  0.14159000  1.0 -0.1176401694
C  C76  1  0.17840000  0.30067000  0.13426000  1.0 -0.0096289065
C  C77  1  0.22230000  0.25839000  0.16879000  1.0 -0.1565192808
C  C78  1  0.26668000  0.12191000  0.21857000  1.0 0.0126724359
C  C79  1  0.24180000  0.08066000  0.17332000  1.0 -0.1506444747
C  C80  1  0.29480000  0.04202000  0.14397000  1.0 -0.0096289065
C  C81  1  0.37200000  0.04463000  0.16070000  1.0 -0.1107188712
C  C82  1  0.39670000  0.08526000  0.20683000  1.0 -0.1565192808
C  C83  1  0.34370000  0.12403000  0.23616000  1.0 0.0126724359
C  C84  1  0.35249000  0.17102000  0.28559000  1.0 0.0126724359
C  C85  1  0.41610000  0.19070000  0.31925000  1.0 -0.1677572513
C  C86  1  0.28080000  0.19782000  0.29725000  1.0 0.0169680877
C  C87  1  0.27166000  0.24358000  0.34212000  1.0 -0.1565192808
C  C88  1  0.78220000  0.15650000  0.58866000  1.0 0.6005961997
C  C89  1  0.73260000  0.50212000  0.59397000  1.0 0.6005961997
C  C90  1  0.67200000  0.18241000  0.92078000  1.0 0.6091887866
C  C91  1  0.66400000  0.23592000  0.87494000  1.0 -0.0180726229
C  C92  1  0.59320000  0.26240000  0.86367000  1.0 -0.1107188712
C  C93  1  0.93220000  0.46185000  0.90950000  1.0 0.5788920437
C  C94  1  0.92633000  0.41466000  0.85760000  1.0 -0.0180726229
C  C95  1  0.99230000  0.38718000  0.83366000  1.0 -0.1107188712
C  C96  1  0.98790000  0.34217000  0.78674000  1.0 -0.1506444747
C  C97  1  0.91650000  0.32528000  0.76436000  1.0 0.0126724359
C  C98  1  0.85470000  0.39824000  0.83385000  1.0 -0.1506444747
C  C99  1  0.85064000  0.35423000  0.78697000  1.0 0.0169680877
C  C100  1  0.77937000  0.32932000  0.75408000  1.0 0.0380251291
C  C101  1  0.89400000  0.27905000  0.71722000  1.0 0.0126724359
C  C102  1  0.81474000  0.28070000  0.71061000  1.0 0.0169680877
C  C103  1  0.93750000  0.23720000  0.68248000  1.0 -0.1565192808
C  C104  1  0.90040000  0.19730000  0.64159000  1.0 -0.1176401694
C  C105  1  0.82160000  0.19933000  0.63426000  1.0 -0.0096289065
C  C106  1  0.77770000  0.24161000  0.66879000  1.0 -0.1565192808
C  C107  1  0.73332000  0.37809000  0.71857000  1.0 0.0126724359
C  C108  1  0.75820000  0.41934000  0.67332000  1.0 -0.1565192808
C  C109  1  0.70520000  0.45798000  0.64397000  1.0 -0.0096289065
C  C110  1  0.62800000  0.45537000  0.66070000  1.0 -0.1107188712
C  C111  1  0.60330000  0.41474000  0.70683000  1.0 -0.1565192808
C  C112  1  0.65630000  0.37597000  0.73616000  1.0 0.0126724359
C  C113  1  0.64751000  0.32898000  0.78559000  1.0 0.0126724359
C  C114  1  0.58390000  0.30930000  0.81925000  1.0 -0.1677572513
C  C115  1  0.71920000  0.30218000  0.79725000  1.0 0.0169680877
C  C116  1  0.72834000  0.25642000  0.84212000  1.0 -0.1565192808
C  C117  1  0.28220000  0.34350000  0.58866000  1.0 0.6005961997
C  C118  1  0.23260000  0.99788000  0.59397000  1.0 0.6005961997
C  C119  1  0.17200000  0.31759000  0.92078000  1.0 0.6091887866
C  C120  1  0.16400000  0.26408000  0.87494000  1.0 -0.0096289065
C  C121  1  0.09320000  0.23760000  0.86367000  1.0 -0.1107188712
C  C122  1  0.43220000  0.03815000  0.90950000  1.0 0.5788920437
C  C123  1  0.42633000  0.08534000  0.85760000  1.0 -0.0180726229
C  C124  1  0.49230000  0.11282000  0.83366000  1.0 -0.1107188712
C  C125  1  0.48790000  0.15783000  0.78674000  1.0 -0.1506444747
C  C126  1  0.41650000  0.17472000  0.76436000  1.0 0.0126724359
C  C127  1  0.35470000  0.10176000  0.83385000  1.0 -0.1506444747
C  C128  1  0.35064000  0.14577000  0.78697000  1.0 0.0169680877
C  C129  1  0.27937000  0.17068000  0.75408000  1.0 0.0380251291
C  C130  1  0.39400000  0.22095000  0.71722000  1.0 0.0126724359
C  C131  1  0.31474000  0.21930000  0.71061000  1.0 0.0169680877
C  C132  1  0.43750000  0.26280000  0.68248000  1.0 -0.1565192808
C  C133  1  0.40040000  0.30270000  0.64159000  1.0 -0.1176401694
C  C134  1  0.32160000  0.30067000  0.63426000  1.0 -0.0096289065
C  C135  1  0.27770000  0.25839000  0.66879000  1.0 -0.1565192808
C  C136  1  0.23332000  0.12191000  0.71857000  1.0 0.0126724359
C  C137  1  0.25820000  0.08066000  0.67332000  1.0 -0.1565192808
C  C138  1  0.20520000  0.04202000  0.64397000  1.0 -0.0096289065
C  C139  1  0.12800000  0.04463000  0.66070000  1.0 -0.1107188712
C  C140  1  0.10330000  0.08526000  0.70683000  1.0 -0.1565192808
C  C141  1  0.15630000  0.12403000  0.73616000  1.0 0.0126724359
C  C142  1  0.14751000  0.17102000  0.78559000  1.0 0.0126724359
C  C143  1  0.08390000  0.19070000  0.81925000  1.0 -0.1677572513
C  C144  1  0.21920000  0.19782000  0.79725000  1.0 0.0169680877
C  C145  1  0.22834000  0.24358000  0.84212000  1.0 -0.1565192808
C  C146  1  0.71780000  0.15650000  0.08866000  1.0 0.6005961997
C  C147  1  0.76740000  0.50212000  0.09397000  1.0 0.6005961997
C  C148  1  0.82800000  0.18241000  0.42078000  1.0 0.6091887866
C  C149  1  0.83600000  0.23592000  0.37494000  1.0 -0.0096289065
C  C150  1  0.90680000  0.26240000  0.36367000  1.0 -0.1107188712
C  C151  1  0.56780000  0.46185000  0.40950000  1.0 0.5788920437
C  C152  1  0.57367000  0.41466000  0.35760000  1.0 -0.0180726229
C  C153  1  0.50770000  0.38718000  0.33366000  1.0 -0.1107188712
C  C154  1  0.51210000  0.34217000  0.28674000  1.0 -0.1506444747
C  C155  1  0.58350000  0.32528000  0.26436000  1.0 0.0126724359
C  C156  1  0.64530000  0.39824000  0.33385000  1.0 -0.1506444747
C  C157  1  0.64936000  0.35423000  0.28697000  1.0 0.0169680877
C  C158  1  0.72063000  0.32932000  0.25408000  1.0 0.0380251291
C  C159  1  0.60600000  0.27905000  0.21722000  1.0 0.0126724359
C  C160  1  0.68526000  0.28070000  0.21061000  1.0 0.0169680877
C  C161  1  0.56250000  0.23720000  0.18248000  1.0 -0.1565192808
C  C162  1  0.59960000  0.19730000  0.14159000  1.0 -0.1176401694
C  C163  1  0.67840000  0.19933000  0.13426000  1.0 -0.0096289065
C  C164  1  0.72230000  0.24161000  0.16879000  1.0 -0.1565192808
C  C165  1  0.76668000  0.37809000  0.21857000  1.0 0.0126724359
C  C166  1  0.74180000  0.41934000  0.17332000  1.0 -0.1565192808
C  C167  1  0.79480000  0.45798000  0.14397000  1.0 -0.0096289065
C  C168  1  0.87200000  0.45537000  0.16070000  1.0 -0.1107188712
C  C169  1  0.89670000  0.41474000  0.20683000  1.0 -0.1565192808
C  C170  1  0.84370000  0.37597000  0.23616000  1.0 0.0126724359
C  C171  1  0.85249000  0.32898000  0.28559000  1.0 0.0126724359
C  C172  1  0.91610000  0.30930000  0.31925000  1.0 -0.1677572513
C  C173  1  0.78080000  0.30218000  0.29725000  1.0 0.0169680877
C  C174  1  0.77166000  0.25642000  0.34212000  1.0 -0.1565192808
C  C175  1  0.78220000  0.65650000  0.91134000  1.0 0.6005961997
C  C176  1  0.73260000  0.00212000  0.90603000  1.0 0.6005961997
C  C177  1  0.67200000  0.68241000  0.57922000  1.0 0.6091887866
C  C178  1  0.66400000  0.73592000  0.62506000  1.0 -0.0096289065
C  C179  1  0.59320000  0.76240000  0.63633000  1.0 -0.1107188712
C  C180  1  0.93220000  0.96185000  0.59050000  1.0 0.5788920437
C  C181  1  0.92633000  0.91466000  0.64240000  1.0 -0.0180726229
C  C182  1  0.99230000  0.88718000  0.66634000  1.0 -0.1107188712
C  C183  1  0.98790000  0.84217000  0.71326000  1.0 -0.1506444747
C  C184  1  0.91650000  0.82528000  0.73564000  1.0 0.0126724359
C  C185  1  0.85470000  0.89824000  0.66615000  1.0 -0.1506444747
C  C186  1  0.85064000  0.85423000  0.71303000  1.0 0.0169680877
C  C187  1  0.77937000  0.82932000  0.74592000  1.0 0.0380251291
C  C188  1  0.89400000  0.77905000  0.78278000  1.0 0.0126724359
C  C189  1  0.81474000  0.78070000  0.78939000  1.0 0.0126724359
C  C190  1  0.93750000  0.73720000  0.81752000  1.0 -0.1565192808
C  C191  1  0.90040000  0.69730000  0.85841000  1.0 -0.1176401694
C  C192  1  0.82160000  0.69933000  0.86574000  1.0 -0.0096289065
C  C193  1  0.77770000  0.74161000  0.83121000  1.0 -0.1565192808
C  C194  1  0.73332000  0.87809000  0.78143000  1.0 0.0126724359
C  C195  1  0.75820000  0.91934000  0.82668000  1.0 -0.1565192808
C  C196  1  0.70520000  0.95798000  0.85603000  1.0 -0.0096289065
C  C197  1  0.62800000  0.95537000  0.83930000  1.0 -0.1107188712
C  C198  1  0.60330000  0.91474000  0.79317000  1.0 -0.1565192808
C  C199  1  0.65630000  0.87597000  0.76384000  1.0 0.0126724359
C  C200  1  0.64751000  0.82898000  0.71441000  1.0 0.0126724359
C  C201  1  0.58390000  0.80930000  0.68075000  1.0 -0.1677572513
C  C202  1  0.71920000  0.80218000  0.70275000  1.0 0.0169680877
C  C203  1  0.72834000  0.75642000  0.65788000  1.0 -0.1565192808
C  C204  1  0.21780000  0.84350000  0.41134000  1.0 0.6005961997
C  C205  1  0.26740000  0.49788000  0.40603000  1.0 0.6005961997
C  C206  1  0.32800000  0.81759000  0.07922000  1.0 0.6091887866
C  C207  1  0.33600000  0.76408000  0.12506000  1.0 -0.0096289065
C  C208  1  0.40680000  0.73760000  0.13633000  1.0 -0.1107188712
C  C209  1  0.06780000  0.53815000  0.09050000  1.0 0.5788920437
C  C210  1  0.07367000  0.58534000  0.14240000  1.0 -0.0180726229
C  C211  1  0.00770000  0.61282000  0.16634000  1.0 -0.1107188712
C  C212  1  0.01210000  0.65783000  0.21326000  1.0 -0.1506444747
C  C213  1  0.08350000  0.67472000  0.23564000  1.0 0.0126724359
C  C214  1  0.14530000  0.60176000  0.16615000  1.0 -0.1506444747
C  C215  1  0.14936000  0.64577000  0.21303000  1.0 0.0169680877
C  C216  1  0.22063000  0.67068000  0.24592000  1.0 0.0380251291
C  C217  1  0.10600000  0.72095000  0.28278000  1.0 0.0126724359
C  C218  1  0.18526000  0.71930000  0.28939000  1.0 0.0169680877
C  C219  1  0.06250000  0.76280000  0.31752000  1.0 -0.1565192808
C  C220  1  0.09960000  0.80270000  0.35841000  1.0 -0.1176401694
C  C221  1  0.17840000  0.80067000  0.36574000  1.0 -0.0049066588
C  C222  1  0.22230000  0.75839000  0.33121000  1.0 -0.1565192808
C  C223  1  0.26668000  0.62191000  0.28143000  1.0 0.0126724359
C  C224  1  0.24180000  0.58066000  0.32668000  1.0 -0.1565192808
C  C225  1  0.29480000  0.54202000  0.35603000  1.0 -0.0096289065
C  C226  1  0.37200000  0.54463000  0.33930000  1.0 -0.1107188712
C  C227  1  0.39670000  0.58526000  0.29317000  1.0 -0.1565192808
C  C228  1  0.34370000  0.62403000  0.26384000  1.0 0.0126724359
C  C229  1  0.35249000  0.67102000  0.21441000  1.0 0.0126724359
C  C230  1  0.41610000  0.69070000  0.18075000  1.0 -0.1677572513
C  C231  1  0.28080000  0.69782000  0.20275000  1.0 0.0169680877
C  C232  1  0.27166000  0.74358000  0.15788000  1.0 -0.1565192808
O  O1  1  0.67844000  0.61539000  0.43862000  1.0 -0.6695693637
O  O2  1  0.81651000  0.02603000  0.44237000  1.0 -0.6695693637
O  O3  1  0.78818000  0.66254000  0.42015000  1.0 -0.5912564739
O  O4  1  0.69810000  0.01357000  0.40993000  1.0 -0.5912564739
O  O5  1  0.50354000  0.97462000  0.06819000  1.0 -0.6695693637
O  O6  1  0.62754000  0.98701000  0.07116000  1.0 -0.5700813393
O  O7  1  0.76045000  0.66530000  0.06676000  1.0 -0.6213366623
O  O8  1  0.88767000  0.65843000  0.05853000  1.0 -0.6260060544
O  O9  1  0.32156000  0.88461000  0.93862000  1.0 -0.6695693637
O  O10  1  0.18349000  0.47397000  0.94237000  1.0 -0.6695693637
O  O11  1  0.21182000  0.83746000  0.92015000  1.0 -0.5952552194
O  O12  1  0.30190000  0.48643000  0.90993000  1.0 -0.5912564739
O  O13  1  0.49646000  0.52538000  0.56819000  1.0 -0.6695693637
O  O14  1  0.37246000  0.51299000  0.57116000  1.0 -0.5700813393
O  O15  1  0.23955000  0.83470000  0.56676000  1.0 -0.6213366623
O  O16  1  0.11233000  0.84157000  0.55853000  1.0 -0.6260060544
O  O17  1  0.17844000  0.38461000  0.06138000  1.0 -0.6695693637
O  O18  1  0.31651000  0.97397000  0.05763000  1.0 -0.6695693637
O  O19  1  0.28818000  0.33746000  0.07985000  1.0 -0.5912564739
O  O20  1  0.19810000  0.98643000  0.09007000  1.0 -0.5912564739
O  O21  1  0.00354000  0.02538000  0.43181000  1.0 -0.6695693637
O  O22  1  0.12754000  0.01299000  0.42884000  1.0 -0.5700813393
O  O23  1  0.26045000  0.33470000  0.43324000  1.0 -0.6213366623
O  O24  1  0.38767000  0.34157000  0.44147000  1.0 -0.6260060544
O  O25  1  0.82156000  0.11539000  0.56138000  1.0 -0.6752272482
O  O26  1  0.68349000  0.52603000  0.55763000  1.0 -0.6644271249
O  O27  1  0.71182000  0.16254000  0.57985000  1.0 -0.5952552194
O  O28  1  0.80190000  0.51357000  0.59007000  1.0 -0.5912564739
O  O29  1  0.99646000  0.47462000  0.93181000  1.0 -0.6695693637
O  O30  1  0.87246000  0.48701000  0.92884000  1.0 -0.5700813393
O  O31  1  0.73955000  0.16530000  0.93324000  1.0 -0.6213366623
O  O32  1  0.61233000  0.15843000  0.94147000  1.0 -0.6213366623
O  O33  1  0.32156000  0.38461000  0.56138000  1.0 -0.6752272482
O  O34  1  0.18349000  0.97397000  0.55763000  1.0 -0.6644271249
O  O35  1  0.21182000  0.33746000  0.57985000  1.0 -0.5952552194
O  O36  1  0.30190000  0.98643000  0.59007000  1.0 -0.5912564739
O  O37  1  0.49646000  0.02538000  0.93181000  1.0 -0.6695693637
O  O38  1  0.37246000  0.01299000  0.92884000  1.0 -0.5700813393
O  O39  1  0.23955000  0.33470000  0.93324000  1.0 -0.6213366623
O  O40  1  0.11233000  0.34157000  0.94147000  1.0 -0.6213366623
O  O41  1  0.67844000  0.11539000  0.06138000  1.0 -0.6695693637
O  O42  1  0.81651000  0.52603000  0.05763000  1.0 -0.6695693637
O  O43  1  0.78818000  0.16254000  0.07985000  1.0 -0.5952552194
O  O44  1  0.69810000  0.51357000  0.09007000  1.0 -0.5912564739
O  O45  1  0.50354000  0.47462000  0.43181000  1.0 -0.6695693637
O  O46  1  0.62754000  0.48701000  0.42884000  1.0 -0.5700813393
O  O47  1  0.76045000  0.16530000  0.43324000  1.0 -0.6213366623
O  O48  1  0.88767000  0.15843000  0.44147000  1.0 -0.6260060544
O  O49  1  0.82156000  0.61539000  0.93862000  1.0 -0.6695693637
O  O50  1  0.68349000  0.02603000  0.94237000  1.0 -0.6695693637
O  O51  1  0.71182000  0.66254000  0.92015000  1.0 -0.5952552194
O  O52  1  0.80190000  0.01357000  0.90993000  1.0 -0.5912564739
O  O53  1  0.99646000  0.97462000  0.56819000  1.0 -0.6695693637
O  O54  1  0.87246000  0.98701000  0.57116000  1.0 -0.5700813393
O  O55  1  0.73955000  0.66530000  0.56676000  1.0 -0.6213366623
O  O56  1  0.61233000  0.65843000  0.55853000  1.0 -0.6260060544
O  O57  1  0.17844000  0.88461000  0.43862000  1.0 -0.6695693637
O  O58  1  0.31651000  0.47397000  0.44237000  1.0 -0.6695693637
O  O59  1  0.28818000  0.83746000  0.42015000  1.0 -0.5912564739
O  O60  1  0.19810000  0.48643000  0.40993000  1.0 -0.5912564739
O  O61  1  0.00354000  0.52538000  0.06819000  1.0 -0.6695693637
O  O62  1  0.12754000  0.51299000  0.07116000  1.0 -0.5700813393
O  O63  1  0.26045000  0.83470000  0.06676000  1.0 -0.6213366623
O  O64  1  0.38767000  0.84157000  0.05853000  1.0 -0.6213366623
