# DDEC6 charges by PACMAN v1.1 (https://github.com/mtap-research/PACMAN-charge/)
data_HESDAN_FSR_pacman
_symmetry_space_group_name_H-M   'P 1'
_cell_length_a   19.23130000
_cell_length_b   19.23130000
_cell_length_c   19.23130000
_cell_angle_alpha   92.33250000
_cell_angle_beta   92.33250000
_cell_angle_gamma   92.33250000
_symmetry_Int_Tables_number   1
_chemical_formula_structural   Gd2Re6H2C12Se8S(N3O5)2
_chemical_formula_sum   'Gd12 Re36 H12 C72 Se48 S6 N36 O60'
_cell_volume   7094.38548864
_cell_formula_units_Z   6
loop_
 _symmetry_equiv_pos_site_id
 _symmetry_equiv_pos_as_xyz
  1  'x, y, z'
loop_
 _atom_site_type_symbol
 _atom_site_label
 _atom_site_symmetry_multiplicity
 _atom_site_fract_x
 _atom_site_fract_y
 _atom_site_fract_z
 _atom_site_occupancy
 _atom_site_charge
Gd  Gd1  1  0.44687000  0.11981000  0.50199000  1.0 1.9685379836
Gd  Gd2  1  0.11981000  0.50199000  0.44687000  1.0 1.9685379836
Gd  Gd3  1  0.50199000  0.44687000  0.11981000  1.0 1.9628722454
Gd  Gd4  1  0.05313000  0.99801000  0.38019000  1.0 1.9628722454
Gd  Gd5  1  0.38019000  0.05313000  0.99801000  1.0 1.9628722454
Gd  Gd6  1  0.99801000  0.38019000  0.05313000  1.0 1.9628722454
Gd  Gd7  1  0.55313000  0.88019000  0.49801000  1.0 1.9685379836
Gd  Gd8  1  0.88019000  0.49801000  0.55313000  1.0 1.9685379836
Gd  Gd9  1  0.49801000  0.55313000  0.88019000  1.0 1.9628722454
Gd  Gd10  1  0.94687000  0.00199000  0.61981000  1.0 1.9685379836
Gd  Gd11  1  0.61981000  0.94687000  0.00199000  1.0 1.9628722454
Gd  Gd12  1  0.00199000  0.61981000  0.94687000  1.0 1.9628722454
Re  Re1  1  0.68437000  0.17047000  0.35117000  1.0 0.131999638
Re  Re2  1  0.72360000  0.13862000  0.22427000  1.0 0.1697281966
Re  Re3  1  0.68422000  0.26483000  0.25594000  1.0 0.1501501241
Re  Re4  1  0.17047000  0.35117000  0.68437000  1.0 0.131999638
Re  Re5  1  0.13862000  0.22427000  0.72360000  1.0 0.1697281966
Re  Re6  1  0.26483000  0.25594000  0.68422000  1.0 0.1501501241
Re  Re7  1  0.35117000  0.68437000  0.17047000  1.0 0.131999638
Re  Re8  1  0.22427000  0.72360000  0.13862000  1.0 0.1697281966
Re  Re9  1  0.25594000  0.68422000  0.26483000  1.0 0.1501501241
Re  Re10  1  0.81563000  0.14883000  0.32953000  1.0 0.131999638
Re  Re11  1  0.77640000  0.27573000  0.36138000  1.0 0.1697281966
Re  Re12  1  0.81578000  0.24406000  0.23517000  1.0 0.1501501241
Re  Re13  1  0.32953000  0.81563000  0.14883000  1.0 0.131999638
Re  Re14  1  0.36138000  0.77640000  0.27573000  1.0 0.1697281966
Re  Re15  1  0.23517000  0.81578000  0.24406000  1.0 0.1501501241
Re  Re16  1  0.14883000  0.32953000  0.81563000  1.0 0.1351770523
Re  Re17  1  0.27573000  0.36138000  0.77640000  1.0 0.1697281966
Re  Re18  1  0.24406000  0.23517000  0.81578000  1.0 0.1501501241
Re  Re19  1  0.31563000  0.82953000  0.64883000  1.0 0.1351770523
Re  Re20  1  0.27640000  0.86138000  0.77573000  1.0 0.1697281966
Re  Re21  1  0.31578000  0.73517000  0.74406000  1.0 0.1501501241
Re  Re22  1  0.82953000  0.64883000  0.31563000  1.0 0.131999638
Re  Re23  1  0.86138000  0.77573000  0.27640000  1.0 0.1697281966
Re  Re24  1  0.73517000  0.74406000  0.31578000  1.0 0.1501501241
Re  Re25  1  0.64883000  0.31563000  0.82953000  1.0 0.131999638
Re  Re26  1  0.77573000  0.27640000  0.86138000  1.0 0.1697281966
Re  Re27  1  0.74406000  0.31578000  0.73517000  1.0 0.1501501241
Re  Re28  1  0.18437000  0.85117000  0.67047000  1.0 0.1351770523
Re  Re29  1  0.22360000  0.72427000  0.63862000  1.0 0.1697281966
Re  Re30  1  0.18422000  0.75594000  0.76483000  1.0 0.1501501241
Re  Re31  1  0.67047000  0.18437000  0.85117000  1.0 0.1351770523
Re  Re32  1  0.63862000  0.22360000  0.72427000  1.0 0.1697281966
Re  Re33  1  0.76483000  0.18422000  0.75594000  1.0 0.1501501241
Re  Re34  1  0.85117000  0.67047000  0.18437000  1.0 0.131999638
Re  Re35  1  0.72427000  0.63862000  0.22360000  1.0 0.1697281966
Re  Re36  1  0.75594000  0.76483000  0.18422000  1.0 0.1501501241
H  H1  1  0.42400000  0.08480000  0.68680000  1.0 0.1501501241
H  H2  1  0.08480000  0.68680000  0.42400000  1.0 0.1501501241
H  H3  1  0.68680000  0.42400000  0.08480000  1.0 0.1501501241
H  H4  1  0.07600000  0.81320000  0.41520000  1.0 0.1501501241
H  H5  1  0.41520000  0.07600000  0.81320000  1.0 0.1501501241
H  H6  1  0.81320000  0.41520000  0.07600000  1.0 0.1501501241
H  H7  1  0.57600000  0.91520000  0.31320000  1.0 0.1501501241
H  H8  1  0.91520000  0.31320000  0.57600000  1.0 0.1501501241
H  H9  1  0.31320000  0.57600000  0.91520000  1.0 0.1501501241
H  H10  1  0.92400000  0.18680000  0.58480000  1.0 0.1501501241
H  H11  1  0.58480000  0.92400000  0.18680000  1.0 0.1501501241
H  H12  1  0.18680000  0.58480000  0.92400000  1.0 0.1501501241
C  C1  1  0.60910000  0.13530000  0.41910000  1.0 0.1697281966
C  C2  1  0.69348000  0.06268000  0.14418000  1.0 0.131999638
C  C3  1  0.61069000  0.33059000  0.21289000  1.0 0.1620710379
C  C4  1  0.51467000  0.99977000  0.61357000  1.0 0.6523754809
C  C5  1  0.49781000  0.00951000  0.68711000  1.0 -0.1406654081
C  C6  1  0.45040000  0.05430000  0.71400000  1.0 -0.1071795162
C  C7  1  0.13530000  0.41910000  0.60910000  1.0 0.1697281966
C  C8  1  0.06268000  0.14418000  0.69348000  1.0 0.1212084228
C  C9  1  0.33059000  0.21289000  0.61069000  1.0 0.1697281966
C  C10  1  0.99977000  0.61357000  0.51467000  1.0 0.6523754809
C  C11  1  0.00951000  0.68711000  0.49781000  1.0 -0.1406654081
C  C12  1  0.05430000  0.71400000  0.45040000  1.0 -0.1042997998
C  C13  1  0.41910000  0.60910000  0.13530000  1.0 0.1697281966
C  C14  1  0.14418000  0.69348000  0.06268000  1.0 0.1212084228
C  C15  1  0.21289000  0.61069000  0.33059000  1.0 0.1620710379
C  C16  1  0.61357000  0.51467000  0.99977000  1.0 0.6523754809
C  C17  1  0.68711000  0.49781000  0.00951000  1.0 -0.1406654081
C  C18  1  0.71400000  0.45040000  0.05430000  1.0 -0.1071795162
C  C19  1  0.89090000  0.08090000  0.36470000  1.0 0.1697281966
C  C20  1  0.80652000  0.35582000  0.43732000  1.0 0.1212084228
C  C21  1  0.88931000  0.28711000  0.16941000  1.0 0.1620710379
C  C22  1  0.98533000  0.88643000  0.50023000  1.0 0.6523754809
C  C23  1  0.00219000  0.81289000  0.49049000  1.0 -0.1406654081
C  C24  1  0.04960000  0.78600000  0.44570000  1.0 -0.1071795162
C  C25  1  0.36470000  0.89090000  0.08090000  1.0 0.1697281966
C  C26  1  0.43732000  0.80652000  0.35582000  1.0 0.1212084228
C  C27  1  0.16941000  0.88931000  0.28711000  1.0 0.1620710379
C  C28  1  0.50023000  0.98533000  0.88643000  1.0 0.6523754809
C  C29  1  0.49049000  0.00219000  0.81289000  1.0 -0.1406654081
C  C30  1  0.44570000  0.04960000  0.78600000  1.0 -0.1071795162
C  C31  1  0.08090000  0.36470000  0.89090000  1.0 0.1697281966
C  C32  1  0.35582000  0.43732000  0.80652000  1.0 0.1212084228
C  C33  1  0.28711000  0.16941000  0.88931000  1.0 0.1620710379
C  C34  1  0.88643000  0.50023000  0.98533000  1.0 0.6523754809
C  C35  1  0.81289000  0.49049000  0.00219000  1.0 -0.1406654081
C  C36  1  0.78600000  0.44570000  0.04960000  1.0 -0.1071795162
C  C37  1  0.39090000  0.86470000  0.58090000  1.0 0.1697281966
C  C38  1  0.30652000  0.93732000  0.85582000  1.0 0.1212084228
C  C39  1  0.38931000  0.66941000  0.78711000  1.0 0.1620710379
C  C40  1  0.48533000  0.00023000  0.38643000  1.0 0.6523754809
C  C41  1  0.50219000  0.99049000  0.31289000  1.0 -0.1406654081
C  C42  1  0.54960000  0.94570000  0.28600000  1.0 -0.1071795162
C  C43  1  0.86470000  0.58090000  0.39090000  1.0 0.1697281966
C  C44  1  0.93732000  0.85582000  0.30652000  1.0 0.1212084228
C  C45  1  0.66941000  0.78711000  0.38931000  1.0 0.1620710379
C  C46  1  0.00023000  0.38643000  0.48533000  1.0 0.6523754809
C  C47  1  0.99049000  0.31289000  0.50219000  1.0 -0.1406654081
C  C48  1  0.94570000  0.28600000  0.54960000  1.0 -0.1071795162
C  C49  1  0.58090000  0.39090000  0.86470000  1.0 0.1697281966
C  C50  1  0.85582000  0.30652000  0.93732000  1.0 0.1212084228
C  C51  1  0.78711000  0.38931000  0.66941000  1.0 0.1620710379
C  C52  1  0.38643000  0.48533000  0.00023000  1.0 0.6523754809
C  C53  1  0.31289000  0.50219000  0.99049000  1.0 -0.1406654081
C  C54  1  0.28600000  0.54960000  0.94570000  1.0 -0.1071795162
C  C55  1  0.10910000  0.91910000  0.63530000  1.0 0.1697281966
C  C56  1  0.19348000  0.64418000  0.56268000  1.0 0.1212084228
C  C57  1  0.11069000  0.71289000  0.83059000  1.0 0.1620710379
C  C58  1  0.01467000  0.11357000  0.49977000  1.0 0.6523754809
C  C59  1  0.99781000  0.18711000  0.50951000  1.0 -0.1406654081
C  C60  1  0.95040000  0.21400000  0.55430000  1.0 -0.1071795162
C  C61  1  0.63530000  0.10910000  0.91910000  1.0 0.1697281966
C  C62  1  0.56268000  0.19348000  0.64418000  1.0 0.1212084228
C  C63  1  0.83059000  0.11069000  0.71289000  1.0 0.1620710379
C  C64  1  0.49977000  0.01467000  0.11357000  1.0 0.6523754809
C  C65  1  0.50951000  0.99781000  0.18711000  1.0 -0.1406654081
C  C66  1  0.55430000  0.95040000  0.21400000  1.0 -0.1071795162
C  C67  1  0.91910000  0.63530000  0.10910000  1.0 0.1620710379
C  C68  1  0.64418000  0.56268000  0.19348000  1.0 0.1212084228
C  C69  1  0.71289000  0.83059000  0.11069000  1.0 0.1697281966
C  C70  1  0.11357000  0.49977000  0.01467000  1.0 0.6523754809
C  C71  1  0.18711000  0.50951000  0.99781000  1.0 -0.1406654081
C  C72  1  0.21400000  0.55430000  0.95040000  1.0 -0.1042997998
Se  Se1  1  0.59908000  0.16177000  0.24845000  1.0 0.0901028751
Se  Se2  1  0.72408000  0.05064000  0.31792000  1.0 0.08006181
Se  Se3  1  0.64866000  0.29248000  0.37821000  1.0 0.2808203372
Se  Se4  1  0.72562000  0.23263000  0.13616000  1.0 0.04947123
Se  Se5  1  0.16177000  0.24845000  0.59908000  1.0 0.0901028751
Se  Se6  1  0.05064000  0.31792000  0.72408000  1.0 0.0714552827
Se  Se7  1  0.29248000  0.37821000  0.64866000  1.0 0.2808203372
Se  Se8  1  0.23263000  0.13616000  0.72562000  1.0 0.04947123
Se  Se9  1  0.24845000  0.59908000  0.16177000  1.0 0.0950890768
Se  Se10  1  0.31792000  0.72408000  0.05064000  1.0 0.0714552827
Se  Se11  1  0.37821000  0.64866000  0.29248000  1.0 0.2854574152
Se  Se12  1  0.13616000  0.72562000  0.23263000  1.0 0.0400960899
Se  Se13  1  0.90092000  0.25155000  0.33823000  1.0 0.08006181
Se  Se14  1  0.77592000  0.18208000  0.44936000  1.0 0.0714552827
Se  Se15  1  0.85134000  0.12179000  0.20752000  1.0 0.2854574152
Se  Se16  1  0.77438000  0.36384000  0.26737000  1.0 0.0400960899
Se  Se17  1  0.33823000  0.90092000  0.25155000  1.0 0.08006181
Se  Se18  1  0.44936000  0.77592000  0.18208000  1.0 0.0714552827
Se  Se19  1  0.20752000  0.85134000  0.12179000  1.0 0.2808203372
Se  Se20  1  0.26737000  0.77438000  0.36384000  1.0 0.0400960899
Se  Se21  1  0.25155000  0.33823000  0.90092000  1.0 0.0901028751
Se  Se22  1  0.18208000  0.44936000  0.77592000  1.0 0.0635627459
Se  Se23  1  0.12179000  0.20752000  0.85134000  1.0 0.2854574152
Se  Se24  1  0.36384000  0.26737000  0.77438000  1.0 0.04947123
Se  Se25  1  0.40092000  0.83823000  0.75155000  1.0 0.0901028751
Se  Se26  1  0.27592000  0.94936000  0.68208000  1.0 0.0714552827
Se  Se27  1  0.35134000  0.70752000  0.62179000  1.0 0.2854574152
Se  Se28  1  0.27438000  0.76737000  0.86384000  1.0 0.0400960899
Se  Se29  1  0.83823000  0.75155000  0.40092000  1.0 0.0901028751
Se  Se30  1  0.94936000  0.68208000  0.27592000  1.0 0.0714552827
Se  Se31  1  0.70752000  0.62179000  0.35134000  1.0 0.2854574152
Se  Se32  1  0.76737000  0.86384000  0.27438000  1.0 0.04947123
Se  Se33  1  0.75155000  0.40092000  0.83823000  1.0 0.0901028751
Se  Se34  1  0.68208000  0.27592000  0.94936000  1.0 0.0635627459
Se  Se35  1  0.62179000  0.35134000  0.70752000  1.0 0.2854574152
Se  Se36  1  0.86384000  0.27438000  0.76737000  1.0 0.04947123
Se  Se37  1  0.09908000  0.74845000  0.66177000  1.0 0.0901028751
Se  Se38  1  0.22408000  0.81792000  0.55064000  1.0 0.0714552827
Se  Se39  1  0.14866000  0.87821000  0.79248000  1.0 0.2808203372
Se  Se40  1  0.22562000  0.63616000  0.73263000  1.0 0.04947123
Se  Se41  1  0.66177000  0.09908000  0.74845000  1.0 0.0901028751
Se  Se42  1  0.55064000  0.22408000  0.81792000  1.0 0.08006181
Se  Se43  1  0.79248000  0.14866000  0.87821000  1.0 0.2854574152
Se  Se44  1  0.73263000  0.22562000  0.63616000  1.0 0.04947123
Se  Se45  1  0.74845000  0.66177000  0.09908000  1.0 0.0901028751
Se  Se46  1  0.81792000  0.55064000  0.22408000  1.0 0.08006181
Se  Se47  1  0.87821000  0.79248000  0.14866000  1.0 0.2808203372
Se  Se48  1  0.63616000  0.73263000  0.22562000  1.0 0.04947123
S  S1  1  0.53734000  0.96266000  0.75000000  1.0 0.1501501241
S  S2  1  0.96266000  0.75000000  0.53734000  1.0 0.1501501241
S  S3  1  0.75000000  0.53734000  0.96266000  1.0 0.1501501241
S  S4  1  0.46266000  0.03734000  0.25000000  1.0 0.1501501241
S  S5  1  0.03734000  0.25000000  0.46266000  1.0 0.1501501241
S  S6  1  0.25000000  0.46266000  0.03734000  1.0 0.1501501241
N  N1  1  0.56617000  0.12067000  0.45587000  1.0 -0.4691644558
N  N2  1  0.67841000  0.02381000  0.09921000  1.0 -0.4691644558
N  N3  1  0.57244000  0.36784000  0.18854000  1.0 -0.5001113203
N  N4  1  0.12067000  0.45587000  0.56617000  1.0 -0.4691644558
N  N5  1  0.02381000  0.09921000  0.67841000  1.0 -0.4615168836
N  N6  1  0.36784000  0.18854000  0.57244000  1.0 -0.5001113203
N  N7  1  0.45587000  0.56617000  0.12067000  1.0 -0.4691644558
N  N8  1  0.09921000  0.67841000  0.02381000  1.0 -0.4615168836
N  N9  1  0.18854000  0.57244000  0.36784000  1.0 -0.4936015513
N  N10  1  0.93383000  0.04413000  0.37933000  1.0 -0.4691644558
N  N11  1  0.82159000  0.40079000  0.47619000  1.0 -0.4615168836
N  N12  1  0.92756000  0.31146000  0.13216000  1.0 -0.5001113203
N  N13  1  0.37933000  0.93383000  0.04413000  1.0 -0.475112119
N  N14  1  0.47619000  0.82159000  0.40079000  1.0 -0.4615168836
N  N15  1  0.13216000  0.92756000  0.31146000  1.0 -0.4936015513
N  N16  1  0.04413000  0.37933000  0.93383000  1.0 -0.4691644558
N  N17  1  0.40079000  0.47619000  0.82159000  1.0 -0.4615168836
N  N18  1  0.31146000  0.13216000  0.92756000  1.0 -0.5001113203
N  N19  1  0.43383000  0.87933000  0.54413000  1.0 -0.4691644558
N  N20  1  0.32159000  0.97619000  0.90079000  1.0 -0.4615168836
N  N21  1  0.42756000  0.63216000  0.81146000  1.0 -0.5001113203
N  N22  1  0.87933000  0.54413000  0.43383000  1.0 -0.4691644558
N  N23  1  0.97619000  0.90079000  0.32159000  1.0 -0.4615168836
N  N24  1  0.63216000  0.81146000  0.42756000  1.0 -0.4936015513
N  N25  1  0.54413000  0.43383000  0.87933000  1.0 -0.4691644558
N  N26  1  0.90079000  0.32159000  0.97619000  1.0 -0.4691644558
N  N27  1  0.81146000  0.42756000  0.63216000  1.0 -0.5001113203
N  N28  1  0.06617000  0.95587000  0.62067000  1.0 -0.4691644558
N  N29  1  0.17841000  0.59921000  0.52381000  1.0 -0.4615168836
N  N30  1  0.07244000  0.68854000  0.86784000  1.0 -0.4936015513
N  N31  1  0.62067000  0.06617000  0.95587000  1.0 -0.4691644558
N  N32  1  0.52381000  0.17841000  0.59921000  1.0 -0.4615168836
N  N33  1  0.86784000  0.07244000  0.68854000  1.0 -0.4936015513
N  N34  1  0.95587000  0.62067000  0.06617000  1.0 -0.4691644558
N  N35  1  0.59921000  0.52381000  0.17841000  1.0 -0.4615168836
N  N36  1  0.68854000  0.86784000  0.07244000  1.0 -0.5001113203
O  O1  1  0.47108000  0.23458000  0.45901000  1.0 -0.7589655902
O  O2  1  0.35153000  0.14642000  0.42108000  1.0 -0.3209311793
O  O3  1  0.34664000  0.03817000  0.53098000  1.0 -0.3000605252
O  O4  1  0.48220000  0.03463000  0.57008000  1.0 -0.6212940451
O  O5  1  0.55867000  0.95542000  0.59754000  1.0 -0.5714266982
O  O6  1  0.23458000  0.45901000  0.47108000  1.0 -0.7343410042
O  O7  1  0.14642000  0.42108000  0.35153000  1.0 -0.3317379665
O  O8  1  0.03817000  0.53098000  0.34664000  1.0 -0.3000605252
O  O9  1  0.03463000  0.57008000  0.48220000  1.0 -0.6212940451
O  O10  1  0.95542000  0.59754000  0.55867000  1.0 -0.5714266982
O  O11  1  0.45901000  0.47108000  0.23458000  1.0 -0.7463849969
O  O12  1  0.42108000  0.35153000  0.14642000  1.0 -0.3209311793
O  O13  1  0.53098000  0.34664000  0.03817000  1.0 -0.3000605252
O  O14  1  0.57008000  0.48220000  0.03463000  1.0 -0.6212940451
O  O15  1  0.59754000  0.55867000  0.95542000  1.0 -0.5714266982
O  O16  1  0.02892000  0.04099000  0.26542000  1.0 -0.7463849969
O  O17  1  0.14847000  0.07892000  0.35358000  1.0 -0.3209311793
O  O18  1  0.15336000  0.96902000  0.46183000  1.0 -0.2917851892
O  O19  1  0.01780000  0.92992000  0.46537000  1.0 -0.6212940451
O  O20  1  0.94133000  0.90246000  0.54458000  1.0 -0.5714266982
O  O21  1  0.26542000  0.02892000  0.04099000  1.0 -0.7237749484
O  O22  1  0.35358000  0.14847000  0.07892000  1.0 -0.3317379665
O  O23  1  0.46183000  0.15336000  0.96902000  1.0 -0.3113219973
O  O24  1  0.46537000  0.01780000  0.92992000  1.0 -0.6212940451
O  O25  1  0.54458000  0.94133000  0.90246000  1.0 -0.5714266982
O  O26  1  0.04099000  0.26542000  0.02892000  1.0 -0.7463849969
O  O27  1  0.07892000  0.35358000  0.14847000  1.0 -0.3209311793
O  O28  1  0.96902000  0.46183000  0.15336000  1.0 -0.3113219973
O  O29  1  0.92992000  0.46537000  0.01780000  1.0 -0.6212940451
O  O30  1  0.90246000  0.54458000  0.94133000  1.0 -0.5714266982
O  O31  1  0.52892000  0.76542000  0.54099000  1.0 -0.7589655902
O  O32  1  0.64847000  0.85358000  0.57892000  1.0 -0.3113219973
O  O33  1  0.65336000  0.96183000  0.46902000  1.0 -0.3000605252
O  O34  1  0.51780000  0.96537000  0.42992000  1.0 -0.6212940451
O  O35  1  0.44133000  0.04458000  0.40246000  1.0 -0.5714266982
O  O36  1  0.76542000  0.54099000  0.52892000  1.0 -0.7343410042
O  O37  1  0.85358000  0.57892000  0.64847000  1.0 -0.3317379665
O  O38  1  0.96183000  0.46902000  0.65336000  1.0 -0.3209311793
O  O39  1  0.96537000  0.42992000  0.51780000  1.0 -0.6212940451
O  O40  1  0.04458000  0.40246000  0.44133000  1.0 -0.5714266982
O  O41  1  0.54099000  0.52892000  0.76542000  1.0 -0.7442620185
O  O42  1  0.57892000  0.64847000  0.85358000  1.0 -0.3209311793
O  O43  1  0.46902000  0.65336000  0.96183000  1.0 -0.3113219973
O  O44  1  0.42992000  0.51780000  0.96537000  1.0 -0.6212940451
O  O45  1  0.40246000  0.44133000  0.04458000  1.0 -0.5714266982
O  O46  1  0.97108000  0.95901000  0.73458000  1.0 -0.7343410042
O  O47  1  0.85153000  0.92108000  0.64642000  1.0 -0.3317379665
O  O48  1  0.84664000  0.03098000  0.53817000  1.0 -0.3000605252
O  O49  1  0.98220000  0.07008000  0.53463000  1.0 -0.6212940451
O  O50  1  0.05867000  0.09754000  0.45542000  1.0 -0.5714266982
O  O51  1  0.73458000  0.97108000  0.95901000  1.0 -0.7589655902
O  O52  1  0.64642000  0.85153000  0.92108000  1.0 -0.3113219973
O  O53  1  0.53817000  0.84664000  0.03098000  1.0 -0.3113219973
O  O54  1  0.53463000  0.98220000  0.07008000  1.0 -0.6212940451
O  O55  1  0.45542000  0.05867000  0.09754000  1.0 -0.5714266982
O  O56  1  0.95901000  0.73458000  0.97108000  1.0 -0.7442620185
O  O57  1  0.92108000  0.64642000  0.85153000  1.0 -0.3209311793
O  O58  1  0.03098000  0.53817000  0.84664000  1.0 -0.2917851892
O  O59  1  0.07008000  0.53463000  0.98220000  1.0 -0.6212940451
O  O60  1  0.09754000  0.45542000  0.05867000  1.0 -0.5714266982
