# DDEC6 charges by PACMAN v1.1 (https://github.com/mtap-research/PACMAN-charge/)
data_HETMEC_FSR_pacman
_symmetry_space_group_name_H-M   'P 1'
_cell_length_a   10.84260000
_cell_length_b   24.10000000
_cell_length_c   28.45100000
_cell_angle_alpha   90.00000000
_cell_angle_beta   90.00000000
_cell_angle_gamma   90.00000000
_symmetry_Int_Tables_number   1
_chemical_formula_structural   Co6H85C74(NO16)2
_chemical_formula_sum   'Co24 H340 C296 N8 O128'
_cell_volume   7434.43578366
_cell_formula_units_Z   4
loop_
 _symmetry_equiv_pos_site_id
 _symmetry_equiv_pos_as_xyz
  1  'x, y, z'
loop_
 _atom_site_type_symbol
 _atom_site_label
 _atom_site_symmetry_multiplicity
 _atom_site_fract_x
 _atom_site_fract_y
 _atom_site_fract_z
 _atom_site_occupancy
 _atom_site_charge
Co  Co1  1  0.06848000  0.41445000  0.41415000  1.0 0.9638340121
Co  Co2  1  0.92545000  0.47025000  0.04638000  1.0 1.0876867643
Co  Co3  1  0.78484000  0.44875000  0.36938000  1.0 0.8735324165
Co  Co4  1  0.93152000  0.08555000  0.41415000  1.0 0.9638340121
Co  Co5  1  0.07455000  0.02975000  0.04638000  1.0 1.0876867643
Co  Co6  1  0.21516000  0.05125000  0.36938000  1.0 0.8735324165
Co  Co7  1  0.06848000  0.58555000  0.08585000  1.0 0.9638340121
Co  Co8  1  0.92545000  0.52975000  0.45362000  1.0 1.0876867643
Co  Co9  1  0.78484000  0.55125000  0.13062000  1.0 0.8735324165
Co  Co10  1  0.93152000  0.91445000  0.08585000  1.0 0.9638340121
Co  Co11  1  0.07455000  0.97025000  0.45362000  1.0 1.0876867643
Co  Co12  1  0.21516000  0.94875000  0.13062000  1.0 0.8735324165
Co  Co13  1  0.93152000  0.58555000  0.58585000  1.0 0.9638340121
Co  Co14  1  0.07455000  0.52975000  0.95362000  1.0 1.0876867643
Co  Co15  1  0.21516000  0.55125000  0.63062000  1.0 0.8735324165
Co  Co16  1  0.06848000  0.91445000  0.58585000  1.0 0.9638340121
Co  Co17  1  0.92545000  0.97025000  0.95362000  1.0 1.0876867643
Co  Co18  1  0.78484000  0.94875000  0.63062000  1.0 0.8735324165
Co  Co19  1  0.93152000  0.41445000  0.91415000  1.0 0.9638340121
Co  Co20  1  0.07455000  0.47025000  0.54638000  1.0 1.0876867643
Co  Co21  1  0.21516000  0.44875000  0.86938000  1.0 0.8735324165
Co  Co22  1  0.06848000  0.08555000  0.91415000  1.0 0.9638340121
Co  Co23  1  0.92545000  0.02975000  0.54638000  1.0 1.0876867643
Co  Co24  1  0.78484000  0.05125000  0.86938000  1.0 0.8735324165
H  H1  1  0.66800000  0.44200000  0.28500000  1.0 0.2881881616
H  H2  1  0.21561000  0.35673000  0.28006000  1.0 0.1484976134
H  H3  1  0.27790000  0.29833000  0.13665000  1.0 0.0719090676
H  H4  1  0.33799000  0.35897000  0.13777000  1.0 0.0778872961
H  H5  1  0.41855000  0.30607000  0.15239000  1.0 0.0503595666
H  H6  1  0.16784000  0.39416000  0.14285000  1.0 0.1180998033
H  H7  1  0.91715000  0.44472000  0.23940000  1.0 0.1104944632
H  H8  1  0.22147000  0.61150000  0.47415000  1.0 0.1418261996
H  H9  1  0.23698000  0.70808000  0.45932000  1.0 0.0901195248
H  H10  1  0.25287000  0.69426000  0.51400000  1.0 0.1104944632
H  H11  1  0.30567000  0.75118000  0.49317000  1.0 0.1104944632
H  H12  1  0.59118000  0.63081000  0.46025000  1.0 0.1418261996
H  H13  1  0.52002000  0.49593000  0.34643000  1.0 0.0719090676
H  H14  1  0.51891000  0.50550000  0.29084000  1.0 0.0503595666
H  H15  1  0.42479000  0.41098000  0.33937000  1.0 0.0901195248
H  H16  1  0.34967000  0.45139000  0.30513000  1.0 0.0503595666
H  H17  1  0.44860000  0.40897000  0.28388000  1.0 0.0503595666
H  H18  1  0.56959000  0.39778000  0.42843000  1.0 0.1104944632
H  H19  1  0.70340000  0.23496000  0.36210000  1.0 0.0719090676
H  H20  1  0.82541000  0.31640000  0.36365000  1.0 0.100324753
H  H21  1  0.32383000  0.31354000  0.39858000  1.0 0.1104944632
H  H22  1  0.35737000  0.31564000  0.45333000  1.0 0.1104944632
H  H23  1  0.35929000  0.37135000  0.42273000  1.0 0.1312995318
H  H24  1  0.43512000  0.48175000  0.43390000  1.0 0.1312995318
H  H25  1  0.04502000  0.33083000  0.58478000  1.0 0.1418261996
H  H26  1  0.12474000  0.28348000  0.66119000  1.0 0.1312995318
H  H27  1  0.98838000  0.30883000  0.66276000  1.0 0.1957810442
H  H28  1  0.02930000  0.26316000  0.70050000  1.0 0.100324753
H  H29  1  0.68500000  0.45500000  0.28450000  1.0 0.3105908057
H  H30  1  0.43836000  0.32266000  0.42849000  1.0 0.0778872961
H  H31  1  0.74544000  0.33654000  0.32346000  1.0 0.0778872961
H  H32  1  0.54087000  0.22897000  0.30360000  1.0 0.0719090676
H  H33  1  0.65703000  0.26099000  0.28195000  1.0 0.100324753
H  H34  1  0.67749000  0.21298000  0.32002000  1.0 0.0901195248
H  H35  1  0.51378000  0.42487000  0.27848000  1.0 0.0606574773
H  H36  1  0.51019000  0.41363000  0.33348000  1.0 0.0778872961
H  H37  1  0.36733000  0.50055000  0.28632000  1.0 0.0719090676
H  H38  1  0.35197000  0.48422000  0.34052000  1.0 0.0901195248
H  H39  1  0.45009000  0.53049000  0.32538000  1.0 0.0503595666
H  H40  1  0.32716000  0.33488000  0.13837000  1.0 0.0606574773
H  H41  1  0.38114000  0.39608000  0.14561000  1.0 0.0901195248
H  H42  1  0.46430000  0.34319000  0.15794000  1.0 0.0778872961
H  H43  1  0.33200000  0.05800000  0.28500000  1.0 0.2881881616
H  H44  1  0.78439000  0.14327000  0.28006000  1.0 0.1484976134
H  H45  1  0.72210000  0.20167000  0.13665000  1.0 0.0719090676
H  H46  1  0.66201000  0.14103000  0.13777000  1.0 0.0778872961
H  H47  1  0.58145000  0.19393000  0.15239000  1.0 0.0503595666
H  H48  1  0.83216000  0.10584000  0.14285000  1.0 0.1180998033
H  H49  1  0.08285000  0.05528000  0.23940000  1.0 0.1104944632
H  H50  1  0.77853000  0.88850000  0.47415000  1.0 0.1418261996
H  H51  1  0.76302000  0.79192000  0.45932000  1.0 0.0901195248
H  H52  1  0.74713000  0.80574000  0.51400000  1.0 0.1104944632
H  H53  1  0.69433000  0.74882000  0.49317000  1.0 0.1104944632
H  H54  1  0.40882000  0.86919000  0.46025000  1.0 0.1418261996
H  H55  1  0.47998000  0.00407000  0.34643000  1.0 0.0719090676
H  H56  1  0.48109000  0.99450000  0.29084000  1.0 0.0503595666
H  H57  1  0.57521000  0.08902000  0.33937000  1.0 0.0901195248
H  H58  1  0.65033000  0.04861000  0.30513000  1.0 0.0503595666
H  H59  1  0.55140000  0.09103000  0.28388000  1.0 0.0503595666
H  H60  1  0.43041000  0.10222000  0.42843000  1.0 0.1104944632
H  H61  1  0.29660000  0.26504000  0.36210000  1.0 0.0719090676
H  H62  1  0.17459000  0.18360000  0.36365000  1.0 0.100324753
H  H63  1  0.67617000  0.18646000  0.39858000  1.0 0.1104944632
H  H64  1  0.64263000  0.18436000  0.45333000  1.0 0.1104944632
H  H65  1  0.64071000  0.12865000  0.42273000  1.0 0.1312995318
H  H66  1  0.56488000  0.01825000  0.43390000  1.0 0.1312995318
H  H67  1  0.95498000  0.16917000  0.58478000  1.0 0.1418261996
H  H68  1  0.87526000  0.21652000  0.66119000  1.0 0.1312995318
H  H69  1  0.01162000  0.19117000  0.66276000  1.0 0.1957810442
H  H70  1  0.97070000  0.23684000  0.70050000  1.0 0.100324753
H  H71  1  0.31500000  0.04500000  0.28450000  1.0 0.3105908057
H  H72  1  0.56164000  0.17734000  0.42849000  1.0 0.0778872961
H  H73  1  0.25456000  0.16346000  0.32346000  1.0 0.0778872961
H  H74  1  0.45913000  0.27103000  0.30360000  1.0 0.0719090676
H  H75  1  0.34297000  0.23901000  0.28195000  1.0 0.100324753
H  H76  1  0.32251000  0.28702000  0.32002000  1.0 0.0901195248
H  H77  1  0.48622000  0.07513000  0.27848000  1.0 0.0606574773
H  H78  1  0.48981000  0.08637000  0.33348000  1.0 0.0778872961
H  H79  1  0.63267000  0.99945000  0.28632000  1.0 0.0719090676
H  H80  1  0.64803000  0.01578000  0.34052000  1.0 0.0901195248
H  H81  1  0.54991000  0.96951000  0.32538000  1.0 0.0503595666
H  H82  1  0.67284000  0.16512000  0.13837000  1.0 0.0606574773
H  H83  1  0.61886000  0.10392000  0.14561000  1.0 0.0901195248
H  H84  1  0.53570000  0.15681000  0.15794000  1.0 0.0778872961
H  H85  1  0.66800000  0.55800000  0.21500000  1.0 0.2881881616
H  H86  1  0.21561000  0.64327000  0.21994000  1.0 0.1484976134
H  H87  1  0.27790000  0.70167000  0.36335000  1.0 0.0719090676
H  H88  1  0.33799000  0.64103000  0.36223000  1.0 0.0778872961
H  H89  1  0.41855000  0.69393000  0.34761000  1.0 0.0503595666
H  H90  1  0.16784000  0.60584000  0.35715000  1.0 0.1180998033
H  H91  1  0.91715000  0.55528000  0.26060000  1.0 0.1104944632
H  H92  1  0.22147000  0.38850000  0.02585000  1.0 0.1418261996
H  H93  1  0.23698000  0.29192000  0.04068000  1.0 0.0901195248
H  H94  1  0.25287000  0.30574000  0.98600000  1.0 0.1104944632
H  H95  1  0.30567000  0.24882000  0.00683000  1.0 0.1180998033
H  H96  1  0.59118000  0.36919000  0.03975000  1.0 0.1418261996
H  H97  1  0.52002000  0.50407000  0.15357000  1.0 0.0719090676
H  H98  1  0.51891000  0.49450000  0.20916000  1.0 0.0503595666
H  H99  1  0.42479000  0.58902000  0.16063000  1.0 0.0901195248
H  H100  1  0.34967000  0.54861000  0.19487000  1.0 0.0503595666
H  H101  1  0.44860000  0.59103000  0.21612000  1.0 0.0503595666
H  H102  1  0.56959000  0.60222000  0.07157000  1.0 0.1104944632
H  H103  1  0.70340000  0.76504000  0.13790000  1.0 0.0719090676
H  H104  1  0.82541000  0.68360000  0.13635000  1.0 0.100324753
H  H105  1  0.32383000  0.68646000  0.10142000  1.0 0.1104944632
H  H106  1  0.35737000  0.68436000  0.04667000  1.0 0.1104944632
H  H107  1  0.35929000  0.62865000  0.07727000  1.0 0.1312995318
H  H108  1  0.43512000  0.51825000  0.06610000  1.0 0.1312995318
H  H109  1  0.04502000  0.66917000  0.91522000  1.0 0.1418261996
H  H110  1  0.12474000  0.71652000  0.83881000  1.0 0.1312995318
H  H111  1  0.98838000  0.69117000  0.83724000  1.0 0.1957810442
H  H112  1  0.02930000  0.73684000  0.79950000  1.0 0.100324753
H  H113  1  0.68500000  0.54500000  0.21550000  1.0 0.3105908057
H  H114  1  0.43836000  0.67734000  0.07151000  1.0 0.0778872961
H  H115  1  0.74544000  0.66346000  0.17654000  1.0 0.0778872961
H  H116  1  0.54087000  0.77103000  0.19640000  1.0 0.0719090676
H  H117  1  0.65703000  0.73901000  0.21805000  1.0 0.100324753
H  H118  1  0.67749000  0.78702000  0.17998000  1.0 0.0901195248
H  H119  1  0.51378000  0.57513000  0.22152000  1.0 0.0606574773
H  H120  1  0.51019000  0.58637000  0.16652000  1.0 0.0778872961
H  H121  1  0.36733000  0.49945000  0.21368000  1.0 0.0719090676
H  H122  1  0.35197000  0.51578000  0.15948000  1.0 0.0901195248
H  H123  1  0.45009000  0.46951000  0.17462000  1.0 0.0503595666
H  H124  1  0.32716000  0.66512000  0.36163000  1.0 0.0606574773
H  H125  1  0.38114000  0.60392000  0.35439000  1.0 0.0901195248
H  H126  1  0.46430000  0.65681000  0.34206000  1.0 0.0778872961
H  H127  1  0.33200000  0.94200000  0.21500000  1.0 0.2881881616
H  H128  1  0.78439000  0.85673000  0.21994000  1.0 0.1484976134
H  H129  1  0.72210000  0.79833000  0.36335000  1.0 0.0719090676
H  H130  1  0.66201000  0.85897000  0.36223000  1.0 0.0778872961
H  H131  1  0.58145000  0.80607000  0.34761000  1.0 0.0503595666
H  H132  1  0.83216000  0.89416000  0.35715000  1.0 0.1180998033
H  H133  1  0.08285000  0.94472000  0.26060000  1.0 0.1180998033
H  H134  1  0.77853000  0.11150000  0.02585000  1.0 0.1418261996
H  H135  1  0.76302000  0.20808000  0.04068000  1.0 0.0901195248
H  H136  1  0.74713000  0.19426000  0.98600000  1.0 0.1104944632
H  H137  1  0.69433000  0.25118000  0.00683000  1.0 0.1180998033
H  H138  1  0.40882000  0.13081000  0.03975000  1.0 0.1418261996
H  H139  1  0.47998000  0.99593000  0.15357000  1.0 0.0719090676
H  H140  1  0.48109000  0.00550000  0.20916000  1.0 0.0503595666
H  H141  1  0.57521000  0.91098000  0.16063000  1.0 0.0901195248
H  H142  1  0.65033000  0.95139000  0.19487000  1.0 0.0503595666
H  H143  1  0.55140000  0.90897000  0.21612000  1.0 0.0503595666
H  H144  1  0.43041000  0.89778000  0.07157000  1.0 0.1104944632
H  H145  1  0.29660000  0.73496000  0.13790000  1.0 0.0719090676
H  H146  1  0.17459000  0.81640000  0.13635000  1.0 0.100324753
H  H147  1  0.67617000  0.81354000  0.10142000  1.0 0.1104944632
H  H148  1  0.64263000  0.81564000  0.04667000  1.0 0.1104944632
H  H149  1  0.64071000  0.87135000  0.07727000  1.0 0.1312995318
H  H150  1  0.56488000  0.98175000  0.06610000  1.0 0.1312995318
H  H151  1  0.95498000  0.83083000  0.91522000  1.0 0.1418261996
H  H152  1  0.87526000  0.78348000  0.83881000  1.0 0.1312995318
H  H153  1  0.01162000  0.80883000  0.83724000  1.0 0.1957810442
H  H154  1  0.97070000  0.76316000  0.79950000  1.0 0.100324753
H  H155  1  0.31500000  0.95500000  0.21550000  1.0 0.3105908057
H  H156  1  0.56164000  0.82266000  0.07151000  1.0 0.0778872961
H  H157  1  0.25456000  0.83654000  0.17654000  1.0 0.0778872961
H  H158  1  0.45913000  0.72897000  0.19640000  1.0 0.0719090676
H  H159  1  0.34297000  0.76099000  0.21805000  1.0 0.100324753
H  H160  1  0.32251000  0.71298000  0.17998000  1.0 0.0901195248
H  H161  1  0.48622000  0.92487000  0.22152000  1.0 0.0606574773
H  H162  1  0.48981000  0.91363000  0.16652000  1.0 0.0778872961
H  H163  1  0.63267000  0.00055000  0.21368000  1.0 0.0719090676
H  H164  1  0.64803000  0.98422000  0.15948000  1.0 0.0901195248
H  H165  1  0.54991000  0.03049000  0.17462000  1.0 0.0503595666
H  H166  1  0.67284000  0.83488000  0.36163000  1.0 0.0606574773
H  H167  1  0.61886000  0.89608000  0.35439000  1.0 0.0901195248
H  H168  1  0.53570000  0.84319000  0.34206000  1.0 0.0778872961
H  H169  1  0.33200000  0.55800000  0.71500000  1.0 0.2881881616
H  H170  1  0.78439000  0.64327000  0.71994000  1.0 0.1484976134
H  H171  1  0.72210000  0.70167000  0.86335000  1.0 0.0719090676
H  H172  1  0.66201000  0.64103000  0.86223000  1.0 0.0778872961
H  H173  1  0.58145000  0.69393000  0.84761000  1.0 0.0503595666
H  H174  1  0.83216000  0.60584000  0.85715000  1.0 0.1180998033
H  H175  1  0.08285000  0.55528000  0.76060000  1.0 0.1180998033
H  H176  1  0.77853000  0.38850000  0.52585000  1.0 0.1418261996
H  H177  1  0.76302000  0.29192000  0.54068000  1.0 0.0901195248
H  H178  1  0.74713000  0.30574000  0.48600000  1.0 0.1104944632
H  H179  1  0.69433000  0.24882000  0.50683000  1.0 0.1180998033
H  H180  1  0.40882000  0.36919000  0.53975000  1.0 0.1418261996
H  H181  1  0.47998000  0.50407000  0.65357000  1.0 0.0719090676
H  H182  1  0.48109000  0.49450000  0.70916000  1.0 0.0503595666
H  H183  1  0.57521000  0.58902000  0.66063000  1.0 0.0901195248
H  H184  1  0.65033000  0.54861000  0.69487000  1.0 0.0503595666
H  H185  1  0.55140000  0.59103000  0.71612000  1.0 0.0503595666
H  H186  1  0.43041000  0.60222000  0.57157000  1.0 0.1104944632
H  H187  1  0.29660000  0.76504000  0.63790000  1.0 0.0719090676
H  H188  1  0.17459000  0.68360000  0.63635000  1.0 0.100324753
H  H189  1  0.67617000  0.68646000  0.60142000  1.0 0.1104944632
H  H190  1  0.64263000  0.68436000  0.54667000  1.0 0.1104944632
H  H191  1  0.64071000  0.62865000  0.57727000  1.0 0.1312995318
H  H192  1  0.56488000  0.51825000  0.56610000  1.0 0.1312995318
H  H193  1  0.95498000  0.66917000  0.41522000  1.0 0.1418261996
H  H194  1  0.87526000  0.71652000  0.33881000  1.0 0.1312995318
H  H195  1  0.01162000  0.69117000  0.33724000  1.0 0.1957810442
H  H196  1  0.97070000  0.73684000  0.29950000  1.0 0.100324753
H  H197  1  0.31500000  0.54500000  0.71550000  1.0 0.3105908057
H  H198  1  0.56164000  0.67734000  0.57151000  1.0 0.0778872961
H  H199  1  0.25456000  0.66346000  0.67654000  1.0 0.0778872961
H  H200  1  0.45913000  0.77103000  0.69640000  1.0 0.0719090676
H  H201  1  0.34297000  0.73901000  0.71805000  1.0 0.100324753
H  H202  1  0.32251000  0.78702000  0.67998000  1.0 0.0901195248
H  H203  1  0.48622000  0.57513000  0.72152000  1.0 0.0606574773
H  H204  1  0.48981000  0.58637000  0.66652000  1.0 0.0778872961
H  H205  1  0.63267000  0.49945000  0.71368000  1.0 0.0719090676
H  H206  1  0.64803000  0.51578000  0.65948000  1.0 0.0901195248
H  H207  1  0.54991000  0.46951000  0.67462000  1.0 0.0503595666
H  H208  1  0.67284000  0.66512000  0.86163000  1.0 0.0606574773
H  H209  1  0.61886000  0.60392000  0.85439000  1.0 0.0901195248
H  H210  1  0.53570000  0.65681000  0.84206000  1.0 0.0778872961
H  H211  1  0.66800000  0.94200000  0.71500000  1.0 0.2881881616
H  H212  1  0.21561000  0.85673000  0.71994000  1.0 0.1484976134
H  H213  1  0.27790000  0.79833000  0.86335000  1.0 0.0719090676
H  H214  1  0.33799000  0.85897000  0.86223000  1.0 0.0778872961
H  H215  1  0.41855000  0.80607000  0.84761000  1.0 0.0503595666
H  H216  1  0.16784000  0.89416000  0.85715000  1.0 0.1180998033
H  H217  1  0.91715000  0.94472000  0.76060000  1.0 0.1180998033
H  H218  1  0.22147000  0.11150000  0.52585000  1.0 0.1418261996
H  H219  1  0.23698000  0.20808000  0.54068000  1.0 0.0901195248
H  H220  1  0.25287000  0.19426000  0.48600000  1.0 0.1104944632
H  H221  1  0.30567000  0.25118000  0.50683000  1.0 0.1180998033
H  H222  1  0.59118000  0.13081000  0.53975000  1.0 0.1418261996
H  H223  1  0.52002000  0.99593000  0.65357000  1.0 0.0719090676
H  H224  1  0.51891000  0.00550000  0.70916000  1.0 0.0503595666
H  H225  1  0.42479000  0.91098000  0.66063000  1.0 0.0901195248
H  H226  1  0.34967000  0.95139000  0.69487000  1.0 0.0503595666
H  H227  1  0.44860000  0.90897000  0.71612000  1.0 0.0503595666
H  H228  1  0.56959000  0.89778000  0.57157000  1.0 0.1104944632
H  H229  1  0.70340000  0.73496000  0.63790000  1.0 0.0719090676
H  H230  1  0.82541000  0.81640000  0.63635000  1.0 0.100324753
H  H231  1  0.32383000  0.81354000  0.60142000  1.0 0.1104944632
H  H232  1  0.35737000  0.81564000  0.54667000  1.0 0.1104944632
H  H233  1  0.35929000  0.87135000  0.57727000  1.0 0.1312995318
H  H234  1  0.43512000  0.98175000  0.56610000  1.0 0.1312995318
H  H235  1  0.04502000  0.83083000  0.41522000  1.0 0.1418261996
H  H236  1  0.12474000  0.78348000  0.33881000  1.0 0.1312995318
H  H237  1  0.98838000  0.80883000  0.33724000  1.0 0.1947504601
H  H238  1  0.02930000  0.76316000  0.29950000  1.0 0.100324753
H  H239  1  0.68500000  0.95500000  0.71550000  1.0 0.3105908057
H  H240  1  0.43836000  0.82266000  0.57151000  1.0 0.0778872961
H  H241  1  0.74544000  0.83654000  0.67654000  1.0 0.0778872961
H  H242  1  0.54087000  0.72897000  0.69640000  1.0 0.0719090676
H  H243  1  0.65703000  0.76099000  0.71805000  1.0 0.100324753
H  H244  1  0.67749000  0.71298000  0.67998000  1.0 0.0901195248
H  H245  1  0.51378000  0.92487000  0.72152000  1.0 0.0606574773
H  H246  1  0.51019000  0.91363000  0.66652000  1.0 0.0778872961
H  H247  1  0.36733000  0.00055000  0.71368000  1.0 0.0719090676
H  H248  1  0.35197000  0.98422000  0.65948000  1.0 0.0901195248
H  H249  1  0.45009000  0.03049000  0.67462000  1.0 0.0503595666
H  H250  1  0.32716000  0.83488000  0.86163000  1.0 0.0606574773
H  H251  1  0.38114000  0.89608000  0.85439000  1.0 0.0901195248
H  H252  1  0.46430000  0.84319000  0.84206000  1.0 0.0778872961
H  H253  1  0.33200000  0.44200000  0.78500000  1.0 0.2881881616
H  H254  1  0.78439000  0.35673000  0.78006000  1.0 0.1484976134
H  H255  1  0.72210000  0.29833000  0.63665000  1.0 0.0719090676
H  H256  1  0.66201000  0.35897000  0.63777000  1.0 0.0778872961
H  H257  1  0.58145000  0.30607000  0.65239000  1.0 0.0503595666
H  H258  1  0.83216000  0.39416000  0.64285000  1.0 0.1180998033
H  H259  1  0.08285000  0.44472000  0.73940000  1.0 0.1180998033
H  H260  1  0.77853000  0.61150000  0.97415000  1.0 0.1418261996
H  H261  1  0.76302000  0.70808000  0.95932000  1.0 0.0901195248
H  H262  1  0.74713000  0.69426000  0.01400000  1.0 0.1104944632
H  H263  1  0.69433000  0.75118000  0.99317000  1.0 0.1104944632
H  H264  1  0.40882000  0.63081000  0.96025000  1.0 0.1418261996
H  H265  1  0.47998000  0.49593000  0.84643000  1.0 0.0719090676
H  H266  1  0.48109000  0.50550000  0.79084000  1.0 0.0503595666
H  H267  1  0.57521000  0.41098000  0.83937000  1.0 0.0901195248
H  H268  1  0.65033000  0.45139000  0.80513000  1.0 0.0503595666
H  H269  1  0.55140000  0.40897000  0.78388000  1.0 0.0503595666
H  H270  1  0.43041000  0.39778000  0.92843000  1.0 0.1104944632
H  H271  1  0.29660000  0.23496000  0.86210000  1.0 0.0719090676
H  H272  1  0.17459000  0.31640000  0.86365000  1.0 0.100324753
H  H273  1  0.67617000  0.31354000  0.89858000  1.0 0.1104944632
H  H274  1  0.64263000  0.31564000  0.95333000  1.0 0.1104944632
H  H275  1  0.64071000  0.37135000  0.92273000  1.0 0.1312995318
H  H276  1  0.56488000  0.48175000  0.93390000  1.0 0.1312995318
H  H277  1  0.95498000  0.33083000  0.08478000  1.0 0.1418261996
H  H278  1  0.87526000  0.28348000  0.16119000  1.0 0.1312995318
H  H279  1  0.01162000  0.30883000  0.16276000  1.0 0.1957810442
H  H280  1  0.97070000  0.26316000  0.20050000  1.0 0.100324753
H  H281  1  0.31500000  0.45500000  0.78450000  1.0 0.3105908057
H  H282  1  0.56164000  0.32266000  0.92849000  1.0 0.0778872961
H  H283  1  0.25456000  0.33654000  0.82346000  1.0 0.0778872961
H  H284  1  0.45913000  0.22897000  0.80360000  1.0 0.0719090676
H  H285  1  0.34297000  0.26099000  0.78195000  1.0 0.100324753
H  H286  1  0.32251000  0.21298000  0.82002000  1.0 0.0778872961
H  H287  1  0.48622000  0.42487000  0.77848000  1.0 0.0606574773
H  H288  1  0.48981000  0.41363000  0.83348000  1.0 0.0778872961
H  H289  1  0.63267000  0.50055000  0.78632000  1.0 0.0719090676
H  H290  1  0.64803000  0.48422000  0.84052000  1.0 0.0901195248
H  H291  1  0.54991000  0.53049000  0.82538000  1.0 0.0503595666
H  H292  1  0.67284000  0.33488000  0.63837000  1.0 0.0606574773
H  H293  1  0.61886000  0.39608000  0.64561000  1.0 0.0901195248
H  H294  1  0.53570000  0.34319000  0.65794000  1.0 0.0778872961
H  H295  1  0.66800000  0.05800000  0.78500000  1.0 0.2881881616
H  H296  1  0.21561000  0.14327000  0.78006000  1.0 0.1484976134
H  H297  1  0.27790000  0.20167000  0.63665000  1.0 0.0719090676
H  H298  1  0.33799000  0.14103000  0.63777000  1.0 0.0778872961
H  H299  1  0.41855000  0.19393000  0.65239000  1.0 0.0503595666
H  H300  1  0.16784000  0.10584000  0.64285000  1.0 0.1180998033
H  H301  1  0.91715000  0.05528000  0.73940000  1.0 0.1104944632
H  H302  1  0.22147000  0.88850000  0.97415000  1.0 0.1418261996
H  H303  1  0.23698000  0.79192000  0.95932000  1.0 0.0901195248
H  H304  1  0.25287000  0.80574000  0.01400000  1.0 0.1104944632
H  H305  1  0.30567000  0.74882000  0.99317000  1.0 0.1104944632
H  H306  1  0.59118000  0.86919000  0.96025000  1.0 0.1418261996
H  H307  1  0.52002000  0.00407000  0.84643000  1.0 0.0719090676
H  H308  1  0.51891000  0.99450000  0.79084000  1.0 0.0503595666
H  H309  1  0.42479000  0.08902000  0.83937000  1.0 0.0901195248
H  H310  1  0.34967000  0.04861000  0.80513000  1.0 0.0503595666
H  H311  1  0.44860000  0.09103000  0.78388000  1.0 0.0503595666
H  H312  1  0.56959000  0.10222000  0.92843000  1.0 0.1104944632
H  H313  1  0.70340000  0.26504000  0.86210000  1.0 0.0719090676
H  H314  1  0.82541000  0.18360000  0.86365000  1.0 0.100324753
H  H315  1  0.32383000  0.18646000  0.89858000  1.0 0.1104944632
H  H316  1  0.35737000  0.18436000  0.95333000  1.0 0.1104944632
H  H317  1  0.35929000  0.12865000  0.92273000  1.0 0.1312995318
H  H318  1  0.43512000  0.01825000  0.93390000  1.0 0.1312995318
H  H319  1  0.04502000  0.16917000  0.08478000  1.0 0.1418261996
H  H320  1  0.12474000  0.21652000  0.16119000  1.0 0.1312995318
H  H321  1  0.98838000  0.19117000  0.16276000  1.0 0.1947504601
H  H322  1  0.02930000  0.23684000  0.20050000  1.0 0.100324753
H  H323  1  0.68500000  0.04500000  0.78450000  1.0 0.3105908057
H  H324  1  0.43836000  0.17734000  0.92849000  1.0 0.0778872961
H  H325  1  0.74544000  0.16346000  0.82346000  1.0 0.0778872961
H  H326  1  0.54087000  0.27103000  0.80360000  1.0 0.0719090676
H  H327  1  0.65703000  0.23901000  0.78195000  1.0 0.100324753
H  H328  1  0.67749000  0.28702000  0.82002000  1.0 0.0901195248
H  H329  1  0.51378000  0.07513000  0.77848000  1.0 0.0606574773
H  H330  1  0.51019000  0.08637000  0.83348000  1.0 0.0778872961
H  H331  1  0.36733000  0.99945000  0.78632000  1.0 0.0719090676
H  H332  1  0.35197000  0.01578000  0.84052000  1.0 0.0901195248
H  H333  1  0.45009000  0.96951000  0.82538000  1.0 0.0503595666
H  H334  1  0.32716000  0.16512000  0.63837000  1.0 0.0606574773
H  H335  1  0.38114000  0.10392000  0.64561000  1.0 0.0901195248
H  H336  1  0.46430000  0.15681000  0.65794000  1.0 0.0778872961
H  H337  1  0.00000000  0.25000000  0.46153000  1.0 0.1312995318
H  H338  1  0.00000000  0.75000000  0.03847000  1.0 0.1312995318
H  H339  1  0.00000000  0.75000000  0.53847000  1.0 0.1312995318
H  H340  1  0.00000000  0.25000000  0.96153000  1.0 0.1312995318
C  C1  1  0.01590000  0.40314000  0.31622000  1.0 0.5723646304
C  C2  1  0.06030000  0.40100000  0.26686000  1.0 -0.0103006189
C  C3  1  0.16790000  0.37340000  0.25585000  1.0 -0.3309581855
C  C4  1  0.20650000  0.36980000  0.20935000  1.0 0.2362298074
C  C5  1  0.33600000  0.32260000  0.15320000  1.0 -0.1100035973
C  C6  1  0.14010000  0.39560000  0.17450000  1.0 -0.3681329278
C  C7  1  0.03200000  0.42406000  0.18566000  1.0 -0.0103006189
C  C8  1  0.96030000  0.45077000  0.14717000  1.0 0.5770827382
C  C9  1  0.99180000  0.42610000  0.23181000  1.0 -0.1495317051
C  C10  1  0.20380000  0.50297000  0.45286000  1.0 0.5770827382
C  C11  1  0.31280000  0.54086000  0.45487000  1.0 0.0063402743
C  C12  1  0.30020000  0.59659000  0.46677000  1.0 -0.2411221077
C  C13  1  0.40420000  0.63002000  0.46770000  1.0 0.2362298074
C  C14  1  0.29150000  0.71180000  0.48660000  1.0 -0.254024809
C  C15  1  0.52000000  0.60793000  0.45819000  1.0 -0.2411221077
C  C16  1  0.53170000  0.55310000  0.44584000  1.0 -0.0103006189
C  C17  1  0.65580000  0.52912000  0.43476000  1.0 0.5723646304
C  C18  1  0.53010000  0.47720000  0.31570000  1.0 0.0281985875
C  C19  1  0.42920000  0.43320000  0.31060000  1.0 -0.1926194558
C  C20  1  0.59060000  0.36650000  0.40970000  1.0 -0.1100035973
C  C21  1  0.51210000  0.32140000  0.41050000  1.0 -0.0347232556
C  C22  1  0.54060000  0.27520000  0.38560000  1.0 0.0281985875
C  C23  1  0.66950000  0.26960000  0.37140000  1.0 -0.0031272308
C  C24  1  0.74080000  0.31840000  0.37220000  1.0 0.0182036855
C  C25  1  0.37580000  0.33140000  0.42240000  1.0 -0.3564549664
C  C26  1  0.42760000  0.51939000  0.44340000  1.0 -0.1806865239
C  C27  1  0.05090000  0.35029000  0.49256000  1.0 0.5723646304
C  C28  1  0.02740000  0.29806000  0.51923000  1.0 0.0063402743
C  C29  1  0.02680000  0.29780000  0.56798000  1.0 -0.312355438
C  C30  1  0.03800000  0.27530000  0.66780000  1.0 -0.0355597509
C  C31  1  0.69110000  0.33110000  0.34920000  1.0 -0.0031272308
C  C32  1  0.61580000  0.28550000  0.34890000  1.0 0.0503595666
C  C33  1  0.62350000  0.24350000  0.31030000  1.0 -0.4046200791
C  C34  1  0.52750000  0.44240000  0.30950000  1.0 -0.0163329881
C  C35  1  0.41100000  0.49550000  0.31620000  1.0 -0.2168365547
C  C36  1  0.38030000  0.35820000  0.15810000  1.0 -0.1041340332
C  C37  1  0.98410000  0.09686000  0.31622000  1.0 0.5723646304
C  C38  1  0.93970000  0.09900000  0.26686000  1.0 -0.0103006189
C  C39  1  0.83210000  0.12660000  0.25585000  1.0 -0.3309581855
C  C40  1  0.79350000  0.13020000  0.20935000  1.0 0.2362298074
C  C41  1  0.66400000  0.17740000  0.15320000  1.0 -0.1100035973
C  C42  1  0.85990000  0.10440000  0.17450000  1.0 -0.3681329278
C  C43  1  0.96800000  0.07594000  0.18566000  1.0 -0.0103006189
C  C44  1  0.03970000  0.04923000  0.14717000  1.0 0.5770827382
C  C45  1  0.00820000  0.07390000  0.23181000  1.0 -0.1495317051
C  C46  1  0.79620000  0.99703000  0.45286000  1.0 0.5770827382
C  C47  1  0.68720000  0.95914000  0.45487000  1.0 0.0063402743
C  C48  1  0.69980000  0.90341000  0.46677000  1.0 -0.2411221077
C  C49  1  0.59580000  0.86998000  0.46770000  1.0 0.2362298074
C  C50  1  0.70850000  0.78820000  0.48660000  1.0 -0.254024809
C  C51  1  0.48000000  0.89207000  0.45819000  1.0 -0.2411221077
C  C52  1  0.46830000  0.94690000  0.44584000  1.0 -0.0103006189
C  C53  1  0.34420000  0.97088000  0.43476000  1.0 0.5723646304
C  C54  1  0.46990000  0.02280000  0.31570000  1.0 0.0281985875
C  C55  1  0.57080000  0.06680000  0.31060000  1.0 -0.1926194558
C  C56  1  0.40940000  0.13350000  0.40970000  1.0 -0.1100035973
C  C57  1  0.48790000  0.17860000  0.41050000  1.0 -0.0347232556
C  C58  1  0.45940000  0.22480000  0.38560000  1.0 0.0281985875
C  C59  1  0.33050000  0.23040000  0.37140000  1.0 -0.0031272308
C  C60  1  0.25920000  0.18160000  0.37220000  1.0 0.0182036855
C  C61  1  0.62420000  0.16860000  0.42240000  1.0 -0.3564549664
C  C62  1  0.57240000  0.98061000  0.44340000  1.0 -0.1806865239
C  C63  1  0.94910000  0.14971000  0.49256000  1.0 0.5723646304
C  C64  1  0.97260000  0.20194000  0.51923000  1.0 0.0063402743
C  C65  1  0.97320000  0.20220000  0.56798000  1.0 -0.312355438
C  C66  1  0.96200000  0.22470000  0.66780000  1.0 -0.0347232556
C  C67  1  0.30890000  0.16890000  0.34920000  1.0 -0.0031272308
C  C68  1  0.38420000  0.21450000  0.34890000  1.0 0.0503595666
C  C69  1  0.37650000  0.25650000  0.31030000  1.0 -0.4046200791
C  C70  1  0.47250000  0.05760000  0.30950000  1.0 -0.0163329881
C  C71  1  0.58900000  0.00450000  0.31620000  1.0 -0.2168365547
C  C72  1  0.61970000  0.14180000  0.15810000  1.0 -0.1041340332
C  C73  1  0.01590000  0.59686000  0.18378000  1.0 0.5723646304
C  C74  1  0.06030000  0.59900000  0.23314000  1.0 -0.0103006189
C  C75  1  0.16790000  0.62660000  0.24415000  1.0 -0.3309581855
C  C76  1  0.20650000  0.63020000  0.29065000  1.0 0.2362298074
C  C77  1  0.33600000  0.67740000  0.34680000  1.0 -0.1100035973
C  C78  1  0.14010000  0.60440000  0.32550000  1.0 -0.3681329278
C  C79  1  0.03200000  0.57594000  0.31434000  1.0 -0.0103006189
C  C80  1  0.96030000  0.54923000  0.35283000  1.0 0.5770827382
C  C81  1  0.99180000  0.57390000  0.26819000  1.0 -0.1495317051
C  C82  1  0.20380000  0.49703000  0.04714000  1.0 0.5770827382
C  C83  1  0.31280000  0.45914000  0.04513000  1.0 0.0063402743
C  C84  1  0.30020000  0.40341000  0.03323000  1.0 -0.2411221077
C  C85  1  0.40420000  0.36998000  0.03230000  1.0 0.2362298074
C  C86  1  0.29150000  0.28820000  0.01340000  1.0 -0.254024809
C  C87  1  0.52000000  0.39207000  0.04181000  1.0 -0.2411221077
C  C88  1  0.53170000  0.44690000  0.05416000  1.0 -0.0103006189
C  C89  1  0.65580000  0.47088000  0.06524000  1.0 0.5723646304
C  C90  1  0.53010000  0.52280000  0.18430000  1.0 0.0281985875
C  C91  1  0.42920000  0.56680000  0.18940000  1.0 -0.1926194558
C  C92  1  0.59060000  0.63350000  0.09030000  1.0 -0.1100035973
C  C93  1  0.51210000  0.67860000  0.08950000  1.0 -0.0347232556
C  C94  1  0.54060000  0.72480000  0.11440000  1.0 0.0281985875
C  C95  1  0.66950000  0.73040000  0.12860000  1.0 -0.0031272308
C  C96  1  0.74080000  0.68160000  0.12780000  1.0 0.0182036855
C  C97  1  0.37580000  0.66860000  0.07760000  1.0 -0.3564549664
C  C98  1  0.42760000  0.48061000  0.05660000  1.0 -0.1806865239
C  C99  1  0.05090000  0.64971000  0.00744000  1.0 0.5723646304
C  C100  1  0.02740000  0.70194000  0.98077000  1.0 0.0063402743
C  C101  1  0.02680000  0.70220000  0.93202000  1.0 -0.312355438
C  C102  1  0.03800000  0.72470000  0.83220000  1.0 -0.0355597509
C  C103  1  0.69110000  0.66890000  0.15080000  1.0 -0.0031272308
C  C104  1  0.61580000  0.71450000  0.15110000  1.0 0.0503595666
C  C105  1  0.62350000  0.75650000  0.18970000  1.0 -0.405316768
C  C106  1  0.52750000  0.55760000  0.19050000  1.0 -0.0163329881
C  C107  1  0.41100000  0.50450000  0.18380000  1.0 -0.2168365547
C  C108  1  0.38030000  0.64180000  0.34190000  1.0 -0.1041340332
C  C109  1  0.98410000  0.90314000  0.18378000  1.0 0.5723646304
C  C110  1  0.93970000  0.90100000  0.23314000  1.0 -0.0103006189
C  C111  1  0.83210000  0.87340000  0.24415000  1.0 -0.3309581855
C  C112  1  0.79350000  0.86980000  0.29065000  1.0 0.2362298074
C  C113  1  0.66400000  0.82260000  0.34680000  1.0 -0.1100035973
C  C114  1  0.85990000  0.89560000  0.32550000  1.0 -0.3757090428
C  C115  1  0.96800000  0.92406000  0.31434000  1.0 -0.0103006189
C  C116  1  0.03970000  0.95077000  0.35283000  1.0 0.5770827382
C  C117  1  0.00820000  0.92610000  0.26819000  1.0 -0.1495317051
C  C118  1  0.79620000  0.00297000  0.04714000  1.0 0.5770827382
C  C119  1  0.68720000  0.04086000  0.04513000  1.0 0.0063402743
C  C120  1  0.69980000  0.09659000  0.03323000  1.0 -0.2411221077
C  C121  1  0.59580000  0.13002000  0.03230000  1.0 0.2362298074
C  C122  1  0.70850000  0.21180000  0.01340000  1.0 -0.254024809
C  C123  1  0.48000000  0.10793000  0.04181000  1.0 -0.2411221077
C  C124  1  0.46830000  0.05310000  0.05416000  1.0 -0.0103006189
C  C125  1  0.34420000  0.02912000  0.06524000  1.0 0.5723646304
C  C126  1  0.46990000  0.97720000  0.18430000  1.0 0.0281985875
C  C127  1  0.57080000  0.93320000  0.18940000  1.0 -0.1926194558
C  C128  1  0.40940000  0.86650000  0.09030000  1.0 -0.1100035973
C  C129  1  0.48790000  0.82140000  0.08950000  1.0 -0.0347232556
C  C130  1  0.45940000  0.77520000  0.11440000  1.0 0.0281985875
C  C131  1  0.33050000  0.76960000  0.12860000  1.0 -0.0031272308
C  C132  1  0.25920000  0.81840000  0.12780000  1.0 0.0182036855
C  C133  1  0.62420000  0.83140000  0.07760000  1.0 -0.3564549664
C  C134  1  0.57240000  0.01939000  0.05660000  1.0 -0.1806865239
C  C135  1  0.94910000  0.85029000  0.00744000  1.0 0.5723646304
C  C136  1  0.97260000  0.79806000  0.98077000  1.0 0.0063402743
C  C137  1  0.97320000  0.79780000  0.93202000  1.0 -0.312355438
C  C138  1  0.96200000  0.77530000  0.83220000  1.0 -0.0347232556
C  C139  1  0.30890000  0.83110000  0.15080000  1.0 -0.0031272308
C  C140  1  0.38420000  0.78550000  0.15110000  1.0 0.0503595666
C  C141  1  0.37650000  0.74350000  0.18970000  1.0 -0.405316768
C  C142  1  0.47250000  0.94240000  0.19050000  1.0 -0.0163329881
C  C143  1  0.58900000  0.99550000  0.18380000  1.0 -0.2168365547
C  C144  1  0.61970000  0.85820000  0.34190000  1.0 -0.1041340332
C  C145  1  0.98410000  0.59686000  0.68378000  1.0 0.5723646304
C  C146  1  0.93970000  0.59900000  0.73314000  1.0 -0.0103006189
C  C147  1  0.83210000  0.62660000  0.74415000  1.0 -0.3309581855
C  C148  1  0.79350000  0.63020000  0.79065000  1.0 0.2362298074
C  C149  1  0.66400000  0.67740000  0.84680000  1.0 -0.1100035973
C  C150  1  0.85990000  0.60440000  0.82550000  1.0 -0.3757090428
C  C151  1  0.96800000  0.57594000  0.81434000  1.0 -0.0103006189
C  C152  1  0.03970000  0.54923000  0.85283000  1.0 0.5770827382
C  C153  1  0.00820000  0.57390000  0.76819000  1.0 -0.1495317051
C  C154  1  0.79620000  0.49703000  0.54714000  1.0 0.5723646304
C  C155  1  0.68720000  0.45914000  0.54513000  1.0 0.0063402743
C  C156  1  0.69980000  0.40341000  0.53323000  1.0 -0.2411221077
C  C157  1  0.59580000  0.36998000  0.53230000  1.0 0.2362298074
C  C158  1  0.70850000  0.28820000  0.51340000  1.0 -0.254024809
C  C159  1  0.48000000  0.39207000  0.54181000  1.0 -0.2411221077
C  C160  1  0.46830000  0.44690000  0.55416000  1.0 -0.0103006189
C  C161  1  0.34420000  0.47088000  0.56524000  1.0 0.5723646304
C  C162  1  0.46990000  0.52280000  0.68430000  1.0 0.0281985875
C  C163  1  0.57080000  0.56680000  0.68940000  1.0 -0.1926194558
C  C164  1  0.40940000  0.63350000  0.59030000  1.0 -0.1100035973
C  C165  1  0.48790000  0.67860000  0.58950000  1.0 -0.0355597509
C  C166  1  0.45940000  0.72480000  0.61440000  1.0 0.0281985875
C  C167  1  0.33050000  0.73040000  0.62860000  1.0 -0.0031272308
C  C168  1  0.25920000  0.68160000  0.62780000  1.0 0.0182036855
C  C169  1  0.62420000  0.66860000  0.57760000  1.0 -0.3564549664
C  C170  1  0.57240000  0.48061000  0.55660000  1.0 -0.1806865239
C  C171  1  0.94910000  0.64971000  0.50744000  1.0 0.5723646304
C  C172  1  0.97260000  0.70194000  0.48077000  1.0 0.0063402743
C  C173  1  0.97320000  0.70220000  0.43202000  1.0 -0.312355438
C  C174  1  0.96200000  0.72470000  0.33220000  1.0 -0.0347232556
C  C175  1  0.30890000  0.66890000  0.65080000  1.0 -0.0031272308
C  C176  1  0.38420000  0.71450000  0.65110000  1.0 0.0503595666
C  C177  1  0.37650000  0.75650000  0.68970000  1.0 -0.4046200791
C  C178  1  0.47250000  0.55760000  0.69050000  1.0 -0.0163329881
C  C179  1  0.58900000  0.50450000  0.68380000  1.0 -0.2168365547
C  C180  1  0.61970000  0.64180000  0.84190000  1.0 -0.1041340332
C  C181  1  0.01590000  0.90314000  0.68378000  1.0 0.5723646304
C  C182  1  0.06030000  0.90100000  0.73314000  1.0 -0.0103006189
C  C183  1  0.16790000  0.87340000  0.74415000  1.0 -0.3309581855
C  C184  1  0.20650000  0.86980000  0.79065000  1.0 0.2362298074
C  C185  1  0.33600000  0.82260000  0.84680000  1.0 -0.1100035973
C  C186  1  0.14010000  0.89560000  0.82550000  1.0 -0.3757090428
C  C187  1  0.03200000  0.92406000  0.81434000  1.0 -0.0103006189
C  C188  1  0.96030000  0.95077000  0.85283000  1.0 0.5770827382
C  C189  1  0.99180000  0.92610000  0.76819000  1.0 -0.1495317051
C  C190  1  0.20380000  0.00297000  0.54714000  1.0 0.5723646304
C  C191  1  0.31280000  0.04086000  0.54513000  1.0 0.0063402743
C  C192  1  0.30020000  0.09659000  0.53323000  1.0 -0.2411221077
C  C193  1  0.40420000  0.13002000  0.53230000  1.0 0.2362298074
C  C194  1  0.29150000  0.21180000  0.51340000  1.0 -0.254024809
C  C195  1  0.52000000  0.10793000  0.54181000  1.0 -0.2411221077
C  C196  1  0.53170000  0.05310000  0.55416000  1.0 -0.0103006189
C  C197  1  0.65580000  0.02912000  0.56524000  1.0 0.5723646304
C  C198  1  0.53010000  0.97720000  0.68430000  1.0 0.0281985875
C  C199  1  0.42920000  0.93320000  0.68940000  1.0 -0.1926194558
C  C200  1  0.59060000  0.86650000  0.59030000  1.0 -0.1100035973
C  C201  1  0.51210000  0.82140000  0.58950000  1.0 -0.0355597509
C  C202  1  0.54060000  0.77520000  0.61440000  1.0 0.0281985875
C  C203  1  0.66950000  0.76960000  0.62860000  1.0 -0.0031272308
C  C204  1  0.74080000  0.81840000  0.62780000  1.0 0.0182036855
C  C205  1  0.37580000  0.83140000  0.57760000  1.0 -0.3564549664
C  C206  1  0.42760000  0.01939000  0.55660000  1.0 -0.1806865239
C  C207  1  0.05090000  0.85029000  0.50744000  1.0 0.5723646304
C  C208  1  0.02740000  0.79806000  0.48077000  1.0 0.0063402743
C  C209  1  0.02680000  0.79780000  0.43202000  1.0 -0.312355438
C  C210  1  0.03800000  0.77530000  0.33220000  1.0 -0.0355597509
C  C211  1  0.69110000  0.83110000  0.65080000  1.0 -0.0031272308
C  C212  1  0.61580000  0.78550000  0.65110000  1.0 0.0503595666
C  C213  1  0.62350000  0.74350000  0.68970000  1.0 -0.405316768
C  C214  1  0.52750000  0.94240000  0.69050000  1.0 -0.0163329881
C  C215  1  0.41100000  0.99550000  0.68380000  1.0 -0.2168365547
C  C216  1  0.38030000  0.85820000  0.84190000  1.0 -0.1041340332
C  C217  1  0.98410000  0.40314000  0.81622000  1.0 0.5723646304
C  C218  1  0.93970000  0.40100000  0.76686000  1.0 -0.0103006189
C  C219  1  0.83210000  0.37340000  0.75585000  1.0 -0.3309581855
C  C220  1  0.79350000  0.36980000  0.70935000  1.0 0.2362298074
C  C221  1  0.66400000  0.32260000  0.65320000  1.0 -0.1100035973
C  C222  1  0.85990000  0.39560000  0.67450000  1.0 -0.3757090428
C  C223  1  0.96800000  0.42406000  0.68566000  1.0 -0.0103006189
C  C224  1  0.03970000  0.45077000  0.64717000  1.0 0.5770827382
C  C225  1  0.00820000  0.42610000  0.73181000  1.0 -0.1495317051
C  C226  1  0.79620000  0.50297000  0.95286000  1.0 0.5770827382
C  C227  1  0.68720000  0.54086000  0.95487000  1.0 0.0063402743
C  C228  1  0.69980000  0.59659000  0.96677000  1.0 -0.2411221077
C  C229  1  0.59580000  0.63002000  0.96770000  1.0 0.2362298074
C  C230  1  0.70850000  0.71180000  0.98660000  1.0 -0.254024809
C  C231  1  0.48000000  0.60793000  0.95819000  1.0 -0.2411221077
C  C232  1  0.46830000  0.55310000  0.94584000  1.0 -0.0103006189
C  C233  1  0.34420000  0.52912000  0.93476000  1.0 0.5723646304
C  C234  1  0.46990000  0.47720000  0.81570000  1.0 0.0281985875
C  C235  1  0.57080000  0.43320000  0.81060000  1.0 -0.1926194558
C  C236  1  0.40940000  0.36650000  0.90970000  1.0 -0.1100035973
C  C237  1  0.48790000  0.32140000  0.91050000  1.0 -0.0355597509
C  C238  1  0.45940000  0.27520000  0.88560000  1.0 0.0281985875
C  C239  1  0.33050000  0.26960000  0.87140000  1.0 -0.0031272308
C  C240  1  0.25920000  0.31840000  0.87220000  1.0 0.0182036855
C  C241  1  0.62420000  0.33140000  0.92240000  1.0 -0.3564549664
C  C242  1  0.57240000  0.51939000  0.94340000  1.0 -0.1806865239
C  C243  1  0.94910000  0.35029000  0.99256000  1.0 0.5723646304
C  C244  1  0.97260000  0.29806000  0.01923000  1.0 0.0063402743
C  C245  1  0.97320000  0.29780000  0.06798000  1.0 -0.312355438
C  C246  1  0.96200000  0.27530000  0.16780000  1.0 -0.0347232556
C  C247  1  0.30890000  0.33110000  0.84920000  1.0 -0.0031272308
C  C248  1  0.38420000  0.28550000  0.84890000  1.0 0.0503595666
C  C249  1  0.37650000  0.24350000  0.81030000  1.0 -0.4046200791
C  C250  1  0.47250000  0.44240000  0.80950000  1.0 -0.0163329881
C  C251  1  0.58900000  0.49550000  0.81620000  1.0 -0.2168365547
C  C252  1  0.61970000  0.35820000  0.65810000  1.0 -0.1041340332
C  C253  1  0.01590000  0.09686000  0.81622000  1.0 0.5723646304
C  C254  1  0.06030000  0.09900000  0.76686000  1.0 -0.0103006189
C  C255  1  0.16790000  0.12660000  0.75585000  1.0 -0.3309581855
C  C256  1  0.20650000  0.13020000  0.70935000  1.0 0.2362298074
C  C257  1  0.33600000  0.17740000  0.65320000  1.0 -0.1100035973
C  C258  1  0.14010000  0.10440000  0.67450000  1.0 -0.3757090428
C  C259  1  0.03200000  0.07594000  0.68566000  1.0 -0.0103006189
C  C260  1  0.96030000  0.04923000  0.64717000  1.0 0.5770827382
C  C261  1  0.99180000  0.07390000  0.73181000  1.0 -0.1495317051
C  C262  1  0.20380000  0.99703000  0.95286000  1.0 0.5770827382
C  C263  1  0.31280000  0.95914000  0.95487000  1.0 0.0063402743
C  C264  1  0.30020000  0.90341000  0.96677000  1.0 -0.2411221077
C  C265  1  0.40420000  0.86998000  0.96770000  1.0 0.2362298074
C  C266  1  0.29150000  0.78820000  0.98660000  1.0 -0.254024809
C  C267  1  0.52000000  0.89207000  0.95819000  1.0 -0.2411221077
C  C268  1  0.53170000  0.94690000  0.94584000  1.0 -0.0103006189
C  C269  1  0.65580000  0.97088000  0.93476000  1.0 0.5723646304
C  C270  1  0.53010000  0.02280000  0.81570000  1.0 0.0281985875
C  C271  1  0.42920000  0.06680000  0.81060000  1.0 -0.1926194558
C  C272  1  0.59060000  0.13350000  0.90970000  1.0 -0.1100035973
C  C273  1  0.51210000  0.17860000  0.91050000  1.0 -0.0355597509
C  C274  1  0.54060000  0.22480000  0.88560000  1.0 0.0281985875
C  C275  1  0.66950000  0.23040000  0.87140000  1.0 -0.0031272308
C  C276  1  0.74080000  0.18160000  0.87220000  1.0 0.0182036855
C  C277  1  0.37580000  0.16860000  0.92240000  1.0 -0.3564549664
C  C278  1  0.42760000  0.98061000  0.94340000  1.0 -0.1806865239
C  C279  1  0.05090000  0.14971000  0.99256000  1.0 0.5723646304
C  C280  1  0.02740000  0.20194000  0.01923000  1.0 0.0063402743
C  C281  1  0.02680000  0.20220000  0.06798000  1.0 -0.312355438
C  C282  1  0.03800000  0.22470000  0.16780000  1.0 -0.0355597509
C  C283  1  0.69110000  0.16890000  0.84920000  1.0 -0.0031272308
C  C284  1  0.61580000  0.21450000  0.84890000  1.0 0.0503595666
C  C285  1  0.62350000  0.25650000  0.81030000  1.0 -0.4046200791
C  C286  1  0.52750000  0.05760000  0.80950000  1.0 -0.0163329881
C  C287  1  0.41100000  0.00450000  0.81620000  1.0 -0.2168365547
C  C288  1  0.38030000  0.14180000  0.65810000  1.0 -0.1041340332
C  C289  1  0.00000000  0.25000000  0.59200000  1.0 0.2316852084
C  C290  1  0.00000000  0.25000000  0.49492000  1.0 -0.1413644345
C  C291  1  0.00000000  0.75000000  0.90800000  1.0 0.2316852084
C  C292  1  0.00000000  0.75000000  0.00508000  1.0 -0.1413644345
C  C293  1  0.00000000  0.75000000  0.40800000  1.0 0.2316852084
C  C294  1  0.00000000  0.75000000  0.50508000  1.0 -0.1413644345
C  C295  1  0.00000000  0.25000000  0.09200000  1.0 0.2316852084
C  C296  1  0.00000000  0.25000000  0.99492000  1.0 -0.1413644345
N  N1  1  0.69200000  0.36903000  0.38486000  1.0 -0.2125892972
N  N2  1  0.30800000  0.13097000  0.38486000  1.0 -0.2125892972
N  N3  1  0.69200000  0.63097000  0.11514000  1.0 -0.2125892972
N  N4  1  0.30800000  0.86903000  0.11514000  1.0 -0.2125892972
N  N5  1  0.30800000  0.63097000  0.61514000  1.0 -0.2125892972
N  N6  1  0.69200000  0.86903000  0.61514000  1.0 -0.2125892972
N  N7  1  0.30800000  0.36903000  0.88486000  1.0 -0.2125892972
N  N8  1  0.69200000  0.13097000  0.88486000  1.0 -0.2125892972
O  O1  1  0.90760000  0.44882000  0.42615000  1.0 -0.8082659522
O  O2  1  0.09660000  0.39836000  0.34830000  1.0 -0.551868485
O  O3  1  0.90290000  0.41009000  0.32325000  1.0 -0.6101426759
O  O4  1  0.29850000  0.32890000  0.19970000  1.0 -0.0552473681
O  O5  1  0.00250000  0.44491000  0.10619000  1.0 -0.551868485
O  O6  1  0.86290000  0.47642000  0.15750000  1.0 -0.5789784842
O  O7  1  0.21040000  0.46291000  0.42521000  1.0 -0.5207635143
O  O8  1  0.11190000  0.51356000  0.47890000  1.0 -0.5668564939
O  O9  1  0.40530000  0.68553000  0.47706000  1.0 -0.2125892972
O  O10  1  0.65610000  0.48559000  0.41053000  1.0 -0.5402839014
O  O11  1  0.65620000  0.45488000  0.31257000  1.0 -0.3681329278
O  O12  1  0.74820000  0.55434000  0.44978000  1.0 -0.5402839014
O  O13  1  0.07420000  0.34515000  0.44874000  1.0 -0.5327329019
O  O14  1  0.04220000  0.39510000  0.51255000  1.0 -0.4997715966
O  O15  1  0.99800000  0.23460000  0.63870000  1.0 -0.0103006189
O  O16  1  0.33390000  0.35870000  0.20510000  1.0 -0.077236505
O  O17  1  0.09240000  0.05118000  0.42615000  1.0 -0.8082659522
O  O18  1  0.90340000  0.10164000  0.34830000  1.0 -0.551868485
O  O19  1  0.09710000  0.08991000  0.32325000  1.0 -0.6101426759
O  O20  1  0.70150000  0.17110000  0.19970000  1.0 -0.0552473681
O  O21  1  0.99750000  0.05509000  0.10619000  1.0 -0.551868485
O  O22  1  0.13710000  0.02358000  0.15750000  1.0 -0.5789784842
O  O23  1  0.78960000  0.03709000  0.42521000  1.0 -0.5207635143
O  O24  1  0.88810000  0.98644000  0.47890000  1.0 -0.5668564939
O  O25  1  0.59470000  0.81447000  0.47706000  1.0 -0.2125892972
O  O26  1  0.34390000  0.01441000  0.41053000  1.0 -0.5402839014
O  O27  1  0.34380000  0.04512000  0.31257000  1.0 -0.3681329278
O  O28  1  0.25180000  0.94566000  0.44978000  1.0 -0.5402839014
O  O29  1  0.92580000  0.15485000  0.44874000  1.0 -0.5327329019
O  O30  1  0.95780000  0.10490000  0.51255000  1.0 -0.4997715966
O  O31  1  0.00200000  0.26540000  0.63870000  1.0 -0.0103006189
O  O32  1  0.66610000  0.14130000  0.20510000  1.0 -0.077236505
O  O33  1  0.90760000  0.55118000  0.07385000  1.0 -0.8082659522
O  O34  1  0.09660000  0.60164000  0.15170000  1.0 -0.551868485
O  O35  1  0.90290000  0.58991000  0.17675000  1.0 -0.6101426759
O  O36  1  0.29850000  0.67110000  0.30030000  1.0 -0.0552473681
O  O37  1  0.00250000  0.55509000  0.39381000  1.0 -0.551868485
O  O38  1  0.86290000  0.52358000  0.34250000  1.0 -0.5789784842
O  O39  1  0.21040000  0.53709000  0.07479000  1.0 -0.5207635143
O  O40  1  0.11190000  0.48644000  0.02110000  1.0 -0.5668564939
O  O41  1  0.40530000  0.31447000  0.02294000  1.0 -0.2125892972
O  O42  1  0.65610000  0.51441000  0.08947000  1.0 -0.5402839014
O  O43  1  0.65620000  0.54512000  0.18743000  1.0 -0.3681329278
O  O44  1  0.74820000  0.44566000  0.05022000  1.0 -0.5402839014
O  O45  1  0.07420000  0.65485000  0.05126000  1.0 -0.5327329019
O  O46  1  0.04220000  0.60490000  0.98745000  1.0 -0.4997715966
O  O47  1  0.99800000  0.76540000  0.86130000  1.0 -0.0103006189
O  O48  1  0.33390000  0.64130000  0.29490000  1.0 -0.077236505
O  O49  1  0.09240000  0.94882000  0.07385000  1.0 -0.8082659522
O  O50  1  0.90340000  0.89836000  0.15170000  1.0 -0.551868485
O  O51  1  0.09710000  0.91009000  0.17675000  1.0 -0.6101426759
O  O52  1  0.70150000  0.82890000  0.30030000  1.0 -0.0548364797
O  O53  1  0.99750000  0.94491000  0.39381000  1.0 -0.551868485
O  O54  1  0.13710000  0.97642000  0.34250000  1.0 -0.5789784842
O  O55  1  0.78960000  0.96291000  0.07479000  1.0 -0.5207635143
O  O56  1  0.88810000  0.01356000  0.02110000  1.0 -0.5668564939
O  O57  1  0.59470000  0.18553000  0.02294000  1.0 -0.2125892972
O  O58  1  0.34390000  0.98559000  0.08947000  1.0 -0.5402839014
O  O59  1  0.34380000  0.95488000  0.18743000  1.0 -0.3681329278
O  O60  1  0.25180000  0.05434000  0.05022000  1.0 -0.5402839014
O  O61  1  0.92580000  0.84515000  0.05126000  1.0 -0.5327329019
O  O62  1  0.95780000  0.89510000  0.98745000  1.0 -0.4997715966
O  O63  1  0.00200000  0.73460000  0.86130000  1.0 -0.0103006189
O  O64  1  0.66610000  0.85870000  0.29490000  1.0 -0.077236505
O  O65  1  0.09240000  0.55118000  0.57385000  1.0 -0.8082659522
O  O66  1  0.90340000  0.60164000  0.65170000  1.0 -0.551868485
O  O67  1  0.09710000  0.58991000  0.67675000  1.0 -0.6101426759
O  O68  1  0.70150000  0.67110000  0.80030000  1.0 -0.0548364797
O  O69  1  0.99750000  0.55509000  0.89381000  1.0 -0.551868485
O  O70  1  0.13710000  0.52358000  0.84250000  1.0 -0.5789784842
O  O71  1  0.78960000  0.53709000  0.57479000  1.0 -0.5207635143
O  O72  1  0.88810000  0.48644000  0.52110000  1.0 -0.5668564939
O  O73  1  0.59470000  0.31447000  0.52294000  1.0 -0.2125892972
O  O74  1  0.34390000  0.51441000  0.58947000  1.0 -0.5402839014
O  O75  1  0.34380000  0.54512000  0.68743000  1.0 -0.3681329278
O  O76  1  0.25180000  0.44566000  0.55022000  1.0 -0.5402839014
O  O77  1  0.92580000  0.65485000  0.55126000  1.0 -0.5327329019
O  O78  1  0.95780000  0.60490000  0.48745000  1.0 -0.4997715966
O  O79  1  0.00200000  0.76540000  0.36130000  1.0 -0.0103006189
O  O80  1  0.66610000  0.64130000  0.79490000  1.0 -0.077236505
O  O81  1  0.90760000  0.94882000  0.57385000  1.0 -0.8082659522
O  O82  1  0.09660000  0.89836000  0.65170000  1.0 -0.551868485
O  O83  1  0.90290000  0.91009000  0.67675000  1.0 -0.6101426759
O  O84  1  0.29850000  0.82890000  0.80030000  1.0 -0.0548364797
O  O85  1  0.00250000  0.94491000  0.89381000  1.0 -0.551868485
O  O86  1  0.86290000  0.97642000  0.84250000  1.0 -0.5789784842
O  O87  1  0.21040000  0.96291000  0.57479000  1.0 -0.5207635143
O  O88  1  0.11190000  0.01356000  0.52110000  1.0 -0.5668564939
O  O89  1  0.40530000  0.18553000  0.52294000  1.0 -0.2125892972
O  O90  1  0.65610000  0.98559000  0.58947000  1.0 -0.5402839014
O  O91  1  0.65620000  0.95488000  0.68743000  1.0 -0.3681329278
O  O92  1  0.74820000  0.05434000  0.55022000  1.0 -0.5402839014
O  O93  1  0.07420000  0.84515000  0.55126000  1.0 -0.5327329019
O  O94  1  0.04220000  0.89510000  0.48745000  1.0 -0.4997715966
O  O95  1  0.99800000  0.73460000  0.36130000  1.0 -0.0103006189
O  O96  1  0.33390000  0.85870000  0.79490000  1.0 -0.077236505
O  O97  1  0.09240000  0.44882000  0.92615000  1.0 -0.8082659522
O  O98  1  0.90340000  0.39836000  0.84830000  1.0 -0.551868485
O  O99  1  0.09710000  0.41009000  0.82325000  1.0 -0.6101426759
O  O100  1  0.70150000  0.32890000  0.69970000  1.0 -0.0548364797
O  O101  1  0.99750000  0.44491000  0.60619000  1.0 -0.551868485
O  O102  1  0.13710000  0.47642000  0.65750000  1.0 -0.5789784842
O  O103  1  0.78960000  0.46291000  0.92521000  1.0 -0.5207635143
O  O104  1  0.88810000  0.51356000  0.97890000  1.0 -0.5668564939
O  O105  1  0.59470000  0.68553000  0.97706000  1.0 -0.2125892972
O  O106  1  0.34390000  0.48559000  0.91053000  1.0 -0.5402839014
O  O107  1  0.34380000  0.45488000  0.81257000  1.0 -0.3681329278
O  O108  1  0.25180000  0.55434000  0.94978000  1.0 -0.5402839014
O  O109  1  0.92580000  0.34515000  0.94874000  1.0 -0.5327329019
O  O110  1  0.95780000  0.39510000  0.01255000  1.0 -0.4997715966
O  O111  1  0.00200000  0.23460000  0.13870000  1.0 -0.0103006189
O  O112  1  0.66610000  0.35870000  0.70510000  1.0 -0.077236505
O  O113  1  0.90760000  0.05118000  0.92615000  1.0 -0.8082659522
O  O114  1  0.09660000  0.10164000  0.84830000  1.0 -0.551868485
O  O115  1  0.90290000  0.08991000  0.82325000  1.0 -0.6101426759
O  O116  1  0.29850000  0.17110000  0.69970000  1.0 -0.0548364797
O  O117  1  0.00250000  0.05509000  0.60619000  1.0 -0.551868485
O  O118  1  0.86290000  0.02358000  0.65750000  1.0 -0.5789784842
O  O119  1  0.21040000  0.03709000  0.92521000  1.0 -0.5207635143
O  O120  1  0.11190000  0.98644000  0.97890000  1.0 -0.5668564939
O  O121  1  0.40530000  0.81447000  0.97706000  1.0 -0.2125892972
O  O122  1  0.65610000  0.01441000  0.91053000  1.0 -0.5402839014
O  O123  1  0.65620000  0.04512000  0.81257000  1.0 -0.3681329278
O  O124  1  0.74820000  0.94566000  0.94978000  1.0 -0.5402839014
O  O125  1  0.07420000  0.15485000  0.94874000  1.0 -0.5327329019
O  O126  1  0.04220000  0.10490000  0.01255000  1.0 -0.4997715966
O  O127  1  0.99800000  0.26540000  0.13870000  1.0 -0.0103006189
O  O128  1  0.33390000  0.14130000  0.70510000  1.0 -0.077236505
