# DDEC6 charges by PACMAN v1.1 (https://github.com/mtap-research/PACMAN-charge/)
data_HEXVEM_ASR_pacman
_symmetry_space_group_name_H-M   'P 1'
_cell_length_a   35.08580000
_cell_length_b   35.08580000
_cell_length_c   35.08580000
_cell_angle_alpha   60.00000000
_cell_angle_beta   60.00000000
_cell_angle_gamma   60.00000000
_symmetry_Int_Tables_number   1
_chemical_formula_structural   CuH10C16(NO)4
_chemical_formula_sum   'Cu12 H120 C192 N48 O48'
_cell_volume   30540.71163860
_cell_formula_units_Z   12
loop_
 _symmetry_equiv_pos_site_id
 _symmetry_equiv_pos_as_xyz
  1  'x, y, z'
loop_
 _atom_site_type_symbol
 _atom_site_label
 _atom_site_symmetry_multiplicity
 _atom_site_fract_x
 _atom_site_fract_y
 _atom_site_fract_z
 _atom_site_occupancy
 _atom_site_charge
Cu  Cu1  1  0.96363000  0.49007000  0.03637000  1.0 0.8765336739
Cu  Cu2  1  0.03637000  0.96363000  0.49007000  1.0 0.8743469583
Cu  Cu3  1  0.49007000  0.03637000  0.96363000  1.0 0.8743469583
Cu  Cu4  1  0.49007000  0.96363000  0.50993000  1.0 0.8743469583
Cu  Cu5  1  0.03637000  0.50993000  0.96363000  1.0 0.8743469583
Cu  Cu6  1  0.50993000  0.03637000  0.49007000  1.0 0.8743469583
Cu  Cu7  1  0.50993000  0.49007000  0.96363000  1.0 0.8743469583
Cu  Cu8  1  0.96363000  0.03637000  0.50993000  1.0 0.8743469583
Cu  Cu9  1  0.49007000  0.50993000  0.03637000  1.0 0.8743469583
Cu  Cu10  1  0.96363000  0.50993000  0.49007000  1.0 0.8765336739
Cu  Cu11  1  0.50993000  0.96363000  0.03637000  1.0 0.8743469583
Cu  Cu12  1  0.03637000  0.49007000  0.50993000  1.0 0.8743469583
H  H1  1  0.20010000  0.22730000  0.06230000  1.0 0.2872040996
H  H2  1  0.06230000  0.20010000  0.22730000  1.0 0.2872040996
H  H3  1  0.22730000  0.06230000  0.20010000  1.0 0.2872040996
H  H4  1  0.22730000  0.20010000  0.51030000  1.0 0.2872040996
H  H5  1  0.06230000  0.51030000  0.20010000  1.0 0.2872040996
H  H6  1  0.51030000  0.06230000  0.22730000  1.0 0.2872040996
H  H7  1  0.51030000  0.22730000  0.20010000  1.0 0.2872040996
H  H8  1  0.20010000  0.06230000  0.51030000  1.0 0.2872040996
H  H9  1  0.22730000  0.51030000  0.06230000  1.0 0.2872040996
H  H10  1  0.20010000  0.51030000  0.22730000  1.0 0.2872040996
H  H11  1  0.51030000  0.20010000  0.06230000  1.0 0.2872040996
H  H12  1  0.06230000  0.22730000  0.51030000  1.0 0.2872040996
H  H13  1  0.79990000  0.77270000  0.93770000  1.0 0.2872040996
H  H14  1  0.93770000  0.79990000  0.77270000  1.0 0.2872040996
H  H15  1  0.77270000  0.93770000  0.79990000  1.0 0.2872040996
H  H16  1  0.77270000  0.79990000  0.48970000  1.0 0.2872040996
H  H17  1  0.93770000  0.48970000  0.79990000  1.0 0.2872040996
H  H18  1  0.48970000  0.93770000  0.77270000  1.0 0.2872040996
H  H19  1  0.48970000  0.77270000  0.79990000  1.0 0.2872040996
H  H20  1  0.79990000  0.93770000  0.48970000  1.0 0.2872040996
H  H21  1  0.77270000  0.48970000  0.93770000  1.0 0.2872040996
H  H22  1  0.79990000  0.48970000  0.77270000  1.0 0.2872040996
H  H23  1  0.48970000  0.79990000  0.93770000  1.0 0.2872040996
H  H24  1  0.93770000  0.77270000  0.48970000  1.0 0.2872040996
H  H25  1  0.08530000  0.27070000  0.11730000  1.0 0.1210150801
H  H26  1  0.11730000  0.08530000  0.27070000  1.0 0.1210150801
H  H27  1  0.27070000  0.11730000  0.08530000  1.0 0.1210150801
H  H28  1  0.27070000  0.08530000  0.52670000  1.0 0.1210150801
H  H29  1  0.11730000  0.52670000  0.08530000  1.0 0.1210150801
H  H30  1  0.52670000  0.11730000  0.27070000  1.0 0.1210150801
H  H31  1  0.52670000  0.27070000  0.08530000  1.0 0.1210150801
H  H32  1  0.08530000  0.11730000  0.52670000  1.0 0.1210150801
H  H33  1  0.27070000  0.52670000  0.11730000  1.0 0.1210150801
H  H34  1  0.08530000  0.52670000  0.27070000  1.0 0.1210150801
H  H35  1  0.52670000  0.08530000  0.11730000  1.0 0.1210150801
H  H36  1  0.11730000  0.27070000  0.52670000  1.0 0.1210150801
H  H37  1  0.91470000  0.72930000  0.88270000  1.0 0.1210150801
H  H38  1  0.88270000  0.91470000  0.72930000  1.0 0.1210150801
H  H39  1  0.72930000  0.88270000  0.91470000  1.0 0.1210150801
H  H40  1  0.72930000  0.91470000  0.47330000  1.0 0.1210150801
H  H41  1  0.88270000  0.47330000  0.91470000  1.0 0.1210150801
H  H42  1  0.47330000  0.88270000  0.72930000  1.0 0.1210150801
H  H43  1  0.47330000  0.72930000  0.91470000  1.0 0.1210150801
H  H44  1  0.91470000  0.88270000  0.47330000  1.0 0.1210150801
H  H45  1  0.72930000  0.47330000  0.88270000  1.0 0.1210150801
H  H46  1  0.91470000  0.47330000  0.72930000  1.0 0.1210150801
H  H47  1  0.47330000  0.91470000  0.88270000  1.0 0.1210150801
H  H48  1  0.88270000  0.72930000  0.47330000  1.0 0.1210150801
H  H49  1  0.03570000  0.34190000  0.09090000  1.0 0.1210150801
H  H50  1  0.09090000  0.03570000  0.34190000  1.0 0.1210150801
H  H51  1  0.34190000  0.09090000  0.03570000  1.0 0.1210150801
H  H52  1  0.34190000  0.03570000  0.53150000  1.0 0.1210150801
H  H53  1  0.09090000  0.53150000  0.03570000  1.0 0.1210150801
H  H54  1  0.53150000  0.09090000  0.34190000  1.0 0.1210150801
H  H55  1  0.53150000  0.34190000  0.03570000  1.0 0.1210150801
H  H56  1  0.03570000  0.09090000  0.53150000  1.0 0.1210150801
H  H57  1  0.34190000  0.53150000  0.09090000  1.0 0.1210150801
H  H58  1  0.03570000  0.53150000  0.34190000  1.0 0.1210150801
H  H59  1  0.53150000  0.03570000  0.09090000  1.0 0.1210150801
H  H60  1  0.09090000  0.34190000  0.53150000  1.0 0.1210150801
H  H61  1  0.96430000  0.65810000  0.90910000  1.0 0.1210150801
H  H62  1  0.90910000  0.96430000  0.65810000  1.0 0.1210150801
H  H63  1  0.65810000  0.90910000  0.96430000  1.0 0.1210150801
H  H64  1  0.65810000  0.96430000  0.46850000  1.0 0.1210150801
H  H65  1  0.90910000  0.46850000  0.96430000  1.0 0.1210150801
H  H66  1  0.46850000  0.90910000  0.65810000  1.0 0.1210150801
H  H67  1  0.46850000  0.65810000  0.96430000  1.0 0.1210150801
H  H68  1  0.96430000  0.90910000  0.46850000  1.0 0.1210150801
H  H69  1  0.65810000  0.46850000  0.90910000  1.0 0.1210150801
H  H70  1  0.96430000  0.46850000  0.65810000  1.0 0.1210150801
H  H71  1  0.46850000  0.96430000  0.90910000  1.0 0.1210150801
H  H72  1  0.90910000  0.65810000  0.46850000  1.0 0.1210150801
H  H73  1  0.14000000  0.37840000  0.98600000  1.0 0.1289618218
H  H74  1  0.98600000  0.14000000  0.37840000  1.0 0.1289618218
H  H75  1  0.37840000  0.98600000  0.14000000  1.0 0.1289618218
H  H76  1  0.37840000  0.14000000  0.49560000  1.0 0.1289618218
H  H77  1  0.98600000  0.49560000  0.14000000  1.0 0.1289618218
H  H78  1  0.49560000  0.98600000  0.37840000  1.0 0.1289618218
H  H79  1  0.49560000  0.37840000  0.14000000  1.0 0.1289618218
H  H80  1  0.14000000  0.98600000  0.49560000  1.0 0.1289618218
H  H81  1  0.37840000  0.49560000  0.98600000  1.0 0.1289618218
H  H82  1  0.14000000  0.49560000  0.37840000  1.0 0.1289618218
H  H83  1  0.49560000  0.14000000  0.98600000  1.0 0.1289618218
H  H84  1  0.98600000  0.37840000  0.49560000  1.0 0.1289618218
H  H85  1  0.86000000  0.62160000  0.01400000  1.0 0.1289618218
H  H86  1  0.01400000  0.86000000  0.62160000  1.0 0.1289618218
H  H87  1  0.62160000  0.01400000  0.86000000  1.0 0.1289618218
H  H88  1  0.62160000  0.86000000  0.50440000  1.0 0.1289618218
H  H89  1  0.01400000  0.50440000  0.86000000  1.0 0.1289618218
H  H90  1  0.50440000  0.01400000  0.62160000  1.0 0.1289618218
H  H91  1  0.50440000  0.62160000  0.86000000  1.0 0.1289618218
H  H92  1  0.86000000  0.01400000  0.50440000  1.0 0.1289618218
H  H93  1  0.62160000  0.50440000  0.01400000  1.0 0.1289618218
H  H94  1  0.86000000  0.50440000  0.62160000  1.0 0.1289618218
H  H95  1  0.50440000  0.86000000  0.01400000  1.0 0.1289618218
H  H96  1  0.01400000  0.62160000  0.50440000  1.0 0.1289618218
H  H97  1  0.19220000  0.30640000  0.00960000  1.0 0.1210150801
H  H98  1  0.00960000  0.19220000  0.30640000  1.0 0.1210150801
H  H99  1  0.30640000  0.00960000  0.19220000  1.0 0.1210150801
H  H100  1  0.30640000  0.19220000  0.49180000  1.0 0.1210150801
H  H101  1  0.00960000  0.49180000  0.19220000  1.0 0.1210150801
H  H102  1  0.49180000  0.00960000  0.30640000  1.0 0.1210150801
H  H103  1  0.49180000  0.30640000  0.19220000  1.0 0.1210150801
H  H104  1  0.19220000  0.00960000  0.49180000  1.0 0.1210150801
H  H105  1  0.30640000  0.49180000  0.00960000  1.0 0.1210150801
H  H106  1  0.19220000  0.49180000  0.30640000  1.0 0.1210150801
H  H107  1  0.49180000  0.19220000  0.00960000  1.0 0.1210150801
H  H108  1  0.00960000  0.30640000  0.49180000  1.0 0.1210150801
H  H109  1  0.80780000  0.69360000  0.99040000  1.0 0.1210150801
H  H110  1  0.99040000  0.80780000  0.69360000  1.0 0.1210150801
H  H111  1  0.69360000  0.99040000  0.80780000  1.0 0.1210150801
H  H112  1  0.69360000  0.80780000  0.50820000  1.0 0.1210150801
H  H113  1  0.99040000  0.50820000  0.80780000  1.0 0.1210150801
H  H114  1  0.50820000  0.99040000  0.69360000  1.0 0.1210150801
H  H115  1  0.50820000  0.69360000  0.80780000  1.0 0.1210150801
H  H116  1  0.80780000  0.99040000  0.50820000  1.0 0.1210150801
H  H117  1  0.69360000  0.50820000  0.99040000  1.0 0.1210150801
H  H118  1  0.80780000  0.50820000  0.69360000  1.0 0.1210150801
H  H119  1  0.50820000  0.80780000  0.99040000  1.0 0.1210150801
H  H120  1  0.99040000  0.69360000  0.50820000  1.0 0.1210150801
C  C1  1  0.17220000  0.19640000  0.12460000  1.0 0.507545001
C  C2  1  0.12460000  0.17220000  0.19640000  1.0 0.507545001
C  C3  1  0.19640000  0.12460000  0.17220000  1.0 0.507545001
C  C4  1  0.19640000  0.17220000  0.50680000  1.0 0.507545001
C  C5  1  0.12460000  0.50680000  0.17220000  1.0 0.507545001
C  C6  1  0.50680000  0.12460000  0.19640000  1.0 0.507545001
C  C7  1  0.50680000  0.19640000  0.17220000  1.0 0.507545001
C  C8  1  0.17220000  0.12460000  0.50680000  1.0 0.507545001
C  C9  1  0.19640000  0.50680000  0.12460000  1.0 0.507545001
C  C10  1  0.17220000  0.50680000  0.19640000  1.0 0.507545001
C  C11  1  0.50680000  0.17220000  0.12460000  1.0 0.507545001
C  C12  1  0.12460000  0.19640000  0.50680000  1.0 0.507545001
C  C13  1  0.82780000  0.80360000  0.87540000  1.0 0.507545001
C  C14  1  0.87540000  0.82780000  0.80360000  1.0 0.507545001
C  C15  1  0.80360000  0.87540000  0.82780000  1.0 0.507545001
C  C16  1  0.80360000  0.82780000  0.49320000  1.0 0.507545001
C  C17  1  0.87540000  0.49320000  0.82780000  1.0 0.507545001
C  C18  1  0.49320000  0.87540000  0.80360000  1.0 0.507545001
C  C19  1  0.49320000  0.80360000  0.82780000  1.0 0.507545001
C  C20  1  0.82780000  0.87540000  0.49320000  1.0 0.507545001
C  C21  1  0.80360000  0.49320000  0.87540000  1.0 0.507545001
C  C22  1  0.82780000  0.49320000  0.80360000  1.0 0.507545001
C  C23  1  0.49320000  0.82780000  0.87540000  1.0 0.507545001
C  C24  1  0.87540000  0.80360000  0.49320000  1.0 0.507545001
C  C25  1  0.14420000  0.27980000  0.06720000  1.0 0.2059936437
C  C26  1  0.06720000  0.14420000  0.27980000  1.0 0.2046947272
C  C27  1  0.27980000  0.06720000  0.14420000  1.0 0.2059936437
C  C28  1  0.27980000  0.14420000  0.50880000  1.0 0.2046947272
C  C29  1  0.06720000  0.50880000  0.14420000  1.0 0.2059936437
C  C30  1  0.50880000  0.06720000  0.27980000  1.0 0.2059936437
C  C31  1  0.50880000  0.27980000  0.14420000  1.0 0.2046947272
C  C32  1  0.14420000  0.06720000  0.50880000  1.0 0.2059936437
C  C33  1  0.27980000  0.50880000  0.06720000  1.0 0.2059936437
C  C34  1  0.14420000  0.50880000  0.27980000  1.0 0.2059936437
C  C35  1  0.50880000  0.14420000  0.06720000  1.0 0.2046947272
C  C36  1  0.06720000  0.27980000  0.50880000  1.0 0.2046947272
C  C37  1  0.85580000  0.72020000  0.93280000  1.0 0.2046947272
C  C38  1  0.93280000  0.85580000  0.72020000  1.0 0.2059936437
C  C39  1  0.72020000  0.93280000  0.85580000  1.0 0.2059936437
C  C40  1  0.72020000  0.85580000  0.49120000  1.0 0.2059936437
C  C41  1  0.93280000  0.49120000  0.85580000  1.0 0.2059936437
C  C42  1  0.49120000  0.93280000  0.72020000  1.0 0.2046947272
C  C43  1  0.49120000  0.72020000  0.85580000  1.0 0.2059936437
C  C44  1  0.85580000  0.93280000  0.49120000  1.0 0.2059936437
C  C45  1  0.72020000  0.49120000  0.93280000  1.0 0.2059936437
C  C46  1  0.85580000  0.49120000  0.72020000  1.0 0.2059936437
C  C47  1  0.49120000  0.85580000  0.93280000  1.0 0.2059936437
C  C48  1  0.93280000  0.72020000  0.49120000  1.0 0.2046947272
C  C49  1  0.09760000  0.29260000  0.08980000  1.0 -0.1631040875
C  C50  1  0.08980000  0.09760000  0.29260000  1.0 -0.1631040875
C  C51  1  0.29260000  0.08980000  0.09760000  1.0 -0.1631040875
C  C52  1  0.29260000  0.09760000  0.52000000  1.0 -0.165419163
C  C53  1  0.08980000  0.52000000  0.09760000  1.0 -0.165419163
C  C54  1  0.52000000  0.08980000  0.29260000  1.0 -0.165419163
C  C55  1  0.52000000  0.29260000  0.09760000  1.0 -0.1631040875
C  C56  1  0.09760000  0.08980000  0.52000000  1.0 -0.165419163
C  C57  1  0.29260000  0.52000000  0.08980000  1.0 -0.1631040875
C  C58  1  0.09760000  0.52000000  0.29260000  1.0 -0.165419163
C  C59  1  0.52000000  0.09760000  0.08980000  1.0 -0.165419163
C  C60  1  0.08980000  0.29260000  0.52000000  1.0 -0.1631040875
C  C61  1  0.90240000  0.70740000  0.91020000  1.0 -0.165419163
C  C62  1  0.91020000  0.90240000  0.70740000  1.0 -0.1631040875
C  C63  1  0.70740000  0.91020000  0.90240000  1.0 -0.1631040875
C  C64  1  0.70740000  0.90240000  0.48000000  1.0 -0.165419163
C  C65  1  0.91020000  0.48000000  0.90240000  1.0 -0.1631040875
C  C66  1  0.48000000  0.91020000  0.70740000  1.0 -0.1631040875
C  C67  1  0.48000000  0.70740000  0.90240000  1.0 -0.165419163
C  C68  1  0.90240000  0.91020000  0.48000000  1.0 -0.1631040875
C  C69  1  0.70740000  0.48000000  0.91020000  1.0 -0.1631040875
C  C70  1  0.90240000  0.48000000  0.70740000  1.0 -0.1631040875
C  C71  1  0.48000000  0.90240000  0.91020000  1.0 -0.1631040875
C  C72  1  0.91020000  0.70740000  0.48000000  1.0 -0.1631040875
C  C73  1  0.06790000  0.33550000  0.07450000  1.0 -0.0886166678
C  C74  1  0.07450000  0.06790000  0.33550000  1.0 -0.0886166678
C  C75  1  0.33550000  0.07450000  0.06790000  1.0 -0.0886166678
C  C76  1  0.33550000  0.06790000  0.52210000  1.0 -0.0886166678
C  C77  1  0.07450000  0.52210000  0.06790000  1.0 -0.0886166678
C  C78  1  0.52210000  0.07450000  0.33550000  1.0 -0.0886166678
C  C79  1  0.52210000  0.33550000  0.06790000  1.0 -0.0886166678
C  C80  1  0.06790000  0.07450000  0.52210000  1.0 -0.0886166678
C  C81  1  0.33550000  0.52210000  0.07450000  1.0 -0.0886166678
C  C82  1  0.06790000  0.52210000  0.33550000  1.0 -0.0886166678
C  C83  1  0.52210000  0.06790000  0.07450000  1.0 -0.0886166678
C  C84  1  0.07450000  0.33550000  0.52210000  1.0 -0.0886166678
C  C85  1  0.93210000  0.66450000  0.92550000  1.0 -0.0886166678
C  C86  1  0.92550000  0.93210000  0.66450000  1.0 -0.0886166678
C  C87  1  0.66450000  0.92550000  0.93210000  1.0 -0.0886166678
C  C88  1  0.66450000  0.93210000  0.47790000  1.0 -0.0886166678
C  C89  1  0.92550000  0.47790000  0.93210000  1.0 -0.0886166678
C  C90  1  0.47790000  0.92550000  0.66450000  1.0 -0.0886166678
C  C91  1  0.47790000  0.66450000  0.93210000  1.0 -0.0886166678
C  C92  1  0.93210000  0.92550000  0.47790000  1.0 -0.0886166678
C  C93  1  0.66450000  0.47790000  0.92550000  1.0 -0.0886166678
C  C94  1  0.93210000  0.47790000  0.66450000  1.0 -0.0886166678
C  C95  1  0.47790000  0.93210000  0.92550000  1.0 -0.0886166678
C  C96  1  0.92550000  0.66450000  0.47790000  1.0 -0.0886166678
C  C97  1  0.08310000  0.37110000  0.03510000  1.0 -0.0355692254
C  C98  1  0.03510000  0.08310000  0.37110000  1.0 -0.0355692254
C  C99  1  0.37110000  0.03510000  0.08310000  1.0 -0.0355692254
C  C100  1  0.37110000  0.08310000  0.51070000  1.0 -0.0355692254
C  C101  1  0.03510000  0.51070000  0.08310000  1.0 -0.0355692254
C  C102  1  0.51070000  0.03510000  0.37110000  1.0 -0.034580108
C  C103  1  0.51070000  0.37110000  0.08310000  1.0 -0.034580108
C  C104  1  0.08310000  0.03510000  0.51070000  1.0 -0.0355692254
C  C105  1  0.37110000  0.51070000  0.03510000  1.0 -0.0355692254
C  C106  1  0.08310000  0.51070000  0.37110000  1.0 -0.0355692254
C  C107  1  0.51070000  0.08310000  0.03510000  1.0 -0.0355692254
C  C108  1  0.03510000  0.37110000  0.51070000  1.0 -0.0355692254
C  C109  1  0.91690000  0.62890000  0.96490000  1.0 -0.0355692254
C  C110  1  0.96490000  0.91690000  0.62890000  1.0 -0.034580108
C  C111  1  0.62890000  0.96490000  0.91690000  1.0 -0.0355692254
C  C112  1  0.62890000  0.91690000  0.48930000  1.0 -0.0355692254
C  C113  1  0.96490000  0.48930000  0.91690000  1.0 -0.0355692254
C  C114  1  0.48930000  0.96490000  0.62890000  1.0 -0.0355692254
C  C115  1  0.48930000  0.62890000  0.91690000  1.0 -0.0355692254
C  C116  1  0.91690000  0.96490000  0.48930000  1.0 -0.034580108
C  C117  1  0.62890000  0.48930000  0.96490000  1.0 -0.0355692254
C  C118  1  0.91690000  0.48930000  0.62890000  1.0 -0.0355692254
C  C119  1  0.48930000  0.91690000  0.96490000  1.0 -0.034580108
C  C120  1  0.96490000  0.62890000  0.48930000  1.0 -0.0355692254
C  C121  1  0.12810000  0.35650000  0.01390000  1.0 -0.0886166678
C  C122  1  0.01390000  0.12810000  0.35650000  1.0 -0.0886166678
C  C123  1  0.35650000  0.01390000  0.12810000  1.0 -0.0886166678
C  C124  1  0.35650000  0.12810000  0.50150000  1.0 -0.0886166678
C  C125  1  0.01390000  0.50150000  0.12810000  1.0 -0.0886166678
C  C126  1  0.50150000  0.01390000  0.35650000  1.0 -0.0886166678
C  C127  1  0.50150000  0.35650000  0.12810000  1.0 -0.0886166678
C  C128  1  0.12810000  0.01390000  0.50150000  1.0 -0.0886166678
C  C129  1  0.35650000  0.50150000  0.01390000  1.0 -0.0886166678
C  C130  1  0.12810000  0.50150000  0.35650000  1.0 -0.0886166678
C  C131  1  0.50150000  0.12810000  0.01390000  1.0 -0.0886166678
C  C132  1  0.01390000  0.35650000  0.50150000  1.0 -0.0886166678
C  C133  1  0.87190000  0.64350000  0.98610000  1.0 -0.0886166678
C  C134  1  0.98610000  0.87190000  0.64350000  1.0 -0.0886166678
C  C135  1  0.64350000  0.98610000  0.87190000  1.0 -0.0886166678
C  C136  1  0.64350000  0.87190000  0.49850000  1.0 -0.0886166678
C  C137  1  0.98610000  0.49850000  0.87190000  1.0 -0.0886166678
C  C138  1  0.49850000  0.98610000  0.64350000  1.0 -0.0886166678
C  C139  1  0.49850000  0.64350000  0.87190000  1.0 -0.0886166678
C  C140  1  0.87190000  0.98610000  0.49850000  1.0 -0.0886166678
C  C141  1  0.64350000  0.49850000  0.98610000  1.0 -0.0886166678
C  C142  1  0.87190000  0.49850000  0.64350000  1.0 -0.0886166678
C  C143  1  0.49850000  0.87190000  0.98610000  1.0 -0.0886166678
C  C144  1  0.98610000  0.64350000  0.49850000  1.0 -0.0886166678
C  C145  1  0.16020000  0.31300000  0.02740000  1.0 -0.215902291
C  C146  1  0.02740000  0.16020000  0.31300000  1.0 -0.2146333291
C  C147  1  0.31300000  0.02740000  0.16020000  1.0 -0.215902291
C  C148  1  0.31300000  0.16020000  0.49940000  1.0 -0.215902291
C  C149  1  0.02740000  0.49940000  0.16020000  1.0 -0.215902291
C  C150  1  0.49940000  0.02740000  0.31300000  1.0 -0.215902291
C  C151  1  0.49940000  0.31300000  0.16020000  1.0 -0.215902291
C  C152  1  0.16020000  0.02740000  0.49940000  1.0 -0.215902291
C  C153  1  0.31300000  0.49940000  0.02740000  1.0 -0.215902291
C  C154  1  0.16020000  0.49940000  0.31300000  1.0 -0.215902291
C  C155  1  0.49940000  0.16020000  0.02740000  1.0 -0.215902291
C  C156  1  0.02740000  0.31300000  0.49940000  1.0 -0.215902291
C  C157  1  0.83980000  0.68700000  0.97260000  1.0 -0.215902291
C  C158  1  0.97260000  0.83980000  0.68700000  1.0 -0.215902291
C  C159  1  0.68700000  0.97260000  0.83980000  1.0 -0.215902291
C  C160  1  0.68700000  0.83980000  0.50060000  1.0 -0.215902291
C  C161  1  0.97260000  0.50060000  0.83980000  1.0 -0.215902291
C  C162  1  0.50060000  0.97260000  0.68700000  1.0 -0.215902291
C  C163  1  0.50060000  0.68700000  0.83980000  1.0 -0.215902291
C  C164  1  0.83980000  0.97260000  0.50060000  1.0 -0.215902291
C  C165  1  0.68700000  0.50060000  0.97260000  1.0 -0.2146333291
C  C166  1  0.83980000  0.50060000  0.68700000  1.0 -0.215902291
C  C167  1  0.50060000  0.83980000  0.97260000  1.0 -0.215902291
C  C168  1  0.97260000  0.68700000  0.50060000  1.0 -0.215902291
C  C169  1  0.04710000  0.41670000  0.02430000  1.0 0.5457140572
C  C170  1  0.02430000  0.04710000  0.41670000  1.0 0.5457140572
C  C171  1  0.41670000  0.02430000  0.04710000  1.0 0.5444250719
C  C172  1  0.41670000  0.04710000  0.51190000  1.0 0.5444250719
C  C173  1  0.02430000  0.51190000  0.04710000  1.0 0.5457140572
C  C174  1  0.51190000  0.02430000  0.41670000  1.0 0.5444250719
C  C175  1  0.51190000  0.41670000  0.04710000  1.0 0.5444250719
C  C176  1  0.04710000  0.02430000  0.51190000  1.0 0.5444250719
C  C177  1  0.41670000  0.51190000  0.02430000  1.0 0.5457140572
C  C178  1  0.04710000  0.51190000  0.41670000  1.0 0.5457140572
C  C179  1  0.51190000  0.04710000  0.02430000  1.0 0.5444250719
C  C180  1  0.02430000  0.41670000  0.51190000  1.0 0.5444250719
C  C181  1  0.95290000  0.58330000  0.97570000  1.0 0.5457140572
C  C182  1  0.97570000  0.95290000  0.58330000  1.0 0.5444250719
C  C183  1  0.58330000  0.97570000  0.95290000  1.0 0.5457140572
C  C184  1  0.58330000  0.95290000  0.48810000  1.0 0.5457140572
C  C185  1  0.97570000  0.48810000  0.95290000  1.0 0.5457140572
C  C186  1  0.48810000  0.97570000  0.58330000  1.0 0.5457140572
C  C187  1  0.48810000  0.58330000  0.95290000  1.0 0.5444250719
C  C188  1  0.95290000  0.97570000  0.48810000  1.0 0.5444250719
C  C189  1  0.58330000  0.48810000  0.97570000  1.0 0.5457140572
C  C190  1  0.95290000  0.48810000  0.58330000  1.0 0.5457140572
C  C191  1  0.48810000  0.95290000  0.97570000  1.0 0.5444250719
C  C192  1  0.97570000  0.58330000  0.48810000  1.0 0.5444250719
N  N1  1  0.12600000  0.20860000  0.15720000  1.0 -0.5182617986
N  N2  1  0.15720000  0.12600000  0.20860000  1.0 -0.5182617986
N  N3  1  0.20860000  0.15720000  0.12600000  1.0 -0.5182617986
N  N4  1  0.20860000  0.12600000  0.50820000  1.0 -0.5182617986
N  N5  1  0.15720000  0.50820000  0.12600000  1.0 -0.5182617986
N  N6  1  0.50820000  0.15720000  0.20860000  1.0 -0.5182617986
N  N7  1  0.50820000  0.20860000  0.12600000  1.0 -0.5182617986
N  N8  1  0.12600000  0.15720000  0.50820000  1.0 -0.5182617986
N  N9  1  0.20860000  0.50820000  0.15720000  1.0 -0.5182617986
N  N10  1  0.12600000  0.50820000  0.20860000  1.0 -0.5182617986
N  N11  1  0.50820000  0.12600000  0.15720000  1.0 -0.5182617986
N  N12  1  0.15720000  0.20860000  0.50820000  1.0 -0.5182617986
N  N13  1  0.87400000  0.79140000  0.84280000  1.0 -0.5182617986
N  N14  1  0.84280000  0.87400000  0.79140000  1.0 -0.5182617986
N  N15  1  0.79140000  0.84280000  0.87400000  1.0 -0.5182617986
N  N16  1  0.79140000  0.87400000  0.49180000  1.0 -0.5182617986
N  N17  1  0.84280000  0.49180000  0.87400000  1.0 -0.5182617986
N  N18  1  0.49180000  0.84280000  0.79140000  1.0 -0.5182617986
N  N19  1  0.49180000  0.79140000  0.87400000  1.0 -0.5182617986
N  N20  1  0.87400000  0.84280000  0.49180000  1.0 -0.5182617986
N  N21  1  0.79140000  0.49180000  0.84280000  1.0 -0.5182617986
N  N22  1  0.87400000  0.49180000  0.79140000  1.0 -0.5182617986
N  N23  1  0.49180000  0.87400000  0.84280000  1.0 -0.5182617986
N  N24  1  0.84280000  0.79140000  0.49180000  1.0 -0.5182617986
N  N25  1  0.17340000  0.23360000  0.08420000  1.0 -0.3565659272
N  N26  1  0.08420000  0.17340000  0.23360000  1.0 -0.3565659272
N  N27  1  0.23360000  0.08420000  0.17340000  1.0 -0.3565659272
N  N28  1  0.23360000  0.17340000  0.50880000  1.0 -0.3565659272
N  N29  1  0.08420000  0.50880000  0.17340000  1.0 -0.3565659272
N  N30  1  0.50880000  0.08420000  0.23360000  1.0 -0.3565659272
N  N31  1  0.50880000  0.23360000  0.17340000  1.0 -0.3565659272
N  N32  1  0.17340000  0.08420000  0.50880000  1.0 -0.3565659272
N  N33  1  0.23360000  0.50880000  0.08420000  1.0 -0.3565659272
N  N34  1  0.17340000  0.50880000  0.23360000  1.0 -0.3546134068
N  N35  1  0.50880000  0.17340000  0.08420000  1.0 -0.3565659272
N  N36  1  0.08420000  0.23360000  0.50880000  1.0 -0.3565659272
N  N37  1  0.82660000  0.76640000  0.91580000  1.0 -0.3565659272
N  N38  1  0.91580000  0.82660000  0.76640000  1.0 -0.3565659272
N  N39  1  0.76640000  0.91580000  0.82660000  1.0 -0.3565659272
N  N40  1  0.76640000  0.82660000  0.49120000  1.0 -0.3565659272
N  N41  1  0.91580000  0.49120000  0.82660000  1.0 -0.3565659272
N  N42  1  0.49120000  0.91580000  0.76640000  1.0 -0.3565659272
N  N43  1  0.49120000  0.76640000  0.82660000  1.0 -0.3546134068
N  N44  1  0.82660000  0.91580000  0.49120000  1.0 -0.3565659272
N  N45  1  0.76640000  0.49120000  0.91580000  1.0 -0.3565659272
N  N46  1  0.82660000  0.49120000  0.76640000  1.0 -0.3546134068
N  N47  1  0.49120000  0.82660000  0.91580000  1.0 -0.3565659272
N  N48  1  0.91580000  0.76640000  0.49120000  1.0 -0.3565659272
O  O1  1  0.00661000  0.42423000  0.04561000  1.0 -0.4107669588
O  O2  1  0.04561000  0.00661000  0.42423000  1.0 -0.4107669588
O  O3  1  0.42423000  0.04561000  0.00661000  1.0 -0.4107669588
O  O4  1  0.42423000  0.00661000  0.52355000  1.0 -0.4107669588
O  O5  1  0.04561000  0.52355000  0.00661000  1.0 -0.4107669588
O  O6  1  0.52355000  0.04561000  0.42423000  1.0 -0.4107669588
O  O7  1  0.52355000  0.42423000  0.00661000  1.0 -0.4107669588
O  O8  1  0.00661000  0.04561000  0.52355000  1.0 -0.4107669588
O  O9  1  0.42423000  0.52355000  0.04561000  1.0 -0.4107669588
O  O10  1  0.00661000  0.52355000  0.42423000  1.0 -0.4107669588
O  O11  1  0.52355000  0.00661000  0.04561000  1.0 -0.4107669588
O  O12  1  0.04561000  0.42423000  0.52355000  1.0 -0.4107669588
O  O13  1  0.99339000  0.57577000  0.95439000  1.0 -0.4107669588
O  O14  1  0.95439000  0.99339000  0.57577000  1.0 -0.4107669588
O  O15  1  0.57577000  0.95439000  0.99339000  1.0 -0.4107669588
O  O16  1  0.57577000  0.99339000  0.47645000  1.0 -0.4107669588
O  O17  1  0.95439000  0.47645000  0.99339000  1.0 -0.4107669588
O  O18  1  0.47645000  0.95439000  0.57577000  1.0 -0.4107669588
O  O19  1  0.47645000  0.57577000  0.99339000  1.0 -0.4107669588
O  O20  1  0.99339000  0.95439000  0.47645000  1.0 -0.4107669588
O  O21  1  0.57577000  0.47645000  0.95439000  1.0 -0.4107669588
O  O22  1  0.99339000  0.47645000  0.57577000  1.0 -0.4107669588
O  O23  1  0.47645000  0.99339000  0.95439000  1.0 -0.4107669588
O  O24  1  0.95439000  0.57577000  0.47645000  1.0 -0.4107669588
O  O25  1  0.07063000  0.44919000  0.98435000  1.0 -0.5979502301
O  O26  1  0.98435000  0.07063000  0.44919000  1.0 -0.5942541294
O  O27  1  0.44919000  0.98435000  0.07063000  1.0 -0.5979502301
O  O28  1  0.44919000  0.07063000  0.49583000  1.0 -0.5979502301
O  O29  1  0.98435000  0.49583000  0.07063000  1.0 -0.5942541294
O  O30  1  0.49583000  0.98435000  0.44919000  1.0 -0.5979502301
O  O31  1  0.49583000  0.44919000  0.07063000  1.0 -0.5942541294
O  O32  1  0.07063000  0.98435000  0.49583000  1.0 -0.5979502301
O  O33  1  0.44919000  0.49583000  0.98435000  1.0 -0.5979502301
O  O34  1  0.07063000  0.49583000  0.44919000  1.0 -0.5979502301
O  O35  1  0.49583000  0.07063000  0.98435000  1.0 -0.5942541294
O  O36  1  0.98435000  0.44919000  0.49583000  1.0 -0.5942541294
O  O37  1  0.92937000  0.55081000  0.01565000  1.0 -0.5979502301
O  O38  1  0.01565000  0.92937000  0.55081000  1.0 -0.5979502301
O  O39  1  0.55081000  0.01565000  0.92937000  1.0 -0.5979502301
O  O40  1  0.55081000  0.92937000  0.50417000  1.0 -0.5979502301
O  O41  1  0.01565000  0.50417000  0.92937000  1.0 -0.5979502301
O  O42  1  0.50417000  0.01565000  0.55081000  1.0 -0.5979502301
O  O43  1  0.50417000  0.55081000  0.92937000  1.0 -0.5979502301
O  O44  1  0.92937000  0.01565000  0.50417000  1.0 -0.5942541294
O  O45  1  0.55081000  0.50417000  0.01565000  1.0 -0.5979502301
O  O46  1  0.92937000  0.50417000  0.55081000  1.0 -0.5979502301
O  O47  1  0.50417000  0.92937000  0.01565000  1.0 -0.5979502301
O  O48  1  0.01565000  0.55081000  0.50417000  1.0 -0.5979502301
