# DDEC6 charges by PACMAN v1.1 (https://github.com/mtap-research/PACMAN-charge/)
data_HEYYAP_ASR_pacman
_symmetry_space_group_name_H-M   'P 1'
_cell_length_a   19.12710000
_cell_length_b   17.82080000
_cell_length_c   31.75200000
_cell_angle_alpha   90.00000000
_cell_angle_beta   105.39200000
_cell_angle_gamma   90.00000000
_symmetry_Int_Tables_number   1
_chemical_formula_structural   Zn3H50C85(N4O9)2
_chemical_formula_sum   'Zn12 H200 C340 N32 O72'
_cell_volume   10434.79980418
_cell_formula_units_Z   4
loop_
 _symmetry_equiv_pos_site_id
 _symmetry_equiv_pos_as_xyz
  1  'x, y, z'
loop_
 _atom_site_type_symbol
 _atom_site_label
 _atom_site_symmetry_multiplicity
 _atom_site_fract_x
 _atom_site_fract_y
 _atom_site_fract_z
 _atom_site_occupancy
 _atom_site_charge
Zn  Zn1  1  0.91278000  0.49874000  0.70353000  1.0 0.7594954315
Zn  Zn2  1  0.58722000  0.99874000  0.29647000  1.0 0.7594954315
Zn  Zn3  1  0.08722000  0.50126000  0.29647000  1.0 0.7594954315
Zn  Zn4  1  0.41278000  0.00126000  0.70353000  1.0 0.7594954315
Zn  Zn5  1  0.85142000  0.50102000  0.60764000  1.0 0.907071473
Zn  Zn6  1  0.64858000  0.00102000  0.39236000  1.0 0.907071473
Zn  Zn7  1  0.14858000  0.49898000  0.39236000  1.0 0.907071473
Zn  Zn8  1  0.35142000  0.99898000  0.60764000  1.0 0.907071473
Zn  Zn9  1  0.47004000  0.50141000  0.45211000  1.0 0.7594954315
Zn  Zn10  1  0.02996000  0.00141000  0.54789000  1.0 0.7594954315
Zn  Zn11  1  0.52996000  0.49859000  0.54789000  1.0 0.7594954315
Zn  Zn12  1  0.97004000  0.99859000  0.45211000  1.0 0.7594954315
H  H1  1  0.05740000  0.78530000  0.57730000  1.0 0.1295434258
H  H2  1  0.44260000  0.28530000  0.42270000  1.0 0.1295434258
H  H3  1  0.94260000  0.21470000  0.42270000  1.0 0.1295434258
H  H4  1  0.55740000  0.71470000  0.57730000  1.0 0.1295434258
H  H5  1  0.27800000  0.82310000  0.73340000  1.0 0.120797841
H  H6  1  0.22200000  0.32310000  0.26660000  1.0 0.120797841
H  H7  1  0.72200000  0.17690000  0.26660000  1.0 0.120797841
H  H8  1  0.77800000  0.67690000  0.73340000  1.0 0.120797841
H  H9  1  0.09400000  0.35460000  0.70560000  1.0 0.1295434258
H  H10  1  0.40600000  0.85460000  0.29440000  1.0 0.1295434258
H  H11  1  0.90600000  0.64540000  0.29440000  1.0 0.1295434258
H  H12  1  0.59400000  0.14540000  0.70560000  1.0 0.1295434258
H  H13  1  0.19580000  0.73870000  0.74100000  1.0 0.1295434258
H  H14  1  0.30420000  0.23870000  0.25900000  1.0 0.1295434258
H  H15  1  0.80420000  0.26130000  0.25900000  1.0 0.1295434258
H  H16  1  0.69580000  0.76130000  0.74100000  1.0 0.1295434258
H  H17  1  0.16670000  0.85730000  0.60790000  1.0 0.120797841
H  H18  1  0.33333333  0.35730000  0.39210000  1.0 0.120797841
H  H19  1  0.83330000  0.14270000  0.39210000  1.0 0.120797841
H  H20  1  0.66666667  0.64270000  0.60790000  1.0 0.120797841
H  H21  1  0.19330000  0.17680000  0.60200000  1.0 0.120797841
H  H22  1  0.30670000  0.67680000  0.39800000  1.0 0.120797841
H  H23  1  0.80670000  0.82320000  0.39800000  1.0 0.120797841
H  H24  1  0.69330000  0.32320000  0.60200000  1.0 0.120797841
H  H25  1  0.08310000  0.24950000  0.56950000  1.0 0.1295434258
H  H26  1  0.41690000  0.74950000  0.43050000  1.0 0.1295434258
H  H27  1  0.91690000  0.75050000  0.43050000  1.0 0.1295434258
H  H28  1  0.58310000  0.25050000  0.56950000  1.0 0.1295434258
H  H29  1  0.97830000  0.69170000  0.58180000  1.0 0.120797841
H  H30  1  0.52170000  0.19170000  0.41820000  1.0 0.120797841
H  H31  1  0.02170000  0.30830000  0.41820000  1.0 0.120797841
H  H32  1  0.47830000  0.80830000  0.58180000  1.0 0.120797841
H  H33  1  0.07830000  0.66240000  0.70890000  1.0 0.1295434258
H  H34  1  0.42170000  0.16240000  0.29110000  1.0 0.1295434258
H  H35  1  0.92170000  0.33760000  0.29110000  1.0 0.1295434258
H  H36  1  0.57830000  0.83760000  0.70890000  1.0 0.1295434258
H  H37  1  0.99740000  0.34020000  0.57490000  1.0 0.120797841
H  H38  1  0.50260000  0.84020000  0.42510000  1.0 0.120797841
H  H39  1  0.00260000  0.65980000  0.42510000  1.0 0.120797841
H  H40  1  0.49740000  0.15980000  0.57490000  1.0 0.120797841
H  H41  1  0.20790000  0.27960000  0.73830000  1.0 0.120797841
H  H42  1  0.29210000  0.77960000  0.26170000  1.0 0.120797841
H  H43  1  0.79210000  0.72040000  0.26170000  1.0 0.120797841
H  H44  1  0.70790000  0.22040000  0.73830000  1.0 0.120797841
H  H45  1  0.28930000  0.19170000  0.72910000  1.0 0.120797841
H  H46  1  0.21070000  0.69170000  0.27090000  1.0 0.120797841
H  H47  1  0.71070000  0.80830000  0.27090000  1.0 0.120797841
H  H48  1  0.78930000  0.30830000  0.72910000  1.0 0.120797841
H  H49  1  0.53190000  0.46170000  0.37040000  1.0 0.0809399785
H  H50  1  0.96810000  0.96170000  0.62960000  1.0 0.0809399785
H  H51  1  0.46810000  0.53830000  0.62960000  1.0 0.0809399785
H  H52  1  0.03190000  0.03830000  0.37040000  1.0 0.0809399785
H  H53  1  0.34070000  0.53180000  0.38600000  1.0 0.0895544935
H  H54  1  0.15930000  0.03180000  0.61400000  1.0 0.0895544935
H  H55  1  0.65930000  0.46820000  0.61400000  1.0 0.0895544935
H  H56  1  0.84070000  0.96820000  0.38600000  1.0 0.0895544935
H  H57  1  0.28910000  0.51950000  0.31140000  1.0 0.1108272623
H  H58  1  0.21090000  0.01950000  0.68860000  1.0 0.1108272623
H  H59  1  0.71090000  0.48050000  0.68860000  1.0 0.1108272623
H  H60  1  0.78910000  0.98050000  0.31140000  1.0 0.1108272623
H  H61  1  0.48030000  0.44940000  0.29590000  1.0 0.0809399785
H  H62  1  0.01970000  0.94940000  0.70410000  1.0 0.0809399785
H  H63  1  0.51970000  0.55060000  0.70410000  1.0 0.0809399785
H  H64  1  0.98030000  0.05060000  0.29590000  1.0 0.0809399785
H  H65  1  0.30520000  0.43170000  0.93790000  1.0 0.1461472231
H  H66  1  0.19480000  0.93170000  0.06210000  1.0 0.1461472231
H  H67  1  0.69480000  0.56830000  0.06210000  1.0 0.1461472231
H  H68  1  0.80520000  0.06830000  0.93790000  1.0 0.1461472231
H  H69  1  0.38000000  0.44150000  0.00840000  1.0 0.1404230128
H  H70  1  0.12000000  0.94150000  0.99160000  1.0 0.1404230128
H  H71  1  0.62000000  0.55850000  0.99160000  1.0 0.1404230128
H  H72  1  0.88000000  0.05850000  0.00840000  1.0 0.1404230128
H  H73  1  0.13000000  0.43870000  0.98510000  1.0 0.120797841
H  H74  1  0.37000000  0.93870000  0.01490000  1.0 0.120797841
H  H75  1  0.87000000  0.56130000  0.01490000  1.0 0.120797841
H  H76  1  0.63000000  0.06130000  0.98510000  1.0 0.120797841
H  H77  1  0.16670000  0.48300000  0.89680000  1.0 0.2664756495
H  H78  1  0.33333333  0.98300000  0.10320000  1.0 0.2664756495
H  H79  1  0.83330000  0.51700000  0.10320000  1.0 0.2664756495
H  H80  1  0.66666667  0.01700000  0.89680000  1.0 0.2664756495
H  H81  1  0.11340000  0.52460000  0.84090000  1.0 0.1295434258
H  H82  1  0.38660000  0.02460000  0.15910000  1.0 0.1295434258
H  H83  1  0.88660000  0.47540000  0.15910000  1.0 0.1295434258
H  H84  1  0.61340000  0.97540000  0.84090000  1.0 0.1295434258
H  H85  1  0.98250000  0.34890000  0.84260000  1.0 0.1404230128
H  H86  1  0.51750000  0.84890000  0.15740000  1.0 0.1404230128
H  H87  1  0.01750000  0.65110000  0.15740000  1.0 0.1404230128
H  H88  1  0.48250000  0.15110000  0.84260000  1.0 0.1404230128
H  H89  1  0.90630000  0.38750000  0.77640000  1.0 0.1295434258
H  H90  1  0.59370000  0.88750000  0.22360000  1.0 0.120797841
H  H91  1  0.09370000  0.61250000  0.22360000  1.0 0.120797841
H  H92  1  0.40630000  0.11250000  0.77640000  1.0 0.1295434258
H  H93  1  0.03720000  0.56320000  0.77470000  1.0 0.1108272623
H  H94  1  0.46280000  0.06320000  0.22530000  1.0 0.120797841
H  H95  1  0.96280000  0.43680000  0.22530000  1.0 0.120797841
H  H96  1  0.53720000  0.93680000  0.77470000  1.0 0.120797841
H  H97  1  0.44210000  0.43380000  0.24290000  1.0 0.2586410324
H  H98  1  0.05790000  0.93380000  0.75710000  1.0 0.2586410324
H  H99  1  0.55790000  0.56620000  0.75710000  1.0 0.2586410324
H  H100  1  0.94210000  0.06620000  0.24290000  1.0 0.2586410324
H  H101  1  0.26090000  0.43620000  0.16440000  1.0 0.1016206946
H  H102  1  0.23910000  0.93620000  0.83560000  1.0 0.1016206946
H  H103  1  0.73910000  0.56380000  0.83560000  1.0 0.1016206946
H  H104  1  0.76090000  0.06380000  0.16440000  1.0 0.1016206946
H  H105  1  0.44360000  0.45030000  0.09340000  1.0 0.1461472231
H  H106  1  0.05640000  0.95030000  0.90660000  1.0 0.1461472231
H  H107  1  0.55640000  0.54970000  0.90660000  1.0 0.1461472231
H  H108  1  0.94360000  0.04970000  0.09340000  1.0 0.1461472231
H  H109  1  0.47280000  0.44510000  0.16900000  1.0 0.1404230128
H  H110  1  0.02720000  0.94510000  0.83100000  1.0 0.1404230128
H  H111  1  0.52720000  0.55490000  0.83100000  1.0 0.1404230128
H  H112  1  0.97280000  0.05490000  0.16900000  1.0 0.1404230128
H  H113  1  0.79160000  0.15030000  0.45200000  1.0 0.1295434258
H  H114  1  0.70840000  0.65030000  0.54800000  1.0 0.1295434258
H  H115  1  0.20840000  0.84970000  0.54800000  1.0 0.1295434258
H  H116  1  0.29160000  0.34970000  0.45200000  1.0 0.1295434258
H  H117  1  0.92160000  0.21180000  0.56640000  1.0 0.120797841
H  H118  1  0.57840000  0.71180000  0.43360000  1.0 0.120797841
H  H119  1  0.07840000  0.78820000  0.43360000  1.0 0.120797841
H  H120  1  0.42160000  0.28820000  0.56640000  1.0 0.120797841
H  H121  1  0.72700000  0.37030000  0.54560000  1.0 0.1295434258
H  H122  1  0.77300000  0.87030000  0.45440000  1.0 0.1295434258
H  H123  1  0.27300000  0.62970000  0.45440000  1.0 0.1295434258
H  H124  1  0.22700000  0.12970000  0.54560000  1.0 0.1295434258
H  H125  1  0.67560000  0.21770000  0.42140000  1.0 0.1295434258
H  H126  1  0.82440000  0.71770000  0.57860000  1.0 0.1295434258
H  H127  1  0.32440000  0.78230000  0.57860000  1.0 0.1295434258
H  H128  1  0.17560000  0.28230000  0.42140000  1.0 0.1295434258
H  H129  1  0.59470000  0.30890000  0.42910000  1.0 0.1108272623
H  H130  1  0.90530000  0.80890000  0.57090000  1.0 0.1108272623
H  H131  1  0.40530000  0.69110000  0.57090000  1.0 0.1108272623
H  H132  1  0.09470000  0.19110000  0.42910000  1.0 0.1108272623
H  H133  1  0.85000000  0.30940000  0.57170000  1.0 0.1295434258
H  H134  1  0.65000000  0.80940000  0.42830000  1.0 0.1295434258
H  H135  1  0.15000000  0.69060000  0.42830000  1.0 0.1295434258
H  H136  1  0.35000000  0.19060000  0.57170000  1.0 0.1295434258
H  H137  1  0.24860000  0.45180000  0.25650000  1.0 0.2586410324
H  H138  1  0.25140000  0.95180000  0.74350000  1.0 0.2586410324
H  H139  1  0.75140000  0.54820000  0.74350000  1.0 0.2586410324
H  H140  1  0.74860000  0.04820000  0.25650000  1.0 0.2586410324
H  H141  1  0.29450000  0.49160000  0.15850000  1.0 0.120797841
H  H142  1  0.20550000  0.99160000  0.84150000  1.0 0.120797841
H  H143  1  0.70550000  0.50840000  0.84150000  1.0 0.120797841
H  H144  1  0.79450000  0.00840000  0.15850000  1.0 0.120797841
H  H145  1  0.14480000  0.42030000  0.21730000  1.0 0.1016206946
H  H146  1  0.35520000  0.92030000  0.78270000  1.0 0.1016206946
H  H147  1  0.85520000  0.57970000  0.78270000  1.0 0.1016206946
H  H148  1  0.64480000  0.07970000  0.21730000  1.0 0.1016206946
H  H149  1  0.05830000  0.41610000  0.15000000  1.0 0.120797841
H  H150  1  0.44170000  0.91610000  0.85000000  1.0 0.120797841
H  H151  1  0.94170000  0.58390000  0.85000000  1.0 0.120797841
H  H152  1  0.55830000  0.08390000  0.15000000  1.0 0.120797841
H  H153  1  0.14920000  0.49440000  0.98420000  1.0 0.120797841
H  H154  1  0.35080000  0.99440000  0.01580000  1.0 0.120797841
H  H155  1  0.85080000  0.50560000  0.01580000  1.0 0.120797841
H  H156  1  0.64920000  0.00560000  0.98420000  1.0 0.120797841
H  H157  1  0.97550000  0.44790000  0.05890000  1.0 0.1295434258
H  H158  1  0.52450000  0.94790000  0.94110000  1.0 0.1295434258
H  H159  1  0.02450000  0.55210000  0.94110000  1.0 0.1295434258
H  H160  1  0.47550000  0.05210000  0.05890000  1.0 0.1295434258
H  H161  1  0.94100000  0.46170000  0.98360000  1.0 0.120797841
H  H162  1  0.55900000  0.96170000  0.01640000  1.0 0.120797841
H  H163  1  0.05900000  0.53830000  0.01640000  1.0 0.120797841
H  H164  1  0.44100000  0.03830000  0.98360000  1.0 0.120797841
H  H165  1  0.96730000  0.47040000  0.91330000  1.0 0.2213315237
H  H166  1  0.53270000  0.97040000  0.08670000  1.0 0.2213315237
H  H167  1  0.03270000  0.52960000  0.08670000  1.0 0.2213315237
H  H168  1  0.46730000  0.02960000  0.91330000  1.0 0.2213315237
H  H169  1  0.91780000  0.48740000  0.86010000  1.0 0.0895544935
H  H170  1  0.58220000  0.98740000  0.13990000  1.0 0.0895544935
H  H171  1  0.08220000  0.51260000  0.13990000  1.0 0.0895544935
H  H172  1  0.41780000  0.01260000  0.86010000  1.0 0.0895544935
H  H173  1  0.86140000  0.49610000  0.78590000  1.0 0.1016206946
H  H174  1  0.63860000  0.99610000  0.21410000  1.0 0.1016206946
H  H175  1  0.13860000  0.50390000  0.21410000  1.0 0.1016206946
H  H176  1  0.36140000  0.00390000  0.78590000  1.0 0.1016206946
H  H177  1  0.05460000  0.53220000  0.76190000  1.0 0.1108272623
H  H178  1  0.44540000  0.03220000  0.23810000  1.0 0.1108272623
H  H179  1  0.94540000  0.46780000  0.23810000  1.0 0.1108272623
H  H180  1  0.55460000  0.96780000  0.76190000  1.0 0.1108272623
H  H181  1  0.11100000  0.52350000  0.83610000  1.0 0.1295434258
H  H182  1  0.38900000  0.02350000  0.16390000  1.0 0.1295434258
H  H183  1  0.88900000  0.47650000  0.16390000  1.0 0.1295434258
H  H184  1  0.61100000  0.97650000  0.83610000  1.0 0.1295434258
H  H185  1  0.46590000  0.39620000  0.30480000  1.0 0.0895544935
H  H186  1  0.03410000  0.89620000  0.69520000  1.0 0.0895544935
H  H187  1  0.53410000  0.60380000  0.69520000  1.0 0.0895544935
H  H188  1  0.96590000  0.10380000  0.30480000  1.0 0.0895544935
H  H189  1  0.51030000  0.41280000  0.37960000  1.0 0.0809399785
H  H190  1  0.98970000  0.91280000  0.62040000  1.0 0.0809399785
H  H191  1  0.48970000  0.58720000  0.62040000  1.0 0.0809399785
H  H192  1  0.01030000  0.08720000  0.37960000  1.0 0.0809399785
H  H193  1  0.35170000  0.56150000  0.37790000  1.0 0.0895544935
H  H194  1  0.14830000  0.06150000  0.62210000  1.0 0.0895544935
H  H195  1  0.64830000  0.43850000  0.62210000  1.0 0.0895544935
H  H196  1  0.85170000  0.93850000  0.37790000  1.0 0.0895544935
H  H197  1  0.30720000  0.54500000  0.30310000  1.0 0.1108272623
H  H198  1  0.19280000  0.04500000  0.69690000  1.0 0.1108272623
H  H199  1  0.69280000  0.45500000  0.69690000  1.0 0.1108272623
H  H200  1  0.80720000  0.95500000  0.30310000  1.0 0.1108272623
C  C1  1  0.28640000  0.90690000  0.66490000  1.0 0.5467916447
C  C2  1  0.21360000  0.40690000  0.33510000  1.0 0.5467916447
C  C3  1  0.71360000  0.09310000  0.33510000  1.0 0.5467916447
C  C4  1  0.78640000  0.59310000  0.66490000  1.0 0.5467916447
C  C5  1  0.06340000  0.75950000  0.60350000  1.0 -0.1309446306
C  C6  1  0.43660000  0.25950000  0.39650000  1.0 -0.1309446306
C  C7  1  0.93660000  0.24050000  0.39650000  1.0 -0.1309446306
C  C8  1  0.56340000  0.74050000  0.60350000  1.0 -0.1309446306
C  C9  1  0.14170000  0.24830000  0.63270000  1.0 0.0809399785
C  C10  1  0.35830000  0.74830000  0.36730000  1.0 0.0809399785
C  C11  1  0.85830000  0.75170000  0.36730000  1.0 0.0809399785
C  C12  1  0.64170000  0.25170000  0.63270000  1.0 0.0809399785
C  C13  1  0.03920000  0.35260000  0.64380000  1.0 -0.0191380213
C  C14  1  0.46080000  0.85260000  0.35620000  1.0 -0.0191380213
C  C15  1  0.96080000  0.64740000  0.35620000  1.0 -0.0191380213
C  C16  1  0.53920000  0.14740000  0.64380000  1.0 -0.0191380213
C  C17  1  0.12130000  0.77780000  0.63880000  1.0 0.0809399785
C  C18  1  0.37870000  0.27780000  0.36120000  1.0 0.0809399785
C  C19  1  0.87870000  0.22220000  0.36120000  1.0 0.0809399785
C  C20  1  0.62130000  0.72220000  0.63880000  1.0 0.0809399785
C  C21  1  0.23920000  0.81130000  0.70970000  1.0 -0.149659772
C  C22  1  0.26080000  0.31130000  0.29030000  1.0 -0.149659772
C  C23  1  0.76080000  0.18870000  0.29030000  1.0 -0.149659772
C  C24  1  0.73920000  0.68870000  0.70970000  1.0 -0.149659772
C  C25  1  0.23220000  0.84580000  0.66930000  1.0 -0.0191380213
C  C26  1  0.26780000  0.34580000  0.33070000  1.0 -0.0191380213
C  C27  1  0.76780000  0.15420000  0.33070000  1.0 -0.0191380213
C  C28  1  0.73220000  0.65420000  0.66930000  1.0 -0.0191380213
C  C29  1  0.09220000  0.33310000  0.67870000  1.0 -0.1676506233
C  C30  1  0.40780000  0.83310000  0.32130000  1.0 -0.1676506233
C  C31  1  0.90780000  0.66690000  0.32130000  1.0 -0.1676506233
C  C32  1  0.59220000  0.16690000  0.67870000  1.0 -0.1676506233
C  C33  1  0.19040000  0.76180000  0.71410000  1.0 -0.149659772
C  C34  1  0.30960000  0.26180000  0.28590000  1.0 -0.149659772
C  C35  1  0.80960000  0.23820000  0.28590000  1.0 -0.149659772
C  C36  1  0.69040000  0.73820000  0.71410000  1.0 -0.149659772
C  C37  1  0.30050000  0.11050000  0.66060000  1.0 0.557816537
C  C38  1  0.19950000  0.61050000  0.33940000  1.0 0.557816537
C  C39  1  0.69950000  0.88950000  0.33940000  1.0 0.557816537
C  C40  1  0.80050000  0.38950000  0.66060000  1.0 0.557816537
C  C41  1  0.14620000  0.27990000  0.67530000  1.0 0.0895544935
C  C42  1  0.35380000  0.77990000  0.32470000  1.0 0.0895544935
C  C43  1  0.85380000  0.72010000  0.32470000  1.0 0.0895544935
C  C44  1  0.64620000  0.22010000  0.67530000  1.0 0.0895544935
C  C45  1  0.17260000  0.83160000  0.63410000  1.0 -0.1917384193
C  C46  1  0.32740000  0.33160000  0.36590000  1.0 -0.1917384193
C  C47  1  0.82740000  0.16840000  0.36590000  1.0 -0.1917384193
C  C48  1  0.67260000  0.66840000  0.63410000  1.0 -0.1917384193
C  C49  1  0.24710000  0.17160000  0.66400000  1.0 -0.0374704199
C  C50  1  0.25290000  0.67160000  0.33600000  1.0 -0.0374704199
C  C51  1  0.75290000  0.82840000  0.33600000  1.0 -0.0374704199
C  C52  1  0.74710000  0.32840000  0.66400000  1.0 -0.0374704199
C  C53  1  0.96830000  0.60780000  0.65070000  1.0 0.5938304755
C  C54  1  0.53170000  0.10780000  0.34930000  1.0 0.5938304755
C  C55  1  0.03170000  0.39220000  0.34930000  1.0 0.5938304755
C  C56  1  0.46830000  0.89220000  0.65070000  1.0 0.5938304755
C  C57  1  0.19450000  0.19590000  0.62950000  1.0 -0.1676506233
C  C58  1  0.30550000  0.69590000  0.37050000  1.0 -0.1676506233
C  C59  1  0.80550000  0.80410000  0.37050000  1.0 -0.1676506233
C  C60  1  0.69450000  0.30410000  0.62950000  1.0 -0.1676506233
C  C61  1  0.08550000  0.27100000  0.59650000  1.0 -0.1393938211
C  C62  1  0.41450000  0.77100000  0.40350000  1.0 -0.1393938211
C  C63  1  0.91450000  0.72900000  0.40350000  1.0 -0.1393938211
C  C64  1  0.58550000  0.22900000  0.59650000  1.0 -0.1393938211
C  C65  1  0.01510000  0.70470000  0.60640000  1.0 -0.1090079156
C  C66  1  0.48490000  0.20470000  0.39360000  1.0 -0.1090079156
C  C67  1  0.98490000  0.29530000  0.39360000  1.0 -0.1090079156
C  C68  1  0.51510000  0.79530000  0.60640000  1.0 -0.1090079156
C  C69  1  0.98080000  0.40780000  0.64700000  1.0 0.5938304755
C  C70  1  0.51920000  0.90780000  0.35300000  1.0 0.5938304755
C  C71  1  0.01920000  0.59220000  0.35300000  1.0 0.5938304755
C  C72  1  0.48080000  0.09220000  0.64700000  1.0 0.5938304755
C  C73  1  0.02060000  0.66900000  0.64520000  1.0 -0.0131467053
C  C74  1  0.47940000  0.16900000  0.35480000  1.0 -0.0131467053
C  C75  1  0.97940000  0.33100000  0.35480000  1.0 -0.0131467053
C  C76  1  0.52060000  0.83100000  0.64520000  1.0 -0.0131467053
C  C77  1  0.07570000  0.68610000  0.68240000  1.0 -0.2024317664
C  C78  1  0.42430000  0.18610000  0.31760000  1.0 -0.2024317664
C  C79  1  0.92430000  0.31390000  0.31760000  1.0 -0.2024317664
C  C80  1  0.57570000  0.81390000  0.68240000  1.0 -0.2024317664
C  C81  1  0.03320000  0.32410000  0.59920000  1.0 -0.1189951468
C  C82  1  0.46680000  0.82410000  0.40080000  1.0 -0.1189951468
C  C83  1  0.96680000  0.67590000  0.40080000  1.0 -0.1189951468
C  C84  1  0.53320000  0.17590000  0.59920000  1.0 -0.1189951468
C  C85  1  0.20320000  0.25830000  0.71090000  1.0 -0.149659772
C  C86  1  0.29680000  0.75830000  0.28910000  1.0 -0.149659772
C  C87  1  0.79680000  0.74170000  0.28910000  1.0 -0.149659772
C  C88  1  0.70320000  0.24170000  0.71090000  1.0 -0.149659772
C  C89  1  0.25180000  0.20570000  0.70520000  1.0 -0.1309446306
C  C90  1  0.24820000  0.70570000  0.29480000  1.0 -0.1309446306
C  C91  1  0.74820000  0.79430000  0.29480000  1.0 -0.1309446306
C  C92  1  0.75180000  0.29430000  0.70520000  1.0 -0.1309446306
C  C93  1  0.12950000  0.74250000  0.67860000  1.0 0.0809399785
C  C94  1  0.37050000  0.24250000  0.32140000  1.0 0.0809399785
C  C95  1  0.87050000  0.25750000  0.32140000  1.0 0.0809399785
C  C96  1  0.62950000  0.75750000  0.67860000  1.0 0.0809399785
C  C97  1  0.48330000  0.47330000  0.35860000  1.0 0.0809399785
C  C98  1  0.01670000  0.97330000  0.64140000  1.0 0.0809399785
C  C99  1  0.51670000  0.52670000  0.64140000  1.0 0.0809399785
C  C100  1  0.98330000  0.02670000  0.35860000  1.0 0.0809399785
C  C101  1  0.36870000  0.51530000  0.36790000  1.0 0.1016206946
C  C102  1  0.13130000  0.01530000  0.63210000  1.0 0.1016206946
C  C103  1  0.63130000  0.48470000  0.63210000  1.0 0.1016206946
C  C104  1  0.86870000  0.98470000  0.36790000  1.0 0.1016206946
C  C105  1  0.33770000  0.50790000  0.32330000  1.0 -0.161890413
C  C106  1  0.16230000  0.00790000  0.67670000  1.0 -0.161890413
C  C107  1  0.66230000  0.49210000  0.67670000  1.0 -0.161890413
C  C108  1  0.83770000  0.99210000  0.32330000  1.0 -0.161890413
C  C109  1  0.37960000  0.48320000  0.29630000  1.0 -0.0525374394
C  C110  1  0.12040000  0.98320000  0.70370000  1.0 -0.0525374394
C  C111  1  0.62040000  0.51680000  0.70370000  1.0 -0.0525374394
C  C112  1  0.87960000  0.01680000  0.29630000  1.0 -0.0525374394
C  C113  1  0.45230000  0.46590000  0.31400000  1.0 -0.0191380213
C  C114  1  0.04770000  0.96590000  0.68600000  1.0 -0.0191380213
C  C115  1  0.54770000  0.53410000  0.68600000  1.0 -0.0191380213
C  C116  1  0.95230000  0.03410000  0.31400000  1.0 -0.0191380213
C  C117  1  0.34520000  0.47850000  0.24710000  1.0 0.3343910146
C  C118  1  0.15480000  0.97850000  0.75290000  1.0 0.3343910146
C  C119  1  0.65480000  0.52150000  0.75290000  1.0 0.3343910146
C  C120  1  0.84520000  0.02150000  0.24710000  1.0 0.3343910146
C  C121  1  0.19720000  0.44390000  0.07450000  1.0 0.0809399785
C  C122  1  0.30280000  0.94390000  0.92550000  1.0 0.0717667011
C  C123  1  0.80280000  0.55610000  0.92550000  1.0 0.0717667011
C  C124  1  0.69720000  0.05610000  0.07450000  1.0 0.0809399785
C  C125  1  0.28510000  0.43510000  0.96150000  1.0 -0.1917384193
C  C126  1  0.21490000  0.93510000  0.03850000  1.0 -0.1917384193
C  C127  1  0.71490000  0.56490000  0.03850000  1.0 -0.1917384193
C  C128  1  0.78510000  0.06490000  0.96150000  1.0 -0.1917384193
C  C129  1  0.32990000  0.44090000  0.00370000  1.0 -0.1676506233
C  C130  1  0.17010000  0.94090000  0.99630000  1.0 -0.1676506233
C  C131  1  0.67010000  0.55910000  0.99630000  1.0 -0.1676506233
C  C132  1  0.82990000  0.05910000  0.00370000  1.0 -0.1676506233
C  C133  1  0.29980000  0.44600000  0.03890000  1.0 0.0598162766
C  C134  1  0.20020000  0.94600000  0.96110000  1.0 0.0598162766
C  C135  1  0.70020000  0.55400000  0.96110000  1.0 0.0598162766
C  C136  1  0.79980000  0.05400000  0.03890000  1.0 0.0598162766
C  C137  1  0.22490000  0.44510000  0.03200000  1.0 0.0248945895
C  C138  1  0.27510000  0.94510000  0.96800000  1.0 0.029688135
C  C139  1  0.77510000  0.55490000  0.96800000  1.0 0.029688135
C  C140  1  0.72490000  0.05490000  0.03200000  1.0 0.029688135
C  C141  1  0.18010000  0.43930000  0.98970000  1.0 -0.149659772
C  C142  1  0.31990000  0.93930000  0.01030000  1.0 -0.149659772
C  C143  1  0.81990000  0.56070000  0.01030000  1.0 -0.149659772
C  C144  1  0.68010000  0.06070000  0.98970000  1.0 -0.149659772
C  C145  1  0.21020000  0.43420000  0.95450000  1.0 0.0476615097
C  C146  1  0.28980000  0.93420000  0.04550000  1.0 0.0476615097
C  C147  1  0.78980000  0.56580000  0.04550000  1.0 0.0476615097
C  C148  1  0.71020000  0.06580000  0.95450000  1.0 0.0476615097
C  C149  1  0.09900000  0.42900000  0.89700000  1.0 0.3022797796
C  C150  1  0.40100000  0.92900000  0.10300000  1.0 0.3022797796
C  C151  1  0.90100000  0.57100000  0.10300000  1.0 0.3022797796
C  C152  1  0.59900000  0.07100000  0.89700000  1.0 0.3022797796
C  C153  1  0.07190000  0.49710000  0.82800000  1.0 -0.0693961345
C  C154  1  0.42810000  0.99710000  0.17200000  1.0 -0.0693961345
C  C155  1  0.92810000  0.50290000  0.17200000  1.0 -0.0693961345
C  C156  1  0.57190000  0.00290000  0.82800000  1.0 -0.0693961345
C  C157  1  0.05550000  0.43290000  0.84830000  1.0 0.0598162766
C  C158  1  0.44450000  0.93290000  0.15170000  1.0 0.0598162766
C  C159  1  0.94450000  0.56710000  0.15170000  1.0 0.0598162766
C  C160  1  0.55550000  0.06710000  0.84830000  1.0 0.0598162766
C  C161  1  0.99340000  0.39180000  0.82900000  1.0 -0.2704107073
C  C162  1  0.50660000  0.89180000  0.17100000  1.0 -0.2704107073
C  C163  1  0.00660000  0.60820000  0.17100000  1.0 -0.2704107073
C  C164  1  0.49340000  0.10820000  0.82900000  1.0 -0.2704107073
C  C165  1  0.94780000  0.41500000  0.78930000  1.0 -0.0289019645
C  C166  1  0.55220000  0.91500000  0.21070000  1.0 -0.0374704199
C  C167  1  0.05220000  0.58500000  0.21070000  1.0 -0.0374704199
C  C168  1  0.44780000  0.08500000  0.78930000  1.0 -0.0374704199
C  C169  1  0.02630000  0.52020000  0.78830000  1.0 -0.0910219712
C  C170  1  0.47370000  0.02020000  0.21170000  1.0 -0.0910219712
C  C171  1  0.97370000  0.47980000  0.21170000  1.0 -0.0910219712
C  C172  1  0.52630000  0.97980000  0.78830000  1.0 -0.0910219712
C  C173  1  0.36980000  0.44020000  0.17420000  1.0 0.0895544935
C  C174  1  0.13020000  0.94020000  0.82580000  1.0 0.0809399785
C  C175  1  0.63020000  0.55980000  0.82580000  1.0 0.0809399785
C  C176  1  0.86980000  0.05980000  0.17420000  1.0 0.0895544935
C  C177  1  0.29760000  0.43900000  0.15010000  1.0 -0.149659772
C  C178  1  0.20240000  0.93900000  0.84990000  1.0 -0.149659772
C  C179  1  0.70240000  0.56100000  0.84990000  1.0 -0.149659772
C  C180  1  0.79760000  0.06100000  0.15010000  1.0 -0.149659772
C  C181  1  0.28000000  0.44210000  0.10480000  1.0 0.029688135
C  C182  1  0.22000000  0.94210000  0.89520000  1.0 0.029688135
C  C183  1  0.72000000  0.55790000  0.89520000  1.0 0.029688135
C  C184  1  0.78000000  0.05790000  0.10480000  1.0 0.029688135
C  C185  1  0.33480000  0.44640000  0.08350000  1.0 -0.0191380213
C  C186  1  0.16520000  0.94640000  0.91650000  1.0 -0.0191380213
C  C187  1  0.66520000  0.55360000  0.91650000  1.0 -0.0131467053
C  C188  1  0.83480000  0.05360000  0.08350000  1.0 -0.0131467053
C  C189  1  0.40700000  0.44750000  0.10760000  1.0 -0.149659772
C  C190  1  0.09300000  0.94750000  0.89240000  1.0 -0.149659772
C  C191  1  0.59300000  0.55250000  0.89240000  1.0 -0.149659772
C  C192  1  0.90700000  0.05250000  0.10760000  1.0 -0.149659772
C  C193  1  0.42450000  0.44440000  0.15290000  1.0 -0.2195339986
C  C194  1  0.07550000  0.94440000  0.84710000  1.0 -0.2195339986
C  C195  1  0.57550000  0.55560000  0.84710000  1.0 -0.2195339986
C  C196  1  0.92450000  0.05560000  0.15290000  1.0 -0.2195339986
C  C197  1  0.80200000  0.18150000  0.47630000  1.0 -0.149659772
C  C198  1  0.69800000  0.68150000  0.52370000  1.0 -0.149659772
C  C199  1  0.19800000  0.81850000  0.52370000  1.0 -0.149659772
C  C200  1  0.30200000  0.31850000  0.47630000  1.0 -0.149659772
C  C201  1  0.87960000  0.21960000  0.54410000  1.0 -0.1189951468
C  C202  1  0.62040000  0.71960000  0.45590000  1.0 -0.1189951468
C  C203  1  0.12040000  0.78040000  0.45590000  1.0 -0.1189951468
C  C204  1  0.37960000  0.28040000  0.54410000  1.0 -0.1189951468
C  C205  1  0.65330000  0.34920000  0.49030000  1.0 -0.0131467053
C  C206  1  0.84670000  0.84920000  0.50970000  1.0 -0.0131467053
C  C207  1  0.34670000  0.65080000  0.50970000  1.0 -0.0131467053
C  C208  1  0.15330000  0.15080000  0.49030000  1.0 -0.0131467053
C  C209  1  0.86500000  0.17050000  0.50750000  1.0 -0.0191380213
C  C210  1  0.63500000  0.67050000  0.49250000  1.0 -0.0191380213
C  C211  1  0.13500000  0.82950000  0.49250000  1.0 -0.0191380213
C  C212  1  0.36500000  0.32950000  0.50750000  1.0 -0.0191380213
C  C213  1  0.59960000  0.40770000  0.49530000  1.0 0.5667940695
C  C214  1  0.90040000  0.90770000  0.50470000  1.0 0.5667940695
C  C215  1  0.40040000  0.59230000  0.50470000  1.0 0.5667940695
C  C216  1  0.09960000  0.09230000  0.49530000  1.0 0.5667940695
C  C217  1  0.75180000  0.23740000  0.47870000  1.0 0.0895544935
C  C218  1  0.74820000  0.73740000  0.52130000  1.0 0.0895544935
C  C219  1  0.24820000  0.76260000  0.52130000  1.0 0.0895544935
C  C220  1  0.25180000  0.26260000  0.47870000  1.0 0.0895544935
C  C221  1  0.71710000  0.34010000  0.52080000  1.0 -0.161890413
C  C222  1  0.78290000  0.84010000  0.47920000  1.0 -0.161890413
C  C223  1  0.28290000  0.65990000  0.47920000  1.0 -0.161890413
C  C224  1  0.21710000  0.15990000  0.52080000  1.0 -0.161890413
C  C225  1  0.91590000  0.10980000  0.50440000  1.0 0.5667940695
C  C226  1  0.58410000  0.60980000  0.49560000  1.0 0.5667940695
C  C227  1  0.08410000  0.89020000  0.49560000  1.0 0.5667940695
C  C228  1  0.41590000  0.39020000  0.50440000  1.0 0.5667940695
C  C229  1  0.76910000  0.28700000  0.51680000  1.0 0.0895544935
C  C230  1  0.73090000  0.78700000  0.48320000  1.0 0.0895544935
C  C231  1  0.23090000  0.71300000  0.48320000  1.0 0.0895544935
C  C232  1  0.26910000  0.21300000  0.51680000  1.0 0.0895544935
C  C233  1  0.68620000  0.24780000  0.44620000  1.0 -0.149659772
C  C234  1  0.81380000  0.74780000  0.55380000  1.0 -0.149659772
C  C235  1  0.31380000  0.75220000  0.55380000  1.0 -0.149659772
C  C236  1  0.18620000  0.25220000  0.44620000  1.0 -0.149659772
C  C237  1  0.63760000  0.30200000  0.45090000  1.0 -0.1309446306
C  C238  1  0.86240000  0.80200000  0.54910000  1.0 -0.1309446306
C  C239  1  0.36240000  0.69800000  0.54910000  1.0 -0.1309446306
C  C240  1  0.13760000  0.19800000  0.45090000  1.0 -0.1309446306
C  C241  1  0.83610000  0.27660000  0.54820000  1.0 -0.1393938211
C  C242  1  0.66390000  0.77660000  0.45180000  1.0 -0.1393938211
C  C243  1  0.16390000  0.72340000  0.45180000  1.0 -0.1393938211
C  C244  1  0.33610000  0.22340000  0.54820000  1.0 -0.1393938211
C  C245  1  0.12450000  0.45060000  0.11380000  1.0 0.0447634737
C  C246  1  0.37550000  0.95060000  0.88620000  1.0 0.0476615097
C  C247  1  0.87550000  0.54940000  0.88620000  1.0 0.0447634737
C  C248  1  0.62450000  0.04940000  0.11380000  1.0 0.0476615097
C  C249  1  0.20500000  0.47220000  0.11940000  1.0 0.0476615097
C  C250  1  0.29500000  0.97220000  0.88060000  1.0 0.0476615097
C  C251  1  0.79500000  0.52780000  0.88060000  1.0 0.0476615097
C  C252  1  0.70500000  0.02780000  0.11940000  1.0 0.0476615097
C  C253  1  0.24730000  0.47530000  0.15600000  1.0 -0.161890413
C  C254  1  0.25270000  0.97530000  0.84400000  1.0 -0.161890413
C  C255  1  0.75270000  0.52470000  0.84400000  1.0 -0.161890413
C  C256  1  0.74730000  0.02470000  0.15600000  1.0 -0.161890413
C  C257  1  0.22820000  0.45570000  0.19410000  1.0 0.0598162766
C  C258  1  0.27180000  0.95570000  0.80590000  1.0 0.0598162766
C  C259  1  0.77180000  0.54430000  0.80590000  1.0 0.0598162766
C  C260  1  0.72820000  0.04430000  0.19410000  1.0 0.0598162766
C  C261  1  0.15750000  0.43350000  0.19190000  1.0 -0.2799687703
C  C262  1  0.34250000  0.93350000  0.80810000  1.0 -0.2799687703
C  C263  1  0.84250000  0.56650000  0.80810000  1.0 -0.2799687703
C  C264  1  0.65750000  0.06650000  0.19190000  1.0 -0.2799687703
C  C265  1  0.10560000  0.43100000  0.15160000  1.0 -0.1676506233
C  C266  1  0.39440000  0.93100000  0.84840000  1.0 -0.1676506233
C  C267  1  0.89440000  0.56900000  0.84840000  1.0 -0.1676506233
C  C268  1  0.60560000  0.06900000  0.15160000  1.0 -0.1676506233
C  C269  1  0.11440000  0.48510000  0.99920000  1.0 -0.210220039
C  C270  1  0.38560000  0.98510000  0.00080000  1.0 -0.210220039
C  C271  1  0.88560000  0.51490000  0.00080000  1.0 -0.210220039
C  C272  1  0.61440000  0.01490000  0.99920000  1.0 -0.210220039
C  C273  1  0.13500000  0.47690000  0.04430000  1.0 -0.0131467053
C  C274  1  0.36500000  0.97690000  0.95570000  1.0 -0.0131467053
C  C275  1  0.86500000  0.52310000  0.95570000  1.0 -0.0131467053
C  C276  1  0.63500000  0.02310000  0.04430000  1.0 -0.0131467053
C  C277  1  0.08300000  0.46290000  0.06670000  1.0 -0.0289019645
C  C278  1  0.41700000  0.96290000  0.93330000  1.0 -0.0289019645
C  C279  1  0.91700000  0.53710000  0.93330000  1.0 -0.0191380213
C  C280  1  0.58300000  0.03710000  0.06670000  1.0 -0.0289019645
C  C281  1  0.01030000  0.45730000  0.04390000  1.0 -0.0599525276
C  C282  1  0.48970000  0.95730000  0.95610000  1.0 -0.0599525276
C  C283  1  0.98970000  0.54270000  0.95610000  1.0 -0.0599525276
C  C284  1  0.51030000  0.04270000  0.04390000  1.0 -0.0599525276
C  C285  1  0.98960000  0.46550000  0.99880000  1.0 -0.1016322077
C  C286  1  0.51040000  0.96550000  0.00120000  1.0 -0.1016322077
C  C287  1  0.01040000  0.53450000  0.00120000  1.0 -0.1016322077
C  C288  1  0.48960000  0.03450000  0.99880000  1.0 -0.1016322077
C  C289  1  0.04170000  0.47940000  0.97640000  1.0 0.0895544935
C  C290  1  0.45830000  0.97940000  0.02360000  1.0 0.0895544935
C  C291  1  0.95830000  0.52060000  0.02360000  1.0 0.0895544935
C  C292  1  0.54170000  0.02060000  0.97640000  1.0 0.0895544935
C  C293  1  0.21670000  0.49190000  0.07250000  1.0 0.1556409355
C  C294  1  0.28330000  0.99190000  0.92750000  1.0 0.1556409355
C  C295  1  0.78330000  0.50810000  0.92750000  1.0 0.1556409355
C  C296  1  0.71670000  0.00810000  0.07250000  1.0 0.1556409355
C  C297  1  0.02000000  0.50460000  0.85540000  1.0 -0.0003941543
C  C298  1  0.48000000  0.00460000  0.14460000  1.0 0.00024784
C  C299  1  0.98000000  0.49540000  0.14460000  1.0 -0.0003941543
C  C300  1  0.52000000  0.99540000  0.85540000  1.0 -0.0003941543
C  C301  1  0.94530000  0.49640000  0.84040000  1.0 -0.1393938211
C  C302  1  0.55470000  0.99640000  0.15960000  1.0 -0.1393938211
C  C303  1  0.05470000  0.50360000  0.15960000  1.0 -0.1393938211
C  C304  1  0.44530000  0.00360000  0.84040000  1.0 -0.1393938211
C  C305  1  0.91150000  0.50160000  0.79600000  1.0 0.0139862699
C  C306  1  0.58850000  0.00160000  0.20400000  1.0 0.0139862699
C  C307  1  0.08850000  0.49840000  0.20400000  1.0 0.0139862699
C  C308  1  0.41150000  0.99840000  0.79600000  1.0 0.0139862699
C  C309  1  0.02720000  0.52320000  0.78160000  1.0 -0.1090079156
C  C310  1  0.47280000  0.02320000  0.21840000  1.0 -0.1090079156
C  C311  1  0.97280000  0.47680000  0.21840000  1.0 -0.1090079156
C  C312  1  0.52720000  0.97680000  0.78160000  1.0 -0.1090079156
C  C313  1  0.06100000  0.51800000  0.82600000  1.0 -0.0910219712
C  C314  1  0.43900000  0.01800000  0.17400000  1.0 -0.0910219712
C  C315  1  0.93900000  0.48200000  0.17400000  1.0 -0.0910219712
C  C316  1  0.56100000  0.98200000  0.82600000  1.0 -0.0910219712
C  C317  1  0.05300000  0.51790000  0.90600000  1.0 0.1788295004
C  C318  1  0.44700000  0.01790000  0.09400000  1.0 0.1788295004
C  C319  1  0.94700000  0.48210000  0.09400000  1.0 0.1788295004
C  C320  1  0.55300000  0.98210000  0.90600000  1.0 0.1788295004
C  C321  1  0.38210000  0.46900000  0.29650000  1.0 -0.0910219712
C  C322  1  0.11790000  0.96900000  0.70350000  1.0 -0.0910219712
C  C323  1  0.61790000  0.53100000  0.70350000  1.0 -0.0910219712
C  C324  1  0.88210000  0.03100000  0.29650000  1.0 -0.0910219712
C  C325  1  0.44300000  0.42940000  0.31940000  1.0 -0.0191380213
C  C326  1  0.05700000  0.92940000  0.68060000  1.0 -0.0191380213
C  C327  1  0.55700000  0.57060000  0.68060000  1.0 -0.0191380213
C  C328  1  0.94300000  0.07060000  0.31940000  1.0 -0.0131467053
C  C329  1  0.46960000  0.43930000  0.36420000  1.0 0.0809399785
C  C330  1  0.03040000  0.93930000  0.63580000  1.0 0.0809399785
C  C331  1  0.53040000  0.56070000  0.63580000  1.0 0.0809399785
C  C332  1  0.96960000  0.06070000  0.36420000  1.0 0.0809399785
C  C333  1  0.37460000  0.52840000  0.36320000  1.0 0.0717667011
C  C334  1  0.12540000  0.02840000  0.63680000  1.0 0.0717667011
C  C335  1  0.62540000  0.47160000  0.63680000  1.0 0.0717667011
C  C336  1  0.87460000  0.97160000  0.36320000  1.0 0.0717667011
C  C337  1  0.34790000  0.51850000  0.31840000  1.0 -0.1309446306
C  C338  1  0.15210000  0.01850000  0.68160000  1.0 -0.1309446306
C  C339  1  0.65210000  0.48150000  0.68160000  1.0 -0.1309446306
C  C340  1  0.84790000  0.98150000  0.31840000  1.0 -0.1309446306
N  N1  1  0.44140000  0.49790000  0.38560000  1.0 -0.2338114922
N  N2  1  0.05860000  0.99790000  0.61440000  1.0 -0.2338114922
N  N3  1  0.55860000  0.50210000  0.61440000  1.0 -0.2338114922
N  N4  1  0.94140000  0.00210000  0.38560000  1.0 -0.2338114922
N  N5  1  0.15300000  0.44960000  0.91240000  1.0 -0.210220039
N  N6  1  0.34700000  0.94960000  0.08760000  1.0 -0.210220039
N  N7  1  0.84700000  0.55040000  0.08760000  1.0 -0.210220039
N  N8  1  0.65300000  0.05040000  0.91240000  1.0 -0.210220039
N  N9  1  0.96420000  0.47920000  0.76900000  1.0 0.1913181748
N  N10  1  0.53580000  0.97920000  0.23100000  1.0 0.1913181748
N  N11  1  0.03580000  0.52080000  0.23100000  1.0 0.1913181748
N  N12  1  0.46420000  0.02080000  0.76900000  1.0 0.1913181748
N  N13  1  0.40000000  0.44700000  0.22810000  1.0 -0.2799687703
N  N14  1  0.10000000  0.94700000  0.77190000  1.0 -0.2799687703
N  N15  1  0.60000000  0.55300000  0.77190000  1.0 -0.2799687703
N  N16  1  0.90000000  0.05300000  0.22810000  1.0 -0.2799687703
N  N17  1  0.26890000  0.46020000  0.23580000  1.0 -0.1393938211
N  N18  1  0.23110000  0.96020000  0.76420000  1.0 -0.1393938211
N  N19  1  0.73110000  0.53980000  0.76420000  1.0 -0.1393938211
N  N20  1  0.76890000  0.03980000  0.23580000  1.0 -0.1393938211
N  N21  1  0.00990000  0.48620000  0.92650000  1.0 -0.1676506233
N  N22  1  0.49010000  0.98620000  0.07350000  1.0 -0.1676506233
N  N23  1  0.99010000  0.51380000  0.07350000  1.0 -0.1676506233
N  N24  1  0.50990000  0.01380000  0.92650000  1.0 -0.1676506233
N  N25  1  0.95250000  0.51500000  0.76660000  1.0 0.1108272623
N  N26  1  0.54750000  0.01500000  0.23340000  1.0 0.1108272623
N  N27  1  0.04750000  0.48500000  0.23340000  1.0 0.120797841
N  N28  1  0.45250000  0.98500000  0.76660000  1.0 0.1108272623
N  N29  1  0.43540000  0.48880000  0.38620000  1.0 -0.2195339986
N  N30  1  0.06460000  0.98880000  0.61380000  1.0 -0.2195339986
N  N31  1  0.56460000  0.51120000  0.61380000  1.0 -0.2195339986
N  N32  1  0.93540000  0.01120000  0.38620000  1.0 -0.2195339986
O  O1  1  0.60210000  0.42620000  0.53250000  1.0 -0.5017469098
O  O2  1  0.89790000  0.92620000  0.46750000  1.0 -0.5017469098
O  O3  1  0.39790000  0.57380000  0.46750000  1.0 -0.5017469098
O  O4  1  0.10210000  0.07380000  0.53250000  1.0 -0.5017469098
O  O5  1  0.91250000  0.08480000  0.46830000  1.0 -0.5017469098
O  O6  1  0.58750000  0.58480000  0.53170000  1.0 -0.5017469098
O  O7  1  0.08750000  0.91520000  0.53170000  1.0 -0.5017469098
O  O8  1  0.41250000  0.41520000  0.46830000  1.0 -0.5017469098
O  O9  1  0.92510000  0.58640000  0.61560000  1.0 -0.5439340236
O  O10  1  0.57490000  0.08640000  0.38440000  1.0 -0.5439340236
O  O11  1  0.07490000  0.41360000  0.38440000  1.0 -0.5439340236
O  O12  1  0.42510000  0.91360000  0.61560000  1.0 -0.5439340236
O  O13  1  0.28270000  0.92730000  0.62660000  1.0 -0.528795315
O  O14  1  0.21730000  0.42730000  0.37340000  1.0 -0.528795315
O  O15  1  0.71730000  0.07270000  0.37340000  1.0 -0.528795315
O  O16  1  0.78270000  0.57270000  0.62660000  1.0 -0.528795315
O  O17  1  0.32870000  0.92960000  0.69990000  1.0 -0.5773553234
O  O18  1  0.17130000  0.42960000  0.30010000  1.0 -0.5773553234
O  O19  1  0.67130000  0.07040000  0.30010000  1.0 -0.5773553234
O  O20  1  0.82870000  0.57040000  0.69990000  1.0 -0.5773553234
O  O21  1  0.29350000  0.08580000  0.62240000  1.0 -0.5439340236
O  O22  1  0.20650000  0.58580000  0.37760000  1.0 -0.5491963189
O  O23  1  0.70650000  0.91420000  0.37760000  1.0 -0.5439340236
O  O24  1  0.79350000  0.41420000  0.62240000  1.0 -0.5439340236
O  O25  1  0.97120000  0.58350000  0.68900000  1.0 -0.5773553234
O  O26  1  0.52880000  0.08350000  0.31100000  1.0 -0.5773553234
O  O27  1  0.02880000  0.41650000  0.31100000  1.0 -0.5773553234
O  O28  1  0.47120000  0.91650000  0.68900000  1.0 -0.5773553234
O  O29  1  0.34310000  0.08850000  0.69640000  1.0 -0.5695792716
O  O30  1  0.15690000  0.58850000  0.30360000  1.0 -0.5695792716
O  O31  1  0.65690000  0.91150000  0.30360000  1.0 -0.5695792716
O  O32  1  0.84310000  0.41150000  0.69640000  1.0 -0.5695792716
O  O33  1  0.98300000  0.42940000  0.68480000  1.0 -0.5439340236
O  O34  1  0.51700000  0.92940000  0.31520000  1.0 -0.5439340236
O  O35  1  0.01700000  0.57060000  0.31520000  1.0 -0.5439340236
O  O36  1  0.48300000  0.07060000  0.68480000  1.0 -0.5439340236
O  O37  1  0.13980000  0.44290000  0.08270000  1.0 -0.0599525276
O  O38  1  0.36020000  0.94290000  0.91730000  1.0 -0.0599525276
O  O39  1  0.86020000  0.55710000  0.91730000  1.0 -0.0599525276
O  O40  1  0.63980000  0.05710000  0.08270000  1.0 -0.0599525276
O  O41  1  0.06290000  0.39300000  0.91990000  1.0 -0.395705862
O  O42  1  0.43710000  0.89300000  0.08010000  1.0 -0.395705862
O  O43  1  0.93710000  0.60700000  0.08010000  1.0 -0.3931835574
O  O44  1  0.56290000  0.10700000  0.91990000  1.0 -0.3931835574
O  O45  1  0.27920000  0.49310000  0.23150000  1.0 -0.0599525276
O  O46  1  0.22080000  0.99310000  0.76850000  1.0 -0.0599525276
O  O47  1  0.72080000  0.50690000  0.76850000  1.0 -0.0599525276
O  O48  1  0.77920000  0.00690000  0.23150000  1.0 -0.0599525276
O  O49  1  0.55460000  0.42750000  0.45970000  1.0 -0.5439340236
O  O50  1  0.94540000  0.92750000  0.54030000  1.0 -0.5439340236
O  O51  1  0.44540000  0.57250000  0.54030000  1.0 -0.5439340236
O  O52  1  0.05460000  0.07250000  0.45970000  1.0 -0.5439340236
O  O53  1  0.95800000  0.08810000  0.53950000  1.0 -0.5171350073
O  O54  1  0.54200000  0.58810000  0.46050000  1.0 -0.5171350073
O  O55  1  0.04200000  0.91190000  0.46050000  1.0 -0.5171350073
O  O56  1  0.45800000  0.41190000  0.53950000  1.0 -0.5171350073
O  O57  1  0.93440000  0.43000000  0.61300000  1.0 -0.5491963189
O  O58  1  0.56560000  0.93000000  0.38700000  1.0 -0.5491963189
O  O59  1  0.06560000  0.57000000  0.38700000  1.0 -0.5491963189
O  O60  1  0.43440000  0.07000000  0.61300000  1.0 -0.5491963189
O  O61  1  0.38030000  0.45740000  0.22090000  1.0 -0.1393938211
O  O62  1  0.11970000  0.95740000  0.77910000  1.0 -0.1309446306
O  O63  1  0.61970000  0.54260000  0.77910000  1.0 -0.1393938211
O  O64  1  0.88030000  0.04260000  0.22090000  1.0 -0.1393938211
O  O65  1  0.26870000  0.50820000  0.06220000  1.0 -0.0374704199
O  O66  1  0.23130000  0.00820000  0.93780000  1.0 -0.0374704199
O  O67  1  0.73130000  0.49180000  0.93780000  1.0 -0.0374704199
O  O68  1  0.76870000  0.99180000  0.06220000  1.0 -0.0374704199
O  O69  1  0.11240000  0.55930000  0.91210000  1.0 -0.4919289109
O  O70  1  0.38760000  0.05930000  0.08790000  1.0 -0.4919289109
O  O71  1  0.88760000  0.44070000  0.08790000  1.0 -0.4919289109
O  O72  1  0.61240000  0.94070000  0.91210000  1.0 -0.4919289109
