# DDEC6 charges by PACMAN v1.1 (https://github.com/mtap-research/PACMAN-charge/)
data_HEYYET_FSR_pacman
_symmetry_space_group_name_H-M   'P 1'
_cell_length_a   19.21000000
_cell_length_b   17.76000000
_cell_length_c   32.28000000
_cell_angle_alpha   90.00000000
_cell_angle_beta   104.08000000
_cell_angle_gamma   90.00000000
_symmetry_Int_Tables_number   1
_chemical_formula_structural   Zn3H53C77(NO3)5
_chemical_formula_sum   'Zn12 H212 C308 N20 O60'
_cell_volume   10682.09242287
_cell_formula_units_Z   4
loop_
 _symmetry_equiv_pos_site_id
 _symmetry_equiv_pos_as_xyz
  1  'x, y, z'
loop_
 _atom_site_type_symbol
 _atom_site_label
 _atom_site_symmetry_multiplicity
 _atom_site_fract_x
 _atom_site_fract_y
 _atom_site_fract_z
 _atom_site_occupancy
 _atom_site_charge
Zn  Zn1  1  0.99015000  0.49893000  0.45317000  1.0 0.830887285
Zn  Zn2  1  0.50985000  0.99893000  0.54683000  1.0 0.830887285
Zn  Zn3  1  0.00985000  0.50107000  0.54683000  1.0 0.830887285
Zn  Zn4  1  0.49015000  0.00107000  0.45317000  1.0 0.830887285
Zn  Zn5  1  0.74369000  0.49882000  0.60871000  1.0 0.9044524402
Zn  Zn6  1  0.75631000  0.99882000  0.39129000  1.0 0.9044524402
Zn  Zn7  1  0.25631000  0.50118000  0.39129000  1.0 0.9044524402
Zn  Zn8  1  0.24369000  0.00118000  0.60871000  1.0 0.9044524402
Zn  Zn9  1  0.76168000  0.50124000  0.70237000  1.0 0.8409017296
Zn  Zn10  1  0.73832000  0.00124000  0.29763000  1.0 0.8409017296
Zn  Zn11  1  0.23832000  0.49876000  0.29763000  1.0 0.8409017296
Zn  Zn12  1  0.26168000  0.99876000  0.70237000  1.0 0.8409017296
H  H1  1  0.87340000  0.56190000  0.37990000  1.0 0.1195440709
H  H2  1  0.62660000  0.06190000  0.62010000  1.0 0.1195440709
H  H3  1  0.12660000  0.43810000  0.62010000  1.0 0.1195440709
H  H4  1  0.37340000  0.93810000  0.37990000  1.0 0.1195440709
H  H5  1  0.85280000  0.57460000  0.30610000  1.0 0.1195440709
H  H6  1  0.64720000  0.07460000  0.69390000  1.0 0.1195440709
H  H7  1  0.14720000  0.42540000  0.69390000  1.0 0.1195440709
H  H8  1  0.35280000  0.92540000  0.30610000  1.0 0.1195440709
H  H9  1  0.03690000  0.46310000  0.30880000  1.0 0.1295985015
H  H10  1  0.46310000  0.96310000  0.69120000  1.0 0.1295985015
H  H11  1  0.96310000  0.53690000  0.69120000  1.0 0.1295985015
H  H12  1  0.53690000  0.03690000  0.30880000  1.0 0.1295985015
H  H13  1  0.05750000  0.45040000  0.38260000  1.0 0.1102078175
H  H14  1  0.44250000  0.95040000  0.61740000  1.0 0.1102078175
H  H15  1  0.94250000  0.54960000  0.61740000  1.0 0.1102078175
H  H16  1  0.55750000  0.04960000  0.38260000  1.0 0.1102078175
H  H17  1  0.31190000  0.87030000  0.54540000  1.0 0.1295985015
H  H18  1  0.18810000  0.37030000  0.45460000  1.0 0.1295985015
H  H19  1  0.68810000  0.12970000  0.45460000  1.0 0.1295985015
H  H20  1  0.81190000  0.62970000  0.54540000  1.0 0.1295985015
H  H21  1  0.89540000  0.67740000  0.60130000  1.0 0.1195440709
H  H22  1  0.60460000  0.17740000  0.39870000  1.0 0.1195440709
H  H23  1  0.10460000  0.32260000  0.39870000  1.0 0.1195440709
H  H24  1  0.39540000  0.82260000  0.60130000  1.0 0.1195440709
H  H25  1  0.89340000  0.49710000  0.77140000  1.0 0.1195440709
H  H26  1  0.60660000  0.99710000  0.22860000  1.0 0.1195440709
H  H27  1  0.10660000  0.50290000  0.22860000  1.0 0.1195440709
H  H28  1  0.39340000  0.00290000  0.77140000  1.0 0.1195440709
H  H29  1  0.92800000  0.50500000  0.84560000  1.0 0.1295985015
H  H30  1  0.57200000  0.00500000  0.15440000  1.0 0.1295985015
H  H31  1  0.07200000  0.49500000  0.15440000  1.0 0.1295985015
H  H32  1  0.42800000  0.99500000  0.84560000  1.0 0.1295985015
H  H33  1  0.72090000  0.53190000  0.84910000  1.0 0.1102078175
H  H34  1  0.77910000  0.03190000  0.15090000  1.0 0.1102078175
H  H35  1  0.27910000  0.46810000  0.15090000  1.0 0.1102078175
H  H36  1  0.22090000  0.96810000  0.84910000  1.0 0.1102078175
H  H37  1  0.68630000  0.52400000  0.77490000  1.0 0.1195440709
H  H38  1  0.81370000  0.02400000  0.22510000  1.0 0.1195440709
H  H39  1  0.31370000  0.47600000  0.22510000  1.0 0.1195440709
H  H40  1  0.18630000  0.97600000  0.77490000  1.0 0.1195440709
H  H41  1  0.92260000  0.35230000  0.60750000  1.0 0.1295985015
H  H42  1  0.57740000  0.85230000  0.39250000  1.0 0.1295985015
H  H43  1  0.07740000  0.64770000  0.39250000  1.0 0.1295985015
H  H44  1  0.42260000  0.14770000  0.60750000  1.0 0.1295985015
H  H45  1  0.34820000  0.80950000  0.43250000  1.0 0.1102078175
H  H46  1  0.15180000  0.30950000  0.56750000  1.0 0.1102078175
H  H47  1  0.65180000  0.19050000  0.56750000  1.0 0.1102078175
H  H48  1  0.84820000  0.69050000  0.43250000  1.0 0.1102078175
H  H49  1  0.16630000  0.65170000  0.45150000  1.0 0.1295985015
H  H50  1  0.33370000  0.15170000  0.54850000  1.0 0.1295985015
H  H51  1  0.83370000  0.34830000  0.54850000  1.0 0.1295985015
H  H52  1  0.66630000  0.84830000  0.45150000  1.0 0.1295985015
H  H53  1  0.26010000  0.71840000  0.42420000  1.0 0.1195440709
H  H54  1  0.23990000  0.21840000  0.57580000  1.0 0.1195440709
H  H55  1  0.73990000  0.28160000  0.57580000  1.0 0.1195440709
H  H56  1  0.76010000  0.78160000  0.42420000  1.0 0.1195440709
H  H57  1  0.01080000  0.28110000  0.57760000  1.0 0.1295985015
H  H58  1  0.48920000  0.78110000  0.42240000  1.0 0.1295985015
H  H59  1  0.98920000  0.71890000  0.42240000  1.0 0.1295985015
H  H60  1  0.51080000  0.21890000  0.57760000  1.0 0.1295985015
H  H61  1  0.06870000  0.84310000  0.57850000  1.0 0.1195440709
H  H62  1  0.43130000  0.34310000  0.42150000  1.0 0.1195440709
H  H63  1  0.93130000  0.15690000  0.42150000  1.0 0.1195440709
H  H64  1  0.56870000  0.65690000  0.57850000  1.0 0.1195440709
H  H65  1  0.21270000  0.80840000  0.57110000  1.0 0.1295985015
H  H66  1  0.28730000  0.30840000  0.42890000  1.0 0.1295985015
H  H67  1  0.78730000  0.19160000  0.42890000  1.0 0.1295985015
H  H68  1  0.71270000  0.69160000  0.57110000  1.0 0.1295985015
H  H69  1  0.13070000  0.71340000  0.56470000  1.0 0.1195440709
H  H70  1  0.36930000  0.21340000  0.43530000  1.0 0.1195440709
H  H71  1  0.86930000  0.28660000  0.43530000  1.0 0.1195440709
H  H72  1  0.63070000  0.78660000  0.56470000  1.0 0.1195440709
H  H73  1  0.10030000  0.16690000  0.70960000  1.0 0.1195440709
H  H74  1  0.39970000  0.66690000  0.29040000  1.0 0.1195440709
H  H75  1  0.89970000  0.83310000  0.29040000  1.0 0.1195440709
H  H76  1  0.60030000  0.33310000  0.70960000  1.0 0.1195440709
H  H77  1  0.08370000  0.85040000  0.70520000  1.0 0.1295985015
H  H78  1  0.41630000  0.35040000  0.29480000  1.0 0.1295985015
H  H79  1  0.91630000  0.14960000  0.29480000  1.0 0.1295985015
H  H80  1  0.58370000  0.64960000  0.70520000  1.0 0.1295985015
H  H81  1  0.09840000  0.19180000  0.58480000  1.0 0.1102078175
H  H82  1  0.40160000  0.69180000  0.41520000  1.0 0.1102078175
H  H83  1  0.90160000  0.80820000  0.41520000  1.0 0.1102078175
H  H84  1  0.59840000  0.30820000  0.58480000  1.0 0.1102078175
H  H85  1  0.97850000  0.75710000  0.56990000  1.0 0.1195440709
H  H86  1  0.52150000  0.25710000  0.43010000  1.0 0.1195440709
H  H87  1  0.02150000  0.24290000  0.43010000  1.0 0.1195440709
H  H88  1  0.47850000  0.74290000  0.56990000  1.0 0.1195440709
H  H89  1  0.78430000  0.49330000  0.48640000  1.0 0.1397472852
H  H90  1  0.71570000  0.99330000  0.51360000  1.0 0.1397472852
H  H91  1  0.21570000  0.50670000  0.51360000  1.0 0.1397472852
H  H92  1  0.28430000  0.00670000  0.48640000  1.0 0.1397472852
H  H93  1  0.72060000  0.52750000  0.45070000  1.0 0.1397472852
H  H94  1  0.77940000  0.02750000  0.54930000  1.0 0.1397472852
H  H95  1  0.27940000  0.47250000  0.54930000  1.0 0.1397472852
H  H96  1  0.22060000  0.97250000  0.45070000  1.0 0.1397472852
H  H97  1  0.75720000  0.45110000  0.44220000  1.0 0.1397472852
H  H98  1  0.74280000  0.95110000  0.55780000  1.0 0.1397472852
H  H99  1  0.24280000  0.54890000  0.55780000  1.0 0.1397472852
H  H100  1  0.25720000  0.04890000  0.44220000  1.0 0.1397472852
H  H101  1  0.66090000  0.41600000  0.53300000  1.0 0.1102078175
H  H102  1  0.83910000  0.91600000  0.46700000  1.0 0.1102078175
H  H103  1  0.33910000  0.58400000  0.46700000  1.0 0.1102078175
H  H104  1  0.16090000  0.08400000  0.53300000  1.0 0.1102078175
H  H105  1  0.92580000  0.32870000  0.73240000  1.0 0.1195440709
H  H106  1  0.57420000  0.82870000  0.26760000  1.0 0.1195440709
H  H107  1  0.07420000  0.67130000  0.26760000  1.0 0.1195440709
H  H108  1  0.42580000  0.17130000  0.73240000  1.0 0.1195440709
H  H109  1  0.91060000  0.68460000  0.72730000  1.0 0.1295985015
H  H110  1  0.58940000  0.18460000  0.27270000  1.0 0.1295985015
H  H111  1  0.08940000  0.31540000  0.27270000  1.0 0.1295985015
H  H112  1  0.41060000  0.81540000  0.72730000  1.0 0.1295985015
H  H113  1  0.01660000  0.24430000  0.74140000  1.0 0.1195440709
H  H114  1  0.48340000  0.74430000  0.25860000  1.0 0.1195440709
H  H115  1  0.98340000  0.75570000  0.25860000  1.0 0.1195440709
H  H116  1  0.51660000  0.25570000  0.74140000  1.0 0.1195440709
H  H117  1  0.00140000  0.77130000  0.73640000  1.0 0.1195440709
H  H118  1  0.49860000  0.27130000  0.26360000  1.0 0.1195440709
H  H119  1  0.99860000  0.22870000  0.26360000  1.0 0.1195440709
H  H120  1  0.50140000  0.72870000  0.73640000  1.0 0.1195440709
H  H121  1  0.67200000  0.34080000  0.44990000  1.0 0.1295985015
H  H122  1  0.82800000  0.84080000  0.55010000  1.0 0.1295985015
H  H123  1  0.32800000  0.65920000  0.55010000  1.0 0.1295985015
H  H124  1  0.17200000  0.15920000  0.44990000  1.0 0.1295985015
H  H125  1  0.61920000  0.40580000  0.42830000  1.0 0.1397472852
H  H126  1  0.88080000  0.90580000  0.57170000  1.0 0.1397472852
H  H127  1  0.38080000  0.59420000  0.57170000  1.0 0.1397472852
H  H128  1  0.11920000  0.09420000  0.42830000  1.0 0.1397472852
H  H129  1  0.60840000  0.36590000  0.47020000  1.0 0.1295985015
H  H130  1  0.89160000  0.86590000  0.52980000  1.0 0.1295985015
H  H131  1  0.39160000  0.63410000  0.52980000  1.0 0.1295985015
H  H132  1  0.10840000  0.13410000  0.47020000  1.0 0.1295985015
H  H133  1  0.84450000  0.56550000  0.24360000  1.0 0.1295985015
H  H134  1  0.65550000  0.06550000  0.75640000  1.0 0.1295985015
H  H135  1  0.15550000  0.43450000  0.75640000  1.0 0.1295985015
H  H136  1  0.34450000  0.93450000  0.24360000  1.0 0.1295985015
H  H137  1  0.76260000  0.57850000  0.90590000  1.0 0.1195440709
H  H138  1  0.73740000  0.07850000  0.09410000  1.0 0.1195440709
H  H139  1  0.23740000  0.42150000  0.09410000  1.0 0.1195440709
H  H140  1  0.26260000  0.92150000  0.90590000  1.0 0.1195440709
H  H141  1  0.92510000  0.49620000  0.07690000  1.0 0.1001280998
H  H142  1  0.57490000  0.99620000  0.92310000  1.0 0.1001280998
H  H143  1  0.07490000  0.50380000  0.92310000  1.0 0.1001280998
H  H144  1  0.42510000  0.00380000  0.07690000  1.0 0.1001280998
H  H145  1  0.86460000  0.43580000  0.07750000  1.0 0.0610102405
H  H146  1  0.63540000  0.93580000  0.92250000  1.0 0.0610102405
H  H147  1  0.13540000  0.56420000  0.92250000  1.0 0.0610102405
H  H148  1  0.36460000  0.06420000  0.07750000  1.0 0.0610102405
H  H149  1  0.73460000  0.55820000  0.18510000  1.0 0.1001280998
H  H150  1  0.76540000  0.05820000  0.81490000  1.0 0.1001280998
H  H151  1  0.26540000  0.44180000  0.81490000  1.0 0.1001280998
H  H152  1  0.23460000  0.94180000  0.18510000  1.0 0.1001280998
H  H153  1  0.69740000  0.58810000  0.11280000  1.0 0.1102078175
H  H154  1  0.80260000  0.08810000  0.88720000  1.0 0.1102078175
H  H155  1  0.30260000  0.41190000  0.88720000  1.0 0.1102078175
H  H156  1  0.19740000  0.91190000  0.11280000  1.0 0.1102078175
H  H157  1  0.92640000  0.49060000  0.16820000  1.0 0.1102078175
H  H158  1  0.57360000  0.99060000  0.83180000  1.0 0.1102078175
H  H159  1  0.07360000  0.50940000  0.83180000  1.0 0.1102078175
H  H160  1  0.42640000  0.00940000  0.16820000  1.0 0.1102078175
H  H161  1  0.87270000  0.48340000  0.98880000  1.0 0.0794281741
H  H162  1  0.62730000  0.98340000  0.01120000  1.0 0.0794281741
H  H163  1  0.12730000  0.51660000  0.01120000  1.0 0.0794281741
H  H164  1  0.37270000  0.01660000  0.98880000  1.0 0.0794281741
H  H165  1  0.67880000  0.60050000  0.02530000  1.0 0.0909094652
H  H166  1  0.82120000  0.10050000  0.97470000  1.0 0.0909094652
H  H167  1  0.32120000  0.39950000  0.97470000  1.0 0.0909094652
H  H168  1  0.17880000  0.89950000  0.02530000  1.0 0.0909094652
H  H169  1  0.67810000  0.58230000  0.95370000  1.0 0.0909094652
H  H170  1  0.82190000  0.08230000  0.04630000  1.0 0.0909094652
H  H171  1  0.32190000  0.41770000  0.04630000  1.0 0.0909094652
H  H172  1  0.17810000  0.91770000  0.95370000  1.0 0.0909094652
H  H173  1  0.83170000  0.53460000  0.23990000  1.0 0.1295985015
H  H174  1  0.66830000  0.03460000  0.76010000  1.0 0.1295985015
H  H175  1  0.16830000  0.46540000  0.76010000  1.0 0.1295985015
H  H176  1  0.33170000  0.96540000  0.23990000  1.0 0.1295985015
H  H177  1  0.74560000  0.54570000  0.90820000  1.0 0.1195440709
H  H178  1  0.75440000  0.04570000  0.09180000  1.0 0.1195440709
H  H179  1  0.25440000  0.45430000  0.09180000  1.0 0.1195440709
H  H180  1  0.24560000  0.95430000  0.90820000  1.0 0.1195440709
H  H181  1  0.96540000  0.55520000  0.07880000  1.0 0.0794281741
H  H182  1  0.53460000  0.05520000  0.92120000  1.0 0.0794281741
H  H183  1  0.03460000  0.44480000  0.92120000  1.0 0.0794281741
H  H184  1  0.46540000  0.94480000  0.07880000  1.0 0.0794281741
H  H185  1  0.92420000  0.47810000  0.07860000  1.0 0.1195440709
H  H186  1  0.57580000  0.97810000  0.92140000  1.0 0.1195440709
H  H187  1  0.07580000  0.52190000  0.92140000  1.0 0.1195440709
H  H188  1  0.42420000  0.02190000  0.07860000  1.0 0.1195440709
H  H189  1  0.78160000  0.63630000  0.18460000  1.0 0.1001280998
H  H190  1  0.71840000  0.13630000  0.81540000  1.0 0.1001280998
H  H191  1  0.21840000  0.36370000  0.81540000  1.0 0.1001280998
H  H192  1  0.28160000  0.86370000  0.18460000  1.0 0.1001280998
H  H193  1  0.75680000  0.66580000  0.11210000  1.0 0.1102078175
H  H194  1  0.74320000  0.16580000  0.88790000  1.0 0.1102078175
H  H195  1  0.24320000  0.33420000  0.88790000  1.0 0.1102078175
H  H196  1  0.25680000  0.83420000  0.11210000  1.0 0.1102078175
H  H197  1  0.94840000  0.50760000  0.17200000  1.0 0.0909094652
H  H198  1  0.55160000  0.00760000  0.82800000  1.0 0.0909094652
H  H199  1  0.05160000  0.49240000  0.82800000  1.0 0.0909094652
H  H200  1  0.44840000  0.99240000  0.17200000  1.0 0.0909094652
H  H201  1  0.89910000  0.50540000  0.98860000  1.0 0.0706558388
H  H202  1  0.60090000  0.00540000  0.01140000  1.0 0.0706558388
H  H203  1  0.10090000  0.49460000  0.01140000  1.0 0.0706558388
H  H204  1  0.39910000  0.99460000  0.98860000  1.0 0.0706558388
H  H205  1  0.74250000  0.67410000  0.02940000  1.0 0.1001280998
H  H206  1  0.75750000  0.17410000  0.97060000  1.0 0.1001280998
H  H207  1  0.25750000  0.32590000  0.97060000  1.0 0.1001280998
H  H208  1  0.24250000  0.82590000  0.02940000  1.0 0.1001280998
H  H209  1  0.73470000  0.65260000  0.95720000  1.0 0.1001280998
H  H210  1  0.76530000  0.15260000  0.04280000  1.0 0.1001280998
H  H211  1  0.26530000  0.34740000  0.04280000  1.0 0.1001280998
H  H212  1  0.23470000  0.84740000  0.95720000  1.0 0.1001280998
C  C1  1  0.33790000  0.84880000  0.49004000  1.0 -0.0206392182
C  C2  1  0.16210000  0.34880000  0.50996000  1.0 -0.0206392182
C  C3  1  0.66210000  0.15120000  0.50996000  1.0 -0.0206392182
C  C4  1  0.83790000  0.65120000  0.49004000  1.0 -0.0206392182
C  C5  1  0.90640000  0.54190000  0.36560000  1.0 0.0909094652
C  C6  1  0.59360000  0.04190000  0.63440000  1.0 0.0909094652
C  C7  1  0.09360000  0.45810000  0.63440000  1.0 0.0909094652
C  C8  1  0.40640000  0.95810000  0.36560000  1.0 0.0909094652
C  C9  1  0.89410000  0.54950000  0.32150000  1.0 -0.2072309358
C  C10  1  0.60590000  0.04950000  0.67850000  1.0 -0.2072309358
C  C11  1  0.10590000  0.45050000  0.67850000  1.0 -0.2072309358
C  C12  1  0.39410000  0.95050000  0.32150000  1.0 -0.2072309358
C  C13  1  0.94280000  0.52010000  0.30031000  1.0 0.0233916649
C  C14  1  0.55720000  0.02010000  0.69969000  1.0 0.0233916649
C  C15  1  0.05720000  0.47990000  0.69969000  1.0 0.0233916649
C  C16  1  0.44280000  0.97990000  0.30031000  1.0 0.0233916649
C  C17  1  0.00390000  0.48300000  0.32310000  1.0 -0.1513220945
C  C18  1  0.49610000  0.98300000  0.67690000  1.0 -0.1513220945
C  C19  1  0.99610000  0.51700000  0.67690000  1.0 -0.1513220945
C  C20  1  0.50390000  0.01700000  0.32310000  1.0 -0.1513220945
C  C21  1  0.01620000  0.47550000  0.36720000  1.0 0.0794281741
C  C22  1  0.48380000  0.97550000  0.63280000  1.0 0.0794281741
C  C23  1  0.98380000  0.52450000  0.63280000  1.0 0.0794281741
C  C24  1  0.51620000  0.02450000  0.36720000  1.0 0.0794281741
C  C25  1  0.30030000  0.84010000  0.52079000  1.0 -0.1513220945
C  C26  1  0.19970000  0.34010000  0.47921000  1.0 -0.1513220945
C  C27  1  0.69970000  0.15990000  0.47921000  1.0 -0.1513220945
C  C28  1  0.80030000  0.65990000  0.52079000  1.0 -0.1513220945
C  C29  1  0.08710000  0.61030000  0.50377000  1.0 0.5693405354
C  C30  1  0.41290000  0.11030000  0.49623000  1.0 0.5693405354
C  C31  1  0.91290000  0.38970000  0.49623000  1.0 0.5693405354
C  C32  1  0.58710000  0.88970000  0.50377000  1.0 0.5693405354
C  C33  1  0.14040000  0.67350000  0.50740000  1.0 -0.0206392182
C  C34  1  0.35960000  0.17350000  0.49260000  1.0 -0.0206392182
C  C35  1  0.85960000  0.32650000  0.49260000  1.0 -0.0206392182
C  C36  1  0.64040000  0.82650000  0.50740000  1.0 -0.0206392182
C  C37  1  0.83940000  0.61050000  0.65820000  1.0 0.5693405354
C  C38  1  0.66060000  0.11050000  0.34180000  1.0 0.5693405354
C  C39  1  0.16060000  0.38950000  0.34180000  1.0 0.5693405354
C  C40  1  0.33940000  0.88950000  0.65820000  1.0 0.5693405354
C  C41  1  0.39750000  0.90590000  0.49573000  1.0 0.5693405354
C  C42  1  0.10250000  0.40590000  0.50427000  1.0 0.5693405354
C  C43  1  0.60250000  0.09410000  0.50427000  1.0 0.5693405354
C  C44  1  0.89750000  0.59410000  0.49573000  1.0 0.5693405354
C  C45  1  0.91770000  0.69650000  0.62847000  1.0 -0.1575639932
C  C46  1  0.58230000  0.19650000  0.37153000  1.0 -0.1575639932
C  C47  1  0.08230000  0.30350000  0.37153000  1.0 -0.1575639932
C  C48  1  0.41770000  0.80350000  0.62847000  1.0 -0.1575639932
C  C49  1  0.24470000  0.78690000  0.51619000  1.0 0.0706558388
C  C50  1  0.25530000  0.28690000  0.48381000  1.0 0.0706558388
C  C51  1  0.75530000  0.21310000  0.48381000  1.0 0.0706558388
C  C52  1  0.74470000  0.71310000  0.51619000  1.0 0.0706558388
C  C53  1  0.08580000  0.85430000  0.64320000  1.0 -0.0206392182
C  C54  1  0.41420000  0.35430000  0.35680000  1.0 -0.0206392182
C  C55  1  0.91420000  0.14570000  0.35680000  1.0 -0.0206392182
C  C56  1  0.58580000  0.64570000  0.64320000  1.0 -0.0206392182
C  C57  1  0.85860000  0.50410000  0.78710000  1.0 0.0794281741
C  C58  1  0.64140000  0.00410000  0.21290000  1.0 0.0794281741
C  C59  1  0.14140000  0.49590000  0.21290000  1.0 0.0794281741
C  C60  1  0.35860000  0.99590000  0.78710000  1.0 0.0794281741
C  C61  1  0.87920000  0.50880000  0.83130000  1.0 -0.1804192631
C  C62  1  0.62080000  0.00880000  0.16870000  1.0 -0.1804192631
C  C63  1  0.12080000  0.49120000  0.16870000  1.0 -0.1804192631
C  C64  1  0.37920000  0.99120000  0.83130000  1.0 -0.1804192631
C  C65  1  0.82780000  0.51920000  0.85454000  1.0 0.0341865429
C  C66  1  0.67220000  0.01920000  0.14546000  1.0 0.0341865429
C  C67  1  0.17220000  0.48080000  0.14546000  1.0 0.0341865429
C  C68  1  0.32780000  0.98080000  0.85454000  1.0 0.0341865429
C  C69  1  0.75570000  0.52490000  0.83340000  1.0 -0.1963423121
C  C70  1  0.74430000  0.02490000  0.16660000  1.0 -0.1948486595
C  C71  1  0.24430000  0.47510000  0.16660000  1.0 -0.1963423121
C  C72  1  0.25570000  0.97510000  0.83340000  1.0 -0.1963423121
C  C73  1  0.73510000  0.52020000  0.78920000  1.0 0.0909094652
C  C74  1  0.76490000  0.02020000  0.21080000  1.0 0.0909094652
C  C75  1  0.26490000  0.47980000  0.21080000  1.0 0.0909094652
C  C76  1  0.23510000  0.97980000  0.78920000  1.0 0.0909094652
C  C77  1  0.89550000  0.67210000  0.66270000  1.0 -0.0206392182
C  C78  1  0.60450000  0.17210000  0.33730000  1.0 -0.0206392182
C  C79  1  0.10450000  0.32790000  0.33730000  1.0 -0.0206392182
C  C80  1  0.39550000  0.82790000  0.66270000  1.0 -0.0206392182
C  C81  1  0.91530000  0.34930000  0.66850000  1.0 -0.0206392182
C  C82  1  0.58470000  0.84930000  0.33150000  1.0 -0.0206392182
C  C83  1  0.08470000  0.65070000  0.33150000  1.0 -0.0206392182
C  C84  1  0.41530000  0.15070000  0.66850000  1.0 -0.0206392182
C  C85  1  0.97350000  0.75000000  0.63218000  1.0 0.0794281741
C  C86  1  0.52650000  0.25000000  0.36782000  1.0 0.0794281741
C  C87  1  0.02650000  0.25000000  0.36782000  1.0 0.0794281741
C  C88  1  0.47350000  0.75000000  0.63218000  1.0 0.0794281741
C  C89  1  0.16390000  0.10910000  0.65230000  1.0 0.5873310537
C  C90  1  0.33610000  0.60910000  0.34770000  1.0 0.5873310537
C  C91  1  0.83610000  0.89090000  0.34770000  1.0 0.5873310537
C  C92  1  0.66390000  0.39090000  0.65230000  1.0 0.5873310537
C  C93  1  0.85610000  0.40540000  0.66350000  1.0 0.5693405354
C  C94  1  0.64390000  0.90540000  0.33650000  1.0 0.5693405354
C  C95  1  0.14390000  0.59460000  0.33650000  1.0 0.5693405354
C  C96  1  0.35610000  0.09460000  0.66350000  1.0 0.5693405354
C  C97  1  0.23020000  0.73990000  0.47940000  1.0 0.0706558388
C  C98  1  0.26980000  0.23990000  0.52060000  1.0 0.0706558388
C  C99  1  0.76980000  0.26010000  0.52060000  1.0 0.0706558388
C  C100  1  0.73020000  0.76010000  0.47940000  1.0 0.0706558388
C  C101  1  0.99920000  0.27790000  0.63851000  1.0 0.0706558388
C  C102  1  0.50080000  0.77790000  0.36149000  1.0 0.0706558388
C  C103  1  0.00080000  0.72210000  0.36149000  1.0 0.0706558388
C  C104  1  0.49920000  0.22210000  0.63851000  1.0 0.0706558388
C  C105  1  0.94230000  0.33030000  0.63430000  1.0 -0.1513220945
C  C106  1  0.55770000  0.83030000  0.36570000  1.0 -0.1513220945
C  C107  1  0.05770000  0.66970000  0.36570000  1.0 -0.1513220945
C  C108  1  0.44230000  0.16970000  0.63430000  1.0 -0.1513220945
C  C109  1  0.32250000  0.80320000  0.45350000  1.0 -0.1207666128
C  C110  1  0.17750000  0.30320000  0.54650000  1.0 -0.1281924823
C  C111  1  0.67750000  0.19680000  0.54650000  1.0 -0.1281924823
C  C112  1  0.82250000  0.69680000  0.45350000  1.0 -0.1207666128
C  C113  1  0.10710000  0.16880000  0.64820000  1.0 -0.0206392182
C  C114  1  0.39290000  0.66880000  0.35180000  1.0 -0.0206392182
C  C115  1  0.89290000  0.83120000  0.35180000  1.0 -0.0206392182
C  C116  1  0.60710000  0.33120000  0.64820000  1.0 -0.0206392182
C  C117  1  0.17690000  0.68300000  0.47571000  1.0 -0.1575639932
C  C118  1  0.32310000  0.18300000  0.52429000  1.0 -0.1575639932
C  C119  1  0.82310000  0.31700000  0.52429000  1.0 -0.1575639932
C  C120  1  0.67690000  0.81700000  0.47571000  1.0 -0.1575639932
C  C121  1  0.26980000  0.74930000  0.44850000  1.0 -0.1513220945
C  C122  1  0.23020000  0.24930000  0.55150000  1.0 -0.1513220945
C  C123  1  0.73020000  0.25070000  0.55150000  1.0 -0.1513220945
C  C124  1  0.76980000  0.75070000  0.44850000  1.0 -0.1513220945
C  C125  1  0.02810000  0.25750000  0.60420000  1.0 -0.1395797932
C  C126  1  0.47190000  0.75750000  0.39580000  1.0 -0.1395797932
C  C127  1  0.97190000  0.74250000  0.39580000  1.0 -0.1395797932
C  C128  1  0.52810000  0.24250000  0.60420000  1.0 -0.1395797932
C  C129  1  0.14810000  0.90780000  0.64930000  1.0 0.5873310537
C  C130  1  0.35190000  0.40780000  0.35070000  1.0 0.5873310537
C  C131  1  0.85190000  0.09220000  0.35070000  1.0 0.5873310537
C  C132  1  0.64810000  0.59220000  0.64930000  1.0 0.5873310537
C  C133  1  0.05310000  0.82640000  0.60240000  1.0 -0.1102270506
C  C134  1  0.44690000  0.32640000  0.39760000  1.0 -0.1102270506
C  C135  1  0.94690000  0.17360000  0.39760000  1.0 -0.1102270506
C  C136  1  0.55310000  0.67360000  0.60240000  1.0 -0.1102270506
C  C137  1  0.20480000  0.77630000  0.54724000  1.0 -0.1395797932
C  C138  1  0.29520000  0.27630000  0.45276000  1.0 -0.1395797932
C  C139  1  0.79520000  0.22370000  0.45276000  1.0 -0.1395797932
C  C140  1  0.70480000  0.72370000  0.54724000  1.0 -0.1395797932
C  C141  1  0.15530000  0.72050000  0.54317000  1.0 -0.1102270506
C  C142  1  0.34470000  0.22050000  0.45683000  1.0 -0.1102270506
C  C143  1  0.84470000  0.27950000  0.45683000  1.0 -0.1102270506
C  C144  1  0.65530000  0.77950000  0.54317000  1.0 -0.1102270506
C  C145  1  0.08090000  0.18940000  0.68290000  1.0 -0.1703169846
C  C146  1  0.41910000  0.68940000  0.31710000  1.0 -0.1703169846
C  C147  1  0.91910000  0.81060000  0.31710000  1.0 -0.1703169846
C  C148  1  0.58090000  0.31060000  0.68290000  1.0 -0.1703169846
C  C149  1  0.06210000  0.83080000  0.67810000  1.0 -0.1575639932
C  C150  1  0.43790000  0.33080000  0.32190000  1.0 -0.1575639932
C  C151  1  0.93790000  0.16920000  0.32190000  1.0 -0.1575639932
C  C152  1  0.56210000  0.66920000  0.67810000  1.0 -0.1575639932
C  C153  1  0.08020000  0.20460000  0.60830000  1.0 -0.1207666128
C  C154  1  0.41980000  0.70460000  0.39170000  1.0 -0.1207666128
C  C155  1  0.91980000  0.79540000  0.39170000  1.0 -0.1207666128
C  C156  1  0.58020000  0.29540000  0.60830000  1.0 -0.1207666128
C  C157  1  0.99930000  0.77570000  0.59730000  1.0 -0.1395797932
C  C158  1  0.50070000  0.27570000  0.40270000  1.0 -0.1395797932
C  C159  1  0.00070000  0.22430000  0.40270000  1.0 -0.1395797932
C  C160  1  0.49930000  0.72430000  0.59730000  1.0 -0.1395797932
C  C161  1  0.74260000  0.48130000  0.46360000  1.0 -0.3371761842
C  C162  1  0.75740000  0.98130000  0.53640000  1.0 -0.3371761842
C  C163  1  0.25740000  0.51870000  0.53640000  1.0 -0.3371761842
C  C164  1  0.24260000  0.01870000  0.46360000  1.0 -0.3371761842
C  C165  1  0.69130000  0.44710000  0.52170000  1.0 0.285733995
C  C166  1  0.80870000  0.94710000  0.47830000  1.0 0.2848839433
C  C167  1  0.30870000  0.55290000  0.47830000  1.0 0.2848839433
C  C168  1  0.19130000  0.05290000  0.52170000  1.0 0.2848839433
C  C169  1  0.94440000  0.31560000  0.70900000  1.0 -0.1102270506
C  C170  1  0.55560000  0.81560000  0.29100000  1.0 -0.1102270506
C  C171  1  0.05560000  0.68440000  0.29100000  1.0 -0.1102270506
C  C172  1  0.44440000  0.18440000  0.70900000  1.0 -0.1102270506
C  C173  1  0.02630000  0.24300000  0.67930000  1.0 0.0706558388
C  C174  1  0.47370000  0.74300000  0.32070000  1.0 0.0706558388
C  C175  1  0.97370000  0.75700000  0.32070000  1.0 0.0706558388
C  C176  1  0.52630000  0.25700000  0.67930000  1.0 0.0706558388
C  C177  1  0.00570000  0.77770000  0.67370000  1.0 0.0706558388
C  C178  1  0.49430000  0.27770000  0.32630000  1.0 0.0706558388
C  C179  1  0.99430000  0.22230000  0.32630000  1.0 0.0706558388
C  C180  1  0.50570000  0.72230000  0.67370000  1.0 0.0706558388
C  C181  1  0.92690000  0.70100000  0.70360000  1.0 -0.1102270506
C  C182  1  0.57310000  0.20100000  0.29640000  1.0 -0.1102270506
C  C183  1  0.07310000  0.29900000  0.29640000  1.0 -0.1102270506
C  C184  1  0.42690000  0.79900000  0.70360000  1.0 -0.1102270506
C  C185  1  0.99770000  0.26530000  0.71420000  1.0 -0.1575639932
C  C186  1  0.50230000  0.76530000  0.28580000  1.0 -0.1575639932
C  C187  1  0.00230000  0.73470000  0.28580000  1.0 -0.1575639932
C  C188  1  0.49770000  0.23470000  0.71420000  1.0 -0.1575639932
C  C189  1  0.93030000  0.52070000  0.25220000  1.0 0.3463947893
C  C190  1  0.56970000  0.02070000  0.74780000  1.0 0.3463947893
C  C191  1  0.06970000  0.47930000  0.74780000  1.0 0.342694384
C  C192  1  0.43030000  0.97930000  0.25220000  1.0 0.342694384
C  C193  1  0.98060000  0.75230000  0.70900000  1.0 -0.1513220945
C  C194  1  0.51940000  0.25230000  0.29100000  1.0 -0.1513220945
C  C195  1  0.01940000  0.24770000  0.29100000  1.0 -0.1513220945
C  C196  1  0.48060000  0.74770000  0.70900000  1.0 -0.1513220945
C  C197  1  0.64360000  0.38320000  0.45530000  1.0 -0.3504826977
C  C198  1  0.85640000  0.88320000  0.54470000  1.0 -0.3504826977
C  C199  1  0.35640000  0.61680000  0.54470000  1.0 -0.3504826977
C  C200  1  0.14360000  0.11680000  0.45530000  1.0 -0.3504826977
C  C201  1  0.83870000  0.51790000  0.90260000  1.0 0.369808671
C  C202  1  0.66130000  0.01790000  0.09740000  1.0 0.3622116418
C  C203  1  0.16130000  0.48210000  0.09740000  1.0 0.3622116418
C  C204  1  0.33870000  0.98210000  0.90260000  1.0 0.369808671
C  C205  1  0.87410000  0.48990000  0.07610000  1.0 -0.1513220945
C  C206  1  0.62590000  0.98990000  0.92390000  1.0 -0.1513220945
C  C207  1  0.12590000  0.51010000  0.92390000  1.0 -0.1513220945
C  C208  1  0.37410000  0.01010000  0.07610000  1.0 -0.1513220945
C  C209  1  0.83410000  0.52150000  0.18360000  1.0 0.0610102405
C  C210  1  0.66590000  0.02150000  0.81640000  1.0 0.0610102405
C  C211  1  0.16590000  0.47850000  0.81640000  1.0 0.0610102405
C  C212  1  0.33410000  0.97850000  0.18360000  1.0 0.0610102405
C  C213  1  0.76580000  0.55060000  0.16710000  1.0 -0.1703169846
C  C214  1  0.73420000  0.05060000  0.83290000  1.0 -0.1804192631
C  C215  1  0.23420000  0.44940000  0.83290000  1.0 -0.1804192631
C  C216  1  0.26580000  0.94940000  0.16710000  1.0 -0.1703169846
C  C217  1  0.74360000  0.56840000  0.12390000  1.0 -0.1102270506
C  C218  1  0.75640000  0.06840000  0.87610000  1.0 -0.1102270506
C  C219  1  0.25640000  0.43160000  0.87610000  1.0 -0.1102270506
C  C220  1  0.24360000  0.93160000  0.12390000  1.0 -0.1102270506
C  C221  1  0.78970000  0.55720000  0.09730000  1.0 0.0145050817
C  C222  1  0.71030000  0.05720000  0.90270000  1.0 0.0145050817
C  C223  1  0.21030000  0.44280000  0.90270000  1.0 0.0145050817
C  C224  1  0.28970000  0.94280000  0.09730000  1.0 0.0145050817
C  C225  1  0.85800000  0.52810000  0.11390000  1.0 0.0610102405
C  C226  1  0.64200000  0.02810000  0.88610000  1.0 0.0610102405
C  C227  1  0.14200000  0.47190000  0.88610000  1.0 0.0610102405
C  C228  1  0.35800000  0.97190000  0.11390000  1.0 0.0610102405
C  C229  1  0.88020000  0.51030000  0.15700000  1.0 -0.0544596715
C  C230  1  0.61980000  0.01030000  0.84300000  1.0 -0.0602167978
C  C231  1  0.11980000  0.48970000  0.84300000  1.0 -0.0602167978
C  C232  1  0.38020000  0.98970000  0.15700000  1.0 -0.0544596715
C  C233  1  0.77530000  0.53110000  0.96430000  1.0 0.0610102405
C  C234  1  0.72470000  0.03110000  0.03570000  1.0 0.0610102405
C  C235  1  0.22470000  0.46890000  0.03570000  1.0 0.0610102405
C  C236  1  0.27530000  0.96890000  0.96430000  1.0 0.0610102405
C  C237  1  0.83360000  0.50700000  0.99620000  1.0 -0.0602167978
C  C238  1  0.66640000  0.00700000  0.00380000  1.0 -0.0602167978
C  C239  1  0.16640000  0.49300000  0.00380000  1.0 -0.0602167978
C  C240  1  0.33360000  0.99300000  0.99620000  1.0 -0.0602167978
C  C241  1  0.83400000  0.51790000  0.03890000  1.0 0.0610102405
C  C242  1  0.66600000  0.01790000  0.96110000  1.0 0.0610102405
C  C243  1  0.16600000  0.48210000  0.96110000  1.0 0.0610102405
C  C244  1  0.33400000  0.98210000  0.03890000  1.0 0.0610102405
C  C245  1  0.77620000  0.55280000  0.04970000  1.0 -0.0206392182
C  C246  1  0.72380000  0.05280000  0.95030000  1.0 -0.0206392182
C  C247  1  0.22380000  0.44720000  0.95030000  1.0 -0.0206392182
C  C248  1  0.27620000  0.94720000  0.04970000  1.0 -0.0206392182
C  C249  1  0.71790000  0.57680000  0.01790000  1.0 -0.1281924823
C  C250  1  0.78210000  0.07680000  0.98210000  1.0 -0.1281924823
C  C251  1  0.28210000  0.42320000  0.98210000  1.0 -0.1281924823
C  C252  1  0.21790000  0.92320000  0.01790000  1.0 -0.1281924823
C  C253  1  0.71750000  0.56600000  0.97520000  1.0 -0.1575639932
C  C254  1  0.78250000  0.06600000  0.02480000  1.0 -0.1575639932
C  C255  1  0.28250000  0.43400000  0.02480000  1.0 -0.1575639932
C  C256  1  0.21750000  0.93400000  0.97520000  1.0 -0.1575639932
C  C257  1  0.91840000  0.53290000  0.07780000  1.0 -0.1804192631
C  C258  1  0.58160000  0.03290000  0.92220000  1.0 -0.1804192631
C  C259  1  0.08160000  0.46710000  0.92220000  1.0 -0.1804192631
C  C260  1  0.41840000  0.96710000  0.07780000  1.0 -0.1804192631
C  C261  1  0.86740000  0.56910000  0.18530000  1.0 0.0610102405
C  C262  1  0.63260000  0.06910000  0.81470000  1.0 0.0610102405
C  C263  1  0.13260000  0.43090000  0.81470000  1.0 0.0610102405
C  C264  1  0.36740000  0.93090000  0.18530000  1.0 0.0610102405
C  C265  1  0.81020000  0.61630000  0.16740000  1.0 -0.1207666128
C  C266  1  0.68980000  0.11630000  0.83260000  1.0 -0.1207666128
C  C267  1  0.18980000  0.38370000  0.83260000  1.0 -0.1207666128
C  C268  1  0.31020000  0.88370000  0.16740000  1.0 -0.1207666128
C  C269  1  0.79550000  0.63390000  0.12420000  1.0 -0.0602167978
C  C270  1  0.70450000  0.13390000  0.87580000  1.0 -0.0602167978
C  C271  1  0.20450000  0.36610000  0.87580000  1.0 -0.0602167978
C  C272  1  0.29550000  0.86610000  0.12420000  1.0 -0.0602167978
C  C273  1  0.83780000  0.60430000  0.09890000  1.0 -0.0275396906
C  C274  1  0.66220000  0.10430000  0.90110000  1.0 -0.0275396906
C  C275  1  0.16220000  0.39570000  0.90110000  1.0 -0.0275396906
C  C276  1  0.33780000  0.89570000  0.09890000  1.0 -0.0275396906
C  C277  1  0.89490000  0.55710000  0.11670000  1.0 0.0610102405
C  C278  1  0.60510000  0.05710000  0.88330000  1.0 0.0610102405
C  C279  1  0.10510000  0.44290000  0.88330000  1.0 0.0610102405
C  C280  1  0.39490000  0.94290000  0.11670000  1.0 0.0610102405
C  C281  1  0.90970000  0.53950000  0.16000000  1.0 -0.090704126
C  C282  1  0.59030000  0.03950000  0.84000000  1.0 -0.0987050171
C  C283  1  0.09030000  0.46050000  0.84000000  1.0 -0.0987050171
C  C284  1  0.40970000  0.96050000  0.16000000  1.0 -0.090704126
C  C285  1  0.81620000  0.57690000  0.96590000  1.0 0.0610102405
C  C286  1  0.68380000  0.07690000  0.03410000  1.0 0.0610102405
C  C287  1  0.18380000  0.42310000  0.03410000  1.0 0.0610102405
C  C288  1  0.31620000  0.92310000  0.96590000  1.0 0.0610102405
C  C289  1  0.86760000  0.53940000  0.99680000  1.0 -0.1207666128
C  C290  1  0.63240000  0.03940000  0.00320000  1.0 -0.1207666128
C  C291  1  0.13240000  0.46060000  0.00320000  1.0 -0.1207666128
C  C292  1  0.36760000  0.96060000  0.99680000  1.0 -0.1207666128
C  C293  1  0.87220000  0.55230000  0.03990000  1.0 0.0610102405
C  C294  1  0.62780000  0.05230000  0.96010000  1.0 0.0610102405
C  C295  1  0.12780000  0.44770000  0.96010000  1.0 0.0610102405
C  C296  1  0.37220000  0.94770000  0.03990000  1.0 0.0610102405
C  C297  1  0.82550000  0.60260000  0.05210000  1.0 -0.0275396906
C  C298  1  0.67450000  0.10260000  0.94790000  1.0 -0.0206392182
C  C299  1  0.17450000  0.39740000  0.94790000  1.0 -0.0275396906
C  C300  1  0.32550000  0.89740000  0.05210000  1.0 -0.0275396906
C  C301  1  0.77410000  0.64010000  0.02120000  1.0 -0.090704126
C  C302  1  0.72590000  0.14010000  0.97880000  1.0 -0.090704126
C  C303  1  0.22590000  0.35990000  0.97880000  1.0 -0.090704126
C  C304  1  0.27410000  0.85990000  0.02120000  1.0 -0.090704126
C  C305  1  0.76950000  0.62720000  0.97810000  1.0 -0.1102270506
C  C306  1  0.73050000  0.12720000  0.02190000  1.0 -0.0987050171
C  C307  1  0.23050000  0.37280000  0.02190000  1.0 -0.0987050171
C  C308  1  0.26950000  0.87280000  0.97810000  1.0 -0.1102270506
N  N1  1  0.96750000  0.50490000  0.38840000  1.0 -0.2486349224
N  N2  1  0.53250000  0.00490000  0.61160000  1.0 -0.2486349224
N  N3  1  0.03250000  0.49510000  0.61160000  1.0 -0.2486349224
N  N4  1  0.46750000  0.99510000  0.38840000  1.0 -0.2486349224
N  N5  1  0.69030000  0.43860000  0.48131000  1.0 0.0404931343
N  N6  1  0.80970000  0.93860000  0.51869000  1.0 0.0404931343
N  N7  1  0.30970000  0.56140000  0.51869000  1.0 0.0404931343
N  N8  1  0.19030000  0.06140000  0.48131000  1.0 0.0404931343
N  N9  1  0.78650000  0.50980000  0.76596000  1.0 -0.2389822184
N  N10  1  0.71350000  0.00980000  0.23404000  1.0 -0.2389822184
N  N11  1  0.21350000  0.49020000  0.23404000  1.0 -0.2389822184
N  N12  1  0.28650000  0.99020000  0.76596000  1.0 -0.2389822184
N  N13  1  0.87010000  0.53880000  0.23030000  1.0 -0.2700615479
N  N14  1  0.62990000  0.03880000  0.76970000  1.0 -0.2700615479
N  N15  1  0.12990000  0.46120000  0.76970000  1.0 -0.2700615479
N  N16  1  0.37010000  0.96120000  0.23030000  1.0 -0.2700615479
N  N17  1  0.79090000  0.54550000  0.92130000  1.0 -0.2700615479
N  N18  1  0.70910000  0.04550000  0.07870000  1.0 -0.2700615479
N  N19  1  0.20910000  0.45450000  0.07870000  1.0 -0.2700615479
N  N20  1  0.29090000  0.95450000  0.92130000  1.0 -0.2700615479
O  O1  1  0.42570000  0.92680000  0.53286000  1.0 -0.5195771931
O  O2  1  0.07430000  0.42680000  0.46714000  1.0 -0.5195771931
O  O3  1  0.57430000  0.07320000  0.46714000  1.0 -0.5195771931
O  O4  1  0.92570000  0.57320000  0.53286000  1.0 -0.5195771931
O  O5  1  0.07380000  0.58770000  0.53766000  1.0 -0.5403082598
O  O6  1  0.42620000  0.08770000  0.46234000  1.0 -0.5403082598
O  O7  1  0.92620000  0.41230000  0.46234000  1.0 -0.5403082598
O  O8  1  0.57380000  0.91230000  0.53766000  1.0 -0.5403082598
O  O9  1  0.81260000  0.58700000  0.62140000  1.0 -0.5315400316
O  O10  1  0.68740000  0.08700000  0.37860000  1.0 -0.5315400316
O  O11  1  0.18740000  0.41300000  0.37860000  1.0 -0.5315400316
O  O12  1  0.31260000  0.91300000  0.62140000  1.0 -0.5315400316
O  O13  1  0.06140000  0.58500000  0.46716000  1.0 -0.5195771931
O  O14  1  0.43860000  0.08500000  0.53284000  1.0 -0.5195771931
O  O15  1  0.93860000  0.41500000  0.53284000  1.0 -0.5195771931
O  O16  1  0.56140000  0.91500000  0.46716000  1.0 -0.5195771931
O  O17  1  0.41410000  0.92710000  0.46231000  1.0 -0.5529872953
O  O18  1  0.08590000  0.42710000  0.53769000  1.0 -0.5529872953
O  O19  1  0.58590000  0.07290000  0.53769000  1.0 -0.5529872953
O  O20  1  0.91410000  0.57290000  0.46231000  1.0 -0.5529872953
O  O21  1  0.82750000  0.42690000  0.62638000  1.0 -0.5315400316
O  O22  1  0.67250000  0.92690000  0.37362000  1.0 -0.5315400316
O  O23  1  0.17250000  0.57310000  0.37362000  1.0 -0.5315400316
O  O24  1  0.32750000  0.07310000  0.62638000  1.0 -0.5315400316
O  O25  1  0.17970000  0.08920000  0.61810000  1.0 -0.5703035026
O  O26  1  0.32030000  0.58920000  0.38190000  1.0 -0.5703035026
O  O27  1  0.82030000  0.91080000  0.38190000  1.0 -0.5703035026
O  O28  1  0.67970000  0.41080000  0.61810000  1.0 -0.5703035026
O  O29  1  0.16450000  0.93010000  0.61561000  1.0 -0.5529872953
O  O30  1  0.33550000  0.43010000  0.38439000  1.0 -0.5529872953
O  O31  1  0.83550000  0.06990000  0.38439000  1.0 -0.5529872953
O  O32  1  0.66450000  0.56990000  0.61561000  1.0 -0.5529872953
O  O33  1  0.82650000  0.58710000  0.69206000  1.0 -0.5403082598
O  O34  1  0.67350000  0.08710000  0.30794000  1.0 -0.5403082598
O  O35  1  0.17350000  0.41290000  0.30794000  1.0 -0.5403082598
O  O36  1  0.32650000  0.91290000  0.69206000  1.0 -0.5403082598
O  O37  1  0.72910000  0.49320000  0.54636000  1.0 -0.4389328687
O  O38  1  0.77090000  0.99320000  0.45364000  1.0 -0.4389328687
O  O39  1  0.27090000  0.50680000  0.45364000  1.0 -0.4389328687
O  O40  1  0.22910000  0.00680000  0.54636000  1.0 -0.4389328687
O  O41  1  0.18950000  0.08370000  0.68882000  1.0 -0.5315400316
O  O42  1  0.31050000  0.58370000  0.31118000  1.0 -0.5315400316
O  O43  1  0.81050000  0.91630000  0.31118000  1.0 -0.5315400316
O  O44  1  0.68950000  0.41630000  0.68882000  1.0 -0.5315400316
O  O45  1  0.83920000  0.42620000  0.69662000  1.0 -0.5403082598
O  O46  1  0.66080000  0.92620000  0.30338000  1.0 -0.5403082598
O  O47  1  0.16080000  0.57380000  0.30338000  1.0 -0.5403082598
O  O48  1  0.33920000  0.07380000  0.69662000  1.0 -0.5403082598
O  O49  1  0.17790000  0.92700000  0.68663000  1.0 -0.5315400316
O  O50  1  0.32210000  0.42700000  0.31337000  1.0 -0.5315400316
O  O51  1  0.82210000  0.07300000  0.31337000  1.0 -0.5315400316
O  O52  1  0.67790000  0.57300000  0.68663000  1.0 -0.5315400316
O  O53  1  0.98140000  0.50650000  0.23640000  1.0 -0.4186966001
O  O54  1  0.51860000  0.00650000  0.76360000  1.0 -0.4186966001
O  O55  1  0.01860000  0.49350000  0.76360000  1.0 -0.4186966001
O  O56  1  0.48140000  0.99350000  0.23640000  1.0 -0.4186966001
O  O57  1  0.90050000  0.50350000  0.92230000  1.0 -0.408642727
O  O58  1  0.59950000  0.00350000  0.07770000  1.0 -0.408642727
O  O59  1  0.09950000  0.49650000  0.07770000  1.0 -0.408642727
O  O60  1  0.40050000  0.99650000  0.92230000  1.0 -0.408642727
