# DDEC6 charges by PACMAN v1.1 (https://github.com/mtap-research/PACMAN-charge/)
data_HEZHUT_FSR_pacman
_symmetry_space_group_name_H-M   'P 1'
_cell_length_a   17.63120000
_cell_length_b   19.42320000
_cell_length_c   31.83900000
_cell_angle_alpha   104.94800000
_cell_angle_beta   103.58500000
_cell_angle_gamma   90.13100000
_symmetry_Int_Tables_number   1
_chemical_formula_structural   Zn6H93C132(NO3)10
_chemical_formula_sum   'Zn12 H186 C264 N20 O60'
_cell_volume   10216.73485451
_cell_formula_units_Z   2
loop_
 _symmetry_equiv_pos_site_id
 _symmetry_equiv_pos_as_xyz
  1  'x, y, z'
loop_
 _atom_site_type_symbol
 _atom_site_label
 _atom_site_symmetry_multiplicity
 _atom_site_fract_x
 _atom_site_fract_y
 _atom_site_fract_z
 _atom_site_occupancy
 _atom_site_charge
Zn  Zn1  1  0.98165000  0.48902000  0.95099000  1.0 0.8304198122
Zn  Zn2  1  0.01835000  0.51098000  0.04901000  1.0 0.8304198122
Zn  Zn3  1  0.94862000  0.74731000  0.88665000  1.0 0.8993413235
Zn  Zn4  1  0.05138000  0.25269000  0.11335000  1.0 0.8993413235
Zn  Zn5  1  0.45170000  0.24750000  0.88776000  1.0 0.8993413235
Zn  Zn6  1  0.54830000  0.75250000  0.11224000  1.0 0.8993413235
Zn  Zn7  1  0.90877000  0.72487000  0.78908000  1.0 0.8304198122
Zn  Zn8  1  0.09123000  0.27513000  0.21092000  1.0 0.8304198122
Zn  Zn9  1  0.52343000  0.01243000  0.04941000  1.0 0.8304198122
Zn  Zn10  1  0.47657000  0.98757000  0.95059000  1.0 0.8304198122
Zn  Zn11  1  0.40604000  0.22582000  0.78967000  1.0 0.8401890929
Zn  Zn12  1  0.59396000  0.77418000  0.21033000  1.0 0.8401890929
H  H1  1  0.74290000  0.48900000  0.92020000  1.0 0.120866472
H  H2  1  0.25710000  0.51100000  0.07980000  1.0 0.120866472
H  H3  1  0.64860000  0.39810000  0.91330000  1.0 0.1124943931
H  H4  1  0.35140000  0.60190000  0.08670000  1.0 0.1124943931
H  H5  1  0.77550000  0.89700000  0.91230000  1.0 0.1124943931
H  H6  1  0.22450000  0.10300000  0.08770000  1.0 0.1124943931
H  H7  1  0.72220000  0.71410000  0.07340000  1.0 0.1395149969
H  H8  1  0.27780000  0.28590000  0.92660000  1.0 0.1395149969
H  H9  1  0.13360000  0.59860000  0.89700000  1.0 0.120866472
H  H10  1  0.86640000  0.40140000  0.10300000  1.0 0.120866472
H  H11  1  0.20800000  0.01940000  0.92870000  1.0 0.120866472
H  H12  1  0.79200000  0.98060000  0.07130000  1.0 0.120866472
H  H13  1  0.89430000  0.31350000  0.04460000  1.0 0.1293772534
H  H14  1  0.10570000  0.68650000  0.95540000  1.0 0.1293772534
H  H15  1  0.57190000  0.33340000  0.96600000  1.0 0.1124943931
H  H16  1  0.42810000  0.66666667  0.03400000  1.0 0.1124943931
H  H17  1  0.64900000  0.81280000  0.04800000  1.0 0.1395149969
H  H18  1  0.35100000  0.18720000  0.95200000  1.0 0.1395149969
H  H19  1  0.82540000  0.66370000  0.94640000  1.0 0.120866472
H  H20  1  0.17460000  0.33630000  0.05360000  1.0 0.1293772534
H  H21  1  0.31110000  0.42850000  0.92110000  1.0 0.120866472
H  H22  1  0.68890000  0.57150000  0.07890000  1.0 0.120866472
H  H23  1  0.60030000  0.07080000  0.88880000  1.0 0.120866472
H  H24  1  0.39970000  0.92920000  0.11120000  1.0 0.120866472
H  H25  1  0.81050000  0.62660000  0.06380000  1.0 0.1124943931
H  H26  1  0.18950000  0.37340000  0.93620000  1.0 0.1124943931
H  H27  1  0.46940000  0.11900000  0.12180000  1.0 0.120866472
H  H28  1  0.53060000  0.88100000  0.87820000  1.0 0.120866472
H  H29  1  0.11940000  0.92430000  0.92000000  1.0 0.120866472
H  H30  1  0.88060000  0.07570000  0.08000000  1.0 0.120866472
H  H31  1  0.63020000  0.16090000  0.94670000  1.0 0.1293772534
H  H32  1  0.36980000  0.83910000  0.05330000  1.0 0.1293772534
H  H33  1  0.61890000  0.98050000  0.20320000  1.0 0.1395149969
H  H34  1  0.38110000  0.01950000  0.79680000  1.0 0.1395149969
H  H35  1  0.74610000  0.75850000  0.91960000  1.0 0.1293772534
H  H36  1  0.25390000  0.24150000  0.08040000  1.0 0.1293772534
H  H37  1  0.27420000  0.09490000  0.89530000  1.0 0.120866472
H  H38  1  0.72580000  0.90510000  0.10470000  1.0 0.120866472
H  H39  1  0.84580000  0.21950000  0.07350000  1.0 0.1293772534
H  H40  1  0.15420000  0.78050000  0.92650000  1.0 0.1293772534
H  H41  1  0.66500000  0.84910000  0.93000000  1.0 0.1124943931
H  H42  1  0.33500000  0.15090000  0.07000000  1.0 0.1124943931
H  H43  1  0.47940000  0.14540000  0.19710000  1.0 0.1293772534
H  H44  1  0.52060000  0.85460000  0.80290000  1.0 0.1293772534
H  H45  1  0.22860000  0.51950000  0.93030000  1.0 0.1293772534
H  H46  1  0.77140000  0.48050000  0.06970000  1.0 0.1293772534
H  H47  1  0.79540000  0.57440000  0.88720000  1.0 0.120866472
H  H48  1  0.20460000  0.42560000  0.11280000  1.0 0.120866472
H  H49  1  0.74830000  0.13330000  0.06620000  1.0 0.120866472
H  H50  1  0.25170000  0.86670000  0.93380000  1.0 0.120866472
H  H51  1  0.90360000  0.83950000  0.96350000  1.0 0.1124943931
H  H52  1  0.09640000  0.16050000  0.03650000  1.0 0.1124943931
H  H53  1  0.68250000  0.25260000  0.91500000  1.0 0.1293772534
H  H54  1  0.31750000  0.74740000  0.08500000  1.0 0.1293772534
H  H55  1  0.69060000  0.98780000  0.92050000  1.0 0.1293772534
H  H56  1  0.30940000  0.01220000  0.07950000  1.0 0.1293772534
H  H57  1  0.60380000  0.95830000  0.12700000  1.0 0.1124943931
H  H58  1  0.39620000  0.04170000  0.87300000  1.0 0.1124943931
H  H59  1  0.55920000  0.39450000  0.78250000  1.0 0.120866472
H  H60  1  0.44080000  0.60550000  0.21750000  1.0 0.120866472
H  H61  1  0.07340000  0.56930000  0.76230000  1.0 0.120866472
H  H62  1  0.92660000  0.43070000  0.23770000  1.0 0.120866472
H  H63  1  0.21400000  0.06760000  0.75820000  1.0 0.1293772534
H  H64  1  0.78600000  0.93240000  0.24180000  1.0 0.1293772534
H  H65  1  0.48740000  0.27420000  0.04280000  1.0 0.1395149969
H  H66  1  0.51260000  0.72580000  0.95720000  1.0 0.1395149969
H  H67  1  0.57310000  0.27450000  0.07390000  1.0 0.1395149969
H  H68  1  0.42690000  0.72550000  0.92610000  1.0 0.1395149969
H  H69  1  0.54450000  0.21390000  0.02770000  1.0 0.1395149969
H  H70  1  0.45550000  0.78610000  0.97230000  1.0 0.1395149969
H  H71  1  0.76800000  0.90500000  0.78600000  1.0 0.1293772534
H  H72  1  0.23200000  0.09500000  0.21400000  1.0 0.1293772534
H  H73  1  0.57470000  0.06810000  0.75850000  1.0 0.1293772534
H  H74  1  0.42530000  0.93190000  0.24150000  1.0 0.1293772534
H  H75  1  0.06240000  0.89650000  0.78410000  1.0 0.120866472
H  H76  1  0.93760000  0.10350000  0.21590000  1.0 0.120866472
H  H77  1  0.77920000  0.33740000  0.92240000  1.0 0.120866472
H  H78  1  0.22080000  0.66260000  0.07760000  1.0 0.120866472
H  H79  1  0.15640000  0.47620000  0.75350000  1.0 0.120866472
H  H80  1  0.84360000  0.52380000  0.24650000  1.0 0.120866472
H  H81  1  0.68760000  0.32220000  0.05180000  1.0 0.1293772534
H  H82  1  0.31240000  0.67780000  0.94820000  1.0 0.1293772534
H  H83  1  0.63660000  0.38240000  0.07430000  1.0 0.1395149969
H  H84  1  0.36340000  0.61760000  0.92570000  1.0 0.1395149969
H  H85  1  0.65860000  0.38450000  0.02860000  1.0 0.1293772534
H  H86  1  0.34140000  0.61550000  0.97140000  1.0 0.1293772534
H  H87  1  0.90940000  0.91380000  0.04020000  1.0 0.1293772534
H  H88  1  0.09060000  0.08620000  0.95980000  1.0 0.1293772534
H  H89  1  0.91880000  0.86900000  0.07660000  1.0 0.1466465363
H  H90  1  0.08120000  0.13100000  0.92340000  1.0 0.1466465363
H  H91  1  0.84420000  0.85250000  0.03480000  1.0 0.1293772534
H  H92  1  0.15580000  0.14750000  0.96520000  1.0 0.1293772534
H  H93  1  0.09950000  0.48060000  0.20210000  1.0 0.1395149969
H  H94  1  0.90050000  0.51940000  0.79790000  1.0 0.1395149969
H  H95  1  0.71270000  0.56770000  0.75660000  1.0 0.1293772534
H  H96  1  0.28730000  0.43230000  0.24340000  1.0 0.1293772534
H  H97  1  0.25120000  0.39710000  0.78650000  1.0 0.1293772534
H  H98  1  0.74880000  0.60290000  0.21350000  1.0 0.1293772534
H  H99  1  0.61630000  0.48260000  0.75040000  1.0 0.1124943931
H  H100  1  0.38370000  0.51740000  0.24960000  1.0 0.1124943931
H  H101  1  0.99250000  0.72230000  0.01930000  1.0 0.1395149969
H  H102  1  0.00750000  0.27770000  0.98070000  1.0 0.1395149969
H  H103  1  0.96240000  0.75710000  0.06320000  1.0 0.1395149969
H  H104  1  0.03760000  0.24290000  0.93680000  1.0 0.1395149969
H  H105  1  0.04060000  0.78980000  0.05640000  1.0 0.1395149969
H  H106  1  0.95940000  0.21020000  0.94360000  1.0 0.1395149969
H  H107  1  0.06620000  0.45010000  0.12530000  1.0 0.120866472
H  H108  1  0.93380000  0.54990000  0.87470000  1.0 0.120866472
H  H109  1  0.12860000  0.97350000  0.75040000  1.0 0.1124943931
H  H110  1  0.87140000  0.02650000  0.24960000  1.0 0.1124943931
H  H111  1  0.95410000  0.61420000  0.11760000  1.0 0.120866472
H  H112  1  0.04590000  0.38580000  0.88240000  1.0 0.120866472
H  H113  1  0.93100000  0.80100000  0.72500000  1.0 0.0812128839
H  H114  1  0.06900000  0.19900000  0.27500000  1.0 0.0812128839
H  H115  1  0.52270000  0.17420000  0.26510000  1.0 0.2777301307
H  H116  1  0.47730000  0.82580000  0.73490000  1.0 0.2777301307
H  H117  1  0.35980000  0.29570000  0.71500000  1.0 0.1293772534
H  H118  1  0.64020000  0.70430000  0.28500000  1.0 0.1293772534
H  H119  1  0.40670000  0.06890000  0.64090000  1.0 0.1466465363
H  H120  1  0.59330000  0.93110000  0.35910000  1.0 0.1466465363
H  H121  1  0.02070000  0.68230000  0.26410000  1.0 0.2777301307
H  H122  1  0.97930000  0.31770000  0.73590000  1.0 0.2777301307
H  H123  1  0.43300000  0.25200000  0.59330000  1.0 0.2656386431
H  H124  1  0.56700000  0.74800000  0.40670000  1.0 0.2656386431
H  H125  1  0.41360000  0.10150000  0.71510000  1.0 0.1293772534
H  H126  1  0.58640000  0.89850000  0.28490000  1.0 0.1293772534
H  H127  1  0.41360000  0.10380000  0.49800000  1.0 0.1395149969
H  H128  1  0.58640000  0.89620000  0.50200000  1.0 0.1395149969
H  H129  1  0.98600000  0.56820000  0.32930000  1.0 0.1395149969
H  H130  1  0.01400000  0.43180000  0.67070000  1.0 0.1466465363
H  H131  1  0.54780000  0.30410000  0.40770000  1.0 0.120866472
H  H132  1  0.45220000  0.69590000  0.59230000  1.0 0.120866472
H  H133  1  0.47940000  0.06550000  0.32810000  1.0 0.1395149969
H  H134  1  0.52060000  0.93450000  0.67190000  1.0 0.1395149969
H  H135  1  0.90750000  0.59890000  0.71210000  1.0 0.120866472
H  H136  1  0.09250000  0.40110000  0.28790000  1.0 0.120866472
H  H137  1  0.97540000  0.65110000  0.19700000  1.0 0.120866472
H  H138  1  0.02460000  0.34890000  0.80300000  1.0 0.120866472
H  H139  1  0.90010000  0.57500000  0.63370000  1.0 0.1466465363
H  H140  1  0.09990000  0.42500000  0.36630000  1.0 0.1466465363
H  H141  1  0.93120000  0.61990000  0.49880000  1.0 0.1466465363
H  H142  1  0.06880000  0.38010000  0.50120000  1.0 0.1466465363
H  H143  1  0.94620000  0.75930000  0.59640000  1.0 0.2777301307
H  H144  1  0.05380000  0.24070000  0.40360000  1.0 0.2777301307
H  H145  1  0.05310000  0.80930000  0.40710000  1.0 0.120866472
H  H146  1  0.94690000  0.19070000  0.59290000  1.0 0.120866472
H  H147  1  0.51910000  0.32380000  0.48880000  1.0 0.120866472
H  H148  1  0.48090000  0.67620000  0.51120000  1.0 0.120866472
H  H149  1  0.54290000  0.03370000  0.42960000  1.0 0.1293772534
H  H150  1  0.45710000  0.96630000  0.57040000  1.0 0.1293772534
H  H151  1  0.47100000  0.98900000  0.39160000  1.0 0.120866472
H  H152  1  0.52900000  0.01100000  0.60840000  1.0 0.120866472
H  H153  1  0.46610000  0.01130000  0.44290000  1.0 0.1293772534
H  H154  1  0.53390000  0.98870000  0.55710000  1.0 0.1293772534
H  H155  1  0.33940000  0.05050000  0.41060000  1.0 0.120866472
H  H156  1  0.66060000  0.94950000  0.58940000  1.0 0.120866472
H  H157  1  0.35730000  0.03620000  0.36210000  1.0 0.120866472
H  H158  1  0.64270000  0.96380000  0.63790000  1.0 0.1124943931
H  H159  1  0.33260000  0.11310000  0.38580000  1.0 0.1124943931
H  H160  1  0.66740000  0.88690000  0.61420000  1.0 0.1124943931
H  H161  1  0.05320000  0.77200000  0.33130000  1.0 0.120866472
H  H162  1  0.94680000  0.22800000  0.66870000  1.0 0.120866472
H  H163  1  0.89100000  0.78470000  0.64690000  1.0 0.1293772534
H  H164  1  0.10900000  0.21530000  0.35310000  1.0 0.1293772534
H  H165  1  0.06500000  0.56340000  0.41850000  1.0 0.1293772534
H  H166  1  0.93500000  0.43660000  0.58150000  1.0 0.1293772534
H  H167  1  0.99450000  0.50330000  0.40330000  1.0 0.1293772534
H  H168  1  0.00550000  0.49670000  0.59670000  1.0 0.1293772534
H  H169  1  0.02310000  0.54740000  0.45480000  1.0 0.1395149969
H  H170  1  0.97690000  0.45260000  0.54520000  1.0 0.1395149969
H  H171  1  0.37380000  0.27850000  0.64270000  1.0 0.1293772534
H  H172  1  0.62620000  0.72150000  0.35730000  1.0 0.1293772534
H  H173  1  0.55250000  0.26410000  0.33300000  1.0 0.1293772534
H  H174  1  0.44750000  0.73590000  0.66700000  1.0 0.1293772534
H  H175  1  0.02720000  0.83250000  0.49120000  1.0 0.1293772534
H  H176  1  0.97280000  0.16750000  0.50880000  1.0 0.1293772534
H  H177  1  0.00620000  0.81860000  0.55690000  1.0 0.1293772534
H  H178  1  0.99380000  0.18140000  0.44310000  1.0 0.1293772534
H  H179  1  0.48690000  0.31100000  0.55420000  1.0 0.120866472
H  H180  1  0.51310000  0.68900000  0.44580000  1.0 0.120866472
H  H181  1  0.85100000  0.56250000  0.41600000  1.0 0.1293772534
H  H182  1  0.14900000  0.43750000  0.58400000  1.0 0.1293772534
H  H183  1  0.87200000  0.53400000  0.36860000  1.0 0.120866472
H  H184  1  0.12800000  0.46600000  0.63140000  1.0 0.120866472
H  H185  1  0.84540000  0.61350000  0.38330000  1.0 0.120866472
H  H186  1  0.15460000  0.38650000  0.61670000  1.0 0.120866472
C  C1  1  0.70560000  0.47060000  0.89250000  1.0 -0.1482548336
C  C2  1  0.29440000  0.52940000  0.10750000  1.0 -0.1482548336
C  C3  1  0.65000000  0.41590000  0.88830000  1.0 -0.1205378374
C  C4  1  0.35000000  0.58410000  0.11170000  1.0 -0.1205378374
C  C5  1  0.79740000  0.24480000  0.01440000  1.0 0.0697947469
C  C6  1  0.20260000  0.75520000  0.98560000  1.0 0.0697947469
C  C7  1  0.18950000  0.01490000  0.86120000  1.0 0.0697947469
C  C8  1  0.81050000  0.98510000  0.13880000  1.0 0.0697947469
C  C9  1  0.75180000  0.91510000  0.88760000  1.0 -0.1205378374
C  C10  1  0.24820000  0.08490000  0.11240000  1.0 -0.1205378374
C  C11  1  0.82390000  0.63770000  0.82730000  1.0 0.5609217818
C  C12  1  0.17610000  0.36230000  0.17270000  1.0 0.5609217818
C  C13  1  0.71960000  0.74400000  0.01570000  1.0 0.0898449441
C  C14  1  0.28040000  0.25600000  0.98430000  1.0 0.0898449441
C  C15  1  0.74300000  0.70460000  0.04760000  1.0 -0.1482548336
C  C16  1  0.25700000  0.29540000  0.95240000  1.0 -0.1482548336
C  C17  1  0.70670000  0.49870000  0.85570000  1.0 0.0812128839
C  C18  1  0.29330000  0.50130000  0.14430000  1.0 0.0812128839
C  C19  1  0.13880000  0.57360000  0.86800000  1.0 -0.1482548336
C  C20  1  0.86120000  0.42640000  0.13200000  1.0 -0.1482548336
C  C21  1  0.72980000  0.22720000  0.97690000  1.0 0.0697947469
C  C22  1  0.27020000  0.77280000  0.02310000  1.0 0.0697947469
C  C23  1  0.17890000  0.99420000  0.89960000  1.0 -0.1482548336
C  C24  1  0.82110000  0.00580000  0.10040000  1.0 -0.1482548336
C  C25  1  0.85210000  0.29970000  0.01860000  1.0 -0.1579839949
C  C26  1  0.14790000  0.70030000  0.98140000  1.0 -0.1579839949
C  C27  1  0.61310000  0.08710000  0.00410000  1.0 0.5769383009
C  C28  1  0.38690000  0.91290000  0.99590000  1.0 0.5769383009
C  C29  1  0.54560000  0.30450000  0.97880000  1.0 0.2907921757
C  C30  1  0.45440000  0.69550000  0.02120000  1.0 0.2907921757
C  C31  1  0.57950000  0.08040000  0.82580000  1.0 -0.0392157338
C  C32  1  0.42050000  0.91960000  0.17420000  1.0 -0.0392157338
C  C33  1  0.82850000  0.63760000  0.00390000  1.0 -0.0392157338
C  C34  1  0.17150000  0.36240000  0.99610000  1.0 -0.0392157338
C  C35  1  0.59390000  0.90070000  0.99790000  1.0 0.5769383009
C  C36  1  0.40610000  0.09930000  0.00210000  1.0 0.5769383009
C  C37  1  0.75300000  0.73020000  0.97670000  1.0 0.0697947469
C  C38  1  0.24700000  0.26980000  0.02330000  1.0 0.0697947469
C  C39  1  0.66850000  0.80100000  0.02180000  1.0 -0.1579839949
C  C40  1  0.33150000  0.19900000  0.97820000  1.0 -0.1579839949
C  C41  1  0.80520000  0.67520000  0.97240000  1.0 -0.1482548336
C  C42  1  0.19480000  0.32480000  0.02760000  1.0 -0.1482548336
C  C43  1  0.28110000  0.44130000  0.89570000  1.0 -0.1205378374
C  C44  1  0.71890000  0.55870000  0.10430000  1.0 -0.1205378374
C  C45  1  0.61250000  0.05210000  0.86070000  1.0 -0.1579839949
C  C46  1  0.38750000  0.94790000  0.13930000  1.0 -0.1579839949
C  C47  1  0.76750000  0.88800000  0.84520000  1.0 -0.0186279862
C  C48  1  0.23250000  0.11200000  0.15480000  1.0 -0.0186279862
C  C49  1  0.79580000  0.65270000  0.04200000  1.0 -0.1205378374
C  C50  1  0.20420000  0.34730000  0.95800000  1.0 -0.1205378374
C  C51  1  0.66520000  0.99520000  0.85650000  1.0 0.0898449441
C  C52  1  0.33480000  0.00480000  0.14350000  1.0 0.0898449441
C  C53  1  0.59600000  0.38760000  0.84650000  1.0 -0.0392157338
C  C54  1  0.40400000  0.61240000  0.15350000  1.0 -0.0392157338
C  C55  1  0.50080000  0.09100000  0.13870000  1.0 0.1003005869
C  C56  1  0.49920000  0.90900000  0.86130000  1.0 0.1003005869
C  C57  1  0.12630000  0.93780000  0.89450000  1.0 -0.1325688016
C  C58  1  0.87370000  0.06220000  0.10550000  1.0 -0.1325688016
C  C59  1  0.67240000  0.17440000  0.97260000  1.0 -0.1686262403
C  C60  1  0.32760000  0.82560000  0.02740000  1.0 -0.1686262403
C  C61  1  0.58870000  0.01050000  0.18740000  1.0 -0.1325688016
C  C62  1  0.41130000  0.98950000  0.81260000  1.0 -0.1325688016
C  C63  1  0.72770000  0.76950000  0.94620000  1.0 -0.1415448617
C  C64  1  0.27230000  0.23050000  0.05380000  1.0 -0.1415448617
C  C65  1  0.24460000  0.07040000  0.86620000  1.0 -0.1686262403
C  C66  1  0.75540000  0.92960000  0.13380000  1.0 -0.1686262403
C  C67  1  0.33890000  0.33880000  0.84700000  1.0 0.5769383009
C  C68  1  0.66110000  0.66120000  0.15300000  1.0 0.5769383009
C  C69  1  0.80250000  0.20890000  0.04800000  1.0 -0.1415448617
C  C70  1  0.19750000  0.79110000  0.95200000  1.0 -0.1415448617
C  C71  1  0.67870000  0.82260000  0.95160000  1.0 -0.1325688016
C  C72  1  0.32130000  0.17740000  0.04840000  1.0 -0.1325688016
C  C73  1  0.50680000  0.10740000  0.18360000  1.0 -0.2022670133
C  C74  1  0.49320000  0.89260000  0.81640000  1.0 -0.2022670133
C  C75  1  0.67880000  0.14260000  0.00670000  1.0 -0.0104439525
C  C76  1  0.32120000  0.85740000  0.99330000  1.0 -0.0104439525
C  C77  1  0.23380000  0.49570000  0.90110000  1.0 -0.1482548336
C  C78  1  0.76620000  0.50430000  0.09890000  1.0 -0.1482548336
C  C79  1  0.14560000  0.97970000  0.81840000  1.0 0.0697947469
C  C80  1  0.85440000  0.02030000  0.18160000  1.0 0.0697947469
C  C81  1  0.75980000  0.55370000  0.85920000  1.0 -0.1579839949
C  C82  1  0.24020000  0.44630000  0.14080000  1.0 -0.1579839949
C  C83  1  0.65250000  0.46920000  0.81400000  1.0 0.0812128839
C  C84  1  0.34750000  0.53080000  0.18600000  1.0 0.0812128839
C  C85  1  0.74420000  0.15810000  0.04380000  1.0 -0.1205378374
C  C86  1  0.25580000  0.84190000  0.95620000  1.0 -0.1205378374
C  C87  1  0.09560000  0.59160000  0.83150000  1.0 -0.0186279862
C  C88  1  0.90440000  0.40840000  0.16850000  1.0 -0.0186279862
C  C89  1  0.93700000  0.80810000  0.97640000  1.0 0.2907921757
C  C90  1  0.06300000  0.19190000  0.02360000  1.0 0.2907921757
C  C91  1  0.52530000  0.13610000  0.83190000  1.0 0.5769383009
C  C92  1  0.47470000  0.86390000  0.16810000  1.0 0.5769383009
C  C93  1  0.72490000  0.26420000  0.94090000  1.0 -0.1482548336
C  C94  1  0.27510000  0.73580000  0.05910000  1.0 -0.1482548336
C  C95  1  0.64740000  0.83840000  0.99080000  1.0 -0.0104439525
C  C96  1  0.35260000  0.16160000  0.00920000  1.0 -0.0104439525
C  C97  1  0.70130000  0.96840000  0.89200000  1.0 -0.1482548336
C  C98  1  0.29870000  0.03160000  0.10800000  1.0 -0.1482548336
C  C99  1  0.57930000  0.99740000  0.14200000  1.0 0.0697947469
C  C100  1  0.42070000  0.00260000  0.85800000  1.0 0.0697947469
C  C101  1  0.28660000  0.40290000  0.85170000  1.0 -0.0040086202
C  C102  1  0.71340000  0.59710000  0.14830000  1.0 -0.0040086202
C  C103  1  0.25660000  0.09030000  0.82870000  1.0 -0.0104439525
C  C104  1  0.74340000  0.90970000  0.17130000  1.0 -0.0104439525
C  C105  1  0.03570000  0.64630000  0.83550000  1.0 0.5769383009
C  C106  1  0.96430000  0.35370000  0.16450000  1.0 0.5769383009
C  C107  1  0.53690000  0.33080000  0.84270000  1.0 0.5987724002
C  C108  1  0.46310000  0.66920000  0.15730000  1.0 0.5987724002
C  C109  1  0.88670000  0.58370000  0.99900000  1.0 0.5711147721
C  C110  1  0.11330000  0.41630000  0.00100000  1.0 0.5711147721
C  C111  1  0.59640000  0.41360000  0.81020000  1.0 -0.1579839949
C  C112  1  0.40360000  0.58640000  0.18980000  1.0 -0.1579839949
C  C113  1  0.64660000  0.99550000  0.77700000  1.0 -0.0713888918
C  C114  1  0.35340000  0.00450000  0.22300000  1.0 -0.0713888918
C  C115  1  0.84470000  0.33450000  0.98440000  1.0 -0.0186279862
C  C116  1  0.15530000  0.66550000  0.01560000  1.0 -0.0186279862
C  C117  1  0.08230000  0.89970000  0.85050000  1.0 -0.0331872449
C  C118  1  0.91770000  0.10030000  0.14950000  1.0 -0.0331872449
C  C119  1  0.76200000  0.57900000  0.82300000  1.0 -0.0186279862
C  C120  1  0.23800000  0.42100000  0.17700000  1.0 -0.0186279862
C  C121  1  0.10230000  0.55560000  0.78770000  1.0 -0.1205378374
C  C122  1  0.89770000  0.44440000  0.21230000  1.0 -0.1205378374
C  C123  1  0.19230000  0.51710000  0.86400000  1.0 0.0812128839
C  C124  1  0.80770000  0.48290000  0.13600000  1.0 0.0812128839
C  C125  1  0.20870000  0.05330000  0.78380000  1.0 -0.1087392484
C  C126  1  0.79130000  0.94670000  0.21620000  1.0 -0.1087392484
C  C127  1  0.54190000  0.26430000  0.04290000  1.0 -0.3259227042
C  C128  1  0.45810000  0.73570000  0.95710000  1.0 -0.3259227042
C  C129  1  0.73530000  0.91330000  0.80990000  1.0 -0.1482548336
C  C130  1  0.26470000  0.08670000  0.19010000  1.0 -0.1415448617
C  C131  1  0.02800000  0.83800000  0.84570000  1.0 0.5878906186
C  C132  1  0.97200000  0.16200000  0.15430000  1.0 0.5878906186
C  C133  1  0.55460000  0.06730000  0.21040000  1.0 0.0199822797
C  C134  1  0.44540000  0.93270000  0.78960000  1.0 0.0199822797
C  C135  1  0.59760000  0.04980000  0.78310000  1.0 -0.1415448617
C  C136  1  0.40240000  0.95020000  0.21690000  1.0 -0.1415448617
C  C137  1  0.68250000  0.96930000  0.81320000  1.0 0.05106651
C  C138  1  0.31750000  0.03070000  0.18680000  1.0 0.05106651
C  C139  1  0.09200000  0.92120000  0.81320000  1.0 -0.1686262403
C  C140  1  0.90800000  0.07880000  0.18680000  1.0 -0.1686262403
C  C141  1  0.78160000  0.31460000  0.94570000  1.0 -0.1205378374
C  C142  1  0.21840000  0.68540000  0.05430000  1.0 -0.1205378374
C  C143  1  0.19480000  0.47900000  0.81940000  1.0 0.0697947469
C  C144  1  0.80520000  0.52100000  0.18060000  1.0 0.0697947469
C  C145  1  0.31940000  0.14850000  0.83380000  1.0 0.5539970334
C  C146  1  0.68060000  0.85150000  0.16620000  1.0 0.5539970334
C  C147  1  0.55440000  0.07460000  0.25790000  1.0 0.4589463408
C  C148  1  0.44560000  0.92540000  0.74210000  1.0 0.4589463408
C  C149  1  0.90300000  0.39470000  0.98990000  1.0 0.5711147721
C  C150  1  0.09700000  0.60530000  0.01010000  1.0 0.5711147721
C  C151  1  0.15170000  0.50030000  0.78270000  1.0 -0.1579839949
C  C152  1  0.84830000  0.49970000  0.21730000  1.0 -0.1579839949
C  C153  1  0.82500000  0.82970000  0.84130000  1.0 0.5987724002
C  C154  1  0.17500000  0.17030000  0.15870000  1.0 0.5987724002
C  C155  1  0.64490000  0.35320000  0.04580000  1.0 -0.3565685217
C  C156  1  0.35510000  0.64680000  0.95420000  1.0 -0.3565685217
C  C157  1  0.90030000  0.86670000  0.04480000  1.0 -0.3565685217
C  C158  1  0.09970000  0.13330000  0.95520000  1.0 -0.3565685217
C  C159  1  0.06760000  0.50960000  0.18630000  1.0 -0.1482548336
C  C160  1  0.93240000  0.49040000  0.81370000  1.0 -0.1482548336
C  C161  1  0.70980000  0.55100000  0.78170000  1.0 -0.1087392484
C  C162  1  0.29020000  0.44900000  0.21830000  1.0 -0.1087392484
C  C163  1  0.24580000  0.42210000  0.81540000  1.0 -0.1579839949
C  C164  1  0.75420000  0.57790000  0.18460000  1.0 -0.1579839949
C  C165  1  0.65460000  0.49920000  0.77790000  1.0 -0.1482548336
C  C166  1  0.34540000  0.50080000  0.22210000  1.0 -0.1482548336
C  C167  1  0.98820000  0.76710000  0.04110000  1.0 -0.3190761273
C  C168  1  0.01180000  0.23290000  0.95890000  1.0 -0.3190761273
C  C169  1  0.05300000  0.49580000  0.14020000  1.0 0.0898449441
C  C170  1  0.94700000  0.50420000  0.85980000  1.0 0.0898449441
C  C171  1  0.15750000  0.99930000  0.77940000  1.0 -0.1482548336
C  C172  1  0.84250000  0.00070000  0.22060000  1.0 -0.1482548336
C  C173  1  0.39280000  0.17010000  0.63250000  1.0 -0.0040086202
C  C174  1  0.60720000  0.82990000  0.36750000  1.0 -0.0040086202
C  C175  1  0.98740000  0.58860000  0.13540000  1.0 0.059942891
C  C176  1  0.01260000  0.41140000  0.86460000  1.0 0.059942891
C  C177  1  0.40050000  0.15230000  0.58660000  1.0 0.4297917123
C  C178  1  0.59950000  0.84770000  0.41340000  1.0 0.4297917123
C  C179  1  0.88310000  0.75500000  0.70140000  1.0 0.1003005869
C  C180  1  0.11690000  0.24500000  0.29860000  1.0 0.1003005869
C  C181  1  0.37190000  0.24980000  0.69980000  1.0 0.059942891
C  C182  1  0.62810000  0.75020000  0.30020000  1.0 0.059942891
C  C183  1  0.45030000  0.09640000  0.41360000  1.0 0.1898380752
C  C184  1  0.54970000  0.90360000  0.58640000  1.0 0.1898380752
C  C185  1  0.40080000  0.11710000  0.65550000  1.0 -0.1482548336
C  C186  1  0.59920000  0.88290000  0.34450000  1.0 -0.1482548336
C  C187  1  0.04250000  0.58130000  0.25680000  1.0 0.4491741891
C  C188  1  0.95750000  0.41870000  0.74320000  1.0 0.4491741891
C  C189  1  0.39960000  0.13650000  0.69910000  1.0 0.0898449441
C  C190  1  0.60040000  0.86350000  0.30090000  1.0 0.0898449441
C  C191  1  0.43620000  0.14750000  0.49680000  1.0 -0.2422255044
C  C192  1  0.56380000  0.85250000  0.50320000  1.0 -0.2422255044
C  C193  1  0.03480000  0.56560000  0.20760000  1.0 0.0347849849
C  C194  1  0.96520000  0.43440000  0.79240000  1.0 0.0347849849
C  C195  1  0.99590000  0.61750000  0.34460000  1.0 -0.2272579361
C  C196  1  0.00410000  0.38250000  0.65540000  1.0 -0.2272579361
C  C197  1  0.53170000  0.25620000  0.39090000  1.0 -0.1205378374
C  C198  1  0.46830000  0.74380000  0.60910000  1.0 -0.1205378374
C  C199  1  0.49300000  0.11410000  0.34430000  1.0 -0.2022670133
C  C200  1  0.50700000  0.88590000  0.65570000  1.0 -0.2022670133
C  C201  1  0.89970000  0.63700000  0.69820000  1.0 0.1395149969
C  C202  1  0.10030000  0.36300000  0.30180000  1.0 0.1395149969
C  C203  1  0.45730000  0.15370000  0.45710000  1.0 0.05106651
C  C204  1  0.54270000  0.84630000  0.54290000  1.0 0.05106651
C  C205  1  0.96670000  0.66470000  0.46080000  1.0 0.0199822797
C  C206  1  0.03330000  0.33530000  0.53920000  1.0 0.0199822797
C  C207  1  0.99610000  0.60860000  0.18290000  1.0 -0.2022670133
C  C208  1  0.00390000  0.39140000  0.81710000  1.0 -0.2022670133
C  C209  1  0.00760000  0.71630000  0.40970000  1.0 0.05106651
C  C210  1  0.99240000  0.28370000  0.59030000  1.0 0.05106651
C  C211  1  0.89880000  0.62250000  0.65120000  1.0 -0.1482548336
C  C212  1  0.10120000  0.37750000  0.34880000  1.0 -0.1482548336
C  C213  1  0.48210000  0.13710000  0.38590000  1.0 0.0199822797
C  C214  1  0.51790000  0.86290000  0.61410000  1.0 0.0199822797
C  C215  1  0.95160000  0.66420000  0.49730000  1.0 -0.1904928699
C  C216  1  0.04840000  0.33580000  0.50270000  1.0 -0.1904928699
C  C217  1  0.03570000  0.76170000  0.39030000  1.0 -0.1415448617
C  C218  1  0.96430000  0.23830000  0.60970000  1.0 -0.1415448617
C  C219  1  0.49880000  0.27890000  0.48960000  1.0 -0.1482548336
C  C220  1  0.50120000  0.72110000  0.51040000  1.0 -0.1482548336
C  C221  1  0.48580000  0.02620000  0.42000000  1.0 -0.4710513417
C  C222  1  0.51420000  0.97380000  0.58000000  1.0 -0.4710513417
C  C223  1  0.36150000  0.07170000  0.39090000  1.0 -0.4405053769
C  C224  1  0.63850000  0.92830000  0.60910000  1.0 -0.4405053769
C  C225  1  0.03920000  0.73910000  0.34610000  1.0 -0.2022670133
C  C226  1  0.96080000  0.26090000  0.65390000  1.0 -0.2022670133
C  C227  1  0.49970000  0.20680000  0.41000000  1.0 -0.0104439525
C  C228  1  0.50030000  0.79320000  0.59000000  1.0 -0.0104439525
C  C229  1  0.89010000  0.74510000  0.65930000  1.0 -0.2022670133
C  C230  1  0.10990000  0.25490000  0.34070000  1.0 -0.2022670133
C  C231  1  0.01510000  0.55000000  0.42370000  1.0 -0.4853622977
C  C232  1  0.98490000  0.45000000  0.57630000  1.0 -0.4853622977
C  C233  1  0.44990000  0.20770000  0.53380000  1.0 0.215668575
C  C234  1  0.55010000  0.79230000  0.46620000  1.0 0.215668575
C  C235  1  0.52300000  0.15840000  0.32480000  1.0 0.215668575
C  C236  1  0.47700000  0.84160000  0.67520000  1.0 0.215668575
C  C237  1  0.37850000  0.24010000  0.65630000  1.0 -0.1904928699
C  C238  1  0.62150000  0.75990000  0.34370000  1.0 -0.1904928699
C  C239  1  0.99750000  0.72510000  0.45830000  1.0 -0.0186279862
C  C240  1  0.00250000  0.27490000  0.54170000  1.0 -0.0186279862
C  C241  1  0.95990000  0.71390000  0.53150000  1.0 0.1568071033
C  C242  1  0.04010000  0.28610000  0.46850000  1.0 0.1568071033
C  C243  1  0.98550000  0.64060000  0.38610000  1.0 0.0414342394
C  C244  1  0.01450000  0.35940000  0.61390000  1.0 0.0414342394
C  C245  1  0.48780000  0.22180000  0.45340000  1.0 0.0023772101
C  C246  1  0.51220000  0.77820000  0.54660000  1.0 0.0023772101
C  C247  1  0.02170000  0.66570000  0.32300000  1.0 0.2291305746
C  C248  1  0.97830000  0.33430000  0.67700000  1.0 0.2291305746
C  C249  1  0.53790000  0.23150000  0.34780000  1.0 -0.18395505
C  C250  1  0.46210000  0.76850000  0.65220000  1.0 -0.18395505
C  C251  1  0.00950000  0.78790000  0.49380000  1.0 -0.1325688016
C  C252  1  0.99050000  0.21210000  0.50620000  1.0 -0.1325688016
C  C253  1  0.95970000  0.60300000  0.41570000  1.0 0.1960531111
C  C254  1  0.04030000  0.39700000  0.58430000  1.0 0.1960531111
C  C255  1  0.99430000  0.78000000  0.53050000  1.0 -0.2157798772
C  C256  1  0.00570000  0.22000000  0.46950000  1.0 -0.2148829912
C  C257  1  0.47910000  0.27030000  0.52910000  1.0 -0.2022670133
C  C258  1  0.52090000  0.72970000  0.47090000  1.0 -0.2022670133
C  C259  1  0.91330000  0.66420000  0.58710000  1.0 0.4491741891
C  C260  1  0.08670000  0.33580000  0.41290000  1.0 0.4491741891
C  C261  1  0.89610000  0.67530000  0.63340000  1.0 0.0414342394
C  C262  1  0.10390000  0.32470000  0.36660000  1.0 0.0414342394
C  C263  1  0.87440000  0.57580000  0.39390000  1.0 -0.4511144598
C  C264  1  0.12560000  0.42420000  0.60610000  1.0 -0.4511144598
N  N1  1  0.57240000  0.30890000  0.01980000  1.0 0.05106651
N  N2  1  0.42760000  0.69110000  0.98020000  1.0 0.05106651
N  N3  1  0.94320000  0.81380000  0.01850000  1.0 0.0414342394
N  N4  1  0.05680000  0.18620000  0.98150000  1.0 0.0414342394
N  N5  1  0.53600000  0.03870000  0.11750000  1.0 -0.2022670133
N  N6  1  0.46400000  0.96130000  0.88250000  1.0 -0.2022670133
N  N7  1  0.38140000  0.19890000  0.72260000  1.0 -0.2022670133
N  N8  1  0.61860000  0.80110000  0.27740000  1.0 -0.2022670133
N  N9  1  0.89070000  0.69860000  0.72170000  1.0 -0.2022670133
N  N10  1  0.10930000  0.30140000  0.27830000  1.0 -0.2022670133
N  N11  1  0.02510000  0.53430000  0.11510000  1.0 -0.1904928699
N  N12  1  0.97490000  0.46570000  0.88490000  1.0 -0.1904928699
N  N13  1  0.53180000  0.14130000  0.27990000  1.0 -0.3819524114
N  N14  1  0.46820000  0.85870000  0.72010000  1.0 -0.3819524114
N  N15  1  0.02720000  0.64900000  0.27850000  1.0 -0.3683419589
N  N16  1  0.97280000  0.35100000  0.72150000  1.0 -0.3683419589
N  N17  1  0.42850000  0.20990000  0.57390000  1.0 -0.3540897732
N  N18  1  0.57150000  0.79010000  0.42610000  1.0 -0.3540897732
N  N19  1  0.93950000  0.71750000  0.57650000  1.0 -0.3565685217
N  N20  1  0.06050000  0.28250000  0.42350000  1.0 -0.3565685217
O  O1  1  0.55570000  0.91430000  0.96312000  1.0 -0.5518191421
O  O2  1  0.44430000  0.08570000  0.03688000  1.0 -0.5518191421
O  O3  1  0.51410000  0.16190000  0.87021000  1.0 -0.5329911177
O  O4  1  0.48590000  0.83810000  0.12979000  1.0 -0.5329911177
O  O5  1  0.85580000  0.81170000  0.87655000  1.0 -0.5740840499
O  O6  1  0.14420000  0.18830000  0.12345000  1.0 -0.5740840499
O  O7  1  0.59220000  0.93030000  0.03758000  1.0 -0.5101978843
O  O8  1  0.40780000  0.06970000  0.96242000  1.0 -0.5101978843
O  O9  1  0.03190000  0.67880000  0.87462000  1.0 -0.5329911177
O  O10  1  0.96810000  0.32120000  0.12538000  1.0 -0.5329911177
O  O11  1  0.60840000  0.07600000  0.04096000  1.0 -0.5404708648
O  O12  1  0.39160000  0.92400000  0.95904000  1.0 -0.5404708648
O  O13  1  0.48650000  0.26510000  0.95302000  1.0 -0.4511144598
O  O14  1  0.51350000  0.73490000  0.04698000  1.0 -0.4511144598
O  O15  1  0.86690000  0.66150000  0.86623000  1.0 -0.5518191421
O  O16  1  0.13310000  0.33850000  0.13377000  1.0 -0.5518191421
O  O17  1  0.89630000  0.55760000  0.96055000  1.0 -0.5196276371
O  O18  1  0.10370000  0.44240000  0.03945000  1.0 -0.5196276371
O  O19  1  0.56970000  0.05980000  0.96574000  1.0 -0.5404708648
O  O20  1  0.43030000  0.94020000  0.03426000  1.0 -0.5404708648
O  O21  1  0.96920000  0.76690000  0.95169000  1.0 -0.4055712436
O  O22  1  0.03080000  0.23310000  0.04831000  1.0 -0.4055712436
O  O23  1  0.01510000  0.82620000  0.88140000  1.0 -0.5590989951
O  O24  1  0.98490000  0.17380000  0.11860000  1.0 -0.5590989951
O  O25  1  0.38080000  0.32920000  0.88096000  1.0 -0.5101978843
O  O26  1  0.61920000  0.67080000  0.11904000  1.0 -0.5101978843
O  O27  1  0.82620000  0.65500000  0.79370000  1.0 -0.4998785321
O  O28  1  0.17380000  0.34500000  0.20630000  1.0 -0.4998785321
O  O29  1  0.33230000  0.30320000  0.80630000  1.0 -0.5518191421
O  O30  1  0.66770000  0.69680000  0.19370000  1.0 -0.5518191421
O  O31  1  0.49050000  0.15620000  0.79760000  1.0 -0.5590989951
O  O32  1  0.50950000  0.84380000  0.20240000  1.0 -0.5590989951
O  O33  1  0.48960000  0.30570000  0.80550000  1.0 -0.5404708648
O  O34  1  0.51040000  0.69430000  0.19450000  1.0 -0.5404708648
O  O35  1  0.35280000  0.18110000  0.87167000  1.0 -0.5101978843
O  O36  1  0.64720000  0.81890000  0.12833000  1.0 -0.5101978843
O  O37  1  0.33170000  0.15320000  0.79700000  1.0 -0.5404708648
O  O38  1  0.66830000  0.84680000  0.20300000  1.0 -0.5404708648
O  O39  1  0.94130000  0.42340000  0.02783000  1.0 -0.5101978843
O  O40  1  0.05870000  0.57660000  0.97217000  1.0 -0.5101978843
O  O41  1  0.92540000  0.57210000  0.03473000  1.0 -0.5518191421
O  O42  1  0.07460000  0.42790000  0.96527000  1.0 -0.5518191421
O  O43  1  0.53800000  0.30960000  0.87760000  1.0 -0.5751910274
O  O44  1  0.46200000  0.69040000  0.12240000  1.0 -0.5751910274
O  O45  1  0.83770000  0.80380000  0.80275000  1.0 -0.5404708648
O  O46  1  0.16230000  0.19620000  0.19725000  1.0 -0.5404708648
O  O47  1  0.91070000  0.40910000  0.95330000  1.0 -0.5518191421
O  O48  1  0.08930000  0.59090000  0.04670000  1.0 -0.5518191421
O  O49  1  0.99080000  0.65430000  0.80068000  1.0 -0.5518191421
O  O50  1  0.00920000  0.34570000  0.19932000  1.0 -0.5518191421
O  O51  1  0.99570000  0.80390000  0.80630000  1.0 -0.5404708648
O  O52  1  0.00430000  0.19610000  0.19370000  1.0 -0.5404708648
O  O53  1  0.57780000  0.03080000  0.27700000  1.0 -0.4168868427
O  O54  1  0.42220000  0.96920000  0.72300000  1.0 -0.4168868427
O  O55  1  0.06010000  0.53040000  0.27470000  1.0 -0.4710513417
O  O56  1  0.93990000  0.46960000  0.72530000  1.0 -0.4710513417
O  O57  1  0.38190000  0.09490000  0.56070000  1.0 -0.4168868427
O  O58  1  0.61810000  0.90510000  0.43930000  1.0 -0.4168868427
O  O59  1  0.89800000  0.60230000  0.56220000  1.0 -0.459967411
O  O60  1  0.10200000  0.39770000  0.43780000  1.0 -0.459967411
