# DDEC6 charges by PACMAN v1.1 (https://github.com/mtap-research/PACMAN-charge/)
data_HEZPIL01_ASR_pacman
_symmetry_space_group_name_H-M   'P 1'
_cell_length_a   8.44810000
_cell_length_b   10.46400000
_cell_length_c   17.14200000
_cell_angle_alpha   90.00000000
_cell_angle_beta   90.00000000
_cell_angle_gamma   90.00000000
_symmetry_Int_Tables_number   1
_chemical_formula_structural   V3P2(HO5)2
_chemical_formula_sum   'V12 P8 H8 O40'
_cell_volume   1515.36854321
_cell_formula_units_Z   4
loop_
 _symmetry_equiv_pos_site_id
 _symmetry_equiv_pos_as_xyz
  1  'x, y, z'
loop_
 _atom_site_type_symbol
 _atom_site_label
 _atom_site_symmetry_multiplicity
 _atom_site_fract_x
 _atom_site_fract_y
 _atom_site_fract_z
 _atom_site_occupancy
 _atom_site_charge
V  V1  1  0.22045000  0.85891000  0.43838000  1.0 1.6564423591
V  V2  1  0.27955000  0.35891000  0.43838000  1.0 1.6564423591
V  V3  1  0.22045000  0.85891000  0.06162000  1.0 1.6564423591
V  V4  1  0.72045000  0.64109000  0.93838000  1.0 1.6564423591
V  V5  1  0.77955000  0.14109000  0.56162000  1.0 1.6564423591
V  V6  1  0.72045000  0.64109000  0.56162000  1.0 1.6564423591
V  V7  1  0.77955000  0.14109000  0.93838000  1.0 1.6564423591
V  V8  1  0.27955000  0.35891000  0.06162000  1.0 1.6564423591
V  V9  1  0.32863000  0.71662000  0.25000000  1.0 1.568510289
V  V10  1  0.17137000  0.21662000  0.25000000  1.0 1.5644263774
V  V11  1  0.82863000  0.78338000  0.75000000  1.0 1.568510289
V  V12  1  0.67137000  0.28338000  0.75000000  1.0 1.568510289
P  P1  1  0.47438000  0.62872000  0.41284000  1.0 1.4195158332
P  P2  1  0.02562000  0.12872000  0.41284000  1.0 1.4195158332
P  P3  1  0.47438000  0.62872000  0.08716000  1.0 1.4195158332
P  P4  1  0.97438000  0.87128000  0.91284000  1.0 1.4195158332
P  P5  1  0.52562000  0.37128000  0.58716000  1.0 1.4195158332
P  P6  1  0.97438000  0.87128000  0.58716000  1.0 1.4195158332
P  P7  1  0.52562000  0.37128000  0.91284000  1.0 1.4195158332
P  P8  1  0.02562000  0.12872000  0.08716000  1.0 1.4195158332
H  H1  1  0.21900000  0.90100000  0.31000000  1.0 0.3923437819
H  H2  1  0.28100000  0.40100000  0.31000000  1.0 0.3923437819
H  H3  1  0.21900000  0.90100000  0.19000000  1.0 0.3923437819
H  H4  1  0.71900000  0.59900000  0.81000000  1.0 0.3923437819
H  H5  1  0.78100000  0.09900000  0.69000000  1.0 0.3923437819
H  H6  1  0.71900000  0.59900000  0.69000000  1.0 0.3923437819
H  H7  1  0.78100000  0.09900000  0.81000000  1.0 0.3923437819
H  H8  1  0.28100000  0.40100000  0.19000000  1.0 0.3923437819
O  O1  1  0.25430000  0.84236000  0.32603000  1.0 -0.8858414143
O  O2  1  0.24570000  0.34236000  0.32603000  1.0 -0.8849676698
O  O3  1  0.25430000  0.84236000  0.17397000  1.0 -0.8858414143
O  O4  1  0.75430000  0.65764000  0.82603000  1.0 -0.8849676698
O  O5  1  0.74570000  0.15764000  0.67397000  1.0 -0.8849676698
O  O6  1  0.75430000  0.65764000  0.67397000  1.0 -0.8849676698
O  O7  1  0.74570000  0.15764000  0.82603000  1.0 -0.8849676698
O  O8  1  0.24570000  0.34236000  0.17397000  1.0 -0.8849676698
O  O9  1  0.63259000  0.66278000  0.45293000  1.0 -0.8119697869
O  O10  1  0.86741000  0.16278000  0.45293000  1.0 -0.8119697869
O  O11  1  0.63259000  0.66278000  0.04707000  1.0 -0.8119697869
O  O12  1  0.13259000  0.83722000  0.95293000  1.0 -0.8119697869
O  O13  1  0.36741000  0.33722000  0.54707000  1.0 -0.8119697869
O  O14  1  0.13259000  0.83722000  0.54707000  1.0 -0.8119697869
O  O15  1  0.36741000  0.33722000  0.95293000  1.0 -0.8119697869
O  O16  1  0.86741000  0.16278000  0.04707000  1.0 -0.8119697869
O  O17  1  0.45157000  0.48260000  0.41388000  1.0 -0.8605442494
O  O18  1  0.04843000  0.98260000  0.41388000  1.0 -0.8605442494
O  O19  1  0.45157000  0.48260000  0.08612000  1.0 -0.8605442494
O  O20  1  0.95157000  0.01740000  0.91388000  1.0 -0.8605442494
O  O21  1  0.54843000  0.51740000  0.58612000  1.0 -0.8605442494
O  O22  1  0.95157000  0.01740000  0.58612000  1.0 -0.8605442494
O  O23  1  0.54843000  0.51740000  0.91388000  1.0 -0.8605442494
O  O24  1  0.04843000  0.98260000  0.08612000  1.0 -0.8605442494
O  O25  1  0.49053000  0.67482000  0.32784000  1.0 -0.8272633403
O  O26  1  0.00947000  0.17482000  0.32784000  1.0 -0.8272633403
O  O27  1  0.49053000  0.67482000  0.17216000  1.0 -0.8272633403
O  O28  1  0.99053000  0.82518000  0.82784000  1.0 -0.8272633403
O  O29  1  0.50947000  0.32518000  0.67216000  1.0 -0.8272633403
O  O30  1  0.99053000  0.82518000  0.67216000  1.0 -0.8272633403
O  O31  1  0.50947000  0.32518000  0.82784000  1.0 -0.8272633403
O  O32  1  0.00947000  0.17482000  0.17216000  1.0 -0.8248764724
O  O33  1  0.33579000  0.69461000  0.45521000  1.0 -0.8673815057
O  O34  1  0.16421000  0.19461000  0.45521000  1.0 -0.8673815057
O  O35  1  0.33579000  0.69461000  0.04479000  1.0 -0.8673815057
O  O36  1  0.83579000  0.80539000  0.95521000  1.0 -0.8673815057
O  O37  1  0.66421000  0.30539000  0.54479000  1.0 -0.8673815057
O  O38  1  0.83579000  0.80539000  0.54479000  1.0 -0.8673815057
O  O39  1  0.66421000  0.30539000  0.95521000  1.0 -0.8673815057
O  O40  1  0.16421000  0.19461000  0.04479000  1.0 -0.8673815057
