# DDEC6 charges by PACMAN v1.1 (https://github.com/mtap-research/PACMAN-charge/)
data_HIBPEQ_FSR_pacman
_symmetry_space_group_name_H-M   'P 1'
_cell_length_a   24.32300000
_cell_length_b   14.30800000
_cell_length_c   47.94240000
_cell_angle_alpha   90.00000000
_cell_angle_beta   116.20600000
_cell_angle_gamma   90.00000000
_symmetry_Int_Tables_number   1
_chemical_formula_structural   ZnPH38C30(NO2)2
_chemical_formula_sum   'Zn16 P16 H608 C480 N32 O64'
_cell_volume   14969.62699554
_cell_formula_units_Z   16
loop_
 _symmetry_equiv_pos_site_id
 _symmetry_equiv_pos_as_xyz
  1  'x, y, z'
loop_
 _atom_site_type_symbol
 _atom_site_label
 _atom_site_symmetry_multiplicity
 _atom_site_fract_x
 _atom_site_fract_y
 _atom_site_fract_z
 _atom_site_occupancy
 _atom_site_charge
Zn  Zn1  1  0.79918000  0.06981000  0.98760000  1.0 0.9733382876
Zn  Zn2  1  0.71778000  0.28357000  0.91771000  1.0 0.9853627647
Zn  Zn3  1  0.69906000  0.31074000  0.00121000  1.0 0.9733382876
Zn  Zn4  1  0.60527000  0.08526000  0.93639000  1.0 0.9733382876
Zn  Zn5  1  0.79918000  0.43019000  0.48760000  1.0 0.9733382876
Zn  Zn6  1  0.71778000  0.21643000  0.41771000  1.0 0.9853627647
Zn  Zn7  1  0.69906000  0.18926000  0.50121000  1.0 0.9733382876
Zn  Zn8  1  0.60527000  0.41474000  0.43639000  1.0 0.9733382876
Zn  Zn9  1  0.20082000  0.56981000  0.51240000  1.0 0.9733382876
Zn  Zn10  1  0.28222000  0.78357000  0.58229000  1.0 0.9853627647
Zn  Zn11  1  0.30094000  0.81074000  0.49879000  1.0 0.9733382876
Zn  Zn12  1  0.39473000  0.58526000  0.56361000  1.0 0.9733382876
Zn  Zn13  1  0.20082000  0.93019000  0.01240000  1.0 0.9733382876
Zn  Zn14  1  0.28222000  0.71643000  0.08229000  1.0 0.9853627647
Zn  Zn15  1  0.30094000  0.68926000  0.99879000  1.0 0.9733382876
Zn  Zn16  1  0.39473000  0.91474000  0.06361000  1.0 0.9733382876
P  P1  1  0.71324000  0.06310000  0.91542000  1.0 1.4790814186
P  P2  1  0.81481000  0.29266000  0.98859000  1.0 1.4869024719
P  P3  1  0.69064000  0.08130000  0.00672000  1.0 1.4790814186
P  P4  1  0.60435000  0.31489000  0.93219000  1.0 1.4790814186
P  P5  1  0.71324000  0.43690000  0.41542000  1.0 1.4790814186
P  P6  1  0.81481000  0.20734000  0.48859000  1.0 1.4869024719
P  P7  1  0.69064000  0.41870000  0.50672000  1.0 1.4790814186
P  P8  1  0.60435000  0.18511000  0.43219000  1.0 1.4790814186
P  P9  1  0.28676000  0.56310000  0.58458000  1.0 1.4790814186
P  P10  1  0.18519000  0.79266000  0.51141000  1.0 1.4869024719
P  P11  1  0.30936000  0.58130000  0.49328000  1.0 1.4790814186
P  P12  1  0.39565000  0.81489000  0.56781000  1.0 1.4790814186
P  P13  1  0.28676000  0.93690000  0.08458000  1.0 1.4790814186
P  P14  1  0.18519000  0.70734000  0.01141000  1.0 1.4869024719
P  P15  1  0.30936000  0.91870000  0.99328000  1.0 1.4790814186
P  P16  1  0.39565000  0.68511000  0.06781000  1.0 1.4790814186
H  H1  1  0.93220000  0.03480000  0.99860000  1.0 0.1120967933
H  H2  1  0.01900000  0.96900000  0.03810000  1.0 0.1395111008
H  H3  1  0.91440000  0.86480000  0.07590000  1.0 0.1395111008
H  H4  1  0.82920000  0.92780000  0.03540000  1.0 0.1295525943
H  H5  1  0.06360000  0.85310000  0.08640000  1.0 0.1120967933
H  H6  1  0.21250000  0.87860000  0.20020000  1.0 0.1214822835
H  H7  1  0.11540000  0.63870000  0.18260000  1.0 0.1214822835
H  H8  1  0.09450000  0.01930000  0.14240000  1.0 0.0701262435
H  H9  1  0.15800000  0.11220000  0.17850000  1.0 0.1214822835
H  H10  1  0.18030000  0.02030000  0.19960000  1.0 0.1120967933
H  H11  1  0.21700000  0.05630000  0.18100000  1.0 0.1214822835
H  H12  1  0.16400000  0.05950000  0.12240000  1.0 0.1295525943
H  H13  1  0.21370000  0.98520000  0.14410000  1.0 0.1295525943
H  H14  1  0.15260000  0.95010000  0.11520000  1.0 0.1214822835
H  H15  1  0.00580000  0.70040000  0.10560000  1.0 0.0701262435
H  H16  1  0.03370000  0.55760000  0.15180000  1.0 0.1214822835
H  H17  1  0.99000000  0.54500000  0.11550000  1.0 0.1395111008
H  H18  1  0.06190000  0.56070000  0.12730000  1.0 0.1295525943
H  H19  1  0.97310000  0.69680000  0.15550000  1.0 0.1214822835
H  H20  1  0.95710000  0.77940000  0.13060000  1.0 0.1214822835
H  H21  1  0.92670000  0.67850000  0.11980000  1.0 0.1295525943
H  H22  1  0.67230000  0.69330000  0.88290000  1.0 0.1120967933
H  H23  1  0.57310000  0.71470000  0.84170000  1.0 0.1120967933
H  H24  1  0.54310000  0.86100000  0.81930000  1.0 0.1120967933
H  H25  1  0.78440000  0.87400000  0.91730000  1.0 0.0881783363
H  H26  1  0.72470000  0.76110000  0.94630000  1.0 0.1214822835
H  H27  1  0.79290000  0.80060000  0.96510000  1.0 0.1120967933
H  H28  1  0.73610000  0.87140000  0.95100000  1.0 0.1295525943
H  H29  1  0.76960000  0.67730000  0.91380000  1.0 0.1214822835
H  H30  1  0.79810000  0.73660000  0.89500000  1.0 0.1214822835
H  H31  1  0.83340000  0.73120000  0.93220000  1.0 0.1295525943
H  H32  1  0.60930000  0.07550000  0.85510000  1.0 0.0790581374
H  H33  1  0.68310000  0.04720000  0.83490000  1.0 0.1295525943
H  H34  1  0.62550000  0.04070000  0.80140000  1.0 0.1214822835
H  H35  1  0.63890000  0.13540000  0.82110000  1.0 0.1295525943
H  H36  1  0.52010000  0.10670000  0.81000000  1.0 0.1295525943
H  H37  1  0.52420000  0.00970000  0.79440000  1.0 0.1295525943
H  H38  1  0.50740000  0.01040000  0.82310000  1.0 0.1214822835
H  H39  1  0.75090000  0.24340000  0.36500000  1.0 0.1214822835
H  H40  1  0.76440000  0.15900000  0.32760000  1.0 0.1295525943
H  H41  1  0.71780000  0.92280000  0.36020000  1.0 0.1395111008
H  H42  1  0.70440000  0.01610000  0.39650000  1.0 0.1295525943
H  H43  1  0.75680000  0.99800000  0.30050000  1.0 0.1214822835
H  H44  1  0.85430000  0.74770000  0.27100000  1.0 0.1214822835
H  H45  1  0.67550000  0.68330000  0.23920000  1.0 0.1214822835
H  H46  1  0.85850000  0.91840000  0.32680000  1.0 0.0790581374
H  H47  1  0.92040000  0.85660000  0.29170000  1.0 0.1214822835
H  H48  1  0.94130000  0.94150000  0.31590000  1.0 0.1295525943
H  H49  1  0.88030000  0.95010000  0.28400000  1.0 0.1295525943
H  H50  1  0.89480000  0.77280000  0.34940000  1.0 0.1395111008
H  H51  1  0.94850000  0.84320000  0.35280000  1.0 0.1295525943
H  H52  1  0.92820000  0.76170000  0.32740000  1.0 0.1214822835
H  H53  1  0.65130000  0.80200000  0.29920000  1.0 0.0701262435
H  H54  1  0.59080000  0.68520000  0.24620000  1.0 0.1214822835
H  H55  1  0.56980000  0.70340000  0.27300000  1.0 0.1295525943
H  H56  1  0.63080000  0.64500000  0.28040000  1.0 0.1295525943
H  H57  1  0.56490000  0.86870000  0.25390000  1.0 0.1295525943
H  H58  1  0.60720000  0.86260000  0.23610000  1.0 0.1295525943
H  H59  1  0.62720000  0.92750000  0.26620000  1.0 0.1214822835
H  H60  1  0.05410000  0.20110000  0.04750000  1.0 0.1120967933
H  H61  1  0.07240000  0.22170000  0.00290000  1.0 0.1120967933
H  H62  1  0.00840000  0.31600000  0.96290000  1.0 0.1120967933
H  H63  1  0.91780000  0.24040000  0.05130000  1.0 0.0881783363
H  H64  1  0.94470000  0.40210000  0.06010000  1.0 0.1295525943
H  H65  1  0.95540000  0.34930000  0.09150000  1.0 0.1295525943
H  H66  1  0.01250000  0.37310000  0.08460000  1.0 0.1295525943
H  H67  1  0.99360000  0.12480000  0.07190000  1.0 0.1214822835
H  H68  1  0.04360000  0.20280000  0.09060000  1.0 0.1214822835
H  H69  1  0.98800000  0.18280000  0.09910000  1.0 0.1295525943
H  H70  1  0.86270000  0.41030000  0.95290000  1.0 0.0790581374
H  H71  1  0.86510000  0.41120000  0.90440000  1.0 0.1214822835
H  H72  1  0.93440000  0.37450000  0.91970000  1.0 0.1214822835
H  H73  1  0.88030000  0.30750000  0.91810000  1.0 0.1214822835
H  H74  1  0.97150000  0.50660000  0.96150000  1.0 0.1295525943
H  H75  1  0.90400000  0.54920000  0.94350000  1.0 0.1295525943
H  H76  1  0.93180000  0.52750000  0.97990000  1.0 0.1295525943
H  H77  1  0.67910000  0.50240000  0.01970000  1.0 0.1214822835
H  H78  1  0.69940000  0.58860000  0.06390000  1.0 0.1395111008
H  H79  1  0.75570000  0.35080000  0.11430000  1.0 0.1395111008
H  H80  1  0.73630000  0.27220000  0.06820000  1.0 0.1120967933
H  H81  1  0.72700000  0.59770000  0.12100000  1.0 0.1120967933
H  H82  1  0.71550000  0.53940000  0.22710000  1.0 0.1214822835
H  H83  1  0.82790000  0.73420000  0.21810000  1.0 0.1214822835
H  H84  1  0.67900000  0.43070000  0.19550000  1.0 0.0881783363
H  H85  1  0.61440000  0.37190000  0.14900000  1.0 0.1214822835
H  H86  1  0.61290000  0.48180000  0.15470000  1.0 0.1295525943
H  H87  1  0.64430000  0.44320000  0.13390000  1.0 0.1295525943
H  H88  1  0.72960000  0.33320000  0.21480000  1.0 0.1214822835
H  H89  1  0.70260000  0.28720000  0.18090000  1.0 0.1214822835
H  H90  1  0.76770000  0.33870000  0.19490000  1.0 0.1395111008
H  H91  1  0.84370000  0.60870000  0.15600000  1.0 0.0701262435
H  H92  1  0.86180000  0.76700000  0.15040000  1.0 0.1295525943
H  H93  1  0.83780000  0.79530000  0.17540000  1.0 0.1214822835
H  H94  1  0.79120000  0.75220000  0.14260000  1.0 0.1214822835
H  H95  1  0.92530000  0.58830000  0.20860000  1.0 0.1295525943
H  H96  1  0.92000000  0.69600000  0.21610000  1.0 0.1214822835
H  H97  1  0.94490000  0.66830000  0.19140000  1.0 0.1214822835
H  H98  1  0.60200000  0.18490000  0.08960000  1.0 0.1120967933
H  H99  1  0.70140000  0.20100000  0.13380000  1.0 0.1120967933
H  H100  1  0.78350000  0.12900000  0.13450000  1.0 0.1214822835
H  H101  1  0.58280000  0.07340000  0.01760000  1.0 0.0881783363
H  H102  1  0.51950000  0.19200000  0.99530000  1.0 0.1295525943
H  H103  1  0.53150000  0.23820000  0.02790000  1.0 0.1214822835
H  H104  1  0.58380000  0.24130000  0.01620000  1.0 0.1295525943
H  H105  1  0.51550000  0.10610000  0.05220000  1.0 0.1120967933
H  H106  1  0.48660000  0.06770000  0.01730000  1.0 0.1395111008
H  H107  1  0.53500000  0.00550000  0.04500000  1.0 0.1295525943
H  H108  1  0.78970000  0.00480000  0.06980000  1.0 0.0790581374
H  H109  1  0.82540000  0.16290000  0.06730000  1.0 0.1395111008
H  H110  1  0.86620000  0.16050000  0.10410000  1.0 0.1295525943
H  H111  1  0.88110000  0.09080000  0.08220000  1.0 0.1214822835
H  H112  1  0.86970000  0.02740000  0.13520000  1.0 0.1214822835
H  H113  1  0.81580000  0.95180000  0.12470000  1.0 0.1214822835
H  H114  1  0.86860000  0.94180000  0.11350000  1.0 0.1214822835
H  H115  1  0.56100000  0.61120000  0.41920000  1.0 0.1214822835
H  H116  1  0.48330000  0.69000000  0.37740000  1.0 0.1395111008
H  H117  1  0.40850000  0.43830000  0.34220000  1.0 0.1493964086
H  H118  1  0.48300000  0.36780000  0.38560000  1.0 0.1214822835
H  H119  1  0.38490000  0.68600000  0.32920000  1.0 0.0987988529
H  H120  1  0.16220000  0.64530000  0.23830000  1.0 0.1214822835
H  H121  1  0.29140000  0.76540000  0.22040000  1.0 0.1214822835
H  H122  1  0.26580000  0.55990000  0.31410000  1.0 0.0701262435
H  H123  1  0.16600000  0.63320000  0.29250000  1.0 0.1295525943
H  H124  1  0.16750000  0.53480000  0.30870000  1.0 0.1295525943
H  H125  1  0.13850000  0.54190000  0.27160000  1.0 0.1214822835
H  H126  1  0.21330000  0.42540000  0.26640000  1.0 0.1295525943
H  H127  1  0.23330000  0.40600000  0.30240000  1.0 0.1295525943
H  H128  1  0.28400000  0.43110000  0.29080000  1.0 0.1214822835
H  H129  1  0.42020000  0.64540000  0.28070000  1.0 0.0701262435
H  H130  1  0.38300000  0.70780000  0.21840000  1.0 0.1295525943
H  H131  1  0.38890000  0.60010000  0.22830000  1.0 0.1295525943
H  H132  1  0.44870000  0.66480000  0.24070000  1.0 0.1395111008
H  H133  1  0.38950000  0.83510000  0.25970000  1.0 0.1295525943
H  H134  1  0.45880000  0.79850000  0.27640000  1.0 0.1295525943
H  H135  1  0.41820000  0.80030000  0.29510000  1.0 0.1214822835
H  H136  1  0.35860000  0.24630000  0.87030000  1.0 0.0987988529
H  H137  1  0.34820000  0.26270000  0.81940000  1.0 0.1120967933
H  H138  1  0.42750000  0.33430000  0.81240000  1.0 0.1120967933
H  H139  1  0.49350000  0.27820000  0.94120000  1.0 0.0881783363
H  H140  1  0.42960000  0.16470000  0.94170000  1.0 0.1295525943
H  H141  1  0.37450000  0.23780000  0.93240000  1.0 0.1214822835
H  H142  1  0.38560000  0.18530000  0.90590000  1.0 0.1120967933
H  H143  1  0.45330000  0.43220000  0.93550000  1.0 0.1295525943
H  H144  1  0.38900000  0.38470000  0.92870000  1.0 0.0987988529
H  H145  1  0.44720000  0.36880000  0.96150000  1.0 0.1295525943
H  H146  1  0.57060000  0.42010000  0.87220000  1.0 0.0790581374
H  H147  1  0.47300000  0.47230000  0.81330000  1.0 0.1214822835
H  H148  1  0.50680000  0.53840000  0.84300000  1.0 0.1295525943
H  H149  1  0.54170000  0.50640000  0.82310000  1.0 0.1295525943
H  H150  1  0.57560000  0.26900000  0.84850000  1.0 0.1395111008
H  H151  1  0.53410000  0.31310000  0.81510000  1.0 0.1214822835
H  H152  1  0.60130000  0.35340000  0.83570000  1.0 0.1214822835
H  H153  1  0.93220000  0.46520000  0.49860000  1.0 0.1120967933
H  H154  1  0.01900000  0.53100000  0.53810000  1.0 0.1395111008
H  H155  1  0.91440000  0.63520000  0.57590000  1.0 0.1395111008
H  H156  1  0.82920000  0.57220000  0.53540000  1.0 0.1295525943
H  H157  1  0.06360000  0.64690000  0.58640000  1.0 0.1120967933
H  H158  1  0.21250000  0.62140000  0.70020000  1.0 0.1214822835
H  H159  1  0.11540000  0.86130000  0.68260000  1.0 0.1214822835
H  H160  1  0.09450000  0.48070000  0.64240000  1.0 0.0701262435
H  H161  1  0.15800000  0.38780000  0.67850000  1.0 0.1214822835
H  H162  1  0.18030000  0.47970000  0.69960000  1.0 0.1120967933
H  H163  1  0.21700000  0.44370000  0.68100000  1.0 0.1214822835
H  H164  1  0.16400000  0.44050000  0.62240000  1.0 0.1295525943
H  H165  1  0.21370000  0.51480000  0.64410000  1.0 0.1295525943
H  H166  1  0.15260000  0.54990000  0.61520000  1.0 0.1214822835
H  H167  1  0.00580000  0.79960000  0.60560000  1.0 0.0701262435
H  H168  1  0.03370000  0.94240000  0.65180000  1.0 0.1214822835
H  H169  1  0.99000000  0.95500000  0.61550000  1.0 0.1395111008
H  H170  1  0.06190000  0.93930000  0.62730000  1.0 0.1295525943
H  H171  1  0.97310000  0.80320000  0.65550000  1.0 0.1214822835
H  H172  1  0.95710000  0.72060000  0.63060000  1.0 0.1214822835
H  H173  1  0.92670000  0.82150000  0.61980000  1.0 0.1295525943
H  H174  1  0.67230000  0.80670000  0.38290000  1.0 0.1120967933
H  H175  1  0.57310000  0.78530000  0.34170000  1.0 0.1120967933
H  H176  1  0.54310000  0.63900000  0.31930000  1.0 0.1120967933
H  H177  1  0.78440000  0.62600000  0.41730000  1.0 0.0881783363
H  H178  1  0.72470000  0.73890000  0.44630000  1.0 0.1214822835
H  H179  1  0.79290000  0.69940000  0.46510000  1.0 0.1120967933
H  H180  1  0.73610000  0.62860000  0.45100000  1.0 0.1295525943
H  H181  1  0.76960000  0.82270000  0.41380000  1.0 0.1214822835
H  H182  1  0.79810000  0.76340000  0.39500000  1.0 0.1214822835
H  H183  1  0.83340000  0.76880000  0.43220000  1.0 0.1295525943
H  H184  1  0.60930000  0.42450000  0.35510000  1.0 0.0790581374
H  H185  1  0.68310000  0.45280000  0.33490000  1.0 0.1295525943
H  H186  1  0.62550000  0.45930000  0.30140000  1.0 0.1214822835
H  H187  1  0.63890000  0.36460000  0.32110000  1.0 0.1295525943
H  H188  1  0.52010000  0.39330000  0.31000000  1.0 0.1295525943
H  H189  1  0.52420000  0.49030000  0.29440000  1.0 0.1295525943
H  H190  1  0.50740000  0.48960000  0.32310000  1.0 0.1214822835
H  H191  1  0.75090000  0.25660000  0.86500000  1.0 0.1214822835
H  H192  1  0.76440000  0.34100000  0.82760000  1.0 0.1295525943
H  H193  1  0.71780000  0.57720000  0.86020000  1.0 0.1395111008
H  H194  1  0.70440000  0.48390000  0.89650000  1.0 0.1295525943
H  H195  1  0.75680000  0.50200000  0.80050000  1.0 0.1214822835
H  H196  1  0.85430000  0.75230000  0.77100000  1.0 0.1214822835
H  H197  1  0.67550000  0.81670000  0.73920000  1.0 0.1214822835
H  H198  1  0.85850000  0.58160000  0.82680000  1.0 0.0790581374
H  H199  1  0.92040000  0.64340000  0.79170000  1.0 0.1214822835
H  H200  1  0.94130000  0.55850000  0.81590000  1.0 0.1295525943
H  H201  1  0.88030000  0.54990000  0.78400000  1.0 0.1295525943
H  H202  1  0.89480000  0.72720000  0.84940000  1.0 0.1295525943
H  H203  1  0.94850000  0.65680000  0.85280000  1.0 0.1295525943
H  H204  1  0.92820000  0.73830000  0.82740000  1.0 0.1214822835
H  H205  1  0.65130000  0.69800000  0.79920000  1.0 0.0701262435
H  H206  1  0.59080000  0.81480000  0.74620000  1.0 0.1214822835
H  H207  1  0.56980000  0.79660000  0.77300000  1.0 0.1295525943
H  H208  1  0.63080000  0.85500000  0.78040000  1.0 0.1295525943
H  H209  1  0.56490000  0.63130000  0.75390000  1.0 0.1295525943
H  H210  1  0.60720000  0.63740000  0.73610000  1.0 0.1295525943
H  H211  1  0.62720000  0.57250000  0.76620000  1.0 0.1214822835
H  H212  1  0.05410000  0.29890000  0.54750000  1.0 0.1120967933
H  H213  1  0.07240000  0.27830000  0.50290000  1.0 0.1120967933
H  H214  1  0.00840000  0.18400000  0.46290000  1.0 0.1120967933
H  H215  1  0.91780000  0.25960000  0.55130000  1.0 0.0881783363
H  H216  1  0.94470000  0.09790000  0.56010000  1.0 0.1295525943
H  H217  1  0.95540000  0.15070000  0.59150000  1.0 0.1295525943
H  H218  1  0.01250000  0.12690000  0.58460000  1.0 0.1295525943
H  H219  1  0.99360000  0.37520000  0.57190000  1.0 0.1214822835
H  H220  1  0.04360000  0.29720000  0.59060000  1.0 0.1214822835
H  H221  1  0.98800000  0.31720000  0.59910000  1.0 0.1295525943
H  H222  1  0.86270000  0.08970000  0.45290000  1.0 0.0790581374
H  H223  1  0.86510000  0.08880000  0.40440000  1.0 0.1214822835
H  H224  1  0.93440000  0.12550000  0.41970000  1.0 0.1214822835
H  H225  1  0.88030000  0.19250000  0.41810000  1.0 0.1295525943
H  H226  1  0.97150000  0.99340000  0.46150000  1.0 0.1295525943
H  H227  1  0.90400000  0.95080000  0.44350000  1.0 0.1295525943
H  H228  1  0.93180000  0.97250000  0.47990000  1.0 0.1295525943
H  H229  1  0.67910000  0.99760000  0.51970000  1.0 0.1214822835
H  H230  1  0.69940000  0.91140000  0.56390000  1.0 0.1395111008
H  H231  1  0.75570000  0.14920000  0.61430000  1.0 0.1395111008
H  H232  1  0.73630000  0.22780000  0.56820000  1.0 0.1120967933
H  H233  1  0.72700000  0.90230000  0.62100000  1.0 0.1120967933
H  H234  1  0.71550000  0.96060000  0.72710000  1.0 0.1214822835
H  H235  1  0.82790000  0.76580000  0.71810000  1.0 0.1214822835
H  H236  1  0.67900000  0.06930000  0.69550000  1.0 0.0881783363
H  H237  1  0.61440000  0.12810000  0.64900000  1.0 0.1214822835
H  H238  1  0.61290000  0.01820000  0.65470000  1.0 0.1295525943
H  H239  1  0.64430000  0.05680000  0.63390000  1.0 0.1295525943
H  H240  1  0.72960000  0.16680000  0.71480000  1.0 0.1214822835
H  H241  1  0.70260000  0.21280000  0.68090000  1.0 0.1214822835
H  H242  1  0.76770000  0.16130000  0.69490000  1.0 0.1395111008
H  H243  1  0.84370000  0.89130000  0.65600000  1.0 0.0701262435
H  H244  1  0.86180000  0.73300000  0.65040000  1.0 0.1295525943
H  H245  1  0.83780000  0.70470000  0.67540000  1.0 0.1214822835
H  H246  1  0.79120000  0.74780000  0.64260000  1.0 0.1214822835
H  H247  1  0.92530000  0.91170000  0.70860000  1.0 0.1295525943
H  H248  1  0.92000000  0.80400000  0.71610000  1.0 0.1214822835
H  H249  1  0.94490000  0.83170000  0.69140000  1.0 0.1214822835
H  H250  1  0.60200000  0.31510000  0.58960000  1.0 0.1120967933
H  H251  1  0.70140000  0.29900000  0.63380000  1.0 0.1120967933
H  H252  1  0.78350000  0.37100000  0.63450000  1.0 0.1214822835
H  H253  1  0.58280000  0.42660000  0.51760000  1.0 0.0881783363
H  H254  1  0.51950000  0.30800000  0.49530000  1.0 0.1295525943
H  H255  1  0.53150000  0.26180000  0.52790000  1.0 0.1214822835
H  H256  1  0.58380000  0.25870000  0.51620000  1.0 0.1295525943
H  H257  1  0.51550000  0.39390000  0.55220000  1.0 0.1120967933
H  H258  1  0.48660000  0.43230000  0.51730000  1.0 0.1395111008
H  H259  1  0.53500000  0.49450000  0.54500000  1.0 0.1295525943
H  H260  1  0.78970000  0.49520000  0.56980000  1.0 0.0790581374
H  H261  1  0.82540000  0.33710000  0.56730000  1.0 0.1395111008
H  H262  1  0.86620000  0.33950000  0.60410000  1.0 0.1295525943
H  H263  1  0.88110000  0.40920000  0.58220000  1.0 0.1214822835
H  H264  1  0.86970000  0.47260000  0.63520000  1.0 0.1214822835
H  H265  1  0.81580000  0.54820000  0.62470000  1.0 0.1214822835
H  H266  1  0.86860000  0.55820000  0.61350000  1.0 0.1214822835
H  H267  1  0.56100000  0.88880000  0.91920000  1.0 0.1214822835
H  H268  1  0.48330000  0.81000000  0.87740000  1.0 0.1395111008
H  H269  1  0.40850000  0.06170000  0.84220000  1.0 0.1493964086
H  H270  1  0.48300000  0.13220000  0.88560000  1.0 0.1214822835
H  H271  1  0.38490000  0.81400000  0.82920000  1.0 0.0987988529
H  H272  1  0.16220000  0.85470000  0.73830000  1.0 0.1214822835
H  H273  1  0.29140000  0.73460000  0.72040000  1.0 0.1214822835
H  H274  1  0.26580000  0.94010000  0.81410000  1.0 0.0701262435
H  H275  1  0.16600000  0.86680000  0.79250000  1.0 0.1295525943
H  H276  1  0.16750000  0.96520000  0.80870000  1.0 0.1295525943
H  H277  1  0.13850000  0.95810000  0.77160000  1.0 0.1214822835
H  H278  1  0.21330000  0.07460000  0.76640000  1.0 0.1295525943
H  H279  1  0.23330000  0.09400000  0.80240000  1.0 0.1295525943
H  H280  1  0.28400000  0.06890000  0.79080000  1.0 0.1214822835
H  H281  1  0.42020000  0.85460000  0.78070000  1.0 0.0701262435
H  H282  1  0.38300000  0.79220000  0.71840000  1.0 0.1295525943
H  H283  1  0.38890000  0.89990000  0.72830000  1.0 0.1295525943
H  H284  1  0.44870000  0.83520000  0.74070000  1.0 0.1395111008
H  H285  1  0.38950000  0.66490000  0.75970000  1.0 0.1295525943
H  H286  1  0.45880000  0.70150000  0.77640000  1.0 0.1295525943
H  H287  1  0.41820000  0.69970000  0.79510000  1.0 0.1214822835
H  H288  1  0.35860000  0.25370000  0.37030000  1.0 0.0987988529
H  H289  1  0.34820000  0.23730000  0.31940000  1.0 0.1120967933
H  H290  1  0.42750000  0.16570000  0.31240000  1.0 0.1120967933
H  H291  1  0.49350000  0.22180000  0.44120000  1.0 0.0881783363
H  H292  1  0.42960000  0.33530000  0.44170000  1.0 0.1295525943
H  H293  1  0.37450000  0.26220000  0.43240000  1.0 0.1214822835
H  H294  1  0.38560000  0.31470000  0.40590000  1.0 0.1120967933
H  H295  1  0.45330000  0.06780000  0.43550000  1.0 0.1295525943
H  H296  1  0.38900000  0.11530000  0.42870000  1.0 0.0987988529
H  H297  1  0.44720000  0.13120000  0.46150000  1.0 0.1295525943
H  H298  1  0.57060000  0.07990000  0.37220000  1.0 0.0790581374
H  H299  1  0.47300000  0.02770000  0.31330000  1.0 0.1214822835
H  H300  1  0.50680000  0.96160000  0.34300000  1.0 0.1295525943
H  H301  1  0.54170000  0.99360000  0.32310000  1.0 0.1295525943
H  H302  1  0.57560000  0.23100000  0.34850000  1.0 0.1395111008
H  H303  1  0.53410000  0.18690000  0.31510000  1.0 0.1214822835
H  H304  1  0.60130000  0.14660000  0.33570000  1.0 0.1214822835
H  H305  1  0.06780000  0.53480000  0.50140000  1.0 0.1120967933
H  H306  1  0.98100000  0.46900000  0.46190000  1.0 0.1395111008
H  H307  1  0.08560000  0.36480000  0.42410000  1.0 0.1395111008
H  H308  1  0.17080000  0.42780000  0.46460000  1.0 0.1295525943
H  H309  1  0.93640000  0.35310000  0.41360000  1.0 0.1120967933
H  H310  1  0.78750000  0.37860000  0.29980000  1.0 0.1214822835
H  H311  1  0.88460000  0.13870000  0.31740000  1.0 0.1214822835
H  H312  1  0.90550000  0.51930000  0.35760000  1.0 0.0701262435
H  H313  1  0.84200000  0.61220000  0.32150000  1.0 0.1214822835
H  H314  1  0.81970000  0.52030000  0.30040000  1.0 0.1120967933
H  H315  1  0.78300000  0.55630000  0.31900000  1.0 0.1214822835
H  H316  1  0.83600000  0.55950000  0.37760000  1.0 0.1295525943
H  H317  1  0.78630000  0.48520000  0.35590000  1.0 0.1295525943
H  H318  1  0.84740000  0.45010000  0.38480000  1.0 0.1214822835
H  H319  1  0.99420000  0.20040000  0.39440000  1.0 0.0701262435
H  H320  1  0.96630000  0.05760000  0.34820000  1.0 0.1214822835
H  H321  1  0.01000000  0.04500000  0.38450000  1.0 0.1395111008
H  H322  1  0.93810000  0.06070000  0.37270000  1.0 0.1295525943
H  H323  1  0.02690000  0.19680000  0.34450000  1.0 0.1214822835
H  H324  1  0.04290000  0.27940000  0.36940000  1.0 0.1214822835
H  H325  1  0.07330000  0.17850000  0.38020000  1.0 0.1295525943
H  H326  1  0.32770000  0.19330000  0.61710000  1.0 0.1120967933
H  H327  1  0.42690000  0.21470000  0.65830000  1.0 0.1120967933
H  H328  1  0.45690000  0.36100000  0.68070000  1.0 0.1120967933
H  H329  1  0.21560000  0.37400000  0.58270000  1.0 0.0881783363
H  H330  1  0.27530000  0.26110000  0.55370000  1.0 0.1214822835
H  H331  1  0.20710000  0.30060000  0.53490000  1.0 0.1120967933
H  H332  1  0.26390000  0.37140000  0.54900000  1.0 0.1295525943
H  H333  1  0.23040000  0.17730000  0.58620000  1.0 0.1214822835
H  H334  1  0.20190000  0.23660000  0.60500000  1.0 0.1214822835
H  H335  1  0.16660000  0.23120000  0.56780000  1.0 0.1295525943
H  H336  1  0.39070000  0.57550000  0.64490000  1.0 0.0790581374
H  H337  1  0.31690000  0.54720000  0.66510000  1.0 0.1295525943
H  H338  1  0.37450000  0.54070000  0.69860000  1.0 0.1214822835
H  H339  1  0.36110000  0.63540000  0.67890000  1.0 0.1295525943
H  H340  1  0.47990000  0.60670000  0.69000000  1.0 0.1295525943
H  H341  1  0.47580000  0.50970000  0.70560000  1.0 0.1295525943
H  H342  1  0.49260000  0.51040000  0.67690000  1.0 0.1214822835
H  H343  1  0.24910000  0.74340000  0.13500000  1.0 0.1214822835
H  H344  1  0.23560000  0.65900000  0.17240000  1.0 0.1295525943
H  H345  1  0.28220000  0.42280000  0.13980000  1.0 0.1395111008
H  H346  1  0.29560000  0.51610000  0.10350000  1.0 0.1295525943
H  H347  1  0.24320000  0.49800000  0.19950000  1.0 0.1214822835
H  H348  1  0.14570000  0.24770000  0.22900000  1.0 0.1214822835
H  H349  1  0.32450000  0.18330000  0.26080000  1.0 0.1214822835
H  H350  1  0.14150000  0.41840000  0.17320000  1.0 0.0790581374
H  H351  1  0.07960000  0.35660000  0.20830000  1.0 0.1214822835
H  H352  1  0.05870000  0.44150000  0.18410000  1.0 0.1295525943
H  H353  1  0.11970000  0.45010000  0.21600000  1.0 0.1295525943
H  H354  1  0.10520000  0.27280000  0.15060000  1.0 0.1395111008
H  H355  1  0.05150000  0.34320000  0.14720000  1.0 0.1295525943
H  H356  1  0.07180000  0.26170000  0.17260000  1.0 0.1214822835
H  H357  1  0.34870000  0.30200000  0.20080000  1.0 0.0701262435
H  H358  1  0.40920000  0.18520000  0.25380000  1.0 0.1214822835
H  H359  1  0.43020000  0.20340000  0.22700000  1.0 0.1295525943
H  H360  1  0.36920000  0.14500000  0.21960000  1.0 0.1295525943
H  H361  1  0.43510000  0.36870000  0.24610000  1.0 0.1295525943
H  H362  1  0.39280000  0.36260000  0.26390000  1.0 0.1295525943
H  H363  1  0.37280000  0.42750000  0.23380000  1.0 0.1214822835
H  H364  1  0.94590000  0.70110000  0.45250000  1.0 0.1120967933
H  H365  1  0.92760000  0.72170000  0.49710000  1.0 0.1120967933
H  H366  1  0.99160000  0.81600000  0.53710000  1.0 0.1120967933
H  H367  1  0.08220000  0.74040000  0.44870000  1.0 0.0881783363
H  H368  1  0.05530000  0.90210000  0.43990000  1.0 0.1295525943
H  H369  1  0.04460000  0.84930000  0.40850000  1.0 0.1295525943
H  H370  1  0.98750000  0.87310000  0.41540000  1.0 0.1295525943
H  H371  1  0.00640000  0.62480000  0.42810000  1.0 0.1214822835
H  H372  1  0.95640000  0.70280000  0.40940000  1.0 0.1214822835
H  H373  1  0.01200000  0.68280000  0.40090000  1.0 0.1295525943
H  H374  1  0.13730000  0.91030000  0.54710000  1.0 0.0790581374
H  H375  1  0.13490000  0.91120000  0.59560000  1.0 0.1214822835
H  H376  1  0.06560000  0.87450000  0.58030000  1.0 0.1214822835
H  H377  1  0.11970000  0.80750000  0.58190000  1.0 0.1295525943
H  H378  1  0.02850000  0.00660000  0.53850000  1.0 0.1295525943
H  H379  1  0.09600000  0.04920000  0.55650000  1.0 0.1295525943
H  H380  1  0.06820000  0.02750000  0.52010000  1.0 0.1295525943
H  H381  1  0.32090000  0.00240000  0.48030000  1.0 0.1214822835
H  H382  1  0.30060000  0.08860000  0.43610000  1.0 0.1395111008
H  H383  1  0.24430000  0.85080000  0.38570000  1.0 0.1395111008
H  H384  1  0.26370000  0.77220000  0.43180000  1.0 0.1120967933
H  H385  1  0.27300000  0.09770000  0.37900000  1.0 0.1120967933
H  H386  1  0.28450000  0.03940000  0.27290000  1.0 0.1214822835
H  H387  1  0.17210000  0.23420000  0.28190000  1.0 0.1214822835
H  H388  1  0.32100000  0.93070000  0.30450000  1.0 0.0881783363
H  H389  1  0.38560000  0.87190000  0.35100000  1.0 0.1214822835
H  H390  1  0.38710000  0.98180000  0.34530000  1.0 0.1295525943
H  H391  1  0.35570000  0.94320000  0.36610000  1.0 0.1295525943
H  H392  1  0.27040000  0.83320000  0.28520000  1.0 0.1214822835
H  H393  1  0.29740000  0.78720000  0.31910000  1.0 0.1214822835
H  H394  1  0.23230000  0.83870000  0.30510000  1.0 0.1395111008
H  H395  1  0.15630000  0.10870000  0.34400000  1.0 0.0701262435
H  H396  1  0.13820000  0.26700000  0.34960000  1.0 0.1295525943
H  H397  1  0.16220000  0.29530000  0.32460000  1.0 0.1214822835
H  H398  1  0.20880000  0.25220000  0.35740000  1.0 0.1214822835
H  H399  1  0.07470000  0.08830000  0.29140000  1.0 0.1295525943
H  H400  1  0.08000000  0.19600000  0.28390000  1.0 0.1214822835
H  H401  1  0.05510000  0.16830000  0.30860000  1.0 0.1214822835
H  H402  1  0.39800000  0.68490000  0.41040000  1.0 0.1120967933
H  H403  1  0.29860000  0.70100000  0.36620000  1.0 0.1120967933
H  H404  1  0.21650000  0.62900000  0.36550000  1.0 0.1214822835
H  H405  1  0.41720000  0.57340000  0.48240000  1.0 0.0881783363
H  H406  1  0.48050000  0.69200000  0.50470000  1.0 0.1295525943
H  H407  1  0.46850000  0.73820000  0.47210000  1.0 0.1214822835
H  H408  1  0.41620000  0.74130000  0.48380000  1.0 0.1295525943
H  H409  1  0.48450000  0.60610000  0.44780000  1.0 0.1120967933
H  H410  1  0.51340000  0.56770000  0.48270000  1.0 0.1395111008
H  H411  1  0.46500000  0.50550000  0.45500000  1.0 0.1295525943
H  H412  1  0.21030000  0.50480000  0.43020000  1.0 0.0790581374
H  H413  1  0.17460000  0.66290000  0.43270000  1.0 0.1395111008
H  H414  1  0.13380000  0.66050000  0.39590000  1.0 0.1295525943
H  H415  1  0.11890000  0.59080000  0.41780000  1.0 0.1214822835
H  H416  1  0.13030000  0.52740000  0.36480000  1.0 0.1214822835
H  H417  1  0.18420000  0.45180000  0.37530000  1.0 0.1214822835
H  H418  1  0.13140000  0.44180000  0.38650000  1.0 0.1214822835
H  H419  1  0.43900000  0.11120000  0.08080000  1.0 0.1214822835
H  H420  1  0.51670000  0.19000000  0.12260000  1.0 0.1395111008
H  H421  1  0.59150000  0.93830000  0.15780000  1.0 0.1493964086
H  H422  1  0.51700000  0.86780000  0.11440000  1.0 0.1214822835
H  H423  1  0.61510000  0.18600000  0.17080000  1.0 0.0987988529
H  H424  1  0.83780000  0.14530000  0.26170000  1.0 0.1214822835
H  H425  1  0.70860000  0.26540000  0.27960000  1.0 0.1214822835
H  H426  1  0.73420000  0.05990000  0.18590000  1.0 0.0701262435
H  H427  1  0.83400000  0.13320000  0.20750000  1.0 0.1295525943
H  H428  1  0.83250000  0.03480000  0.19130000  1.0 0.1295525943
H  H429  1  0.86150000  0.04190000  0.22840000  1.0 0.1214822835
H  H430  1  0.78670000  0.92540000  0.23360000  1.0 0.1295525943
H  H431  1  0.76670000  0.90600000  0.19760000  1.0 0.1295525943
H  H432  1  0.71600000  0.93110000  0.20920000  1.0 0.1214822835
H  H433  1  0.57980000  0.14540000  0.21930000  1.0 0.0701262435
H  H434  1  0.61700000  0.20780000  0.28160000  1.0 0.1295525943
H  H435  1  0.61110000  0.10010000  0.27170000  1.0 0.1295525943
H  H436  1  0.55130000  0.16480000  0.25930000  1.0 0.1395111008
H  H437  1  0.61050000  0.33510000  0.24030000  1.0 0.1295525943
H  H438  1  0.54120000  0.29850000  0.22360000  1.0 0.1295525943
H  H439  1  0.58180000  0.30030000  0.20490000  1.0 0.1214822835
H  H440  1  0.64140000  0.74630000  0.62970000  1.0 0.0987988529
H  H441  1  0.65180000  0.76270000  0.68060000  1.0 0.1120967933
H  H442  1  0.57250000  0.83430000  0.68760000  1.0 0.1120967933
H  H443  1  0.50650000  0.77820000  0.55880000  1.0 0.0881783363
H  H444  1  0.57040000  0.66470000  0.55830000  1.0 0.1295525943
H  H445  1  0.62550000  0.73780000  0.56760000  1.0 0.1214822835
H  H446  1  0.61440000  0.68530000  0.59410000  1.0 0.1120967933
H  H447  1  0.54670000  0.93220000  0.56450000  1.0 0.1295525943
H  H448  1  0.61100000  0.88470000  0.57130000  1.0 0.0987988529
H  H449  1  0.55280000  0.86880000  0.53850000  1.0 0.1295525943
H  H450  1  0.42940000  0.92010000  0.62780000  1.0 0.0790581374
H  H451  1  0.52700000  0.97230000  0.68670000  1.0 0.1214822835
H  H452  1  0.49320000  0.03840000  0.65700000  1.0 0.1295525943
H  H453  1  0.45830000  0.00640000  0.67690000  1.0 0.1295525943
H  H454  1  0.42440000  0.76900000  0.65150000  1.0 0.1395111008
H  H455  1  0.46590000  0.81310000  0.68490000  1.0 0.1214822835
H  H456  1  0.39870000  0.85340000  0.66430000  1.0 0.1214822835
H  H457  1  0.06780000  0.96520000  0.00140000  1.0 0.1120967933
H  H458  1  0.98100000  0.03100000  0.96190000  1.0 0.1395111008
H  H459  1  0.08560000  0.13520000  0.92410000  1.0 0.1395111008
H  H460  1  0.17080000  0.07220000  0.96460000  1.0 0.1295525943
H  H461  1  0.93640000  0.14690000  0.91360000  1.0 0.1120967933
H  H462  1  0.78750000  0.12140000  0.79980000  1.0 0.1214822835
H  H463  1  0.88460000  0.36130000  0.81740000  1.0 0.1214822835
H  H464  1  0.90550000  0.98070000  0.85760000  1.0 0.0701262435
H  H465  1  0.84200000  0.88780000  0.82150000  1.0 0.1214822835
H  H466  1  0.81970000  0.97970000  0.80040000  1.0 0.1120967933
H  H467  1  0.78300000  0.94370000  0.81900000  1.0 0.1214822835
H  H468  1  0.83600000  0.94050000  0.87760000  1.0 0.1295525943
H  H469  1  0.78630000  0.01480000  0.85590000  1.0 0.1295525943
H  H470  1  0.84740000  0.04990000  0.88480000  1.0 0.1214822835
H  H471  1  0.99420000  0.29960000  0.89440000  1.0 0.0701262435
H  H472  1  0.96630000  0.44240000  0.84820000  1.0 0.1214822835
H  H473  1  0.01000000  0.45500000  0.88450000  1.0 0.1395111008
H  H474  1  0.93810000  0.43930000  0.87270000  1.0 0.1295525943
H  H475  1  0.02690000  0.30320000  0.84450000  1.0 0.1214822835
H  H476  1  0.04290000  0.22060000  0.86940000  1.0 0.1214822835
H  H477  1  0.07330000  0.32150000  0.88020000  1.0 0.1295525943
H  H478  1  0.32770000  0.30670000  0.11710000  1.0 0.1120967933
H  H479  1  0.42690000  0.28530000  0.15830000  1.0 0.1120967933
H  H480  1  0.45690000  0.13900000  0.18070000  1.0 0.1120967933
H  H481  1  0.21560000  0.12600000  0.08270000  1.0 0.0881783363
H  H482  1  0.27530000  0.23890000  0.05370000  1.0 0.1214822835
H  H483  1  0.20710000  0.19940000  0.03490000  1.0 0.1120967933
H  H484  1  0.26390000  0.12860000  0.04900000  1.0 0.1295525943
H  H485  1  0.23040000  0.32270000  0.08620000  1.0 0.1214822835
H  H486  1  0.20190000  0.26340000  0.10500000  1.0 0.1214822835
H  H487  1  0.16660000  0.26880000  0.06780000  1.0 0.1295525943
H  H488  1  0.39070000  0.92450000  0.14490000  1.0 0.0790581374
H  H489  1  0.31690000  0.95280000  0.16510000  1.0 0.1295525943
H  H490  1  0.37450000  0.95930000  0.19860000  1.0 0.1214822835
H  H491  1  0.36110000  0.86460000  0.17890000  1.0 0.1295525943
H  H492  1  0.47990000  0.89330000  0.19000000  1.0 0.1295525943
H  H493  1  0.47580000  0.99030000  0.20560000  1.0 0.1295525943
H  H494  1  0.49260000  0.98960000  0.17690000  1.0 0.1214822835
H  H495  1  0.24910000  0.75660000  0.63500000  1.0 0.1214822835
H  H496  1  0.23560000  0.84100000  0.67240000  1.0 0.1295525943
H  H497  1  0.28220000  0.07720000  0.63980000  1.0 0.1395111008
H  H498  1  0.29560000  0.98390000  0.60350000  1.0 0.1295525943
H  H499  1  0.24320000  0.00200000  0.69950000  1.0 0.1214822835
H  H500  1  0.14570000  0.25230000  0.72900000  1.0 0.1214822835
H  H501  1  0.32450000  0.31670000  0.76080000  1.0 0.1214822835
H  H502  1  0.14150000  0.08160000  0.67320000  1.0 0.0790581374
H  H503  1  0.07960000  0.14340000  0.70830000  1.0 0.1214822835
H  H504  1  0.05870000  0.05850000  0.68410000  1.0 0.1295525943
H  H505  1  0.11970000  0.04990000  0.71600000  1.0 0.1295525943
H  H506  1  0.10520000  0.22720000  0.65060000  1.0 0.1295525943
H  H507  1  0.05150000  0.15680000  0.64720000  1.0 0.1295525943
H  H508  1  0.07180000  0.23830000  0.67260000  1.0 0.1214822835
H  H509  1  0.34870000  0.19800000  0.70080000  1.0 0.0701262435
H  H510  1  0.40920000  0.31480000  0.75380000  1.0 0.1214822835
H  H511  1  0.43020000  0.29660000  0.72700000  1.0 0.1295525943
H  H512  1  0.36920000  0.35500000  0.71960000  1.0 0.1295525943
H  H513  1  0.43510000  0.13130000  0.74610000  1.0 0.1295525943
H  H514  1  0.39280000  0.13740000  0.76390000  1.0 0.1295525943
H  H515  1  0.37280000  0.07250000  0.73380000  1.0 0.1214822835
H  H516  1  0.94590000  0.79890000  0.95250000  1.0 0.1120967933
H  H517  1  0.92760000  0.77830000  0.99710000  1.0 0.1120967933
H  H518  1  0.99160000  0.68400000  0.03710000  1.0 0.1120967933
H  H519  1  0.08220000  0.75960000  0.94870000  1.0 0.0881783363
H  H520  1  0.05530000  0.59790000  0.93990000  1.0 0.1295525943
H  H521  1  0.04460000  0.65070000  0.90850000  1.0 0.1295525943
H  H522  1  0.98750000  0.62690000  0.91540000  1.0 0.1295525943
H  H523  1  0.00640000  0.87520000  0.92810000  1.0 0.1120967933
H  H524  1  0.95640000  0.79720000  0.90940000  1.0 0.1214822835
H  H525  1  0.01200000  0.81720000  0.90090000  1.0 0.1295525943
H  H526  1  0.13730000  0.58970000  0.04710000  1.0 0.0790581374
H  H527  1  0.13490000  0.58880000  0.09560000  1.0 0.1214822835
H  H528  1  0.06560000  0.62550000  0.08030000  1.0 0.1214822835
H  H529  1  0.11970000  0.69250000  0.08190000  1.0 0.1214822835
H  H530  1  0.02850000  0.49340000  0.03850000  1.0 0.1295525943
H  H531  1  0.09600000  0.45080000  0.05650000  1.0 0.1295525943
H  H532  1  0.06820000  0.47250000  0.02010000  1.0 0.1295525943
H  H533  1  0.32090000  0.49760000  0.98030000  1.0 0.1214822835
H  H534  1  0.30060000  0.41140000  0.93610000  1.0 0.1395111008
H  H535  1  0.24430000  0.64920000  0.88570000  1.0 0.1395111008
H  H536  1  0.26370000  0.72780000  0.93180000  1.0 0.1120967933
H  H537  1  0.27300000  0.40230000  0.87900000  1.0 0.1120967933
H  H538  1  0.28450000  0.46060000  0.77290000  1.0 0.1214822835
H  H539  1  0.17210000  0.26580000  0.78190000  1.0 0.1214822835
H  H540  1  0.32100000  0.56930000  0.80450000  1.0 0.0881783363
H  H541  1  0.38560000  0.62810000  0.85100000  1.0 0.1214822835
H  H542  1  0.38710000  0.51820000  0.84530000  1.0 0.1295525943
H  H543  1  0.35570000  0.55680000  0.86610000  1.0 0.1295525943
H  H544  1  0.27040000  0.66680000  0.78520000  1.0 0.1214822835
H  H545  1  0.29740000  0.71280000  0.81910000  1.0 0.1214822835
H  H546  1  0.23230000  0.66130000  0.80510000  1.0 0.1395111008
H  H547  1  0.15630000  0.39130000  0.84400000  1.0 0.0701262435
H  H548  1  0.13820000  0.23300000  0.84960000  1.0 0.1295525943
H  H549  1  0.16220000  0.20470000  0.82460000  1.0 0.1214822835
H  H550  1  0.20880000  0.24780000  0.85740000  1.0 0.1214822835
H  H551  1  0.07470000  0.41170000  0.79140000  1.0 0.1295525943
H  H552  1  0.08000000  0.30400000  0.78390000  1.0 0.1214822835
H  H553  1  0.05510000  0.33170000  0.80860000  1.0 0.1214822835
H  H554  1  0.39800000  0.81510000  0.91040000  1.0 0.1120967933
H  H555  1  0.29860000  0.79900000  0.86620000  1.0 0.1120967933
H  H556  1  0.21650000  0.87100000  0.86550000  1.0 0.1214822835
H  H557  1  0.41720000  0.92660000  0.98240000  1.0 0.0881783363
H  H558  1  0.48050000  0.80800000  0.00470000  1.0 0.1295525943
H  H559  1  0.46850000  0.76180000  0.97210000  1.0 0.1214822835
H  H560  1  0.41620000  0.75870000  0.98380000  1.0 0.1295525943
H  H561  1  0.48450000  0.89390000  0.94780000  1.0 0.1120967933
H  H562  1  0.51340000  0.93230000  0.98270000  1.0 0.1395111008
H  H563  1  0.46500000  0.99450000  0.95500000  1.0 0.1295525943
H  H564  1  0.21030000  0.99520000  0.93020000  1.0 0.0790581374
H  H565  1  0.17460000  0.83710000  0.93270000  1.0 0.1395111008
H  H566  1  0.13380000  0.83950000  0.89590000  1.0 0.1295525943
H  H567  1  0.11890000  0.90920000  0.91780000  1.0 0.1214822835
H  H568  1  0.13030000  0.97260000  0.86480000  1.0 0.1214822835
H  H569  1  0.18420000  0.04820000  0.87530000  1.0 0.1214822835
H  H570  1  0.13140000  0.05820000  0.88650000  1.0 0.1214822835
H  H571  1  0.43900000  0.38880000  0.58080000  1.0 0.1214822835
H  H572  1  0.51670000  0.31000000  0.62260000  1.0 0.1395111008
H  H573  1  0.59150000  0.56170000  0.65780000  1.0 0.1493964086
H  H574  1  0.51700000  0.63220000  0.61440000  1.0 0.1214822835
H  H575  1  0.61510000  0.31400000  0.67080000  1.0 0.0987988529
H  H576  1  0.83780000  0.35470000  0.76170000  1.0 0.1214822835
H  H577  1  0.70860000  0.23460000  0.77960000  1.0 0.1214822835
H  H578  1  0.73420000  0.44010000  0.68590000  1.0 0.0701262435
H  H579  1  0.83400000  0.36680000  0.70750000  1.0 0.1295525943
H  H580  1  0.83250000  0.46520000  0.69130000  1.0 0.1295525943
H  H581  1  0.86150000  0.45810000  0.72840000  1.0 0.1214822835
H  H582  1  0.78670000  0.57460000  0.73360000  1.0 0.1295525943
H  H583  1  0.76670000  0.59400000  0.69760000  1.0 0.1295525943
H  H584  1  0.71600000  0.56890000  0.70920000  1.0 0.1214822835
H  H585  1  0.57980000  0.35460000  0.71930000  1.0 0.0701262435
H  H586  1  0.61700000  0.29220000  0.78160000  1.0 0.1295525943
H  H587  1  0.61110000  0.39990000  0.77170000  1.0 0.1295525943
H  H588  1  0.55130000  0.33520000  0.75930000  1.0 0.1395111008
H  H589  1  0.61050000  0.16490000  0.74030000  1.0 0.1295525943
H  H590  1  0.54120000  0.20150000  0.72360000  1.0 0.1295525943
H  H591  1  0.58180000  0.19970000  0.70490000  1.0 0.1214822835
H  H592  1  0.64140000  0.75370000  0.12970000  1.0 0.0987988529
H  H593  1  0.65180000  0.73730000  0.18060000  1.0 0.1120967933
H  H594  1  0.57250000  0.66570000  0.18760000  1.0 0.1120967933
H  H595  1  0.50650000  0.72180000  0.05880000  1.0 0.0881783363
H  H596  1  0.57040000  0.83530000  0.05830000  1.0 0.1295525943
H  H597  1  0.62550000  0.76220000  0.06760000  1.0 0.1214822835
H  H598  1  0.61440000  0.81470000  0.09410000  1.0 0.1120967933
H  H599  1  0.54670000  0.56780000  0.06450000  1.0 0.1295525943
H  H600  1  0.61100000  0.61530000  0.07130000  1.0 0.0987988529
H  H601  1  0.55280000  0.63120000  0.03850000  1.0 0.1295525943
H  H602  1  0.42940000  0.57990000  0.12780000  1.0 0.0790581374
H  H603  1  0.52700000  0.52770000  0.18670000  1.0 0.1214822835
H  H604  1  0.49320000  0.46160000  0.15700000  1.0 0.1295525943
H  H605  1  0.45830000  0.49360000  0.17690000  1.0 0.1295525943
H  H606  1  0.42440000  0.73100000  0.15150000  1.0 0.1395111008
H  H607  1  0.46590000  0.68690000  0.18490000  1.0 0.1214822835
H  H608  1  0.39870000  0.64660000  0.16430000  1.0 0.1214822835
C  C1  1  0.92860000  0.00070000  0.01470000  1.0 0.0790581374
C  C2  1  0.98050000  0.96200000  0.03850000  1.0 -0.1924511651
C  C3  1  0.97710000  0.91350000  0.06240000  1.0 0.1120967933
C  C4  1  0.91940000  0.90050000  0.06050000  1.0 -0.1595213792
C  C5  1  0.86860000  0.93850000  0.03640000  1.0 0.0881783363
C  C6  1  0.02960000  0.87600000  0.08910000  1.0 0.0428827519
C  C7  1  0.08210000  0.83370000  0.14240000  1.0 0.0790581374
C  C8  1  0.13240000  0.88930000  0.16160000  1.0 0.0166355414
C  C9  1  0.17648000  0.84480000  0.18748000  1.0 -0.208838727
C  C10  1  0.17110000  0.75420000  0.19590000  1.0 0.0701262435
C  C11  1  0.11980000  0.70080000  0.17680000  1.0 -0.2200508103
C  C12  1  0.07510000  0.73860000  0.14930000  1.0 0.0279803689
C  C13  1  0.13650000  0.99140000  0.15320000  1.0 0.0881783363
C  C14  1  0.17630000  0.05010000  0.18040000  1.0 -0.4202890792
C  C15  1  0.16980000  0.99710000  0.13170000  1.0 -0.4202890792
C  C16  1  0.01620000  0.68320000  0.12760000  1.0 0.0881783363
C  C17  1  0.02630000  0.57700000  0.13080000  1.0 -0.4518029951
C  C18  1  0.96380000  0.71200000  0.13390000  1.0 -0.4408558865
C  C19  1  0.67511000  0.91560000  0.87591000  1.0 0.1835051033
C  C20  1  0.69550000  0.82950000  0.88870000  1.0 -0.0209585898
C  C21  1  0.65850000  0.75440000  0.87520000  1.0 -0.1513290763
C  C22  1  0.59960000  0.76680000  0.84980000  1.0 -0.1241538336
C  C23  1  0.58130000  0.85390000  0.83720000  1.0 -0.1595213792
C  C24  1  0.61817000  0.93270000  0.85017000  1.0 -0.0063920084
C  C25  1  0.75940000  0.81770000  0.91640000  1.0 0.1120967933
C  C26  1  0.75270000  0.81220000  0.94770000  1.0 -0.4202890792
C  C27  1  0.79300000  0.73360000  0.91420000  1.0 -0.4408558865
C  C28  1  0.60180000  0.03330000  0.83720000  1.0 0.1120967933
C  C29  1  0.64070000  0.06710000  0.82240000  1.0 -0.4592109536
C  C30  1  0.53180000  0.04070000  0.81400000  1.0 -0.4518029951
C  C31  1  0.74440000  0.17780000  0.36400000  1.0 0.0987988529
C  C32  1  0.75320000  0.12780000  0.34180000  1.0 -0.1924511651
C  C33  1  0.74540000  0.03060000  0.34020000  1.0 0.1295525943
C  C34  1  0.72540000  0.98810000  0.36100000  1.0 -0.1819346098
C  C35  1  0.71740000  0.04450000  0.38250000  1.0 0.0701262435
C  C36  1  0.75110000  0.96990000  0.31700000  1.0 0.0600319936
C  C37  1  0.75603000  0.82520000  0.29483000  1.0 0.0701262435
C  C38  1  0.81470000  0.81960000  0.29430000  1.0 0.0107051567
C  C39  1  0.81650000  0.75640000  0.27200000  1.0 -0.2034839757
C  C40  1  0.76490000  0.70550000  0.25100000  1.0 0.0790581374
C  C41  1  0.71068000  0.71600000  0.25338000  1.0 -0.1924511651
C  C42  1  0.70568000  0.77220000  0.27558000  1.0 0.0166355414
C  C43  1  0.86970000  0.86770000  0.31590000  1.0 0.0701262435
C  C44  1  0.90610000  0.90730000  0.30060000  1.0 -0.4408558865
C  C45  1  0.91370000  0.80650000  0.33810000  1.0 -0.4331839715
C  C46  1  0.64210000  0.78630000  0.27720000  1.0 0.0987988529
C  C47  1  0.60520000  0.69710000  0.26850000  1.0 -0.4592109536
C  C48  1  0.60720000  0.86870000  0.25650000  1.0 -0.4518029951
C  C49  1  0.93160000  0.31860000  0.00400000  1.0 0.1929631199
C  C50  1  0.97210000  0.26610000  0.03060000  1.0 -0.0209585898
C  C51  1  0.02500000  0.23410000  0.03000000  1.0 -0.1656270062
C  C52  1  0.03750000  0.24930000  0.00360000  1.0 -0.1256269645
C  C53  1  0.99900000  0.30330000  0.97980000  1.0 -0.1441651468
C  C54  1  0.94530000  0.34090000  0.97940000  1.0 -0.0209585898
C  C55  1  0.96160000  0.25930000  0.05860000  1.0 0.0987988529
C  C56  1  0.96920000  0.35470000  0.07520000  1.0 -0.4408558865
C  C57  1  0.00010000  0.18590000  0.08210000  1.0 -0.4518029951
C  C58  1  0.90390000  0.40890000  0.95300000  1.0 0.1120967933
C  C59  1  0.89510000  0.37210000  0.92080000  1.0 -0.4592109536
C  C60  1  0.93010000  0.50660000  0.96010000  1.0 -0.4592109536
C  C61  1  0.69500000  0.47120000  0.03920000  1.0 0.0987988529
C  C62  1  0.70630000  0.52300000  0.06540000  1.0 -0.1924511651
C  C63  1  0.72760000  0.47840000  0.09380000  1.0 0.1295525943
C  C64  1  0.73980000  0.38340000  0.09510000  1.0 -0.1595213792
C  C65  1  0.72790000  0.33730000  0.06740000  1.0 0.0881783363
C  C66  1  0.73840000  0.53370000  0.12270000  1.0 0.053966597
C  C67  1  0.76620000  0.54860000  0.17600000  1.0 0.0600319936
C  C68  1  0.73380000  0.51480000  0.19060000  1.0 0.0166355414
C  C69  1  0.73610000  0.56350000  0.21580000  1.0 -0.2034839757
C  C70  1  0.76850000  0.64920000  0.22520000  1.0 0.0790581374
C  C71  1  0.80380000  0.67920000  0.21120000  1.0 -0.1924511651
C  C72  1  0.80350000  0.62750000  0.18640000  1.0 0.0166355414
C  C73  1  0.69770000  0.42330000  0.18080000  1.0 0.0790581374
C  C74  1  0.63700000  0.43070000  0.15210000  1.0 -0.4518029951
C  C75  1  0.72650000  0.33940000  0.19380000  1.0 -0.4408558865
C  C76  1  0.84780000  0.65440000  0.17260000  1.0 0.0701262435
C  C77  1  0.83340000  0.75050000  0.15910000  1.0 -0.4408558865
C  C78  1  0.91610000  0.65150000  0.19980000  1.0 -0.4202890792
C  C79  1  0.68790000  0.08210000  0.06250000  1.0 0.2013030502
C  C80  1  0.63340000  0.12120000  0.06090000  1.0 -0.0209585898
C  C81  1  0.63760000  0.16180000  0.08850000  1.0 -0.1513290763
C  C82  1  0.69770000  0.16820000  0.11580000  1.0 -0.1256269645
C  C83  1  0.74660000  0.12880000  0.11570000  1.0 -0.1441651468
C  C84  1  0.74740000  0.08710000  0.08960000  1.0 -0.0063920084
C  C85  1  0.57510000  0.11370000  0.03250000  1.0 0.0881783363
C  C86  1  0.55030000  0.20400000  0.01660000  1.0 -0.4202890792
C  C87  1  0.52360000  0.06940000  0.03720000  1.0 -0.4202890792
C  C88  1  0.80370000  0.04690000  0.08830000  1.0 0.0881783363
C  C89  1  0.84840000  0.12250000  0.08520000  1.0 -0.4408558865
C  C90  1  0.84320000  0.98610000  0.11830000  1.0 -0.4408558865
C  C91  1  0.52928000  0.57610000  0.40338000  1.0 0.0987988529
C  C92  1  0.48340000  0.62380000  0.37870000  1.0 -0.1924511651
C  C93  1  0.43620000  0.56920000  0.35530000  1.0 0.1120967933
C  C94  1  0.43850000  0.47550000  0.35800000  1.0 -0.1513290763
C  C95  1  0.48400000  0.43370000  0.38340000  1.0 0.0790581374
C  C96  1  0.39020000  0.62060000  0.32810000  1.0 0.053966597
C  C97  1  0.31070000  0.62380000  0.27720000  1.0 0.0881783363
C  C98  1  0.24920000  0.60650000  0.27010000  1.0 0.0107051567
C  C99  1  0.20442000  0.65370000  0.24362000  1.0 -0.1924511651
C  C100  1  0.22090000  0.71140000  0.22540000  1.0 0.053966597
C  C101  1  0.28100000  0.72390000  0.23280000  1.0 -0.1924511651
C  C102  1  0.32830000  0.67880000  0.25770000  1.0 0.0107051567
C  C103  1  0.23460000  0.54450000  0.29250000  1.0 0.0987988529
C  C104  1  0.17070000  0.56560000  0.29120000  1.0 -0.4331839715
C  C105  1  0.24190000  0.44300000  0.28760000  1.0 -0.4518029951
C  C106  1  0.39510000  0.68910000  0.26350000  1.0 0.0881783363
C  C107  1  0.40480000  0.66310000  0.23520000  1.0 -0.4592109536
C  C108  1  0.41750000  0.79010000  0.27470000  1.0 -0.4518029951
C  C109  1  0.49080000  0.34390000  0.88770000  1.0 0.1835051033
C  C110  1  0.44390000  0.30390000  0.89360000  1.0 -0.0209585898
C  C111  1  0.39110000  0.27420000  0.86730000  1.0 -0.1595213792
C  C112  1  0.38410000  0.28390000  0.83670000  1.0 -0.1441651468
C  C113  1  0.43180000  0.32550000  0.83290000  1.0 -0.1441651468
C  C114  1  0.48620000  0.35540000  0.85800000  1.0 -0.0269205866
C  C115  1  0.45030000  0.29560000  0.92690000  1.0 0.0987988529
C  C116  1  0.40560000  0.21280000  0.92670000  1.0 -0.4331839715
C  C117  1  0.43360000  0.37680000  0.93910000  1.0 -0.4202890792
C  C118  1  0.53710000  0.39990000  0.85190000  1.0 0.1120967933
C  C119  1  0.51240000  0.48730000  0.83090000  1.0 -0.4518029951
C  C120  1  0.56470000  0.32680000  0.83630000  1.0 -0.4518029951
C  C121  1  0.92860000  0.49930000  0.51470000  1.0 0.0790581374
C  C122  1  0.98050000  0.53800000  0.53850000  1.0 -0.1924511651
C  C123  1  0.97710000  0.58650000  0.56240000  1.0 0.1120967933
C  C124  1  0.91940000  0.59950000  0.56050000  1.0 -0.1595213792
C  C125  1  0.86860000  0.56150000  0.53640000  1.0 0.0881783363
C  C126  1  0.02960000  0.62400000  0.58910000  1.0 0.0428827519
C  C127  1  0.08210000  0.66630000  0.64240000  1.0 0.0790581374
C  C128  1  0.13240000  0.61070000  0.66160000  1.0 0.0166355414
C  C129  1  0.17648000  0.65520000  0.68748000  1.0 -0.208838727
C  C130  1  0.17110000  0.74580000  0.69590000  1.0 0.0701262435
C  C131  1  0.11980000  0.79920000  0.67680000  1.0 -0.2200508103
C  C132  1  0.07510000  0.76140000  0.64930000  1.0 0.0279803689
C  C133  1  0.13650000  0.50860000  0.65320000  1.0 0.0881783363
C  C134  1  0.17630000  0.44990000  0.68040000  1.0 -0.4202890792
C  C135  1  0.16980000  0.50290000  0.63170000  1.0 -0.4202890792
C  C136  1  0.01620000  0.81680000  0.62760000  1.0 0.0881783363
C  C137  1  0.02630000  0.92300000  0.63080000  1.0 -0.4518029951
C  C138  1  0.96380000  0.78800000  0.63390000  1.0 -0.4408558865
C  C139  1  0.67511000  0.58440000  0.37591000  1.0 0.1835051033
C  C140  1  0.69550000  0.67050000  0.38870000  1.0 -0.0209585898
C  C141  1  0.65850000  0.74560000  0.37520000  1.0 -0.1513290763
C  C142  1  0.59960000  0.73320000  0.34980000  1.0 -0.1241538336
C  C143  1  0.58130000  0.64610000  0.33720000  1.0 -0.1595213792
C  C144  1  0.61817000  0.56730000  0.35017000  1.0 -0.0063920084
C  C145  1  0.75940000  0.68230000  0.41640000  1.0 0.1120967933
C  C146  1  0.75270000  0.68780000  0.44770000  1.0 -0.4202890792
C  C147  1  0.79300000  0.76640000  0.41420000  1.0 -0.4408558865
C  C148  1  0.60180000  0.46670000  0.33720000  1.0 0.1120967933
C  C149  1  0.64070000  0.43290000  0.32240000  1.0 -0.4592109536
C  C150  1  0.53180000  0.45930000  0.31400000  1.0 -0.4518029951
C  C151  1  0.74440000  0.32220000  0.86400000  1.0 0.0987988529
C  C152  1  0.75320000  0.37220000  0.84180000  1.0 -0.1924511651
C  C153  1  0.74540000  0.46940000  0.84020000  1.0 0.1295525943
C  C154  1  0.72540000  0.51190000  0.86100000  1.0 -0.1819346098
C  C155  1  0.71740000  0.45550000  0.88250000  1.0 0.0701262435
C  C156  1  0.75110000  0.53010000  0.81700000  1.0 0.0600319936
C  C157  1  0.75603000  0.67480000  0.79483000  1.0 0.0701262435
C  C158  1  0.81470000  0.68040000  0.79430000  1.0 0.0107051567
C  C159  1  0.81650000  0.74360000  0.77200000  1.0 -0.2034839757
C  C160  1  0.76490000  0.79450000  0.75100000  1.0 0.0790581374
C  C161  1  0.71068000  0.78400000  0.75338000  1.0 -0.1924511651
C  C162  1  0.70568000  0.72780000  0.77558000  1.0 0.0166355414
C  C163  1  0.86970000  0.63230000  0.81590000  1.0 0.0701262435
C  C164  1  0.90610000  0.59270000  0.80060000  1.0 -0.4408558865
C  C165  1  0.91370000  0.69350000  0.83810000  1.0 -0.4331839715
C  C166  1  0.64210000  0.71370000  0.77720000  1.0 0.0987988529
C  C167  1  0.60520000  0.80290000  0.76850000  1.0 -0.4592109536
C  C168  1  0.60720000  0.63130000  0.75650000  1.0 -0.4518029951
C  C169  1  0.93160000  0.18140000  0.50400000  1.0 0.1929631199
C  C170  1  0.97210000  0.23390000  0.53060000  1.0 -0.0209585898
C  C171  1  0.02500000  0.26590000  0.53000000  1.0 -0.1656270062
C  C172  1  0.03750000  0.25070000  0.50360000  1.0 -0.1256269645
C  C173  1  0.99900000  0.19670000  0.47980000  1.0 -0.1441651468
C  C174  1  0.94530000  0.15910000  0.47940000  1.0 -0.0209585898
C  C175  1  0.96160000  0.24070000  0.55860000  1.0 0.0987988529
C  C176  1  0.96920000  0.14530000  0.57520000  1.0 -0.4408558865
C  C177  1  0.00010000  0.31410000  0.58210000  1.0 -0.4518029951
C  C178  1  0.90390000  0.09110000  0.45300000  1.0 0.1120967933
C  C179  1  0.89510000  0.12790000  0.42080000  1.0 -0.4592109536
C  C180  1  0.93010000  0.99340000  0.46010000  1.0 -0.4592109536
C  C181  1  0.69500000  0.02880000  0.53920000  1.0 0.0987988529
C  C182  1  0.70630000  0.97700000  0.56540000  1.0 -0.2034839757
C  C183  1  0.72760000  0.02160000  0.59380000  1.0 0.1295525943
C  C184  1  0.73980000  0.11660000  0.59510000  1.0 -0.1595213792
C  C185  1  0.72790000  0.16270000  0.56740000  1.0 0.0881783363
C  C186  1  0.73840000  0.96630000  0.62270000  1.0 0.053966597
C  C187  1  0.76620000  0.95140000  0.67600000  1.0 0.0600319936
C  C188  1  0.73380000  0.98520000  0.69060000  1.0 0.0166355414
C  C189  1  0.73610000  0.93650000  0.71580000  1.0 -0.2034839757
C  C190  1  0.76850000  0.85080000  0.72520000  1.0 0.0790581374
C  C191  1  0.80380000  0.82080000  0.71120000  1.0 -0.1924511651
C  C192  1  0.80350000  0.87250000  0.68640000  1.0 0.0166355414
C  C193  1  0.69770000  0.07670000  0.68080000  1.0 0.0790581374
C  C194  1  0.63700000  0.06930000  0.65210000  1.0 -0.4518029951
C  C195  1  0.72650000  0.16060000  0.69380000  1.0 -0.4408558865
C  C196  1  0.84780000  0.84560000  0.67260000  1.0 0.0701262435
C  C197  1  0.83340000  0.74950000  0.65910000  1.0 -0.4408558865
C  C198  1  0.91610000  0.84850000  0.69980000  1.0 -0.4202890792
C  C199  1  0.68790000  0.41790000  0.56250000  1.0 0.2013030502
C  C200  1  0.63340000  0.37880000  0.56090000  1.0 -0.0209585898
C  C201  1  0.63760000  0.33820000  0.58850000  1.0 -0.1513290763
C  C202  1  0.69770000  0.33180000  0.61580000  1.0 -0.1256269645
C  C203  1  0.74660000  0.37120000  0.61570000  1.0 -0.1441651468
C  C204  1  0.74740000  0.41290000  0.58960000  1.0 -0.0063920084
C  C205  1  0.57510000  0.38630000  0.53250000  1.0 0.0881783363
C  C206  1  0.55030000  0.29600000  0.51660000  1.0 -0.4202890792
C  C207  1  0.52360000  0.43060000  0.53720000  1.0 -0.4202890792
C  C208  1  0.80370000  0.45310000  0.58830000  1.0 0.0881783363
C  C209  1  0.84840000  0.37750000  0.58520000  1.0 -0.4408558865
C  C210  1  0.84320000  0.51390000  0.61830000  1.0 -0.4408558865
C  C211  1  0.52928000  0.92390000  0.90338000  1.0 0.0987988529
C  C212  1  0.48340000  0.87620000  0.87870000  1.0 -0.1924511651
C  C213  1  0.43620000  0.93080000  0.85530000  1.0 0.1120967933
C  C214  1  0.43850000  0.02450000  0.85800000  1.0 -0.1513290763
C  C215  1  0.48400000  0.06630000  0.88340000  1.0 0.0790581374
C  C216  1  0.39020000  0.87940000  0.82810000  1.0 0.053966597
C  C217  1  0.31070000  0.87620000  0.77720000  1.0 0.0881783363
C  C218  1  0.24920000  0.89350000  0.77010000  1.0 0.0107051567
C  C219  1  0.20442000  0.84630000  0.74362000  1.0 -0.1924511651
C  C220  1  0.22090000  0.78860000  0.72540000  1.0 0.053966597
C  C221  1  0.28100000  0.77610000  0.73280000  1.0 -0.1924511651
C  C222  1  0.32830000  0.82120000  0.75770000  1.0 0.0107051567
C  C223  1  0.23460000  0.95550000  0.79250000  1.0 0.0987988529
C  C224  1  0.17070000  0.93440000  0.79120000  1.0 -0.4331839715
C  C225  1  0.24190000  0.05700000  0.78760000  1.0 -0.4518029951
C  C226  1  0.39510000  0.81090000  0.76350000  1.0 0.0881783363
C  C227  1  0.40480000  0.83690000  0.73520000  1.0 -0.4592109536
C  C228  1  0.41750000  0.70990000  0.77470000  1.0 -0.4518029951
C  C229  1  0.49080000  0.15610000  0.38770000  1.0 0.1835051033
C  C230  1  0.44390000  0.19610000  0.39360000  1.0 -0.0209585898
C  C231  1  0.39110000  0.22580000  0.36730000  1.0 -0.1595213792
C  C232  1  0.38410000  0.21610000  0.33670000  1.0 -0.1441651468
C  C233  1  0.43180000  0.17450000  0.33290000  1.0 -0.1441651468
C  C234  1  0.48620000  0.14460000  0.35800000  1.0 -0.0269205866
C  C235  1  0.45030000  0.20440000  0.42690000  1.0 0.0987988529
C  C236  1  0.40560000  0.28720000  0.42670000  1.0 -0.4331839715
C  C237  1  0.43360000  0.12320000  0.43910000  1.0 -0.4202890792
C  C238  1  0.53710000  0.10010000  0.35190000  1.0 0.1120967933
C  C239  1  0.51240000  0.01270000  0.33090000  1.0 -0.4518029951
C  C240  1  0.56470000  0.17320000  0.33630000  1.0 -0.4592109536
C  C241  1  0.07140000  0.50070000  0.48530000  1.0 0.0790581374
C  C242  1  0.01950000  0.46200000  0.46150000  1.0 -0.1924511651
C  C243  1  0.02290000  0.41350000  0.43760000  1.0 0.1120967933
C  C244  1  0.08060000  0.40050000  0.43950000  1.0 -0.1595213792
C  C245  1  0.13140000  0.43850000  0.46360000  1.0 0.0881783363
C  C246  1  0.97040000  0.37600000  0.41090000  1.0 0.0428827519
C  C247  1  0.91790000  0.33370000  0.35760000  1.0 0.0790581374
C  C248  1  0.86760000  0.38930000  0.33840000  1.0 0.0166355414
C  C249  1  0.82352000  0.34480000  0.31252000  1.0 -0.208838727
C  C250  1  0.82890000  0.25420000  0.30410000  1.0 0.0701262435
C  C251  1  0.88020000  0.20080000  0.32320000  1.0 -0.2200508103
C  C252  1  0.92490000  0.23860000  0.35070000  1.0 0.0279803689
C  C253  1  0.86350000  0.49140000  0.34680000  1.0 0.0881783363
C  C254  1  0.82370000  0.55010000  0.31960000  1.0 -0.4202890792
C  C255  1  0.83020000  0.49710000  0.36830000  1.0 -0.4202890792
C  C256  1  0.98380000  0.18320000  0.37240000  1.0 0.0881783363
C  C257  1  0.97370000  0.07700000  0.36920000  1.0 -0.4518029951
C  C258  1  0.03620000  0.21200000  0.36610000  1.0 -0.4408558865
C  C259  1  0.32489000  0.41560000  0.62409000  1.0 0.1835051033
C  C260  1  0.30450000  0.32950000  0.61130000  1.0 -0.0209585898
C  C261  1  0.34150000  0.25440000  0.62480000  1.0 -0.1513290763
C  C262  1  0.40040000  0.26680000  0.65020000  1.0 -0.1241538336
C  C263  1  0.41870000  0.35390000  0.66280000  1.0 -0.1595213792
C  C264  1  0.38183000  0.43270000  0.64983000  1.0 -0.0063920084
C  C265  1  0.24060000  0.31770000  0.58360000  1.0 0.1120967933
C  C266  1  0.24730000  0.31220000  0.55230000  1.0 -0.4202890792
C  C267  1  0.20700000  0.23360000  0.58580000  1.0 -0.4408558865
C  C268  1  0.39820000  0.53330000  0.66280000  1.0 0.1120967933
C  C269  1  0.35930000  0.56710000  0.67760000  1.0 -0.4592109536
C  C270  1  0.46820000  0.54070000  0.68600000  1.0 -0.4518029951
C  C271  1  0.25560000  0.67780000  0.13600000  1.0 0.0987988529
C  C272  1  0.24680000  0.62780000  0.15820000  1.0 -0.1924511651
C  C273  1  0.25460000  0.53060000  0.15980000  1.0 0.1295525943
C  C274  1  0.27460000  0.48810000  0.13900000  1.0 -0.1819346098
C  C275  1  0.28260000  0.54450000  0.11750000  1.0 0.0701262435
C  C276  1  0.24890000  0.46990000  0.18300000  1.0 0.0600319936
C  C277  1  0.24397000  0.32520000  0.20517000  1.0 0.0701262435
C  C278  1  0.18530000  0.31960000  0.20570000  1.0 0.0107051567
C  C279  1  0.18350000  0.25640000  0.22800000  1.0 -0.2034839757
C  C280  1  0.23510000  0.20550000  0.24900000  1.0 0.0790581374
C  C281  1  0.28932000  0.21600000  0.24662000  1.0 -0.1924511651
C  C282  1  0.29432000  0.27220000  0.22442000  1.0 0.0166355414
C  C283  1  0.13030000  0.36770000  0.18410000  1.0 0.0701262435
C  C284  1  0.09390000  0.40730000  0.19940000  1.0 -0.4408558865
C  C285  1  0.08630000  0.30650000  0.16190000  1.0 -0.4331839715
C  C286  1  0.35790000  0.28630000  0.22280000  1.0 0.0987988529
C  C287  1  0.39480000  0.19710000  0.23150000  1.0 -0.4592109536
C  C288  1  0.39280000  0.36870000  0.24350000  1.0 -0.4518029951
C  C289  1  0.06840000  0.81860000  0.49600000  1.0 0.1929631199
C  C290  1  0.02790000  0.76610000  0.46940000  1.0 -0.0209585898
C  C291  1  0.97500000  0.73410000  0.47000000  1.0 -0.1656270062
C  C292  1  0.96250000  0.74930000  0.49640000  1.0 -0.1256269645
C  C293  1  0.00100000  0.80330000  0.52020000  1.0 -0.1441651468
C  C294  1  0.05470000  0.84090000  0.52060000  1.0 -0.0209585898
C  C295  1  0.03840000  0.75930000  0.44140000  1.0 0.0987988529
C  C296  1  0.03080000  0.85470000  0.42480000  1.0 -0.4408558865
C  C297  1  0.99990000  0.68590000  0.41790000  1.0 -0.4518029951
C  C298  1  0.09610000  0.90890000  0.54700000  1.0 0.1120967933
C  C299  1  0.10490000  0.87210000  0.57920000  1.0 -0.4592109536
C  C300  1  0.06990000  0.00660000  0.53990000  1.0 -0.4592109536
C  C301  1  0.30500000  0.97120000  0.46080000  1.0 0.0987988529
C  C302  1  0.29370000  0.02300000  0.43460000  1.0 -0.1924511651
C  C303  1  0.27240000  0.97840000  0.40620000  1.0 0.1295525943
C  C304  1  0.26020000  0.88340000  0.40490000  1.0 -0.1595213792
C  C305  1  0.27210000  0.83730000  0.43260000  1.0 0.0881783363
C  C306  1  0.26160000  0.03370000  0.37730000  1.0 0.053966597
C  C307  1  0.23380000  0.04860000  0.32400000  1.0 0.0600319936
C  C308  1  0.26620000  0.01480000  0.30940000  1.0 0.0166355414
C  C309  1  0.26390000  0.06350000  0.28420000  1.0 -0.2034839757
C  C310  1  0.23150000  0.14920000  0.27480000  1.0 0.0790581374
C  C311  1  0.19620000  0.17920000  0.28880000  1.0 -0.1924511651
C  C312  1  0.19650000  0.12750000  0.31360000  1.0 0.0166355414
C  C313  1  0.30230000  0.92330000  0.31920000  1.0 0.0790581374
C  C314  1  0.36300000  0.93070000  0.34790000  1.0 -0.4518029951
C  C315  1  0.27350000  0.83940000  0.30620000  1.0 -0.4408558865
C  C316  1  0.15220000  0.15440000  0.32740000  1.0 0.0701262435
C  C317  1  0.16660000  0.25050000  0.34090000  1.0 -0.4408558865
C  C318  1  0.08390000  0.15150000  0.30020000  1.0 -0.4202890792
C  C319  1  0.31210000  0.58210000  0.43750000  1.0 0.2013030502
C  C320  1  0.36660000  0.62120000  0.43910000  1.0 -0.0209585898
C  C321  1  0.36240000  0.66180000  0.41150000  1.0 -0.1513290763
C  C322  1  0.30230000  0.66820000  0.38420000  1.0 -0.1241538336
C  C323  1  0.25340000  0.62880000  0.38430000  1.0 -0.1441651468
C  C324  1  0.25260000  0.58710000  0.41040000  1.0 -0.0063920084
C  C325  1  0.42490000  0.61370000  0.46750000  1.0 0.0881783363
C  C326  1  0.44970000  0.70400000  0.48340000  1.0 -0.4202890792
C  C327  1  0.47640000  0.56940000  0.46280000  1.0 -0.4202890792
C  C328  1  0.19630000  0.54690000  0.41170000  1.0 0.0881783363
C  C329  1  0.15160000  0.62250000  0.41480000  1.0 -0.4408558865
C  C330  1  0.15680000  0.48610000  0.38170000  1.0 -0.4408558865
C  C331  1  0.47072000  0.07610000  0.09662000  1.0 0.0987988529
C  C332  1  0.51660000  0.12380000  0.12130000  1.0 -0.1924511651
C  C333  1  0.56380000  0.06920000  0.14470000  1.0 0.1120967933
C  C334  1  0.56150000  0.97550000  0.14200000  1.0 -0.1513290763
C  C335  1  0.51600000  0.93370000  0.11660000  1.0 0.0790581374
C  C336  1  0.60980000  0.12060000  0.17190000  1.0 0.053966597
C  C337  1  0.68930000  0.12380000  0.22280000  1.0 0.0881783363
C  C338  1  0.75080000  0.10650000  0.22990000  1.0 0.0107051567
C  C339  1  0.79558000  0.15370000  0.25638000  1.0 -0.1924511651
C  C340  1  0.77910000  0.21140000  0.27460000  1.0 0.053966597
C  C341  1  0.71900000  0.22390000  0.26720000  1.0 -0.1924511651
C  C342  1  0.67170000  0.17880000  0.24230000  1.0 0.0107051567
C  C343  1  0.76540000  0.04450000  0.20750000  1.0 0.0987988529
C  C344  1  0.82930000  0.06560000  0.20880000  1.0 -0.4331839715
C  C345  1  0.75810000  0.94300000  0.21240000  1.0 -0.4518029951
C  C346  1  0.60490000  0.18910000  0.23650000  1.0 0.0881783363
C  C347  1  0.59520000  0.16310000  0.26480000  1.0 -0.4592109536
C  C348  1  0.58250000  0.29010000  0.22530000  1.0 -0.4518029951
C  C349  1  0.50920000  0.84390000  0.61230000  1.0 0.1835051033
C  C350  1  0.55610000  0.80390000  0.60640000  1.0 -0.0209585898
C  C351  1  0.60890000  0.77420000  0.63270000  1.0 -0.1595213792
C  C352  1  0.61590000  0.78390000  0.66330000  1.0 -0.1441651468
C  C353  1  0.56820000  0.82550000  0.66710000  1.0 -0.1441651468
C  C354  1  0.51380000  0.85540000  0.64200000  1.0 -0.0269205866
C  C355  1  0.54970000  0.79560000  0.57310000  1.0 0.0987988529
C  C356  1  0.59440000  0.71280000  0.57330000  1.0 -0.4331839715
C  C357  1  0.56640000  0.87680000  0.56090000  1.0 -0.4202890792
C  C358  1  0.46290000  0.89990000  0.64810000  1.0 0.1120967933
C  C359  1  0.48760000  0.98730000  0.66910000  1.0 -0.4518029951
C  C360  1  0.43530000  0.82680000  0.66370000  1.0 -0.4592109536
C  C361  1  0.07140000  0.99930000  0.98530000  1.0 0.0790581374
C  C362  1  0.01950000  0.03800000  0.96150000  1.0 -0.1924511651
C  C363  1  0.02290000  0.08650000  0.93760000  1.0 0.1120967933
C  C364  1  0.08060000  0.09950000  0.93950000  1.0 -0.1595213792
C  C365  1  0.13140000  0.06150000  0.96360000  1.0 0.0881783363
C  C366  1  0.97040000  0.12400000  0.91090000  1.0 0.0428827519
C  C367  1  0.91790000  0.16630000  0.85760000  1.0 0.0790581374
C  C368  1  0.86760000  0.11070000  0.83840000  1.0 0.0166355414
C  C369  1  0.82352000  0.15520000  0.81252000  1.0 -0.208838727
C  C370  1  0.82890000  0.24580000  0.80410000  1.0 0.0701262435
C  C371  1  0.88020000  0.29920000  0.82320000  1.0 -0.2200508103
C  C372  1  0.92490000  0.26140000  0.85070000  1.0 0.0279803689
C  C373  1  0.86350000  0.00860000  0.84680000  1.0 0.0881783363
C  C374  1  0.82370000  0.94990000  0.81960000  1.0 -0.4202890792
C  C375  1  0.83020000  0.00290000  0.86830000  1.0 -0.4202890792
C  C376  1  0.98380000  0.31680000  0.87240000  1.0 0.0881783363
C  C377  1  0.97370000  0.42300000  0.86920000  1.0 -0.4518029951
C  C378  1  0.03620000  0.28800000  0.86610000  1.0 -0.4408558865
C  C379  1  0.32489000  0.08440000  0.12409000  1.0 0.1835051033
C  C380  1  0.30450000  0.17050000  0.11130000  1.0 -0.0209585898
C  C381  1  0.34150000  0.24560000  0.12480000  1.0 -0.1513290763
C  C382  1  0.40040000  0.23320000  0.15020000  1.0 -0.1241538336
C  C383  1  0.41870000  0.14610000  0.16280000  1.0 -0.1595213792
C  C384  1  0.38183000  0.06730000  0.14983000  1.0 -0.0063920084
C  C385  1  0.24060000  0.18230000  0.08360000  1.0 0.1120967933
C  C386  1  0.24730000  0.18780000  0.05230000  1.0 -0.4202890792
C  C387  1  0.20700000  0.26640000  0.08580000  1.0 -0.4408558865
C  C388  1  0.39820000  0.96670000  0.16280000  1.0 0.1120967933
C  C389  1  0.35930000  0.93290000  0.17760000  1.0 -0.4592109536
C  C390  1  0.46820000  0.95930000  0.18600000  1.0 -0.4518029951
C  C391  1  0.25560000  0.82220000  0.63600000  1.0 0.0987988529
C  C392  1  0.24680000  0.87220000  0.65820000  1.0 -0.1924511651
C  C393  1  0.25460000  0.96940000  0.65980000  1.0 0.1295525943
C  C394  1  0.27460000  0.01190000  0.63900000  1.0 -0.1819346098
C  C395  1  0.28260000  0.95550000  0.61750000  1.0 0.0701262435
C  C396  1  0.24890000  0.03010000  0.68300000  1.0 0.0600319936
C  C397  1  0.24397000  0.17480000  0.70517000  1.0 0.0701262435
C  C398  1  0.18530000  0.18040000  0.70570000  1.0 0.0107051567
C  C399  1  0.18350000  0.24360000  0.72800000  1.0 -0.2034839757
C  C400  1  0.23510000  0.29450000  0.74900000  1.0 0.0790581374
C  C401  1  0.28932000  0.28400000  0.74662000  1.0 -0.1924511651
C  C402  1  0.29432000  0.22780000  0.72442000  1.0 0.0166355414
C  C403  1  0.13030000  0.13230000  0.68410000  1.0 0.0701262435
C  C404  1  0.09390000  0.09270000  0.69940000  1.0 -0.4408558865
C  C405  1  0.08630000  0.19350000  0.66190000  1.0 -0.4331839715
C  C406  1  0.35790000  0.21370000  0.72280000  1.0 0.0987988529
C  C407  1  0.39480000  0.30290000  0.73150000  1.0 -0.4592109536
C  C408  1  0.39280000  0.13130000  0.74350000  1.0 -0.4518029951
C  C409  1  0.06840000  0.68140000  0.99600000  1.0 0.1929631199
C  C410  1  0.02790000  0.73390000  0.96940000  1.0 -0.0209585898
C  C411  1  0.97500000  0.76590000  0.97000000  1.0 -0.1656270062
C  C412  1  0.96250000  0.75070000  0.99640000  1.0 -0.1256269645
C  C413  1  0.00100000  0.69670000  0.02020000  1.0 -0.1441651468
C  C414  1  0.05470000  0.65910000  0.02060000  1.0 -0.0209585898
C  C415  1  0.03840000  0.74070000  0.94140000  1.0 0.0987988529
C  C416  1  0.03080000  0.64530000  0.92480000  1.0 -0.4408558865
C  C417  1  0.99990000  0.81410000  0.91790000  1.0 -0.4518029951
C  C418  1  0.09610000  0.59110000  0.04700000  1.0 0.1120967933
C  C419  1  0.10490000  0.62790000  0.07920000  1.0 -0.4592109536
C  C420  1  0.06990000  0.49340000  0.03990000  1.0 -0.4592109536
C  C421  1  0.30500000  0.52880000  0.96080000  1.0 0.0987988529
C  C422  1  0.29370000  0.47700000  0.93460000  1.0 -0.1924511651
C  C423  1  0.27240000  0.52160000  0.90620000  1.0 0.1295525943
C  C424  1  0.26020000  0.61660000  0.90490000  1.0 -0.1595213792
C  C425  1  0.27210000  0.66270000  0.93260000  1.0 0.0881783363
C  C426  1  0.26160000  0.46630000  0.87730000  1.0 0.053966597
C  C427  1  0.23380000  0.45140000  0.82400000  1.0 0.0600319936
C  C428  1  0.26620000  0.48520000  0.80940000  1.0 0.0166355414
C  C429  1  0.26390000  0.43650000  0.78420000  1.0 -0.2034839757
C  C430  1  0.23150000  0.35080000  0.77480000  1.0 0.0790581374
C  C431  1  0.19620000  0.32080000  0.78880000  1.0 -0.1924511651
C  C432  1  0.19650000  0.37250000  0.81360000  1.0 0.0166355414
C  C433  1  0.30230000  0.57670000  0.81920000  1.0 0.0790581374
C  C434  1  0.36300000  0.56930000  0.84790000  1.0 -0.4518029951
C  C435  1  0.27350000  0.66060000  0.80620000  1.0 -0.4408558865
C  C436  1  0.15220000  0.34560000  0.82740000  1.0 0.0701262435
C  C437  1  0.16660000  0.24950000  0.84090000  1.0 -0.4408558865
C  C438  1  0.08390000  0.34850000  0.80020000  1.0 -0.4202890792
C  C439  1  0.31210000  0.91790000  0.93750000  1.0 0.2013030502
C  C440  1  0.36660000  0.87880000  0.93910000  1.0 -0.0209585898
C  C441  1  0.36240000  0.83820000  0.91150000  1.0 -0.1513290763
C  C442  1  0.30230000  0.83180000  0.88420000  1.0 -0.1256269645
C  C443  1  0.25340000  0.87120000  0.88430000  1.0 -0.1441651468
C  C444  1  0.25260000  0.91290000  0.91040000  1.0 -0.0063920084
C  C445  1  0.42490000  0.88630000  0.96750000  1.0 0.0881783363
C  C446  1  0.44970000  0.79600000  0.98340000  1.0 -0.4202890792
C  C447  1  0.47640000  0.93060000  0.96280000  1.0 -0.4202890792
C  C448  1  0.19630000  0.95310000  0.91170000  1.0 0.0881783363
C  C449  1  0.15160000  0.87750000  0.91480000  1.0 -0.4408558865
C  C450  1  0.15680000  0.01390000  0.88170000  1.0 -0.4408558865
C  C451  1  0.47072000  0.42390000  0.59662000  1.0 0.0987988529
C  C452  1  0.51660000  0.37620000  0.62130000  1.0 -0.1924511651
C  C453  1  0.56380000  0.43080000  0.64470000  1.0 0.1120967933
C  C454  1  0.56150000  0.52450000  0.64200000  1.0 -0.1513290763
C  C455  1  0.51600000  0.56630000  0.61660000  1.0 0.0790581374
C  C456  1  0.60980000  0.37940000  0.67190000  1.0 0.053966597
C  C457  1  0.68930000  0.37620000  0.72280000  1.0 0.0881783363
C  C458  1  0.75080000  0.39350000  0.72990000  1.0 0.0107051567
C  C459  1  0.79558000  0.34630000  0.75638000  1.0 -0.1924511651
C  C460  1  0.77910000  0.28860000  0.77460000  1.0 0.053966597
C  C461  1  0.71900000  0.27610000  0.76720000  1.0 -0.1924511651
C  C462  1  0.67170000  0.32120000  0.74230000  1.0 0.0107051567
C  C463  1  0.76540000  0.45550000  0.70750000  1.0 0.0987988529
C  C464  1  0.82930000  0.43440000  0.70880000  1.0 -0.4331839715
C  C465  1  0.75810000  0.55700000  0.71240000  1.0 -0.4518029951
C  C466  1  0.60490000  0.31090000  0.73650000  1.0 0.0881783363
C  C467  1  0.59520000  0.33690000  0.76480000  1.0 -0.4592109536
C  C468  1  0.58250000  0.20990000  0.72530000  1.0 -0.4518029951
C  C469  1  0.50920000  0.65610000  0.11230000  1.0 0.1835051033
C  C470  1  0.55610000  0.69610000  0.10640000  1.0 -0.0209585898
C  C471  1  0.60890000  0.72580000  0.13270000  1.0 -0.1595213792
C  C472  1  0.61590000  0.71610000  0.16330000  1.0 -0.1441651468
C  C473  1  0.56820000  0.67450000  0.16710000  1.0 -0.1441651468
C  C474  1  0.51380000  0.64460000  0.14200000  1.0 -0.0269205866
C  C475  1  0.54970000  0.70440000  0.07310000  1.0 0.0987988529
C  C476  1  0.59440000  0.78720000  0.07330000  1.0 -0.4331839715
C  C477  1  0.56640000  0.62320000  0.06090000  1.0 -0.4202890792
C  C478  1  0.46290000  0.60010000  0.14810000  1.0 0.1120967933
C  C479  1  0.48760000  0.51270000  0.16910000  1.0 -0.4518029951
C  C480  1  0.43530000  0.67320000  0.16370000  1.0 -0.4518029951
N  N1  1  0.87351000  0.99040000  0.01431000  1.0 -0.2200508103
N  N2  1  0.03146000  0.87280000  0.11566000  1.0 -0.2512560596
N  N3  1  0.70520000  0.38050000  0.03970000  1.0 -0.2200508103
N  N4  1  0.72714000  0.13920000  0.38434000  1.0 -0.2512560596
N  N5  1  0.35790000  0.57540000  0.30330000  1.0 -0.2604878654
N  N6  1  0.53054000  0.48310000  0.40564000  1.0 -0.2356817236
N  N7  1  0.76200000  0.49580000  0.14840000  1.0 -0.2302465771
N  N8  1  0.74868000  0.88390000  0.31788000  1.0 -0.2604878654
N  N9  1  0.87351000  0.50960000  0.51431000  1.0 -0.2200508103
N  N10  1  0.03146000  0.62720000  0.61566000  1.0 -0.2512560596
N  N11  1  0.70520000  0.11950000  0.53970000  1.0 -0.2200508103
N  N12  1  0.72714000  0.36080000  0.88434000  1.0 -0.2512560596
N  N13  1  0.35790000  0.92460000  0.80330000  1.0 -0.2604878654
N  N14  1  0.53054000  0.01690000  0.90564000  1.0 -0.2356817236
N  N15  1  0.76200000  0.00420000  0.64840000  1.0 -0.2302465771
N  N16  1  0.74868000  0.61610000  0.81788000  1.0 -0.2604878654
N  N17  1  0.12649000  0.49040000  0.48569000  1.0 -0.2200508103
N  N18  1  0.96854000  0.37280000  0.38434000  1.0 -0.2512560596
N  N19  1  0.29480000  0.88050000  0.46030000  1.0 -0.2200508103
N  N20  1  0.27286000  0.63920000  0.11566000  1.0 -0.2512560596
N  N21  1  0.64210000  0.07540000  0.19670000  1.0 -0.2604878654
N  N22  1  0.46946000  0.98310000  0.09436000  1.0 -0.2356817236
N  N23  1  0.23800000  0.99580000  0.35160000  1.0 -0.2302465771
N  N24  1  0.25132000  0.38390000  0.18212000  1.0 -0.2604878654
N  N25  1  0.12649000  0.00960000  0.98569000  1.0 -0.2200508103
N  N26  1  0.96854000  0.12720000  0.88434000  1.0 -0.2512560596
N  N27  1  0.29480000  0.61950000  0.96030000  1.0 -0.2200508103
N  N28  1  0.27286000  0.86080000  0.61566000  1.0 -0.2512560596
N  N29  1  0.64210000  0.42460000  0.69670000  1.0 -0.2604878654
N  N30  1  0.46946000  0.51690000  0.59436000  1.0 -0.2356817236
N  N31  1  0.23800000  0.50420000  0.85160000  1.0 -0.2302465771
N  N32  1  0.25132000  0.11610000  0.68212000  1.0 -0.2604878654
O  O1  1  0.77577000  0.05390000  0.94327000  1.0 -0.7874060755
O  O2  1  0.70425000  0.16080000  0.90065000  1.0 -0.799165606
O  O3  1  0.79587000  0.29170000  0.95357000  1.0 -0.8075880351
O  O4  1  0.82930000  0.19420000  0.00260000  1.0 -0.799165606
O  O5  1  0.74103000  0.02890000  0.00293000  1.0 -0.799165606
O  O6  1  0.66170000  0.03000000  0.92320000  1.0 -0.8166521822
O  O7  1  0.65139000  0.34610000  0.92149000  1.0 -0.799165606
O  O8  1  0.77255000  0.34830000  0.99795000  1.0 -0.7874060755
O  O9  1  0.70410000  0.18410000  0.01500000  1.0 -0.8075880351
O  O10  1  0.62892000  0.06280000  0.98002000  1.0 -0.7834709172
O  O11  1  0.58519000  0.21410000  0.92409000  1.0 -0.8075880351
O  O12  1  0.62303000  0.34220000  0.96583000  1.0 -0.7874060755
O  O13  1  0.71500000  0.99340000  0.88870000  1.0 -0.4592109536
O  O14  1  0.87734000  0.35290000  0.00434000  1.0 -0.4518029951
O  O15  1  0.68860000  0.03200000  0.03670000  1.0 -0.4592109536
O  O16  1  0.54431000  0.37720000  0.91351000  1.0 -0.4518029951
O  O17  1  0.77577000  0.44610000  0.44327000  1.0 -0.7874060755
O  O18  1  0.70425000  0.33920000  0.40065000  1.0 -0.799165606
O  O19  1  0.79587000  0.20830000  0.45357000  1.0 -0.8075880351
O  O20  1  0.82930000  0.30580000  0.50260000  1.0 -0.799165606
O  O21  1  0.74103000  0.47110000  0.50293000  1.0 -0.799165606
O  O22  1  0.66170000  0.47000000  0.42320000  1.0 -0.8166521822
O  O23  1  0.65139000  0.15390000  0.42149000  1.0 -0.799165606
O  O24  1  0.77255000  0.15170000  0.49795000  1.0 -0.7874060755
O  O25  1  0.70410000  0.31590000  0.51500000  1.0 -0.8075880351
O  O26  1  0.62892000  0.43720000  0.48002000  1.0 -0.7834709172
O  O27  1  0.58519000  0.28590000  0.42409000  1.0 -0.8075880351
O  O28  1  0.62303000  0.15780000  0.46583000  1.0 -0.7874060755
O  O29  1  0.71500000  0.50660000  0.38870000  1.0 -0.4592109536
O  O30  1  0.87734000  0.14710000  0.50434000  1.0 -0.4518029951
O  O31  1  0.68860000  0.46800000  0.53670000  1.0 -0.4592109536
O  O32  1  0.54431000  0.12280000  0.41351000  1.0 -0.4518029951
O  O33  1  0.22423000  0.55390000  0.55673000  1.0 -0.7874060755
O  O34  1  0.29575000  0.66080000  0.59935000  1.0 -0.799165606
O  O35  1  0.20413000  0.79170000  0.54643000  1.0 -0.8075880351
O  O36  1  0.17070000  0.69420000  0.49740000  1.0 -0.799165606
O  O37  1  0.25897000  0.52890000  0.49707000  1.0 -0.799165606
O  O38  1  0.33830000  0.53000000  0.57680000  1.0 -0.8166521822
O  O39  1  0.34861000  0.84610000  0.57851000  1.0 -0.799165606
O  O40  1  0.22745000  0.84830000  0.50205000  1.0 -0.7874060755
O  O41  1  0.29590000  0.68410000  0.48500000  1.0 -0.8075880351
O  O42  1  0.37108000  0.56280000  0.51998000  1.0 -0.7834709172
O  O43  1  0.41481000  0.71410000  0.57591000  1.0 -0.8075880351
O  O44  1  0.37697000  0.84220000  0.53417000  1.0 -0.7874060755
O  O45  1  0.28500000  0.49340000  0.61130000  1.0 -0.4592109536
O  O46  1  0.12266000  0.85290000  0.49566000  1.0 -0.4518029951
O  O47  1  0.31140000  0.53200000  0.46330000  1.0 -0.4592109536
O  O48  1  0.45569000  0.87720000  0.58649000  1.0 -0.4518029951
O  O49  1  0.22423000  0.94610000  0.05673000  1.0 -0.7874060755
O  O50  1  0.29575000  0.83920000  0.09935000  1.0 -0.799165606
O  O51  1  0.20413000  0.70830000  0.04643000  1.0 -0.8075880351
O  O52  1  0.17070000  0.80580000  0.99740000  1.0 -0.799165606
O  O53  1  0.25897000  0.97110000  0.99707000  1.0 -0.799165606
O  O54  1  0.33830000  0.97000000  0.07680000  1.0 -0.8166521822
O  O55  1  0.34861000  0.65390000  0.07851000  1.0 -0.8075880351
O  O56  1  0.22745000  0.65170000  0.00205000  1.0 -0.7874060755
O  O57  1  0.29590000  0.81590000  0.98500000  1.0 -0.8075880351
O  O58  1  0.37108000  0.93720000  0.01998000  1.0 -0.7834709172
O  O59  1  0.41481000  0.78590000  0.07591000  1.0 -0.8075880351
O  O60  1  0.37697000  0.65780000  0.03417000  1.0 -0.7874060755
O  O61  1  0.28500000  0.00660000  0.11130000  1.0 -0.4592109536
O  O62  1  0.12266000  0.64710000  0.99566000  1.0 -0.4518029951
O  O63  1  0.31140000  0.96800000  0.96330000  1.0 -0.4592109536
O  O64  1  0.45569000  0.62280000  0.08649000  1.0 -0.4518029951
