# DDEC6 charges by PACMAN v1.1 (https://github.com/mtap-research/PACMAN-charge/)
data_HIBTEU_ASR_pacman
_symmetry_space_group_name_H-M   'P 1'
_cell_length_a   10.76320000
_cell_length_b   10.76320000
_cell_length_c   30.62600000
_cell_angle_alpha   90.00000000
_cell_angle_beta   90.00000000
_cell_angle_gamma   90.00000000
_symmetry_Int_Tables_number   1
_chemical_formula_structural   CuH6C12SO4
_chemical_formula_sum   'Cu8 H48 C96 S8 O32'
_cell_volume   3547.91412007
_cell_formula_units_Z   8
loop_
 _symmetry_equiv_pos_site_id
 _symmetry_equiv_pos_as_xyz
  1  'x, y, z'
loop_
 _atom_site_type_symbol
 _atom_site_label
 _atom_site_symmetry_multiplicity
 _atom_site_fract_x
 _atom_site_fract_y
 _atom_site_fract_z
 _atom_site_occupancy
 _atom_site_charge
Cu  Cu1  1  0.15722000  0.67103000  0.25198000  1.0 0.8149608822
Cu  Cu2  1  0.84278000  0.32897000  0.75198000  1.0 0.8154790254
Cu  Cu3  1  0.82897000  0.65722000  0.00198000  1.0 0.8154790254
Cu  Cu4  1  0.17103000  0.34278000  0.50198000  1.0 0.8154790254
Cu  Cu5  1  0.34278000  0.17103000  0.49802000  1.0 0.8154790254
Cu  Cu6  1  0.65722000  0.82897000  0.99802000  1.0 0.8154790254
Cu  Cu7  1  0.67103000  0.15722000  0.74802000  1.0 0.8154790254
Cu  Cu8  1  0.32897000  0.84278000  0.24802000  1.0 0.8154790254
H  H1  1  0.35810000  0.39270000  0.17280000  1.0 0.1196608121
H  H2  1  0.58400000  0.39470000  0.06880000  1.0 0.1196608121
H  H3  1  0.48830000  0.71420000  0.12530000  1.0 0.1332129316
H  H4  1  0.30340000  0.17700000  0.16220000  1.0 0.1196608121
H  H5  1  0.35520000  0.95570000  0.14120000  1.0 0.1196608121
H  H6  1  0.51910000  0.93870000  0.08770000  1.0 0.1580359788
H  H7  1  0.64190000  0.60730000  0.67280000  1.0 0.1196608121
H  H8  1  0.41600000  0.60530000  0.56880000  1.0 0.1196608121
H  H9  1  0.51170000  0.28580000  0.62530000  1.0 0.1332129316
H  H10  1  0.69660000  0.82300000  0.66220000  1.0 0.1196608121
H  H11  1  0.64480000  0.04430000  0.64120000  1.0 0.1196608121
H  H12  1  0.48090000  0.06130000  0.58770000  1.0 0.1580359788
H  H13  1  0.10730000  0.85810000  0.92280000  1.0 0.1196608121
H  H14  1  0.10530000  0.08400000  0.81880000  1.0 0.1196608121
H  H15  1  0.78580000  0.98830000  0.87530000  1.0 0.1332129316
H  H16  1  0.32300000  0.80340000  0.91220000  1.0 0.1196608121
H  H17  1  0.54430000  0.85520000  0.89120000  1.0 0.1196608121
H  H18  1  0.56130000  0.01910000  0.83770000  1.0 0.1580359788
H  H19  1  0.89270000  0.14190000  0.42280000  1.0 0.1196608121
H  H20  1  0.89470000  0.91600000  0.31880000  1.0 0.1196608121
H  H21  1  0.21420000  0.01170000  0.37530000  1.0 0.1332129316
H  H22  1  0.67700000  0.19660000  0.41220000  1.0 0.1196608121
H  H23  1  0.45570000  0.14480000  0.39120000  1.0 0.1196608121
H  H24  1  0.43870000  0.98090000  0.33770000  1.0 0.1580359788
H  H25  1  0.14190000  0.89270000  0.57720000  1.0 0.1196608121
H  H26  1  0.91600000  0.89470000  0.68120000  1.0 0.1196608121
H  H27  1  0.01170000  0.21420000  0.62470000  1.0 0.1332129316
H  H28  1  0.19660000  0.67700000  0.58780000  1.0 0.1196608121
H  H29  1  0.14480000  0.45570000  0.60880000  1.0 0.1196608121
H  H30  1  0.98090000  0.43870000  0.66230000  1.0 0.1580359788
H  H31  1  0.85810000  0.10730000  0.07720000  1.0 0.1196608121
H  H32  1  0.08400000  0.10530000  0.18120000  1.0 0.1196608121
H  H33  1  0.98830000  0.78580000  0.12470000  1.0 0.1332129316
H  H34  1  0.80340000  0.32300000  0.08780000  1.0 0.1196608121
H  H35  1  0.85520000  0.54430000  0.10880000  1.0 0.1196608121
H  H36  1  0.01910000  0.56130000  0.16230000  1.0 0.1580359788
H  H37  1  0.39270000  0.35810000  0.82720000  1.0 0.1196608121
H  H38  1  0.39470000  0.58400000  0.93120000  1.0 0.1196608121
H  H39  1  0.71420000  0.48830000  0.87470000  1.0 0.1332129316
H  H40  1  0.17700000  0.30340000  0.83780000  1.0 0.1196608121
H  H41  1  0.95570000  0.35520000  0.85880000  1.0 0.1196608121
H  H42  1  0.93870000  0.51910000  0.91230000  1.0 0.1580359788
H  H43  1  0.60730000  0.64190000  0.32720000  1.0 0.1196608121
H  H44  1  0.60530000  0.41600000  0.43120000  1.0 0.1196608121
H  H45  1  0.28580000  0.51170000  0.37470000  1.0 0.1332129316
H  H46  1  0.82300000  0.69660000  0.33780000  1.0 0.1196608121
H  H47  1  0.04430000  0.64480000  0.35880000  1.0 0.1196608121
H  H48  1  0.06130000  0.48090000  0.41230000  1.0 0.1580359788
C  C1  1  0.34800000  0.63410000  0.19040000  1.0 0.5696834476
C  C2  1  0.41350000  0.56380000  0.15440000  1.0 -0.0055741532
C  C3  1  0.40510000  0.43450000  0.15200000  1.0 -0.1372904888
C  C4  1  0.46310000  0.36770000  0.12040000  1.0 0.0784791784
C  C5  1  0.53880000  0.43720000  0.09000000  1.0 -0.1578218283
C  C6  1  0.54520000  0.56400000  0.09160000  1.0 0.0006006711
C  C7  1  0.48320000  0.62800000  0.12390000  1.0 -0.1145562379
C  C8  1  0.61960000  0.63290000  0.05700000  1.0 0.5696834476
C  C9  1  0.45290000  0.22960000  0.11640000  1.0 -0.0326640838
C  C10  1  0.36390000  0.15100000  0.14250000  1.0 -0.1578218283
C  C11  1  0.39540000  0.02470000  0.12960000  1.0 -0.1000516264
C  C12  1  0.49110000  0.01450000  0.09840000  1.0 -0.2085914424
C  C13  1  0.65200000  0.36590000  0.69040000  1.0 0.5696834476
C  C14  1  0.58650000  0.43620000  0.65440000  1.0 -0.0055741532
C  C15  1  0.59490000  0.56550000  0.65200000  1.0 -0.1372904888
C  C16  1  0.53690000  0.63230000  0.62040000  1.0 0.0784791784
C  C17  1  0.46120000  0.56280000  0.59000000  1.0 -0.1578218283
C  C18  1  0.45480000  0.43600000  0.59160000  1.0 0.0006006711
C  C19  1  0.51680000  0.37200000  0.62390000  1.0 -0.1150622366
C  C20  1  0.38040000  0.36710000  0.55700000  1.0 0.5696834476
C  C21  1  0.54710000  0.77040000  0.61640000  1.0 -0.0326640838
C  C22  1  0.63610000  0.84900000  0.64250000  1.0 -0.1578218283
C  C23  1  0.60460000  0.97530000  0.62960000  1.0 -0.1000516264
C  C24  1  0.50890000  0.98550000  0.59840000  1.0 -0.2085914424
C  C25  1  0.86590000  0.84800000  0.94040000  1.0 0.5696834476
C  C26  1  0.93620000  0.91350000  0.90440000  1.0 -0.0055741532
C  C27  1  0.06550000  0.90510000  0.90200000  1.0 -0.1372904888
C  C28  1  0.13230000  0.96310000  0.87040000  1.0 0.0784791784
C  C29  1  0.06280000  0.03880000  0.84000000  1.0 -0.1578218283
C  C30  1  0.93600000  0.04520000  0.84160000  1.0 0.0006006711
C  C31  1  0.87200000  0.98320000  0.87390000  1.0 -0.1145562379
C  C32  1  0.86710000  0.11960000  0.80700000  1.0 0.5696834476
C  C33  1  0.27040000  0.95290000  0.86640000  1.0 -0.0326640838
C  C34  1  0.34900000  0.86390000  0.89250000  1.0 -0.1578218283
C  C35  1  0.47530000  0.89540000  0.87960000  1.0 -0.1000516264
C  C36  1  0.48550000  0.99110000  0.84840000  1.0 -0.2085914424
C  C37  1  0.13410000  0.15200000  0.44040000  1.0 0.5696834476
C  C38  1  0.06380000  0.08650000  0.40440000  1.0 -0.0055741532
C  C39  1  0.93450000  0.09490000  0.40200000  1.0 -0.1372904888
C  C40  1  0.86770000  0.03690000  0.37040000  1.0 0.0784791784
C  C41  1  0.93720000  0.96120000  0.34000000  1.0 -0.1578218283
C  C42  1  0.06400000  0.95480000  0.34160000  1.0 -0.0002312491
C  C43  1  0.12800000  0.01680000  0.37390000  1.0 -0.1145562379
C  C44  1  0.13290000  0.88040000  0.30700000  1.0 0.5696834476
C  C45  1  0.72960000  0.04710000  0.36640000  1.0 -0.0326640838
C  C46  1  0.65100000  0.13610000  0.39250000  1.0 -0.1578218283
C  C47  1  0.52470000  0.10460000  0.37960000  1.0 -0.1000516264
C  C48  1  0.51450000  0.00890000  0.34840000  1.0 -0.2085914424
C  C49  1  0.15200000  0.13410000  0.55960000  1.0 0.5696834476
C  C50  1  0.08650000  0.06380000  0.59560000  1.0 -0.0055741532
C  C51  1  0.09490000  0.93450000  0.59800000  1.0 -0.1372904888
C  C52  1  0.03690000  0.86770000  0.62960000  1.0 0.0784791784
C  C53  1  0.96120000  0.93720000  0.66000000  1.0 -0.1578218283
C  C54  1  0.95480000  0.06400000  0.65840000  1.0 0.0006006711
C  C55  1  0.01680000  0.12800000  0.62610000  1.0 -0.1145562379
C  C56  1  0.88040000  0.13290000  0.69300000  1.0 0.5696834476
C  C57  1  0.04710000  0.72960000  0.63360000  1.0 -0.0326640838
C  C58  1  0.13610000  0.65100000  0.60750000  1.0 -0.1578218283
C  C59  1  0.10460000  0.52470000  0.62040000  1.0 -0.1000516264
C  C60  1  0.00890000  0.51450000  0.65160000  1.0 -0.2085914424
C  C61  1  0.84800000  0.86590000  0.05960000  1.0 0.5696834476
C  C62  1  0.91350000  0.93620000  0.09560000  1.0 -0.0055741532
C  C63  1  0.90510000  0.06550000  0.09800000  1.0 -0.1372904888
C  C64  1  0.96310000  0.13230000  0.12960000  1.0 0.0784791784
C  C65  1  0.03880000  0.06280000  0.16000000  1.0 -0.1578218283
C  C66  1  0.04520000  0.93600000  0.15840000  1.0 -0.0002312491
C  C67  1  0.98320000  0.87200000  0.12610000  1.0 -0.1145562379
C  C68  1  0.11960000  0.86710000  0.19300000  1.0 0.5696834476
C  C69  1  0.95290000  0.27040000  0.13360000  1.0 -0.0326640838
C  C70  1  0.86390000  0.34900000  0.10750000  1.0 -0.1578218283
C  C71  1  0.89540000  0.47530000  0.12040000  1.0 -0.1000516264
C  C72  1  0.99110000  0.48550000  0.15160000  1.0 -0.2085914424
C  C73  1  0.63410000  0.34800000  0.80960000  1.0 0.5696834476
C  C74  1  0.56380000  0.41350000  0.84560000  1.0 -0.0055741532
C  C75  1  0.43450000  0.40510000  0.84800000  1.0 -0.1372904888
C  C76  1  0.36770000  0.46310000  0.87960000  1.0 0.0784791784
C  C77  1  0.43720000  0.53880000  0.91000000  1.0 -0.1578218283
C  C78  1  0.56400000  0.54520000  0.90840000  1.0 0.0006006711
C  C79  1  0.62800000  0.48320000  0.87610000  1.0 -0.1145562379
C  C80  1  0.63290000  0.61960000  0.94300000  1.0 0.5696834476
C  C81  1  0.22960000  0.45290000  0.88360000  1.0 -0.0326640838
C  C82  1  0.15100000  0.36390000  0.85750000  1.0 -0.1578218283
C  C83  1  0.02470000  0.39540000  0.87040000  1.0 -0.1000516264
C  C84  1  0.01450000  0.49110000  0.90160000  1.0 -0.2085914424
C  C85  1  0.36590000  0.65200000  0.30960000  1.0 0.5696834476
C  C86  1  0.43620000  0.58650000  0.34560000  1.0 -0.0055741532
C  C87  1  0.56550000  0.59490000  0.34800000  1.0 -0.1372904888
C  C88  1  0.63230000  0.53690000  0.37960000  1.0 0.0784791784
C  C89  1  0.56280000  0.46120000  0.41000000  1.0 -0.1578218283
C  C90  1  0.43600000  0.45480000  0.40840000  1.0 0.0006006711
C  C91  1  0.37200000  0.51680000  0.37610000  1.0 -0.1150622366
C  C92  1  0.36710000  0.38040000  0.44300000  1.0 0.5696834476
C  C93  1  0.77040000  0.54710000  0.38360000  1.0 -0.0326640838
C  C94  1  0.84900000  0.63610000  0.35750000  1.0 -0.1578218283
C  C95  1  0.97530000  0.60460000  0.37040000  1.0 -0.1000516264
C  C96  1  0.98550000  0.50890000  0.40160000  1.0 -0.2085914424
S  S1  1  0.54880000  0.14890000  0.08266000  1.0 0.1437999719
S  S2  1  0.45120000  0.85110000  0.58266000  1.0 0.1437999719
S  S3  1  0.35110000  0.04880000  0.83266000  1.0 0.1437999719
S  S4  1  0.64890000  0.95120000  0.33266000  1.0 0.1437999719
S  S5  1  0.95120000  0.64890000  0.66734000  1.0 0.1437999719
S  S6  1  0.04880000  0.35110000  0.16734000  1.0 0.1437999719
S  S7  1  0.14890000  0.54880000  0.91734000  1.0 0.1437999719
S  S8  1  0.85110000  0.45120000  0.41734000  1.0 0.1437999719
O  O1  1  0.26750000  0.57590000  0.21284000  1.0 -0.523263119
O  O2  1  0.38090000  0.74380000  0.19611000  1.0 -0.5069225578
O  O3  1  0.58980000  0.74280000  0.05019000  1.0 -0.5013306437
O  O4  1  0.70550000  0.57330000  0.03933000  1.0 -0.5013306437
O  O5  1  0.73250000  0.42410000  0.71284000  1.0 -0.523263119
O  O6  1  0.61910000  0.25620000  0.69611000  1.0 -0.5069225578
O  O7  1  0.41020000  0.25720000  0.55019000  1.0 -0.5013306437
O  O8  1  0.29450000  0.42670000  0.53933000  1.0 -0.5013306437
O  O9  1  0.92410000  0.76750000  0.96284000  1.0 -0.523263119
O  O10  1  0.75620000  0.88090000  0.94611000  1.0 -0.5069225578
O  O11  1  0.75720000  0.08980000  0.80019000  1.0 -0.5013306437
O  O12  1  0.92670000  0.20550000  0.78933000  1.0 -0.5013306437
O  O13  1  0.07590000  0.23250000  0.46284000  1.0 -0.523263119
O  O14  1  0.24380000  0.11910000  0.44611000  1.0 -0.5069225578
O  O15  1  0.24280000  0.91020000  0.30019000  1.0 -0.5013306437
O  O16  1  0.07330000  0.79450000  0.28933000  1.0 -0.5013306437
O  O17  1  0.23250000  0.07590000  0.53716000  1.0 -0.523263119
O  O18  1  0.11910000  0.24380000  0.55389000  1.0 -0.5069225578
O  O19  1  0.91020000  0.24280000  0.69981000  1.0 -0.5013306437
O  O20  1  0.79450000  0.07330000  0.71067000  1.0 -0.5013306437
O  O21  1  0.76750000  0.92410000  0.03716000  1.0 -0.523263119
O  O22  1  0.88090000  0.75620000  0.05389000  1.0 -0.5069225578
O  O23  1  0.08980000  0.75720000  0.19981000  1.0 -0.5013306437
O  O24  1  0.20550000  0.92670000  0.21067000  1.0 -0.5013306437
O  O25  1  0.57590000  0.26750000  0.78716000  1.0 -0.523263119
O  O26  1  0.74380000  0.38090000  0.80389000  1.0 -0.5069225578
O  O27  1  0.74280000  0.58980000  0.94981000  1.0 -0.5013306437
O  O28  1  0.57330000  0.70550000  0.96067000  1.0 -0.5013306437
O  O29  1  0.42410000  0.73250000  0.28716000  1.0 -0.523263119
O  O30  1  0.25620000  0.61910000  0.30389000  1.0 -0.5069225578
O  O31  1  0.25720000  0.41020000  0.44981000  1.0 -0.5013306437
O  O32  1  0.42670000  0.29450000  0.46067000  1.0 -0.5013306437
