# DDEC6 charges by PACMAN v1.1 (https://github.com/mtap-research/PACMAN-charge/)
data_HIDJIR_ion_pacman
_symmetry_space_group_name_H-M   'P 1'
_cell_length_a   11.85400000
_cell_length_b   16.08700000
_cell_length_c   20.61400000
_cell_angle_alpha   90.00000000
_cell_angle_beta   90.00000000
_cell_angle_gamma   90.00000000
_symmetry_Int_Tables_number   1
_chemical_formula_structural   Er2H35C27Br2N6O13
_chemical_formula_sum   'Er8 H140 C108 Br8 N24 O52'
_cell_volume   3930.99287297
_cell_formula_units_Z   4
loop_
 _symmetry_equiv_pos_site_id
 _symmetry_equiv_pos_as_xyz
  1  'x, y, z'
loop_
 _atom_site_type_symbol
 _atom_site_label
 _atom_site_symmetry_multiplicity
 _atom_site_fract_x
 _atom_site_fract_y
 _atom_site_fract_z
 _atom_site_occupancy
 _atom_site_charge
Er  Er1  1  0.40355000  0.62579000  0.27098000  1.0 2.0790920196
Er  Er2  1  0.09645000  0.37421000  0.77098000  1.0 2.0790920196
Er  Er3  1  0.90355000  0.87421000  0.72902000  1.0 2.0790920196
Er  Er4  1  0.59645000  0.12579000  0.22902000  1.0 2.0790920196
Er  Er5  1  0.55123000  0.37796000  0.33898000  1.0 2.0210573015
Er  Er6  1  0.94877000  0.62204000  0.83898000  1.0 2.0210573015
Er  Er7  1  0.05123000  0.12204000  0.66102000  1.0 2.0210573015
Er  Er8  1  0.44877000  0.87796000  0.16102000  1.0 2.0210573015
H  H1  1  0.15658000  0.58525000  0.28331000  1.0 0.3221102891
H  H2  1  0.34342000  0.41475000  0.78331000  1.0 0.3221102891
H  H3  1  0.65658000  0.91475000  0.71669000  1.0 0.3221102891
H  H4  1  0.84342000  0.08525000  0.21669000  1.0 0.3221102891
H  H5  1  0.18266000  0.61635000  0.34376000  1.0 0.3355859605
H  H6  1  0.31734000  0.38365000  0.84376000  1.0 0.3355859605
H  H7  1  0.68266000  0.88365000  0.65624000  1.0 0.3355859605
H  H8  1  0.81734000  0.11635000  0.15624000  1.0 0.3355859605
H  H9  1  0.64946000  0.75633000  0.36297000  1.0 0.1382897105
H  H10  1  0.85054000  0.24367000  0.86297000  1.0 0.1382897105
H  H11  1  0.14946000  0.74367000  0.63703000  1.0 0.1382897105
H  H12  1  0.35054000  0.25633000  0.13703000  1.0 0.1382897105
H  H13  1  0.92244000  0.84832000  0.26647000  1.0 0.1297007812
H  H14  1  0.57756000  0.15168000  0.76647000  1.0 0.1297007812
H  H15  1  0.42244000  0.65168000  0.73353000  1.0 0.1297007812
H  H16  1  0.07756000  0.34832000  0.23353000  1.0 0.1297007812
H  H17  1  0.94729000  0.68769000  0.29601000  1.0 0.1297007812
H  H18  1  0.55271000  0.31231000  0.79601000  1.0 0.1297007812
H  H19  1  0.44729000  0.81231000  0.70399000  1.0 0.1297007812
H  H20  1  0.05271000  0.18769000  0.20399000  1.0 0.1297007812
H  H21  1  0.83047000  0.57659000  0.35273000  1.0 0.1205223439
H  H22  1  0.66953000  0.42341000  0.85273000  1.0 0.1205223439
H  H23  1  0.33047000  0.92341000  0.64727000  1.0 0.1205223439
H  H24  1  0.16953000  0.07659000  0.14727000  1.0 0.1205223439
H  H25  1  0.74769000  0.67965000  0.44345000  1.0 0.1205223439
H  H26  1  0.75231000  0.32035000  0.94345000  1.0 0.1205223439
H  H27  1  0.24769000  0.82035000  0.55655000  1.0 0.1205223439
H  H28  1  0.25231000  0.17965000  0.05655000  1.0 0.1205223439
H  H29  1  0.79033000  0.58877000  0.45581000  1.0 0.1205223439
H  H30  1  0.70967000  0.41123000  0.95581000  1.0 0.1205223439
H  H31  1  0.29033000  0.91123000  0.54419000  1.0 0.1205223439
H  H32  1  0.20967000  0.08877000  0.04419000  1.0 0.1205223439
H  H33  1  0.66305000  0.60495000  0.43946000  1.0 0.1382897105
H  H34  1  0.83695000  0.39505000  0.93946000  1.0 0.1382897105
H  H35  1  0.16305000  0.89505000  0.56054000  1.0 0.1382897105
H  H36  1  0.33695000  0.10495000  0.06054000  1.0 0.1382897105
H  H37  1  0.78457000  0.95030000  0.30225000  1.0 0.1085673985
H  H38  1  0.71543000  0.04970000  0.80225000  1.0 0.1085673985
H  H39  1  0.28457000  0.54970000  0.69775000  1.0 0.1085673985
H  H40  1  0.21543000  0.45030000  0.19775000  1.0 0.1085673985
H  H41  1  0.58973000  0.92982000  0.37408000  1.0 0.1297007812
H  H42  1  0.91027000  0.07018000  0.87408000  1.0 0.1297007812
H  H43  1  0.08973000  0.57018000  0.62592000  1.0 0.1297007812
H  H44  1  0.41027000  0.42982000  0.12592000  1.0 0.1297007812
H  H45  1  0.67768000  0.00251000  0.37690000  1.0 0.1382897105
H  H46  1  0.82232000  0.99749000  0.87690000  1.0 0.1382897105
H  H47  1  0.17768000  0.49749000  0.62310000  1.0 0.1382897105
H  H48  1  0.32232000  0.50251000  0.12310000  1.0 0.1382897105
H  H49  1  0.70385000  0.91780000  0.41135000  1.0 0.1205223439
H  H50  1  0.79615000  0.08220000  0.91135000  1.0 0.1205223439
H  H51  1  0.20385000  0.58220000  0.58865000  1.0 0.1205223439
H  H52  1  0.29615000  0.41780000  0.08865000  1.0 0.1205223439
H  H53  1  0.45169000  0.42459000  0.57674000  1.0 0.1085673985
H  H54  1  0.04831000  0.57541000  0.07674000  1.0 0.1085673985
H  H55  1  0.95169000  0.07541000  0.42326000  1.0 0.1085673985
H  H56  1  0.54831000  0.92459000  0.92326000  1.0 0.1085673985
H  H57  1  0.18838000  0.28311000  0.51042000  1.0 0.1297007812
H  H58  1  0.31162000  0.71689000  0.01042000  1.0 0.1297007812
H  H59  1  0.68838000  0.21689000  0.48958000  1.0 0.1297007812
H  H60  1  0.81162000  0.78311000  0.98958000  1.0 0.1297007812
H  H61  1  0.21194000  0.41923000  0.44407000  1.0 0.1382897105
H  H62  1  0.28806000  0.58077000  0.94407000  1.0 0.1382897105
H  H63  1  0.71194000  0.08077000  0.55593000  1.0 0.1382897105
H  H64  1  0.78806000  0.91923000  0.05593000  1.0 0.1382897105
H  H65  1  0.30766000  0.57565000  0.48793000  1.0 0.0978954149
H  H66  1  0.19234000  0.42435000  0.98793000  1.0 0.0978954149
H  H67  1  0.80766000  0.92435000  0.51207000  1.0 0.0978954149
H  H68  1  0.69234000  0.07565000  0.01207000  1.0 0.0978954149
H  H69  1  0.48283000  0.53501000  0.55982000  1.0 0.1297007812
H  H70  1  0.01717000  0.46499000  0.05982000  1.0 0.1297007812
H  H71  1  0.98283000  0.96499000  0.44018000  1.0 0.1297007812
H  H72  1  0.51717000  0.03501000  0.94018000  1.0 0.1297007812
H  H73  1  0.45171000  0.62556000  0.53817000  1.0 0.1297007812
H  H74  1  0.04829000  0.37444000  0.03817000  1.0 0.1297007812
H  H75  1  0.95171000  0.87444000  0.46183000  1.0 0.1297007812
H  H76  1  0.54829000  0.12556000  0.96183000  1.0 0.1297007812
H  H77  1  0.53594000  0.57254000  0.49663000  1.0 0.1297007812
H  H78  1  0.96406000  0.42746000  0.99663000  1.0 0.1297007812
H  H79  1  0.03594000  0.92746000  0.50337000  1.0 0.1297007812
H  H80  1  0.46406000  0.07254000  0.00337000  1.0 0.1297007812
H  H81  1  0.38992000  0.31883000  0.64117000  1.0 0.1085673985
H  H82  1  0.11008000  0.68117000  0.14117000  1.0 0.1085673985
H  H83  1  0.88992000  0.18117000  0.35883000  1.0 0.1085673985
H  H84  1  0.61008000  0.81883000  0.85883000  1.0 0.1085673985
H  H85  1  0.48039000  0.23410000  0.56225000  1.0 0.1297007812
H  H86  1  0.01961000  0.76590000  0.06225000  1.0 0.1297007812
H  H87  1  0.98039000  0.26590000  0.43775000  1.0 0.1297007812
H  H88  1  0.51961000  0.73410000  0.93775000  1.0 0.1297007812
H  H89  1  0.41281000  0.16524000  0.59946000  1.0 0.1482775746
H  H90  1  0.08719000  0.83476000  0.09946000  1.0 0.1482775746
H  H91  1  0.91281000  0.33476000  0.40054000  1.0 0.1482775746
H  H92  1  0.58719000  0.66524000  0.90054000  1.0 0.1482775746
H  H93  1  0.49480000  0.22420000  0.63745000  1.0 0.1297007812
H  H94  1  0.00520000  0.77580000  0.13745000  1.0 0.1297007812
H  H95  1  0.99480000  0.27580000  0.36255000  1.0 0.1297007812
H  H96  1  0.50520000  0.72420000  0.86255000  1.0 0.1297007812
H  H97  1  0.22057000  0.02079000  0.33977000  1.0 0.1297007812
H  H98  1  0.27943000  0.97921000  0.83977000  1.0 0.1297007812
H  H99  1  0.72057000  0.47921000  0.66023000  1.0 0.1297007812
H  H100  1  0.77943000  0.52079000  0.16023000  1.0 0.1297007812
H  H101  1  0.41789000  0.91011000  0.45919000  1.0 0.1205223439
H  H102  1  0.08211000  0.08989000  0.95919000  1.0 0.1205223439
H  H103  1  0.91789000  0.58989000  0.54081000  1.0 0.1205223439
H  H104  1  0.58211000  0.41011000  0.04081000  1.0 0.1205223439
H  H105  1  0.44522000  0.06066000  0.47539000  1.0 0.1297007812
H  H106  1  0.05478000  0.93934000  0.97539000  1.0 0.1297007812
H  H107  1  0.94522000  0.43934000  0.52461000  1.0 0.1297007812
H  H108  1  0.55478000  0.56066000  0.02461000  1.0 0.1297007812
H  H109  1  0.33840000  0.18344000  0.43990000  1.0 0.1085673985
H  H110  1  0.16160000  0.81656000  0.93990000  1.0 0.1085673985
H  H111  1  0.83840000  0.31656000  0.56010000  1.0 0.1085673985
H  H112  1  0.66160000  0.68344000  0.06010000  1.0 0.1085673985
H  H113  1  0.24242000  0.18367000  0.31542000  1.0 0.1297007812
H  H114  1  0.25758000  0.81633000  0.81542000  1.0 0.1297007812
H  H115  1  0.74242000  0.31633000  0.68458000  1.0 0.1297007812
H  H116  1  0.75758000  0.68367000  0.18458000  1.0 0.1297007812
H  H117  1  0.20563000  0.23710000  0.37540000  1.0 0.1382897105
H  H118  1  0.29437000  0.76290000  0.87540000  1.0 0.1382897105
H  H119  1  0.70563000  0.26290000  0.62460000  1.0 0.1382897105
H  H120  1  0.79437000  0.73710000  0.12460000  1.0 0.1382897105
H  H121  1  0.17120000  0.14317000  0.37116000  1.0 0.1297007812
H  H122  1  0.32880000  0.85683000  0.87116000  1.0 0.1297007812
H  H123  1  0.67120000  0.35683000  0.62884000  1.0 0.1297007812
H  H124  1  0.82880000  0.64317000  0.12884000  1.0 0.1297007812
H  H125  1  0.31056000  0.81234000  0.40168000  1.0 0.1085673985
H  H126  1  0.18944000  0.18766000  0.90168000  1.0 0.1085673985
H  H127  1  0.81056000  0.68766000  0.59832000  1.0 0.1085673985
H  H128  1  0.68944000  0.31234000  0.09832000  1.0 0.1085673985
H  H129  1  0.14233000  0.90123000  0.33973000  1.0 0.1382897105
H  H130  1  0.35767000  0.09877000  0.83973000  1.0 0.1382897105
H  H131  1  0.64233000  0.59877000  0.66027000  1.0 0.1382897105
H  H132  1  0.85767000  0.40123000  0.16027000  1.0 0.1382897105
H  H133  1  0.13060000  0.81363000  0.37236000  1.0 0.1297007812
H  H134  1  0.36940000  0.18637000  0.87236000  1.0 0.1297007812
H  H135  1  0.63060000  0.68637000  0.62764000  1.0 0.1297007812
H  H136  1  0.86940000  0.31363000  0.12764000  1.0 0.1297007812
H  H137  1  0.17239000  0.82079000  0.30043000  1.0 0.1482775746
H  H138  1  0.32761000  0.17921000  0.80043000  1.0 0.1482775746
H  H139  1  0.67239000  0.67921000  0.69957000  1.0 0.1482775746
H  H140  1  0.82761000  0.32079000  0.19957000  1.0 0.1482775746
C  C1  1  0.72000000  0.75700000  0.34360000  1.0 0.0313937662
C  C2  1  0.78000000  0.24300000  0.84360000  1.0 0.0313937662
C  C3  1  0.22000000  0.74300000  0.65640000  1.0 0.0313937662
C  C4  1  0.28000000  0.25700000  0.15640000  1.0 0.0313937662
C  C5  1  0.87300000  0.81300000  0.28890000  1.0 -0.0401702138
C  C6  1  0.62700000  0.18700000  0.78890000  1.0 -0.0401702138
C  C7  1  0.37300000  0.68700000  0.71110000  1.0 -0.0401702138
C  C8  1  0.12700000  0.31300000  0.21110000  1.0 -0.0401702138
C  C9  1  0.88500000  0.72100000  0.30550000  1.0 -0.1307389128
C  C10  1  0.61500000  0.27900000  0.80550000  1.0 -0.1307389128
C  C11  1  0.38500000  0.77900000  0.69450000  1.0 -0.1307389128
C  C12  1  0.11500000  0.22100000  0.19450000  1.0 -0.1307389128
C  C13  1  0.66300000  0.57400000  0.32900000  1.0 0.6187822657
C  C14  1  0.83700000  0.42600000  0.82900000  1.0 0.6187822657
C  C15  1  0.16300000  0.92600000  0.67100000  1.0 0.6187822657
C  C16  1  0.33700000  0.07400000  0.17100000  1.0 0.6187822657
C  C17  1  0.76500000  0.61290000  0.35880000  1.0 -0.0316909231
C  C18  1  0.73500000  0.38710000  0.85880000  1.0 -0.0316909231
C  C19  1  0.26500000  0.88710000  0.64120000  1.0 -0.0316909231
C  C20  1  0.23500000  0.11290000  0.14120000  1.0 -0.0316909231
C  C21  1  0.73900000  0.62200000  0.43110000  1.0 -0.4292270752
C  C22  1  0.76100000  0.37800000  0.93110000  1.0 -0.4292270752
C  C23  1  0.23900000  0.87800000  0.56890000  1.0 -0.4292270752
C  C24  1  0.26100000  0.12200000  0.06890000  1.0 -0.4292270752
C  C25  1  0.64000000  0.91900000  0.25720000  1.0 0.6000012023
C  C26  1  0.86000000  0.08100000  0.75720000  1.0 0.6000012023
C  C27  1  0.14000000  0.58100000  0.74280000  1.0 0.6000012023
C  C28  1  0.36000000  0.41900000  0.24280000  1.0 0.6000012023
C  C29  1  0.72400000  0.91100000  0.31220000  1.0 -0.0213007393
C  C30  1  0.77600000  0.08900000  0.81220000  1.0 -0.0213007393
C  C31  1  0.22400000  0.58900000  0.68780000  1.0 -0.0213007393
C  C32  1  0.27600000  0.41100000  0.18780000  1.0 -0.0213007393
C  C33  1  0.66900000  0.94300000  0.37440000  1.0 -0.4351018506
C  C34  1  0.83100000  0.05700000  0.87440000  1.0 -0.4351018506
C  C35  1  0.16900000  0.55700000  0.62560000  1.0 -0.4351018506
C  C36  1  0.33100000  0.44300000  0.12560000  1.0 -0.4351018506
C  C37  1  0.38500000  0.41000000  0.55630000  1.0 0.0313937662
C  C38  1  0.11500000  0.59000000  0.05630000  1.0 0.0313937662
C  C39  1  0.88500000  0.09000000  0.44370000  1.0 0.0313937662
C  C40  1  0.61500000  0.91000000  0.94370000  1.0 0.0313937662
C  C41  1  0.23800000  0.32700000  0.51730000  1.0 -0.1176350979
C  C42  1  0.26200000  0.67300000  0.01730000  1.0 -0.1176350979
C  C43  1  0.73800000  0.17300000  0.48270000  1.0 -0.1176350979
C  C44  1  0.76200000  0.82700000  0.98270000  1.0 -0.1176350979
C  C45  1  0.25200000  0.40500000  0.48130000  1.0 -0.0859029057
C  C46  1  0.24800000  0.59500000  0.98130000  1.0 -0.0859029057
C  C47  1  0.75200000  0.09500000  0.51870000  1.0 -0.0859029057
C  C48  1  0.74800000  0.90500000  0.01870000  1.0 -0.0859029057
C  C49  1  0.40000000  0.53200000  0.41230000  1.0 0.6187822657
C  C50  1  0.10000000  0.46800000  0.91230000  1.0 0.6187822657
C  C51  1  0.90000000  0.96800000  0.58770000  1.0 0.6187822657
C  C52  1  0.60000000  0.03200000  0.08770000  1.0 0.6187822657
C  C53  1  0.37000000  0.53600000  0.48330000  1.0 -0.0213007393
C  C54  1  0.13000000  0.46400000  0.98330000  1.0 -0.0213007393
C  C55  1  0.87000000  0.96400000  0.51670000  1.0 -0.0213007393
C  C56  1  0.63000000  0.03600000  0.01670000  1.0 -0.0213007393
C  C57  1  0.47000000  0.57100000  0.52320000  1.0 -0.4292270752
C  C58  1  0.03000000  0.42900000  0.02320000  1.0 -0.4292270752
C  C59  1  0.97000000  0.92900000  0.47680000  1.0 -0.4292270752
C  C60  1  0.53000000  0.07100000  0.97680000  1.0 -0.4292270752
C  C61  1  0.25140000  0.27150000  0.66130000  1.0 0.6000012023
C  C62  1  0.24860000  0.72850000  0.16130000  1.0 0.6000012023
C  C63  1  0.75140000  0.22850000  0.33870000  1.0 0.6000012023
C  C64  1  0.74860000  0.77150000  0.83870000  1.0 0.6000012023
C  C65  1  0.34600000  0.28200000  0.61310000  1.0 0.0313937662
C  C66  1  0.15400000  0.71800000  0.11310000  1.0 0.0313937662
C  C67  1  0.84600000  0.21800000  0.38690000  1.0 0.0313937662
C  C68  1  0.65400000  0.78200000  0.88690000  1.0 0.0313937662
C  C69  1  0.44200000  0.22100000  0.60200000  1.0 -0.4292270752
C  C70  1  0.05800000  0.77900000  0.10200000  1.0 -0.4292270752
C  C71  1  0.94200000  0.27900000  0.39800000  1.0 -0.4292270752
C  C72  1  0.55800000  0.72100000  0.89800000  1.0 -0.4292270752
C  C73  1  0.27800000  0.01000000  0.36970000  1.0 0.0699177043
C  C74  1  0.22200000  0.99000000  0.86970000  1.0 0.0699177043
C  C75  1  0.77800000  0.49000000  0.63030000  1.0 0.0699177043
C  C76  1  0.72200000  0.51000000  0.13030000  1.0 0.0699177043
C  C77  1  0.38200000  0.95100000  0.43440000  1.0 -0.0558856098
C  C78  1  0.11800000  0.04900000  0.93440000  1.0 -0.0558856098
C  C79  1  0.88200000  0.54900000  0.56560000  1.0 -0.0558856098
C  C80  1  0.61800000  0.45100000  0.06560000  1.0 -0.0558856098
C  C81  1  0.40000000  0.03500000  0.44480000  1.0 -0.0665950027
C  C82  1  0.10000000  0.96500000  0.94480000  1.0 -0.0665950027
C  C83  1  0.90000000  0.46500000  0.55520000  1.0 -0.0665950027
C  C84  1  0.60000000  0.53500000  0.05520000  1.0 -0.0665950027
C  C85  1  0.44300000  0.18300000  0.36020000  1.0 0.6359230516
C  C86  1  0.05700000  0.81700000  0.86020000  1.0 0.6359230516
C  C87  1  0.94300000  0.31700000  0.63980000  1.0 0.6359230516
C  C88  1  0.55700000  0.68300000  0.13980000  1.0 0.6359230516
C  C89  1  0.33800000  0.15900000  0.39640000  1.0 -0.0316909231
C  C90  1  0.16200000  0.84100000  0.89640000  1.0 -0.0316909231
C  C91  1  0.83800000  0.34100000  0.60360000  1.0 -0.0316909231
C  C92  1  0.66200000  0.65900000  0.10360000  1.0 -0.0316909231
C  C93  1  0.22900000  0.18300000  0.36140000  1.0 -0.4181226033
C  C94  1  0.27100000  0.81700000  0.86140000  1.0 -0.4181226033
C  C95  1  0.72900000  0.31700000  0.63860000  1.0 -0.4181226033
C  C96  1  0.77100000  0.68300000  0.13860000  1.0 -0.4181226033
C  C97  1  0.37000000  0.83200000  0.30870000  1.0 0.6187822657
C  C98  1  0.13000000  0.16800000  0.80870000  1.0 0.6187822657
C  C99  1  0.87000000  0.66800000  0.69130000  1.0 0.6187822657
C  C100  1  0.63000000  0.33200000  0.19130000  1.0 0.6187822657
C  C101  1  0.29700000  0.85210000  0.36650000  1.0 -0.0086831706
C  C102  1  0.20300000  0.14790000  0.86650000  1.0 -0.0086831706
C  C103  1  0.79700000  0.64790000  0.63350000  1.0 -0.0086831706
C  C104  1  0.70300000  0.35210000  0.13350000  1.0 -0.0086831706
C  C105  1  0.17400000  0.84600000  0.34200000  1.0 -0.4292270752
C  C106  1  0.32600000  0.15400000  0.84200000  1.0 -0.4292270752
C  C107  1  0.67400000  0.65400000  0.65800000  1.0 -0.4292270752
C  C108  1  0.82600000  0.34600000  0.15800000  1.0 -0.4292270752
Br  Br1  1  0.62920000  0.37410000  0.47090000  1.0 -0.7001082512
Br  Br2  1  0.87080000  0.62590000  0.97090000  1.0 -0.7001082512
Br  Br3  1  0.12920000  0.12590000  0.52910000  1.0 -0.7001082512
Br  Br4  1  0.37080000  0.87410000  0.02910000  1.0 -0.7001082512
Br  Br5  1  0.00280000  0.03000000  0.27950000  1.0 -0.669956884
Br  Br6  1  0.49720000  0.97000000  0.77950000  1.0 -0.669956884
Br  Br7  1  0.50280000  0.47000000  0.72050000  1.0 -0.669956884
Br  Br8  1  0.99720000  0.53000000  0.22050000  1.0 -0.669956884
N  N1  1  0.79000000  0.69540000  0.33650000  1.0 0.0642423251
N  N2  1  0.71000000  0.30460000  0.83650000  1.0 0.0642423251
N  N3  1  0.29000000  0.80460000  0.66350000  1.0 0.0642423251
N  N4  1  0.21000000  0.19540000  0.16350000  1.0 0.0642423251
N  N5  1  0.77700000  0.82930000  0.31450000  1.0 0.0209187624
N  N6  1  0.72300000  0.17070000  0.81450000  1.0 0.0209187624
N  N7  1  0.27700000  0.67070000  0.68550000  1.0 0.0209187624
N  N8  1  0.22300000  0.32930000  0.18550000  1.0 0.0209187624
N  N9  1  0.33250000  0.45610000  0.50980000  1.0 0.0209187624
N  N10  1  0.16750000  0.54390000  0.00980000  1.0 0.0209187624
N  N11  1  0.83250000  0.04390000  0.49020000  1.0 0.0209187624
N  N12  1  0.66750000  0.95610000  0.99020000  1.0 0.0209187624
N  N13  1  0.32700000  0.33950000  0.56870000  1.0 0.0313937662
N  N14  1  0.17300000  0.66050000  0.06870000  1.0 0.0313937662
N  N15  1  0.82700000  0.16050000  0.43130000  1.0 0.0313937662
N  N16  1  0.67300000  0.83950000  0.93130000  1.0 0.0313937662
N  N17  1  0.33700000  0.06750000  0.40160000  1.0 0.0464439703
N  N18  1  0.16300000  0.93250000  0.90160000  1.0 0.0464439703
N  N19  1  0.83700000  0.43250000  0.59840000  1.0 0.0464439703
N  N20  1  0.66300000  0.56750000  0.09840000  1.0 0.0464439703
N  N21  1  0.31400000  0.93300000  0.38810000  1.0 0.0313937662
N  N22  1  0.18600000  0.06700000  0.88810000  1.0 0.0313937662
N  N23  1  0.81400000  0.56700000  0.61190000  1.0 0.0313937662
N  N24  1  0.68600000  0.43300000  0.11190000  1.0 0.0313937662
O  O1  1  0.59490000  0.62520000  0.30230000  1.0 -0.669956884
O  O2  1  0.90510000  0.37480000  0.80230000  1.0 -0.669956884
O  O3  1  0.09490000  0.87480000  0.69770000  1.0 -0.669956884
O  O4  1  0.40510000  0.12520000  0.19770000  1.0 -0.669956884
O  O5  1  0.65140000  0.50130000  0.33350000  1.0 -0.5985138081
O  O6  1  0.84860000  0.49870000  0.83350000  1.0 -0.5985138081
O  O7  1  0.15140000  0.99870000  0.66650000  1.0 -0.5985138081
O  O8  1  0.34860000  0.00130000  0.16650000  1.0 -0.5985138081
O  O9  1  0.60090000  0.98930000  0.25040000  1.0 -0.6837446453
O  O10  1  0.89910000  0.01070000  0.75040000  1.0 -0.6837446453
O  O11  1  0.10090000  0.51070000  0.74960000  1.0 -0.6837446453
O  O12  1  0.39910000  0.48930000  0.24960000  1.0 -0.6837446453
O  O13  1  0.61330000  0.85950000  0.22490000  1.0 -0.5528820219
O  O14  1  0.88670000  0.14050000  0.72490000  1.0 -0.5528820219
O  O15  1  0.11330000  0.64050000  0.77510000  1.0 -0.5528820219
O  O16  1  0.38670000  0.35950000  0.27510000  1.0 -0.5528820219
O  O17  1  0.40650000  0.59410000  0.38230000  1.0 -0.5892290336
O  O18  1  0.09350000  0.40590000  0.88230000  1.0 -0.5847829046
O  O19  1  0.90650000  0.90590000  0.61770000  1.0 -0.5892290336
O  O20  1  0.59350000  0.09410000  0.11770000  1.0 -0.5847829046
O  O21  1  0.42060000  0.45930000  0.38810000  1.0 -0.7232625248
O  O22  1  0.07940000  0.54070000  0.88810000  1.0 -0.7232625248
O  O23  1  0.92060000  0.04070000  0.61190000  1.0 -0.7232625248
O  O24  1  0.57940000  0.95930000  0.11190000  1.0 -0.7232625248
O  O25  1  0.21460000  0.20310000  0.67230000  1.0 -0.5892290336
O  O26  1  0.28540000  0.79690000  0.17230000  1.0 -0.5892290336
O  O27  1  0.71460000  0.29690000  0.32770000  1.0 -0.5892290336
O  O28  1  0.78540000  0.70310000  0.82770000  1.0 -0.5892290336
O  O29  1  0.21930000  0.33920000  0.68730000  1.0 -0.6837446453
O  O30  1  0.28070000  0.66080000  0.18730000  1.0 -0.6837446453
O  O31  1  0.71930000  0.16080000  0.31270000  1.0 -0.6837446453
O  O32  1  0.78070000  0.83920000  0.81270000  1.0 -0.6837446453
O  O33  1  0.47500000  0.25670000  0.37360000  1.0 -0.7069345775
O  O34  1  0.02500000  0.74330000  0.87360000  1.0 -0.7069345775
O  O35  1  0.97500000  0.24330000  0.62640000  1.0 -0.7069345775
O  O36  1  0.52500000  0.75670000  0.12640000  1.0 -0.7069345775
O  O37  1  0.47980000  0.13330000  0.32140000  1.0 -0.5985138081
O  O38  1  0.02020000  0.86670000  0.82140000  1.0 -0.5985138081
O  O39  1  0.97980000  0.36670000  0.67860000  1.0 -0.5985138081
O  O40  1  0.52020000  0.63330000  0.17860000  1.0 -0.5985138081
O  O41  1  0.39060000  0.89220000  0.27290000  1.0 -0.5985138081
O  O42  1  0.10940000  0.10780000  0.77290000  1.0 -0.5985138081
O  O43  1  0.89060000  0.60780000  0.72710000  1.0 -0.5985138081
O  O44  1  0.60940000  0.39220000  0.22710000  1.0 -0.5985138081
O  O45  1  0.40250000  0.75940000  0.30440000  1.0 -0.7001082512
O  O46  1  0.09750000  0.24060000  0.80440000  1.0 -0.7001082512
O  O47  1  0.90250000  0.74060000  0.69560000  1.0 -0.7001082512
O  O48  1  0.59750000  0.25940000  0.19560000  1.0 -0.7001082512
O  O49  1  0.20960000  0.60450000  0.30670000  1.0 -0.7707745495
O  O50  1  0.29040000  0.39550000  0.80670000  1.0 -0.7707745495
O  O51  1  0.70960000  0.89550000  0.69330000  1.0 -0.7707745495
O  O52  1  0.79040000  0.10450000  0.19330000  1.0 -0.7707745495
