# DDEC6 charges by PACMAN v1.1 (https://github.com/mtap-research/PACMAN-charge/)
data_HIHGEM_ASR_pacman
_symmetry_space_group_name_H-M   'P 1'
_cell_length_a   17.56980000
_cell_length_b   17.56980000
_cell_length_c   24.89000000
_cell_angle_alpha   90.00000000
_cell_angle_beta   90.00000000
_cell_angle_gamma   115.41100000
_symmetry_Int_Tables_number   1
_chemical_formula_structural   Er4Si3H64(C25O8)4
_chemical_formula_sum   'Er8 Si6 H128 C200 O64'
_cell_volume   6940.13486055
_cell_formula_units_Z   2
loop_
 _symmetry_equiv_pos_site_id
 _symmetry_equiv_pos_as_xyz
  1  'x, y, z'
loop_
 _atom_site_type_symbol
 _atom_site_label
 _atom_site_symmetry_multiplicity
 _atom_site_fract_x
 _atom_site_fract_y
 _atom_site_fract_z
 _atom_site_occupancy
 _atom_site_charge
Er  Er1  1  0.98226000  0.37148000  0.00000000  1.0 2.0798028362
Er  Er2  1  0.01774000  0.62852000  0.00000000  1.0 2.0798028362
Er  Er3  1  0.62852000  0.01774000  0.50000000  1.0 2.0798028362
Er  Er4  1  0.37148000  0.98226000  0.50000000  1.0 2.0798028362
Er  Er5  1  0.22659000  0.30999000  0.00000000  1.0 1.4936733298
Er  Er6  1  0.77341000  0.69001000  0.00000000  1.0 1.495145644
Er  Er7  1  0.69001000  0.77341000  0.50000000  1.0 1.4936733298
Er  Er8  1  0.30999000  0.22659000  0.50000000  1.0 1.4936733298
Si  Si1  1  0.00000000  0.00000000  0.25000000  1.0 0.6379223121
Si  Si2  1  0.00000000  0.00000000  0.75000000  1.0 0.6379223121
Si  Si3  1  0.61656000  0.38344000  0.75000000  1.0 0.4259155742
Si  Si4  1  0.38344000  0.61656000  0.75000000  1.0 0.4259155742
Si  Si5  1  0.38344000  0.61656000  0.25000000  1.0 0.4247332466
Si  Si6  1  0.61656000  0.38344000  0.25000000  1.0 0.4259155742
H  H1  1  0.91510000  0.16370000  0.12730000  1.0 0.1227339385
H  H2  1  0.08490000  0.83630000  0.12730000  1.0 0.1227339385
H  H3  1  0.83630000  0.08490000  0.37270000  1.0 0.1227339385
H  H4  1  0.16370000  0.91510000  0.37270000  1.0 0.1227339385
H  H5  1  0.08490000  0.83630000  0.87270000  1.0 0.1227339385
H  H6  1  0.91510000  0.16370000  0.87270000  1.0 0.1227339385
H  H7  1  0.16370000  0.91510000  0.62730000  1.0 0.1227339385
H  H8  1  0.83630000  0.08490000  0.62730000  1.0 0.1227339385
H  H9  1  0.14450000  0.14050000  0.20080000  1.0 0.1000874008
H  H10  1  0.85550000  0.85950000  0.20080000  1.0 0.1000874008
H  H11  1  0.85950000  0.85550000  0.29920000  1.0 0.1000874008
H  H12  1  0.14050000  0.14450000  0.29920000  1.0 0.1000874008
H  H13  1  0.85550000  0.85950000  0.79920000  1.0 0.1000874008
H  H14  1  0.14450000  0.14050000  0.79920000  1.0 0.1000874008
H  H15  1  0.14050000  0.14450000  0.70080000  1.0 0.1000874008
H  H16  1  0.85950000  0.85550000  0.70080000  1.0 0.1000874008
H  H17  1  0.16290000  0.24090000  0.13560000  1.0 0.1000874008
H  H18  1  0.83710000  0.75910000  0.13560000  1.0 0.1000874008
H  H19  1  0.75910000  0.83710000  0.36440000  1.0 0.1000874008
H  H20  1  0.24090000  0.16290000  0.36440000  1.0 0.1000874008
H  H21  1  0.83710000  0.75910000  0.86440000  1.0 0.1000874008
H  H22  1  0.16290000  0.24090000  0.86440000  1.0 0.1000874008
H  H23  1  0.24090000  0.16290000  0.63560000  1.0 0.1000874008
H  H24  1  0.75910000  0.83710000  0.63560000  1.0 0.1000874008
H  H25  1  0.89650000  0.06630000  0.19430000  1.0 0.1000874008
H  H26  1  0.10350000  0.93370000  0.19430000  1.0 0.1000874008
H  H27  1  0.93370000  0.10350000  0.30570000  1.0 0.1000874008
H  H28  1  0.06630000  0.89650000  0.30570000  1.0 0.1000874008
H  H29  1  0.10350000  0.93370000  0.80570000  1.0 0.1000874008
H  H30  1  0.89650000  0.06630000  0.80570000  1.0 0.1000874008
H  H31  1  0.06630000  0.89650000  0.69430000  1.0 0.1000874008
H  H32  1  0.93370000  0.10350000  0.69430000  1.0 0.1000874008
H  H33  1  0.80600000  0.32520000  0.86860000  1.0 0.1227339385
H  H34  1  0.19400000  0.67480000  0.86860000  1.0 0.1227339385
H  H35  1  0.67480000  0.19400000  0.63140000  1.0 0.1227339385
H  H36  1  0.32520000  0.80600000  0.63140000  1.0 0.1227339385
H  H37  1  0.19400000  0.67480000  0.13140000  1.0 0.1227339385
H  H38  1  0.80600000  0.32520000  0.13140000  1.0 0.1227339385
H  H39  1  0.32520000  0.80600000  0.36860000  1.0 0.1227339385
H  H40  1  0.67480000  0.19400000  0.36860000  1.0 0.1227339385
H  H41  1  0.70650000  0.29350000  0.80130000  1.0 0.1000874008
H  H42  1  0.29350000  0.70650000  0.80130000  1.0 0.1000874008
H  H43  1  0.70650000  0.29350000  0.69870000  1.0 0.1000874008
H  H44  1  0.29350000  0.70650000  0.69870000  1.0 0.1000874008
H  H45  1  0.29350000  0.70650000  0.19870000  1.0 0.1000874008
H  H46  1  0.70650000  0.29350000  0.19870000  1.0 0.1000874008
H  H47  1  0.29350000  0.70650000  0.30130000  1.0 0.1000874008
H  H48  1  0.70650000  0.29350000  0.30130000  1.0 0.1000874008
H  H49  1  0.72860000  0.52700000  0.80700000  1.0 0.1000874008
H  H50  1  0.27140000  0.47300000  0.80700000  1.0 0.1000874008
H  H51  1  0.47300000  0.27140000  0.69300000  1.0 0.1000874008
H  H52  1  0.52700000  0.72860000  0.69300000  1.0 0.1000874008
H  H53  1  0.27140000  0.47300000  0.19300000  1.0 0.1000874008
H  H54  1  0.72860000  0.52700000  0.19300000  1.0 0.1000874008
H  H55  1  0.52700000  0.72860000  0.30700000  1.0 0.1000874008
H  H56  1  0.47300000  0.27140000  0.30700000  1.0 0.1000874008
H  H57  1  0.82710000  0.56010000  0.87450000  1.0 0.1227339385
H  H58  1  0.17290000  0.43990000  0.87450000  1.0 0.1227339385
H  H59  1  0.43990000  0.17290000  0.62550000  1.0 0.1227339385
H  H60  1  0.56010000  0.82710000  0.62550000  1.0 0.1227339385
H  H61  1  0.17290000  0.43990000  0.12550000  1.0 0.1227339385
H  H62  1  0.82710000  0.56010000  0.12550000  1.0 0.1227339385
H  H63  1  0.56010000  0.82710000  0.37450000  1.0 0.1227339385
H  H64  1  0.43990000  0.17290000  0.37450000  1.0 0.1227339385
H  H65  1  0.49310000  0.32730000  0.92460000  1.0 0.1000874008
H  H66  1  0.50690000  0.67270000  0.92460000  1.0 0.1000874008
H  H67  1  0.67270000  0.50690000  0.57540000  1.0 0.1000874008
H  H68  1  0.32730000  0.49310000  0.57540000  1.0 0.1000874008
H  H69  1  0.50690000  0.67270000  0.07540000  1.0 0.1000874008
H  H70  1  0.49310000  0.32730000  0.07540000  1.0 0.1000874008
H  H71  1  0.32730000  0.49310000  0.42460000  1.0 0.1000874008
H  H72  1  0.67270000  0.50690000  0.42460000  1.0 0.1000874008
H  H73  1  0.59330000  0.34190000  0.85930000  1.0 0.0923071829
H  H74  1  0.40670000  0.65810000  0.85930000  1.0 0.0923071829
H  H75  1  0.65810000  0.40670000  0.64070000  1.0 0.0923071829
H  H76  1  0.34190000  0.59330000  0.64070000  1.0 0.0923071829
H  H77  1  0.40670000  0.65810000  0.14070000  1.0 0.0923071829
H  H78  1  0.59330000  0.34190000  0.14070000  1.0 0.0923071829
H  H79  1  0.34190000  0.59330000  0.35930000  1.0 0.0923071829
H  H80  1  0.65810000  0.40670000  0.35930000  1.0 0.0923071829
H  H81  1  0.44260000  0.36500000  0.74770000  1.0 0.0818608269
H  H82  1  0.55740000  0.63500000  0.74770000  1.0 0.0818608269
H  H83  1  0.63500000  0.55740000  0.75230000  1.0 0.0818608269
H  H84  1  0.36500000  0.44260000  0.75230000  1.0 0.0818608269
H  H85  1  0.55740000  0.63500000  0.25230000  1.0 0.0818608269
H  H86  1  0.44260000  0.36500000  0.25230000  1.0 0.0818608269
H  H87  1  0.36500000  0.44260000  0.24770000  1.0 0.0818608269
H  H88  1  0.63500000  0.55740000  0.24770000  1.0 0.0818608269
H  H89  1  0.34300000  0.34280000  0.80960000  1.0 0.1000874008
H  H90  1  0.65700000  0.65720000  0.80960000  1.0 0.1000874008
H  H91  1  0.65720000  0.65700000  0.69040000  1.0 0.1000874008
H  H92  1  0.34280000  0.34300000  0.69040000  1.0 0.1000874008
H  H93  1  0.65700000  0.65720000  0.19040000  1.0 0.1000874008
H  H94  1  0.34300000  0.34280000  0.19040000  1.0 0.1000874008
H  H95  1  0.34280000  0.34300000  0.30960000  1.0 0.1000874008
H  H96  1  0.65720000  0.65700000  0.30960000  1.0 0.1000874008
H  H97  1  0.51200000  0.45540000  0.69310000  1.0 0.0818608269
H  H98  1  0.48800000  0.54460000  0.69310000  1.0 0.0818608269
H  H99  1  0.54460000  0.48800000  0.80690000  1.0 0.0818608269
H  H100  1  0.45540000  0.51200000  0.80690000  1.0 0.0818608269
H  H101  1  0.48800000  0.54460000  0.30690000  1.0 0.0818608269
H  H102  1  0.51200000  0.45540000  0.30690000  1.0 0.0818608269
H  H103  1  0.45540000  0.51200000  0.19310000  1.0 0.0818608269
H  H104  1  0.54460000  0.48800000  0.19310000  1.0 0.0818608269
H  H105  1  0.53120000  0.55420000  0.62800000  1.0 0.0818608269
H  H106  1  0.46880000  0.44580000  0.62800000  1.0 0.0818608269
H  H107  1  0.44580000  0.46880000  0.87200000  1.0 0.0818608269
H  H108  1  0.55420000  0.53120000  0.87200000  1.0 0.0818608269
H  H109  1  0.46880000  0.44580000  0.37200000  1.0 0.0818608269
H  H110  1  0.53120000  0.55420000  0.37200000  1.0 0.0818608269
H  H111  1  0.55420000  0.53120000  0.12800000  1.0 0.0818608269
H  H112  1  0.44580000  0.46880000  0.12800000  1.0 0.0818608269
H  H113  1  0.75530000  0.53950000  0.70830000  1.0 0.1000874008
H  H114  1  0.24470000  0.46050000  0.70830000  1.0 0.1000874008
H  H115  1  0.46050000  0.24470000  0.79170000  1.0 0.1000874008
H  H116  1  0.53950000  0.75530000  0.79170000  1.0 0.1000874008
H  H117  1  0.24470000  0.46050000  0.29170000  1.0 0.1000874008
H  H118  1  0.75530000  0.53950000  0.29170000  1.0 0.1000874008
H  H119  1  0.53950000  0.75530000  0.20830000  1.0 0.1000874008
H  H120  1  0.46050000  0.24470000  0.20830000  1.0 0.1000874008
H  H121  1  0.77440000  0.64000000  0.64200000  1.0 0.1000874008
H  H122  1  0.22560000  0.36000000  0.64200000  1.0 0.1000874008
H  H123  1  0.36000000  0.22560000  0.85800000  1.0 0.1000874008
H  H124  1  0.64000000  0.77440000  0.85800000  1.0 0.1000874008
H  H125  1  0.22560000  0.36000000  0.35800000  1.0 0.1000874008
H  H126  1  0.77440000  0.64000000  0.35800000  1.0 0.1000874008
H  H127  1  0.64000000  0.77440000  0.14200000  1.0 0.1000874008
H  H128  1  0.36000000  0.22560000  0.14200000  1.0 0.1000874008
C  C1  1  0.05300000  0.26900000  0.07780000  1.0 0.6513371718
C  C2  1  0.94700000  0.73100000  0.07780000  1.0 0.6513371718
C  C3  1  0.73100000  0.94700000  0.42220000  1.0 0.6513371718
C  C4  1  0.26900000  0.05300000  0.42220000  1.0 0.6513371718
C  C5  1  0.94700000  0.73100000  0.92220000  1.0 0.6513371718
C  C6  1  0.05300000  0.26900000  0.92220000  1.0 0.6513371718
C  C7  1  0.26900000  0.05300000  0.57780000  1.0 0.6513371718
C  C8  1  0.73100000  0.94700000  0.57780000  1.0 0.6513371718
C  C9  1  0.04074000  0.21006000  0.12372000  1.0 -0.0291416966
C  C10  1  0.95926000  0.78994000  0.12372000  1.0 -0.0291416966
C  C11  1  0.78994000  0.95926000  0.37628000  1.0 -0.0291416966
C  C12  1  0.21006000  0.04074000  0.37628000  1.0 -0.0291416966
C  C13  1  0.95926000  0.78994000  0.87628000  1.0 -0.0291416966
C  C14  1  0.04074000  0.21006000  0.87628000  1.0 -0.0291416966
C  C15  1  0.21006000  0.04074000  0.62372000  1.0 -0.0291416966
C  C16  1  0.78994000  0.95926000  0.62372000  1.0 -0.0291416966
C  C17  1  0.01841000  0.09059000  0.20501000  1.0 -0.2123886059
C  C18  1  0.98159000  0.90941000  0.20501000  1.0 -0.2123886059
C  C19  1  0.90941000  0.98159000  0.29499000  1.0 -0.2123886059
C  C20  1  0.09059000  0.01841000  0.29499000  1.0 -0.2123886059
C  C21  1  0.98159000  0.90941000  0.79499000  1.0 -0.2123886059
C  C22  1  0.01841000  0.09059000  0.79499000  1.0 -0.2123886059
C  C23  1  0.09059000  0.01841000  0.70501000  1.0 -0.2123886059
C  C24  1  0.90941000  0.98159000  0.70501000  1.0 -0.2123886059
C  C25  1  0.96173000  0.15907000  0.14190000  1.0 -0.10055836
C  C26  1  0.03827000  0.84093000  0.14190000  1.0 -0.10055836
C  C27  1  0.84093000  0.03827000  0.35810000  1.0 -0.10055836
C  C28  1  0.15907000  0.96173000  0.35810000  1.0 -0.10055836
C  C29  1  0.03827000  0.84093000  0.85810000  1.0 -0.10055836
C  C30  1  0.96173000  0.15907000  0.85810000  1.0 -0.10055836
C  C31  1  0.15907000  0.96173000  0.64190000  1.0 -0.10055836
C  C32  1  0.84093000  0.03827000  0.64190000  1.0 -0.10055836
C  C33  1  0.09739000  0.14441000  0.18640000  1.0 -0.10055836
C  C34  1  0.90261000  0.85559000  0.18640000  1.0 -0.10055836
C  C35  1  0.85559000  0.90261000  0.31360000  1.0 -0.10055836
C  C36  1  0.14441000  0.09739000  0.31360000  1.0 -0.10055836
C  C37  1  0.90261000  0.85559000  0.81360000  1.0 -0.10055836
C  C38  1  0.09739000  0.14441000  0.81360000  1.0 -0.10055836
C  C39  1  0.14441000  0.09739000  0.68640000  1.0 -0.10055836
C  C40  1  0.85559000  0.90261000  0.68640000  1.0 -0.10055836
C  C41  1  0.10882000  0.20458000  0.14660000  1.0 -0.10055836
C  C42  1  0.89118000  0.79542000  0.14660000  1.0 -0.10055836
C  C43  1  0.79542000  0.89118000  0.35340000  1.0 -0.10055836
C  C44  1  0.20458000  0.10882000  0.35340000  1.0 -0.10055836
C  C45  1  0.89118000  0.79542000  0.85340000  1.0 -0.10055836
C  C46  1  0.10882000  0.20458000  0.85340000  1.0 -0.10055836
C  C47  1  0.20458000  0.10882000  0.64660000  1.0 -0.10055836
C  C48  1  0.79542000  0.89118000  0.64660000  1.0 -0.10055836
C  C49  1  0.95077000  0.10023000  0.18220000  1.0 -0.0899878148
C  C50  1  0.04923000  0.89977000  0.18220000  1.0 -0.0899878148
C  C51  1  0.89977000  0.04923000  0.31780000  1.0 -0.0899878148
C  C52  1  0.10023000  0.95077000  0.31780000  1.0 -0.0899878148
C  C53  1  0.04923000  0.89977000  0.81780000  1.0 -0.0899878148
C  C54  1  0.95077000  0.10023000  0.81780000  1.0 -0.0899878148
C  C55  1  0.10023000  0.95077000  0.68220000  1.0 -0.0899878148
C  C56  1  0.89977000  0.04923000  0.68220000  1.0 -0.0899878148
C  C57  1  0.88931000  0.46649000  0.92500000  1.0 0.6583289308
C  C58  1  0.11069000  0.53351000  0.92500000  1.0 0.6583289308
C  C59  1  0.53351000  0.11069000  0.57500000  1.0 0.6583289308
C  C60  1  0.46649000  0.88931000  0.57500000  1.0 0.6583289308
C  C61  1  0.11069000  0.53351000  0.07500000  1.0 0.6583289308
C  C62  1  0.88931000  0.46649000  0.07500000  1.0 0.6583289308
C  C63  1  0.46649000  0.88931000  0.42500000  1.0 0.6583289308
C  C64  1  0.53351000  0.11069000  0.42500000  1.0 0.6583289308
C  C65  1  0.82692000  0.44548000  0.87902000  1.0 -0.0181778763
C  C66  1  0.17308000  0.55452000  0.87902000  1.0 -0.0181778763
C  C67  1  0.55452000  0.17308000  0.62098000  1.0 -0.0181778763
C  C68  1  0.44548000  0.82692000  0.62098000  1.0 -0.0181778763
C  C69  1  0.17308000  0.55452000  0.12098000  1.0 -0.0181778763
C  C70  1  0.82692000  0.44548000  0.12098000  1.0 -0.0181778763
C  C71  1  0.44548000  0.82692000  0.37902000  1.0 -0.0181778763
C  C72  1  0.55452000  0.17308000  0.37902000  1.0 -0.0181778763
C  C73  1  0.70845000  0.40795000  0.79563000  1.0 -0.2123886059
C  C74  1  0.29155000  0.59205000  0.79563000  1.0 -0.2123886059
C  C75  1  0.59205000  0.29155000  0.70437000  1.0 -0.2123886059
C  C76  1  0.40795000  0.70845000  0.70437000  1.0 -0.2123886059
C  C77  1  0.29155000  0.59205000  0.20437000  1.0 -0.2123886059
C  C78  1  0.70845000  0.40795000  0.20437000  1.0 -0.2123886059
C  C79  1  0.40795000  0.70845000  0.29563000  1.0 -0.2123886059
C  C80  1  0.59205000  0.29155000  0.29563000  1.0 -0.2123886059
C  C81  1  0.79071000  0.36669000  0.85640000  1.0 -0.10055836
C  C82  1  0.20929000  0.63331000  0.85640000  1.0 -0.10055836
C  C83  1  0.63331000  0.20929000  0.64360000  1.0 -0.10055836
C  C84  1  0.36669000  0.79071000  0.64360000  1.0 -0.10055836
C  C85  1  0.20929000  0.63331000  0.14360000  1.0 -0.10055836
C  C86  1  0.79071000  0.36669000  0.14360000  1.0 -0.10055836
C  C87  1  0.36669000  0.79071000  0.35640000  1.0 -0.10055836
C  C88  1  0.63331000  0.20929000  0.35640000  1.0 -0.10055836
C  C89  1  0.73125000  0.34775000  0.81540000  1.0 -0.10055836
C  C90  1  0.26875000  0.65225000  0.81540000  1.0 -0.10055836
C  C91  1  0.65225000  0.26875000  0.68460000  1.0 -0.10055836
C  C92  1  0.34775000  0.73125000  0.68460000  1.0 -0.10055836
C  C93  1  0.26875000  0.65225000  0.18460000  1.0 -0.10055836
C  C94  1  0.73125000  0.34775000  0.18460000  1.0 -0.10055836
C  C95  1  0.34775000  0.73125000  0.31540000  1.0 -0.10055836
C  C96  1  0.65225000  0.26875000  0.31540000  1.0 -0.10055836
C  C97  1  0.74448000  0.48572000  0.81910000  1.0 -0.10055836
C  C98  1  0.25552000  0.51428000  0.81910000  1.0 -0.1056028726
C  C99  1  0.51428000  0.25552000  0.68090000  1.0 -0.1056028726
C  C100  1  0.48572000  0.74448000  0.68090000  1.0 -0.1056028726
C  C101  1  0.25552000  0.51428000  0.18090000  1.0 -0.1056028726
C  C102  1  0.74448000  0.48572000  0.18090000  1.0 -0.1056028726
C  C103  1  0.48572000  0.74448000  0.31910000  1.0 -0.1056028726
C  C104  1  0.51428000  0.25552000  0.31910000  1.0 -0.1056028726
C  C105  1  0.80355000  0.50605000  0.86000000  1.0 -0.10055836
C  C106  1  0.19645000  0.49395000  0.86000000  1.0 -0.10055836
C  C107  1  0.49395000  0.19645000  0.64000000  1.0 -0.10055836
C  C108  1  0.50605000  0.80355000  0.64000000  1.0 -0.10055836
C  C109  1  0.19645000  0.49395000  0.14000000  1.0 -0.10055836
C  C110  1  0.80355000  0.50605000  0.14000000  1.0 -0.10055836
C  C111  1  0.50605000  0.80355000  0.36000000  1.0 -0.10055836
C  C112  1  0.49395000  0.19645000  0.36000000  1.0 -0.10055836
C  C113  1  0.63490000  0.47370000  0.70380000  1.0 -0.0899878148
C  C114  1  0.36510000  0.52630000  0.70380000  1.0 -0.0899878148
C  C115  1  0.52630000  0.36510000  0.79620000  1.0 -0.0899878148
C  C116  1  0.47370000  0.63490000  0.79620000  1.0 -0.0899878148
C  C117  1  0.36510000  0.52630000  0.29620000  1.0 -0.0899878148
C  C118  1  0.63490000  0.47370000  0.29620000  1.0 -0.0899878148
C  C119  1  0.47370000  0.63490000  0.20380000  1.0 -0.0899878148
C  C120  1  0.52630000  0.36510000  0.20380000  1.0 -0.0899878148
C  C121  1  0.67420000  0.66460000  0.58340000  1.0 0.4032533196
C  C122  1  0.32580000  0.33540000  0.58340000  1.0 0.4032533196
C  C123  1  0.33540000  0.32580000  0.91660000  1.0 0.4032533196
C  C124  1  0.66460000  0.67420000  0.91660000  1.0 0.4032533196
C  C125  1  0.32580000  0.33540000  0.41660000  1.0 0.4032533196
C  C126  1  0.67420000  0.66460000  0.41660000  1.0 0.4032533196
C  C127  1  0.66460000  0.67420000  0.08340000  1.0 0.4032533196
C  C128  1  0.33540000  0.32580000  0.08340000  1.0 0.4032533196
C  C129  1  0.65930000  0.59850000  0.62580000  1.0 0.0009091542
C  C130  1  0.34070000  0.40150000  0.62580000  1.0 0.0009091542
C  C131  1  0.40150000  0.34070000  0.87420000  1.0 0.0009091542
C  C132  1  0.59850000  0.65930000  0.87420000  1.0 0.0009091542
C  C133  1  0.34070000  0.40150000  0.37420000  1.0 0.0009091542
C  C134  1  0.65930000  0.59850000  0.37420000  1.0 0.0009091542
C  C135  1  0.59850000  0.65930000  0.12580000  1.0 0.0009091542
C  C136  1  0.40150000  0.34070000  0.12580000  1.0 0.0009091542
C  C137  1  0.65330000  0.45590000  0.64930000  1.0 -0.1329197782
C  C138  1  0.34670000  0.54410000  0.64930000  1.0 -0.1329197782
C  C139  1  0.54410000  0.34670000  0.85070000  1.0 -0.1329197782
C  C140  1  0.45590000  0.65330000  0.85070000  1.0 -0.1329197782
C  C141  1  0.34670000  0.54410000  0.35070000  1.0 -0.1329197782
C  C142  1  0.65330000  0.45590000  0.35070000  1.0 -0.1329197782
C  C143  1  0.45590000  0.65330000  0.14930000  1.0 -0.1329197782
C  C144  1  0.54410000  0.34670000  0.14930000  1.0 -0.1329197782
C  C145  1  0.66330000  0.51650000  0.61100000  1.0 -0.0899878148
C  C146  1  0.33670000  0.48350000  0.61100000  1.0 -0.0899878148
C  C147  1  0.48350000  0.33670000  0.88900000  1.0 -0.0899878148
C  C148  1  0.51650000  0.66330000  0.88900000  1.0 -0.0899878148
C  C149  1  0.33670000  0.48350000  0.38900000  1.0 -0.0899878148
C  C150  1  0.66330000  0.51650000  0.38900000  1.0 -0.0899878148
C  C151  1  0.51650000  0.66330000  0.11100000  1.0 -0.0899878148
C  C152  1  0.48350000  0.33670000  0.11100000  1.0 -0.0899878148
C  C153  1  0.65270000  0.60530000  0.67810000  1.0 -0.0291416966
C  C154  1  0.34730000  0.39470000  0.67810000  1.0 -0.0291416966
C  C155  1  0.39470000  0.34730000  0.82190000  1.0 -0.0291416966
C  C156  1  0.60530000  0.65270000  0.82190000  1.0 -0.0291416966
C  C157  1  0.34730000  0.39470000  0.32190000  1.0 -0.0291416966
C  C158  1  0.65270000  0.60530000  0.32190000  1.0 -0.0291416966
C  C159  1  0.60530000  0.65270000  0.17810000  1.0 -0.0291416966
C  C160  1  0.39470000  0.34730000  0.17810000  1.0 -0.0291416966
C  C161  1  0.64000000  0.54520000  0.71650000  1.0 -0.0691720842
C  C162  1  0.36000000  0.45480000  0.71650000  1.0 -0.0691720842
C  C163  1  0.45480000  0.36000000  0.78350000  1.0 -0.0691720842
C  C164  1  0.54520000  0.64000000  0.78350000  1.0 -0.0691720842
C  C165  1  0.36000000  0.45480000  0.28350000  1.0 -0.0691720842
C  C166  1  0.64000000  0.54520000  0.28350000  1.0 -0.0691720842
C  C167  1  0.54520000  0.64000000  0.21650000  1.0 -0.0691720842
C  C168  1  0.45480000  0.36000000  0.21650000  1.0 -0.0691720842
C  C169  1  0.72050000  0.59930000  0.64980000  1.0 -0.0532980273
C  C170  1  0.27950000  0.40070000  0.64980000  1.0 -0.0532980273
C  C171  1  0.40070000  0.27950000  0.85020000  1.0 -0.0532980273
C  C172  1  0.59930000  0.72050000  0.85020000  1.0 -0.0532980273
C  C173  1  0.27950000  0.40070000  0.35020000  1.0 -0.0532980273
C  C174  1  0.72050000  0.59930000  0.35020000  1.0 -0.0532980273
C  C175  1  0.59930000  0.72050000  0.14980000  1.0 -0.0532980273
C  C176  1  0.40070000  0.27950000  0.14980000  1.0 -0.0532980273
C  C177  1  0.57700000  0.54780000  0.64250000  1.0 -0.1546805548
C  C178  1  0.42300000  0.45220000  0.64250000  1.0 -0.1546805548
C  C179  1  0.45220000  0.42300000  0.85750000  1.0 -0.1546805548
C  C180  1  0.54780000  0.57700000  0.85750000  1.0 -0.1546805548
C  C181  1  0.42300000  0.45220000  0.35750000  1.0 -0.1546805548
C  C182  1  0.57700000  0.54780000  0.35750000  1.0 -0.1546805548
C  C183  1  0.54780000  0.57700000  0.14250000  1.0 -0.1546805548
C  C184  1  0.45220000  0.42300000  0.14250000  1.0 -0.1546805548
C  C185  1  0.56640000  0.48840000  0.68090000  1.0 -0.1212620876
C  C186  1  0.43360000  0.51160000  0.68090000  1.0 -0.1212620876
C  C187  1  0.51160000  0.43360000  0.81910000  1.0 -0.1212620876
C  C188  1  0.48840000  0.56640000  0.81910000  1.0 -0.1212620876
C  C189  1  0.43360000  0.51160000  0.31910000  1.0 -0.1212620876
C  C190  1  0.56640000  0.48840000  0.31910000  1.0 -0.1212620876
C  C191  1  0.48840000  0.56640000  0.18090000  1.0 -0.1212620876
C  C192  1  0.51160000  0.43360000  0.18090000  1.0 -0.1212620876
C  C193  1  0.70770000  0.53610000  0.69010000  1.0 -0.0291416966
C  C194  1  0.29230000  0.46390000  0.69010000  1.0 -0.0291416966
C  C195  1  0.46390000  0.29230000  0.80990000  1.0 -0.0291416966
C  C196  1  0.53610000  0.70770000  0.80990000  1.0 -0.0291416966
C  C197  1  0.29230000  0.46390000  0.30990000  1.0 -0.0291416966
C  C198  1  0.70770000  0.53610000  0.30990000  1.0 -0.0291416966
C  C199  1  0.53610000  0.70770000  0.19010000  1.0 -0.0291416966
C  C200  1  0.46390000  0.29230000  0.19010000  1.0 -0.0291416966
O  O1  1  0.12425000  0.30195000  0.05702000  1.0 -0.6726617786
O  O2  1  0.87575000  0.69805000  0.05702000  1.0 -0.6726617786
O  O3  1  0.69805000  0.87575000  0.44298000  1.0 -0.6726617786
O  O4  1  0.30195000  0.12425000  0.44298000  1.0 -0.6726617786
O  O5  1  0.87575000  0.69805000  0.94298000  1.0 -0.6726617786
O  O6  1  0.12425000  0.30195000  0.94298000  1.0 -0.6726617786
O  O7  1  0.30195000  0.12425000  0.55702000  1.0 -0.6726617786
O  O8  1  0.69805000  0.87575000  0.55702000  1.0 -0.6726617786
O  O9  1  0.98972000  0.27988000  0.06341000  1.0 -0.6633589911
O  O10  1  0.01028000  0.72012000  0.06341000  1.0 -0.6633589911
O  O11  1  0.72012000  0.01028000  0.43659000  1.0 -0.6633589911
O  O12  1  0.27988000  0.98972000  0.43659000  1.0 -0.6633589911
O  O13  1  0.01028000  0.72012000  0.93659000  1.0 -0.6633589911
O  O14  1  0.98972000  0.27988000  0.93659000  1.0 -0.6633589911
O  O15  1  0.27988000  0.98972000  0.56341000  1.0 -0.6633589911
O  O16  1  0.72012000  0.01028000  0.56341000  1.0 -0.6633589911
O  O17  1  0.90667000  0.40813000  0.94025000  1.0 -0.6910440522
O  O18  1  0.09333000  0.59187000  0.94025000  1.0 -0.6910440522
O  O19  1  0.59187000  0.09333000  0.55975000  1.0 -0.6910440522
O  O20  1  0.40813000  0.90667000  0.55975000  1.0 -0.6910440522
O  O21  1  0.09333000  0.59187000  0.05975000  1.0 -0.6910440522
O  O22  1  0.90667000  0.40813000  0.05975000  1.0 -0.6910440522
O  O23  1  0.40813000  0.90667000  0.44025000  1.0 -0.6910440522
O  O24  1  0.59187000  0.09333000  0.44025000  1.0 -0.6910440522
O  O25  1  0.91687000  0.53873000  0.94501000  1.0 -0.6726617786
O  O26  1  0.08313000  0.46127000  0.94501000  1.0 -0.6726617786
O  O27  1  0.46127000  0.08313000  0.55499000  1.0 -0.6726617786
O  O28  1  0.53873000  0.91687000  0.55499000  1.0 -0.6726617786
O  O29  1  0.08313000  0.46127000  0.05499000  1.0 -0.6726617786
O  O30  1  0.91687000  0.53873000  0.05499000  1.0 -0.6726617786
O  O31  1  0.53873000  0.91687000  0.44501000  1.0 -0.6726617786
O  O32  1  0.46127000  0.08313000  0.44501000  1.0 -0.6726617786
O  O33  1  0.68660000  0.64620000  0.53770000  1.0 -0.1695427886
O  O34  1  0.31340000  0.35380000  0.53770000  1.0 -0.1695427886
O  O35  1  0.35380000  0.31340000  0.96230000  1.0 -0.1695427886
O  O36  1  0.64620000  0.68660000  0.96230000  1.0 -0.1695427886
O  O37  1  0.31340000  0.35380000  0.46230000  1.0 -0.1695427886
O  O38  1  0.68660000  0.64620000  0.46230000  1.0 -0.1695427886
O  O39  1  0.64620000  0.68660000  0.03770000  1.0 -0.1695427886
O  O40  1  0.35380000  0.31340000  0.03770000  1.0 -0.1695427886
O  O41  1  0.60600000  0.66640000  0.55860000  1.0 -0.2371028467
O  O42  1  0.39400000  0.33360000  0.55860000  1.0 -0.2371028467
O  O43  1  0.33360000  0.39400000  0.94140000  1.0 -0.2371028467
O  O44  1  0.66640000  0.60600000  0.94140000  1.0 -0.2371028467
O  O45  1  0.39400000  0.33360000  0.44140000  1.0 -0.2371028467
O  O46  1  0.60600000  0.66640000  0.44140000  1.0 -0.2371028467
O  O47  1  0.66640000  0.60600000  0.05860000  1.0 -0.2371028467
O  O48  1  0.33360000  0.39400000  0.05860000  1.0 -0.2371028467
O  O49  1  0.28510000  0.34250000  0.90820000  1.0 -0.0691720842
O  O50  1  0.71490000  0.65750000  0.90820000  1.0 -0.0691720842
O  O51  1  0.65750000  0.71490000  0.59180000  1.0 -0.0756415772
O  O52  1  0.34250000  0.28510000  0.59180000  1.0 -0.0691720842
O  O53  1  0.71490000  0.65750000  0.09180000  1.0 -0.0691720842
O  O54  1  0.28510000  0.34250000  0.09180000  1.0 -0.0691720842
O  O55  1  0.34250000  0.28510000  0.40820000  1.0 -0.0691720842
O  O56  1  0.65750000  0.71490000  0.40820000  1.0 -0.0756415772
O  O57  1  0.28310000  0.25670000  0.93210000  1.0 -0.2627590421
O  O58  1  0.71690000  0.74330000  0.93210000  1.0 -0.2627590421
O  O59  1  0.74330000  0.71690000  0.56790000  1.0 -0.2627590421
O  O60  1  0.25670000  0.28310000  0.56790000  1.0 -0.2627590421
O  O61  1  0.71690000  0.74330000  0.06790000  1.0 -0.2627590421
O  O62  1  0.28310000  0.25670000  0.06790000  1.0 -0.2627590421
O  O63  1  0.25670000  0.28310000  0.43210000  1.0 -0.2627590421
O  O64  1  0.74330000  0.71690000  0.43210000  1.0 -0.2627590421
