# DDEC6 charges by PACMAN v1.1 (https://github.com/mtap-research/PACMAN-charge/)
data_HIHGAI_ASR_pacman
_symmetry_space_group_name_H-M   'P 1'
_cell_length_a   17.77560000
_cell_length_b   17.77560000
_cell_length_c   24.83700000
_cell_angle_alpha   90.00000000
_cell_angle_beta   90.00000000
_cell_angle_gamma   116.39600000
_symmetry_Int_Tables_number   1
_chemical_formula_structural   Eu4Si3H64(C25O8)4
_chemical_formula_sum   'Eu8 Si6 H128 C200 O64'
_cell_volume   7029.60627060
_cell_formula_units_Z   2
loop_
 _symmetry_equiv_pos_site_id
 _symmetry_equiv_pos_as_xyz
  1  'x, y, z'
loop_
 _atom_site_type_symbol
 _atom_site_label
 _atom_site_symmetry_multiplicity
 _atom_site_fract_x
 _atom_site_fract_y
 _atom_site_fract_z
 _atom_site_occupancy
 _atom_site_charge
Eu  Eu1  1  0.98284000  0.37060000  0.00000000  1.0 2.0832800622
Eu  Eu2  1  0.01716000  0.62940000  0.00000000  1.0 2.0832800622
Eu  Eu3  1  0.62940000  0.01716000  0.50000000  1.0 2.0832800622
Eu  Eu4  1  0.37060000  0.98284000  0.50000000  1.0 2.0832800622
Eu  Eu5  1  0.22829000  0.31654000  0.00000000  1.0 1.6212077493
Eu  Eu6  1  0.77171000  0.68347000  0.00000000  1.0 1.6131751294
Eu  Eu7  1  0.68346000  0.77170000  0.50000000  1.0 1.6253791804
Eu  Eu8  1  0.31654000  0.22829000  0.50000000  1.0 1.6212077493
Si  Si1  1  0.00000000  0.00000000  0.25000000  1.0 0.656582361
Si  Si2  1  0.00000000  0.00000000  0.75000000  1.0 0.656582361
Si  Si3  1  0.61619000  0.38381000  0.75000000  1.0 0.4096525217
Si  Si4  1  0.38381000  0.61619000  0.75000000  1.0 0.4096525217
Si  Si5  1  0.38381000  0.61619000  0.25000000  1.0 0.4096525217
Si  Si6  1  0.61619000  0.38381000  0.25000000  1.0 0.4096525217
H  H1  1  0.91590000  0.16370000  0.12990000  1.0 0.1232843473
H  H2  1  0.08410000  0.83630000  0.12990000  1.0 0.1232843473
H  H3  1  0.83630000  0.08410000  0.37010000  1.0 0.1232843473
H  H4  1  0.16370000  0.91590000  0.37010000  1.0 0.1232843473
H  H5  1  0.08410000  0.83630000  0.87010000  1.0 0.1232843473
H  H6  1  0.91590000  0.16370000  0.87010000  1.0 0.1232843473
H  H7  1  0.16370000  0.91590000  0.62990000  1.0 0.1232843473
H  H8  1  0.83630000  0.08410000  0.62990000  1.0 0.1232843473
H  H9  1  0.14580000  0.14180000  0.19960000  1.0 0.1006137817
H  H10  1  0.85420000  0.85820000  0.19960000  1.0 0.1006137817
H  H11  1  0.85820000  0.85420000  0.30040000  1.0 0.1006137817
H  H12  1  0.14180000  0.14580000  0.30040000  1.0 0.1006137817
H  H13  1  0.85420000  0.85820000  0.80040000  1.0 0.1006137817
H  H14  1  0.14580000  0.14180000  0.80040000  1.0 0.1006137817
H  H15  1  0.14180000  0.14580000  0.69960000  1.0 0.1006137817
H  H16  1  0.85820000  0.85420000  0.69960000  1.0 0.1006137817
H  H17  1  0.67780000  0.20000000  0.63330000  1.0 0.1232843473
H  H18  1  0.32220000  0.80000000  0.63330000  1.0 0.1232843473
H  H19  1  0.80000000  0.32220000  0.86670000  1.0 0.1232843473
H  H20  1  0.20000000  0.67780000  0.86670000  1.0 0.1232843473
H  H21  1  0.32220000  0.80000000  0.36670000  1.0 0.1232843473
H  H22  1  0.67780000  0.20000000  0.36670000  1.0 0.1232843473
H  H23  1  0.20000000  0.67780000  0.13330000  1.0 0.1232843473
H  H24  1  0.80000000  0.32220000  0.13330000  1.0 0.1232843473
H  H25  1  0.16290000  0.23670000  0.13250000  1.0 0.1006137817
H  H26  1  0.83710000  0.76330000  0.13250000  1.0 0.1006137817
H  H27  1  0.76330000  0.83710000  0.36750000  1.0 0.1006137817
H  H28  1  0.23670000  0.16290000  0.36750000  1.0 0.1006137817
H  H29  1  0.83710000  0.76330000  0.86750000  1.0 0.1006137817
H  H30  1  0.16290000  0.23670000  0.86750000  1.0 0.1006137817
H  H31  1  0.23670000  0.16290000  0.63250000  1.0 0.1006137817
H  H32  1  0.76330000  0.83710000  0.63250000  1.0 0.1006137817
H  H33  1  0.70590000  0.29770000  0.70040000  1.0 0.1060920493
H  H34  1  0.29410000  0.70230000  0.70040000  1.0 0.1060920493
H  H35  1  0.70230000  0.29410000  0.79960000  1.0 0.1060920493
H  H36  1  0.29770000  0.70590000  0.79960000  1.0 0.1060920493
H  H37  1  0.29410000  0.70230000  0.29960000  1.0 0.1060920493
H  H38  1  0.70590000  0.29770000  0.29960000  1.0 0.1060920493
H  H39  1  0.29770000  0.70590000  0.20040000  1.0 0.1060920493
H  H40  1  0.70230000  0.29410000  0.20040000  1.0 0.1060920493
H  H41  1  0.47290000  0.26450000  0.69420000  1.0 0.1060920493
H  H42  1  0.52710000  0.73550000  0.69420000  1.0 0.1060920493
H  H43  1  0.73550000  0.52710000  0.80580000  1.0 0.1060920493
H  H44  1  0.26450000  0.47290000  0.80580000  1.0 0.1060920493
H  H45  1  0.52710000  0.73550000  0.30580000  1.0 0.1060920493
H  H46  1  0.47290000  0.26450000  0.30580000  1.0 0.1060920493
H  H47  1  0.26450000  0.47290000  0.19420000  1.0 0.1060920493
H  H48  1  0.73550000  0.52710000  0.19420000  1.0 0.1060920493
H  H49  1  0.89720000  0.06860000  0.19740000  1.0 0.1006137817
H  H50  1  0.10280000  0.93140000  0.19740000  1.0 0.1006137817
H  H51  1  0.93140000  0.10280000  0.30260000  1.0 0.1006137817
H  H52  1  0.06860000  0.89720000  0.30260000  1.0 0.1006137817
H  H53  1  0.10280000  0.93140000  0.80260000  1.0 0.1006137817
H  H54  1  0.89720000  0.06860000  0.80260000  1.0 0.1006137817
H  H55  1  0.06860000  0.89720000  0.69740000  1.0 0.1006137817
H  H56  1  0.93140000  0.10280000  0.69740000  1.0 0.1006137817
H  H57  1  0.44290000  0.16970000  0.62590000  1.0 0.1267107482
H  H58  1  0.55710000  0.83030000  0.62590000  1.0 0.1267107482
H  H59  1  0.83030000  0.55710000  0.87410000  1.0 0.1267107482
H  H60  1  0.16970000  0.44290000  0.87410000  1.0 0.1267107482
H  H61  1  0.55710000  0.83030000  0.37410000  1.0 0.1267107482
H  H62  1  0.44290000  0.16970000  0.37410000  1.0 0.1267107482
H  H63  1  0.16970000  0.44290000  0.12590000  1.0 0.1267107482
H  H64  1  0.83030000  0.55710000  0.12590000  1.0 0.1267107482
H  H65  1  0.36310000  0.22230000  0.85990000  1.0 0.1006137817
H  H66  1  0.63690000  0.77770000  0.85990000  1.0 0.1006137817
H  H67  1  0.77770000  0.63690000  0.64010000  1.0 0.1006137817
H  H68  1  0.22230000  0.36310000  0.64010000  1.0 0.1006137817
H  H69  1  0.63690000  0.77770000  0.14010000  1.0 0.1006137817
H  H70  1  0.36310000  0.22230000  0.14010000  1.0 0.1006137817
H  H71  1  0.22230000  0.36310000  0.35990000  1.0 0.1006137817
H  H72  1  0.77770000  0.63690000  0.35990000  1.0 0.1006137817
H  H73  1  0.45960000  0.24020000  0.79460000  1.0 0.1006137817
H  H74  1  0.54040000  0.75980000  0.79460000  1.0 0.1006137817
H  H75  1  0.75980000  0.54040000  0.70540000  1.0 0.1006137817
H  H76  1  0.24020000  0.45960000  0.70540000  1.0 0.1006137817
H  H77  1  0.54040000  0.75980000  0.20540000  1.0 0.1006137817
H  H78  1  0.45960000  0.24020000  0.20540000  1.0 0.1006137817
H  H79  1  0.24020000  0.45960000  0.29460000  1.0 0.1006137817
H  H80  1  0.75980000  0.54040000  0.29460000  1.0 0.1006137817
H  H81  1  0.53970000  0.48570000  0.80270000  1.0 0.0724324192
H  H82  1  0.46030000  0.51430000  0.80270000  1.0 0.0724324192
H  H83  1  0.51430000  0.46030000  0.69730000  1.0 0.0724324192
H  H84  1  0.48570000  0.53970000  0.69730000  1.0 0.0724324192
H  H85  1  0.46030000  0.51430000  0.19730000  1.0 0.0724324192
H  H86  1  0.53970000  0.48570000  0.19730000  1.0 0.0724324192
H  H87  1  0.48570000  0.53970000  0.30270000  1.0 0.0724324192
H  H88  1  0.51430000  0.46030000  0.30270000  1.0 0.0724324192
H  H89  1  0.44300000  0.46500000  0.86910000  1.0 0.0890405457
H  H90  1  0.55700000  0.53500000  0.86910000  1.0 0.0890405457
H  H91  1  0.53500000  0.55700000  0.63090000  1.0 0.0890405457
H  H92  1  0.46500000  0.44300000  0.63090000  1.0 0.0890405457
H  H93  1  0.55700000  0.53500000  0.13090000  1.0 0.0890405457
H  H94  1  0.44300000  0.46500000  0.13090000  1.0 0.0890405457
H  H95  1  0.46500000  0.44300000  0.36910000  1.0 0.0890405457
H  H96  1  0.53500000  0.55700000  0.36910000  1.0 0.0890405457
H  H97  1  0.49380000  0.33160000  0.92610000  1.0 0.1060920493
H  H98  1  0.50620000  0.66840000  0.92610000  1.0 0.1060920493
H  H99  1  0.66840000  0.50620000  0.57390000  1.0 0.1060920493
H  H100  1  0.33160000  0.49380000  0.57390000  1.0 0.1060920493
H  H101  1  0.50620000  0.66840000  0.07390000  1.0 0.1060920493
H  H102  1  0.49380000  0.33160000  0.07390000  1.0 0.1060920493
H  H103  1  0.33160000  0.49380000  0.42610000  1.0 0.1060920493
H  H104  1  0.66840000  0.50620000  0.42610000  1.0 0.1060920493
H  H105  1  0.59140000  0.34620000  0.86010000  1.0 0.0890405457
H  H106  1  0.40860000  0.65380000  0.86010000  1.0 0.0890405457
H  H107  1  0.65380000  0.40860000  0.63990000  1.0 0.0890405457
H  H108  1  0.34620000  0.59140000  0.63990000  1.0 0.0890405457
H  H109  1  0.40860000  0.65380000  0.13990000  1.0 0.0890405457
H  H110  1  0.59140000  0.34620000  0.13990000  1.0 0.0890405457
H  H111  1  0.34620000  0.59140000  0.36010000  1.0 0.0890405457
H  H112  1  0.65380000  0.40860000  0.36010000  1.0 0.0890405457
H  H113  1  0.44610000  0.36690000  0.74620000  1.0 0.0890405457
H  H114  1  0.55390000  0.63310000  0.74620000  1.0 0.0890405457
H  H115  1  0.63310000  0.55390000  0.75380000  1.0 0.0890405457
H  H116  1  0.36690000  0.44610000  0.75380000  1.0 0.0890405457
H  H117  1  0.55390000  0.63310000  0.25380000  1.0 0.0890405457
H  H118  1  0.44610000  0.36690000  0.25380000  1.0 0.0890405457
H  H119  1  0.36690000  0.44610000  0.24620000  1.0 0.0890405457
H  H120  1  0.63310000  0.55390000  0.24620000  1.0 0.0890405457
H  H121  1  0.34750000  0.33790000  0.80800000  1.0 0.1006137817
H  H122  1  0.65250000  0.66210000  0.80800000  1.0 0.1006137817
H  H123  1  0.66210000  0.65250000  0.69200000  1.0 0.1006137817
H  H124  1  0.33790000  0.34750000  0.69200000  1.0 0.1006137817
H  H125  1  0.65250000  0.66210000  0.19200000  1.0 0.1006137817
H  H126  1  0.34750000  0.33790000  0.19200000  1.0 0.1006137817
H  H127  1  0.33790000  0.34750000  0.30800000  1.0 0.1006137817
H  H128  1  0.66210000  0.65250000  0.30800000  1.0 0.1006137817
C  C1  1  0.53898000  0.11302000  0.57627000  1.0 0.6432823966
C  C2  1  0.46102000  0.88698000  0.57627000  1.0 0.6432823966
C  C3  1  0.88698000  0.46102000  0.92373000  1.0 0.6432823966
C  C4  1  0.11302000  0.53898000  0.92373000  1.0 0.6432823966
C  C5  1  0.46102000  0.88698000  0.42373000  1.0 0.6432823966
C  C6  1  0.53898000  0.11302000  0.42373000  1.0 0.6432823966
C  C7  1  0.11302000  0.53898000  0.07627000  1.0 0.6432823966
C  C8  1  0.88698000  0.46102000  0.07627000  1.0 0.6432823966
C  C9  1  0.55722000  0.17378000  0.62231000  1.0 -0.0214855912
C  C10  1  0.44278000  0.82622000  0.62231000  1.0 -0.0214855912
C  C11  1  0.82622000  0.44278000  0.87769000  1.0 -0.0214855912
C  C12  1  0.17378000  0.55722000  0.87769000  1.0 -0.0214855912
C  C13  1  0.44278000  0.82622000  0.37769000  1.0 -0.0214855912
C  C14  1  0.55722000  0.17378000  0.37769000  1.0 -0.0214855912
C  C15  1  0.17378000  0.55722000  0.12231000  1.0 -0.0214855912
C  C16  1  0.82622000  0.44278000  0.12231000  1.0 -0.0214855912
C  C17  1  0.05167000  0.27013000  0.07964000  1.0 0.6310227941
C  C18  1  0.94833000  0.72987000  0.07964000  1.0 0.6310227941
C  C19  1  0.72987000  0.94833000  0.42036000  1.0 0.6310227941
C  C20  1  0.27013000  0.05167000  0.42036000  1.0 0.6310227941
C  C21  1  0.94833000  0.72987000  0.92036000  1.0 0.6310227941
C  C22  1  0.05167000  0.27013000  0.92036000  1.0 0.6310227941
C  C23  1  0.27013000  0.05167000  0.57964000  1.0 0.6310227941
C  C24  1  0.72987000  0.94833000  0.57964000  1.0 0.6310227941
C  C25  1  0.04082000  0.21038000  0.12459000  1.0 -0.0328845029
C  C26  1  0.95918000  0.78962000  0.12459000  1.0 -0.0328845029
C  C27  1  0.78962000  0.95918000  0.37541000  1.0 -0.0328845029
C  C28  1  0.21038000  0.04082000  0.37541000  1.0 -0.0328845029
C  C29  1  0.95918000  0.78962000  0.87541000  1.0 -0.0328845029
C  C30  1  0.04082000  0.21038000  0.87541000  1.0 -0.0328845029
C  C31  1  0.21038000  0.04082000  0.62459000  1.0 -0.0328845029
C  C32  1  0.78962000  0.95918000  0.62459000  1.0 -0.0328845029
C  C33  1  0.01845000  0.08995000  0.20528000  1.0 -0.229289014
C  C34  1  0.98155000  0.91005000  0.20528000  1.0 -0.229289014
C  C35  1  0.91005000  0.98155000  0.29472000  1.0 -0.229289014
C  C36  1  0.08995000  0.01845000  0.29472000  1.0 -0.229289014
C  C37  1  0.98155000  0.91005000  0.79472000  1.0 -0.229289014
C  C38  1  0.01845000  0.08995000  0.79472000  1.0 -0.229289014
C  C39  1  0.08995000  0.01845000  0.70528000  1.0 -0.229289014
C  C40  1  0.91005000  0.98155000  0.70528000  1.0 -0.229289014
C  C41  1  0.59237000  0.29263000  0.70470000  1.0 -0.2028405463
C  C42  1  0.40763000  0.70737000  0.70470000  1.0 -0.2028405463
C  C43  1  0.70737000  0.40763000  0.79530000  1.0 -0.2028405463
C  C44  1  0.29263000  0.59237000  0.79530000  1.0 -0.2028405463
C  C45  1  0.40763000  0.70737000  0.29530000  1.0 -0.2028405463
C  C46  1  0.59237000  0.29263000  0.29530000  1.0 -0.2028405463
C  C47  1  0.29263000  0.59237000  0.20470000  1.0 -0.2028405463
C  C48  1  0.70737000  0.40763000  0.20470000  1.0 -0.2028405463
C  C49  1  0.96228000  0.15932000  0.14390000  1.0 -0.0999846283
C  C50  1  0.03772000  0.84068000  0.14390000  1.0 -0.0999846283
C  C51  1  0.84068000  0.03772000  0.35610000  1.0 -0.0999846283
C  C52  1  0.15932000  0.96228000  0.35610000  1.0 -0.0999846283
C  C53  1  0.03772000  0.84068000  0.85610000  1.0 -0.0999846283
C  C54  1  0.96228000  0.15932000  0.85610000  1.0 -0.0999846283
C  C55  1  0.15932000  0.96228000  0.64390000  1.0 -0.0999846283
C  C56  1  0.84068000  0.03772000  0.64390000  1.0 -0.0999846283
C  C57  1  0.09883000  0.14477000  0.18538000  1.0 -0.0999846283
C  C58  1  0.90117000  0.85523000  0.18538000  1.0 -0.0999846283
C  C59  1  0.85523000  0.90117000  0.31462000  1.0 -0.0999846283
C  C60  1  0.14477000  0.09883000  0.31462000  1.0 -0.0999846283
C  C61  1  0.90117000  0.85523000  0.81462000  1.0 -0.0999846283
C  C62  1  0.09883000  0.14477000  0.81462000  1.0 -0.0999846283
C  C63  1  0.14477000  0.09883000  0.68538000  1.0 -0.0999846283
C  C64  1  0.85523000  0.90117000  0.68538000  1.0 -0.0999846283
C  C65  1  0.63542000  0.21298000  0.64519000  1.0 -0.0999846283
C  C66  1  0.36458000  0.78702000  0.64519000  1.0 -0.0999846283
C  C67  1  0.78702000  0.36458000  0.85481000  1.0 -0.0999846283
C  C68  1  0.21298000  0.63542000  0.85481000  1.0 -0.0999846283
C  C69  1  0.36458000  0.78702000  0.35481000  1.0 -0.0999846283
C  C70  1  0.63542000  0.21298000  0.35481000  1.0 -0.0999846283
C  C71  1  0.21298000  0.63542000  0.14519000  1.0 -0.0999846283
C  C72  1  0.78702000  0.36458000  0.14519000  1.0 -0.0999846283
C  C73  1  0.10927000  0.20253000  0.14547000  1.0 -0.1064263167
C  C74  1  0.89073000  0.79747000  0.14547000  1.0 -0.1064263167
C  C75  1  0.79747000  0.89073000  0.35453000  1.0 -0.1064263167
C  C76  1  0.20253000  0.10927000  0.35453000  1.0 -0.1064263167
C  C77  1  0.89073000  0.79747000  0.85453000  1.0 -0.1064263167
C  C78  1  0.10927000  0.20253000  0.85453000  1.0 -0.1064263167
C  C79  1  0.20253000  0.10927000  0.64547000  1.0 -0.1064263167
C  C80  1  0.79747000  0.89073000  0.64547000  1.0 -0.1064263167
C  C81  1  0.65216000  0.27184000  0.68578000  1.0 -0.1064263167
C  C82  1  0.34784000  0.72816000  0.68578000  1.0 -0.1064263167
C  C83  1  0.72816000  0.34784000  0.81422000  1.0 -0.1064263167
C  C84  1  0.27184000  0.65216000  0.81422000  1.0 -0.1064263167
C  C85  1  0.34784000  0.72816000  0.31422000  1.0 -0.1064263167
C  C86  1  0.65216000  0.27184000  0.31422000  1.0 -0.1064263167
C  C87  1  0.27184000  0.65216000  0.18578000  1.0 -0.1064263167
C  C88  1  0.72816000  0.34784000  0.18578000  1.0 -0.1064263167
C  C89  1  0.51554000  0.25226000  0.68164000  1.0 -0.0999846283
C  C90  1  0.48446000  0.74774000  0.68164000  1.0 -0.0999846283
C  C91  1  0.74774000  0.48446000  0.81836000  1.0 -0.0999846283
C  C92  1  0.25226000  0.51554000  0.81836000  1.0 -0.0999846283
C  C93  1  0.48446000  0.74774000  0.31836000  1.0 -0.0999846283
C  C94  1  0.51554000  0.25226000  0.31836000  1.0 -0.0999846283
C  C95  1  0.25226000  0.51554000  0.18164000  1.0 -0.0999846283
C  C96  1  0.74774000  0.48446000  0.18164000  1.0 -0.0999846283
C  C97  1  0.95097000  0.10103000  0.18410000  1.0 -0.0897309464
C  C98  1  0.04903000  0.89897000  0.18410000  1.0 -0.0897309464
C  C99  1  0.89897000  0.04903000  0.31590000  1.0 -0.0897309464
C  C100  1  0.10103000  0.95097000  0.31590000  1.0 -0.0897309464
C  C101  1  0.04903000  0.89897000  0.81590000  1.0 -0.0897309464
C  C102  1  0.95097000  0.10103000  0.81590000  1.0 -0.0897309464
C  C103  1  0.10103000  0.95097000  0.68410000  1.0 -0.0897309464
C  C104  1  0.89897000  0.04903000  0.68410000  1.0 -0.0897309464
C  C105  1  0.49658000  0.19442000  0.64075000  1.0 -0.0897309464
C  C106  1  0.50342000  0.80558000  0.64075000  1.0 -0.0897309464
C  C107  1  0.80558000  0.50342000  0.85925000  1.0 -0.0897309464
C  C108  1  0.19442000  0.49658000  0.85925000  1.0 -0.0897309464
C  C109  1  0.50342000  0.80558000  0.35925000  1.0 -0.0897309464
C  C110  1  0.49658000  0.19442000  0.35925000  1.0 -0.0897309464
C  C111  1  0.19442000  0.49658000  0.14075000  1.0 -0.0897309464
C  C112  1  0.80558000  0.50342000  0.14075000  1.0 -0.0897309464
C  C113  1  0.52526000  0.36414000  0.79622000  1.0 -0.0897309464
C  C114  1  0.47474000  0.63586000  0.79622000  1.0 -0.0897309464
C  C115  1  0.63586000  0.47474000  0.70378000  1.0 -0.0897309464
C  C116  1  0.36414000  0.52526000  0.70378000  1.0 -0.0897309464
C  C117  1  0.47474000  0.63586000  0.20378000  1.0 -0.0897309464
C  C118  1  0.52526000  0.36414000  0.20378000  1.0 -0.0897309464
C  C119  1  0.36414000  0.52526000  0.29622000  1.0 -0.0897309464
C  C120  1  0.63586000  0.47474000  0.29622000  1.0 -0.0897309464
C  C121  1  0.33287000  0.32553000  0.91379000  1.0 0.4258204828
C  C122  1  0.66713000  0.67447000  0.91379000  1.0 0.4258204828
C  C123  1  0.67447000  0.66713000  0.58621000  1.0 0.4258204828
C  C124  1  0.32553000  0.33287000  0.58621000  1.0 0.4258204828
C  C125  1  0.66713000  0.67447000  0.08621000  1.0 0.4258204828
C  C126  1  0.33287000  0.32553000  0.08621000  1.0 0.4258204828
C  C127  1  0.32553000  0.33287000  0.41379000  1.0 0.4258204828
C  C128  1  0.67447000  0.66713000  0.41379000  1.0 0.4258204828
C  C129  1  0.40202000  0.33798000  0.87306000  1.0 0.0083443302
C  C130  1  0.59798000  0.66202000  0.87306000  1.0 0.0083443302
C  C131  1  0.66202000  0.59798000  0.62694000  1.0 0.0083443302
C  C132  1  0.33798000  0.40202000  0.62694000  1.0 0.0083443302
C  C133  1  0.59798000  0.66202000  0.12694000  1.0 0.0083443302
C  C134  1  0.40202000  0.33798000  0.12694000  1.0 0.0083443302
C  C135  1  0.33798000  0.40202000  0.37306000  1.0 0.0083443302
C  C136  1  0.66202000  0.59798000  0.37306000  1.0 0.0083443302
C  C137  1  0.40260000  0.27620000  0.85060000  1.0 -0.0695246888
C  C138  1  0.59740000  0.72380000  0.85060000  1.0 -0.0695246888
C  C139  1  0.72380000  0.59740000  0.64940000  1.0 -0.0695246888
C  C140  1  0.27620000  0.40260000  0.64940000  1.0 -0.0695246888
C  C141  1  0.59740000  0.72380000  0.14940000  1.0 -0.0695246888
C  C142  1  0.40260000  0.27620000  0.14940000  1.0 -0.0695246888
C  C143  1  0.27620000  0.40260000  0.35060000  1.0 -0.0695246888
C  C144  1  0.72380000  0.59740000  0.35060000  1.0 -0.0695246888
C  C145  1  0.46220000  0.28780000  0.81170000  1.0 -0.0214855912
C  C146  1  0.53780000  0.71220000  0.81170000  1.0 -0.0214855912
C  C147  1  0.71220000  0.53780000  0.68830000  1.0 -0.0214855912
C  C148  1  0.28780000  0.46220000  0.68830000  1.0 -0.0214855912
C  C149  1  0.53780000  0.71220000  0.18830000  1.0 -0.0214855912
C  C150  1  0.46220000  0.28780000  0.18830000  1.0 -0.0214855912
C  C151  1  0.28780000  0.46220000  0.31170000  1.0 -0.0214855912
C  C152  1  0.71220000  0.53780000  0.31170000  1.0 -0.0214855912
C  C153  1  0.50890000  0.43190000  0.81660000  1.0 -0.1064263167
C  C154  1  0.49110000  0.56810000  0.81660000  1.0 -0.1064263167
C  C155  1  0.56810000  0.49110000  0.68340000  1.0 -0.1064263167
C  C156  1  0.43190000  0.50890000  0.68340000  1.0 -0.1064263167
C  C157  1  0.49110000  0.56810000  0.18340000  1.0 -0.1064263167
C  C158  1  0.50890000  0.43190000  0.18340000  1.0 -0.1064263167
C  C159  1  0.43190000  0.50890000  0.31660000  1.0 -0.1064263167
C  C160  1  0.56810000  0.49110000  0.31660000  1.0 -0.1064263167
C  C161  1  0.45050000  0.42030000  0.85520000  1.0 -0.1519089286
C  C162  1  0.54950000  0.57970000  0.85520000  1.0 -0.1519089286
C  C163  1  0.57970000  0.54950000  0.64480000  1.0 -0.1519089286
C  C164  1  0.42030000  0.45050000  0.64480000  1.0 -0.1519089286
C  C165  1  0.54950000  0.57970000  0.14480000  1.0 -0.1519089286
C  C166  1  0.45050000  0.42030000  0.14480000  1.0 -0.1519089286
C  C167  1  0.42030000  0.45050000  0.35520000  1.0 -0.1519089286
C  C168  1  0.57970000  0.54950000  0.35520000  1.0 -0.1519089286
C  C169  1  0.48350000  0.33830000  0.89020000  1.0 -0.0897309464
C  C170  1  0.51650000  0.66170000  0.89020000  1.0 -0.0897309464
C  C171  1  0.66170000  0.51650000  0.60980000  1.0 -0.0897309464
C  C172  1  0.33830000  0.48350000  0.60980000  1.0 -0.0897309464
C  C173  1  0.51650000  0.66170000  0.10980000  1.0 -0.0897309464
C  C174  1  0.48350000  0.33830000  0.10980000  1.0 -0.0897309464
C  C175  1  0.33830000  0.48350000  0.39020000  1.0 -0.0897309464
C  C176  1  0.66170000  0.51650000  0.39020000  1.0 -0.0897309464
C  C177  1  0.54180000  0.34880000  0.85130000  1.0 -0.1335184855
C  C178  1  0.45820000  0.65120000  0.85130000  1.0 -0.1335184855
C  C179  1  0.65120000  0.45820000  0.64870000  1.0 -0.1335184855
C  C180  1  0.34880000  0.54180000  0.64870000  1.0 -0.1335184855
C  C181  1  0.45820000  0.65120000  0.14870000  1.0 -0.1335184855
C  C182  1  0.54180000  0.34880000  0.14870000  1.0 -0.1335184855
C  C183  1  0.34880000  0.54180000  0.35130000  1.0 -0.1335184855
C  C184  1  0.65120000  0.45820000  0.35130000  1.0 -0.1335184855
C  C185  1  0.45710000  0.35990000  0.78200000  1.0 -0.0695246888
C  C186  1  0.54290000  0.64010000  0.78200000  1.0 -0.0695246888
C  C187  1  0.64010000  0.54290000  0.71800000  1.0 -0.0695246888
C  C188  1  0.35990000  0.45710000  0.71800000  1.0 -0.0695246888
C  C189  1  0.54290000  0.64010000  0.21800000  1.0 -0.0695246888
C  C190  1  0.45710000  0.35990000  0.21800000  1.0 -0.0695246888
C  C191  1  0.35990000  0.45710000  0.28200000  1.0 -0.0695246888
C  C192  1  0.64010000  0.54290000  0.28200000  1.0 -0.0695246888
C  C193  1  0.39930000  0.34490000  0.82080000  1.0 -0.0214855912
C  C194  1  0.60070000  0.65510000  0.82080000  1.0 -0.0214855912
C  C195  1  0.65510000  0.60070000  0.67920000  1.0 -0.0214855912
C  C196  1  0.34490000  0.39930000  0.67920000  1.0 -0.0214855912
C  C197  1  0.60070000  0.65510000  0.17920000  1.0 -0.0214855912
C  C198  1  0.39930000  0.34490000  0.17920000  1.0 -0.0214855912
C  C199  1  0.34490000  0.39930000  0.32080000  1.0 -0.0214855912
C  C200  1  0.65510000  0.60070000  0.32080000  1.0 -0.0214855912
O  O1  1  0.12238000  0.30702000  0.05841000  1.0 -0.6756191497
O  O2  1  0.87762000  0.69298000  0.05841000  1.0 -0.6742017172
O  O3  1  0.69298000  0.87762000  0.44159000  1.0 -0.6742017172
O  O4  1  0.30702000  0.12238000  0.44159000  1.0 -0.6742017172
O  O5  1  0.87762000  0.69298000  0.94159000  1.0 -0.6742017172
O  O6  1  0.12238000  0.30702000  0.94159000  1.0 -0.6742017172
O  O7  1  0.30702000  0.12238000  0.55841000  1.0 -0.6742017172
O  O8  1  0.69298000  0.87762000  0.55841000  1.0 -0.6742017172
O  O9  1  0.99127000  0.27995000  0.06590000  1.0 -0.6168230941
O  O10  1  0.00873000  0.72005000  0.06590000  1.0 -0.6168230941
O  O11  1  0.72005000  0.00873000  0.43410000  1.0 -0.6168230941
O  O12  1  0.27995000  0.99127000  0.43410000  1.0 -0.6168230941
O  O13  1  0.00873000  0.72005000  0.93410000  1.0 -0.6168230941
O  O14  1  0.99127000  0.27995000  0.93410000  1.0 -0.6168230941
O  O15  1  0.27995000  0.99127000  0.56590000  1.0 -0.6168230941
O  O16  1  0.72005000  0.00873000  0.56590000  1.0 -0.6168230941
O  O17  1  0.59773000  0.09953000  0.56071000  1.0 -0.6601715853
O  O18  1  0.40227000  0.90047000  0.56071000  1.0 -0.6601715853
O  O19  1  0.90047000  0.40227000  0.93929000  1.0 -0.6601715853
O  O20  1  0.09953000  0.59773000  0.93929000  1.0 -0.6601715853
O  O21  1  0.40227000  0.90047000  0.43929000  1.0 -0.6601715853
O  O22  1  0.59773000  0.09953000  0.43929000  1.0 -0.6601715853
O  O23  1  0.09953000  0.59773000  0.06071000  1.0 -0.6601715853
O  O24  1  0.90047000  0.40227000  0.06071000  1.0 -0.6601715853
O  O25  1  0.46874000  0.07982000  0.55750000  1.0 -0.6361353939
O  O26  1  0.53126000  0.92018000  0.55750000  1.0 -0.6361353939
O  O27  1  0.92018000  0.53126000  0.94250000  1.0 -0.6361353939
O  O28  1  0.07982000  0.46874000  0.94250000  1.0 -0.6361353939
O  O29  1  0.53126000  0.92018000  0.44250000  1.0 -0.6361353939
O  O30  1  0.46874000  0.07982000  0.44250000  1.0 -0.6361353939
O  O31  1  0.07982000  0.46874000  0.05750000  1.0 -0.6361353939
O  O32  1  0.92018000  0.53126000  0.05750000  1.0 -0.6361353939
O  O33  1  0.33120000  0.39740000  0.93600000  1.0 -0.2938815599
O  O34  1  0.66880000  0.60260000  0.93600000  1.0 -0.2938815599
O  O35  1  0.60260000  0.66880000  0.56400000  1.0 -0.2938815599
O  O36  1  0.39740000  0.33120000  0.56400000  1.0 -0.2938815599
O  O37  1  0.66880000  0.60260000  0.06400000  1.0 -0.2938815599
O  O38  1  0.33120000  0.39740000  0.06400000  1.0 -0.2938815599
O  O39  1  0.39740000  0.33120000  0.43600000  1.0 -0.2938815599
O  O40  1  0.60260000  0.66880000  0.43600000  1.0 -0.2955618148
O  O41  1  0.35710000  0.31790000  0.96130000  1.0 -0.2209647094
O  O42  1  0.64290000  0.68210000  0.96130000  1.0 -0.2209647094
O  O43  1  0.68210000  0.64290000  0.53870000  1.0 -0.2209647094
O  O44  1  0.31790000  0.35710000  0.53870000  1.0 -0.2209647094
O  O45  1  0.64290000  0.68210000  0.03870000  1.0 -0.2209647094
O  O46  1  0.35710000  0.31790000  0.03870000  1.0 -0.2209647094
O  O47  1  0.31790000  0.35710000  0.46130000  1.0 -0.2209647094
O  O48  1  0.68210000  0.64290000  0.46130000  1.0 -0.2209647094
O  O49  1  0.27970000  0.34030000  0.90190000  1.0 -0.1620233025
O  O50  1  0.72030000  0.65970000  0.90190000  1.0 -0.1620233025
O  O51  1  0.65970000  0.72030000  0.59810000  1.0 -0.1620233025
O  O52  1  0.34030000  0.27970000  0.59810000  1.0 -0.1620233025
O  O53  1  0.72030000  0.65970000  0.09810000  1.0 -0.1620233025
O  O54  1  0.27970000  0.34030000  0.09810000  1.0 -0.1620233025
O  O55  1  0.34030000  0.27970000  0.40190000  1.0 -0.1620233025
O  O56  1  0.65970000  0.72030000  0.40190000  1.0 -0.167005906
O  O57  1  0.28260000  0.25640000  0.93100000  1.0 -0.2666951736
O  O58  1  0.71740000  0.74360000  0.93100000  1.0 -0.2666951736
O  O59  1  0.74360000  0.71740000  0.56900000  1.0 -0.2666951736
O  O60  1  0.25640000  0.28260000  0.56900000  1.0 -0.2666951736
O  O61  1  0.71740000  0.74360000  0.06900000  1.0 -0.2666951736
O  O62  1  0.28260000  0.25640000  0.06900000  1.0 -0.2666951736
O  O63  1  0.25640000  0.28260000  0.43100000  1.0 -0.2666951736
O  O64  1  0.74360000  0.71740000  0.43100000  1.0 -0.2666951736
