# DDEC6 charges by PACMAN v1.1 (https://github.com/mtap-research/PACMAN-charge/)
data_HIQDUJ_ASR_pacman
_symmetry_space_group_name_H-M   'P 1'
_cell_length_a   21.98000000
_cell_length_b   21.98000000
_cell_length_c   8.96000000
_cell_angle_alpha   90.00000000
_cell_angle_beta   90.00000000
_cell_angle_gamma   90.00000000
_symmetry_Int_Tables_number   1
_chemical_formula_structural   Co2NiP4H24C44(NO3)4
_chemical_formula_sum   'Co4 Ni2 P8 H48 C88 N8 O24'
_cell_volume   4328.75878400
_cell_formula_units_Z   2
loop_
 _symmetry_equiv_pos_site_id
 _symmetry_equiv_pos_as_xyz
  1  'x, y, z'
loop_
 _atom_site_type_symbol
 _atom_site_label
 _atom_site_symmetry_multiplicity
 _atom_site_fract_x
 _atom_site_fract_y
 _atom_site_fract_z
 _atom_site_occupancy
 _atom_site_charge
Co  Co1  1  0.00000000  0.50000000  0.92600000  1.0 1.2589081063
Co  Co2  1  0.50000000  0.00000000  0.07400000  1.0 1.2589081063
Co  Co3  1  0.00000000  0.50000000  0.42600000  1.0 1.2589081063
Co  Co4  1  0.50000000  0.00000000  0.57400000  1.0 1.2589081063
Ni  Ni1  1  0.50000000  0.50000000  0.00000000  1.0 0.3788931502
Ni  Ni2  1  0.50000000  0.50000000  0.50000000  1.0 0.3788931502
P  P1  1  0.92280000  0.58060000  0.17930000  1.0 1.307016386
P  P2  1  0.07720000  0.41940000  0.17930000  1.0 1.307016386
P  P3  1  0.41940000  0.92280000  0.82070000  1.0 1.307016386
P  P4  1  0.58060000  0.07720000  0.82070000  1.0 1.307016386
P  P5  1  0.92280000  0.41940000  0.67930000  1.0 1.307016386
P  P6  1  0.07720000  0.58060000  0.67930000  1.0 1.307016386
P  P7  1  0.41940000  0.07720000  0.32070000  1.0 1.307016386
P  P8  1  0.58060000  0.92280000  0.32070000  1.0 1.307016386
H  H1  1  0.57470000  0.71310000  0.88230000  1.0 0.1407652648
H  H2  1  0.67040000  0.65510000  0.94350000  1.0 0.1407652648
H  H3  1  0.75290000  0.49400000  0.90440000  1.0 0.1207025408
H  H4  1  0.85510000  0.51220000  0.95470000  1.0 0.1521787627
H  H5  1  0.80860000  0.63000000  0.28400000  1.0 0.1407652648
H  H6  1  0.70370000  0.61160000  0.23700000  1.0 0.1207025408
H  H7  1  0.42530000  0.28690000  0.88230000  1.0 0.1407652648
H  H8  1  0.32960000  0.34490000  0.94350000  1.0 0.1407652648
H  H9  1  0.24710000  0.50600000  0.90440000  1.0 0.1207025408
H  H10  1  0.14490000  0.48780000  0.95470000  1.0 0.1521787627
H  H11  1  0.19140000  0.37000000  0.28400000  1.0 0.1407652648
H  H12  1  0.29630000  0.38840000  0.23700000  1.0 0.1207025408
H  H13  1  0.28690000  0.57470000  0.11770000  1.0 0.1407652648
H  H14  1  0.34490000  0.67040000  0.05650000  1.0 0.1407652648
H  H15  1  0.50600000  0.75290000  0.09560000  1.0 0.1207025408
H  H16  1  0.48780000  0.85510000  0.04530000  1.0 0.1521787627
H  H17  1  0.37000000  0.80860000  0.71600000  1.0 0.1407652648
H  H18  1  0.38840000  0.70370000  0.76300000  1.0 0.1207025408
H  H19  1  0.71310000  0.42530000  0.11770000  1.0 0.1407652648
H  H20  1  0.65510000  0.32960000  0.05650000  1.0 0.1407652648
H  H21  1  0.49400000  0.24710000  0.09560000  1.0 0.1207025408
H  H22  1  0.51220000  0.14490000  0.04530000  1.0 0.1521787627
H  H23  1  0.63000000  0.19140000  0.71600000  1.0 0.1407652648
H  H24  1  0.61160000  0.29630000  0.76300000  1.0 0.1207025408
H  H25  1  0.57470000  0.28690000  0.38230000  1.0 0.1407652648
H  H26  1  0.67040000  0.34490000  0.44350000  1.0 0.1407652648
H  H27  1  0.75290000  0.50600000  0.40440000  1.0 0.1207025408
H  H28  1  0.85510000  0.48780000  0.45470000  1.0 0.1521787627
H  H29  1  0.80860000  0.37000000  0.78400000  1.0 0.1407652648
H  H30  1  0.70370000  0.38840000  0.73700000  1.0 0.1207025408
H  H31  1  0.42530000  0.71310000  0.38230000  1.0 0.1407652648
H  H32  1  0.32960000  0.65510000  0.44350000  1.0 0.1407652648
H  H33  1  0.24710000  0.49400000  0.40440000  1.0 0.1207025408
H  H34  1  0.14490000  0.51220000  0.45470000  1.0 0.1521787627
H  H35  1  0.19140000  0.63000000  0.78400000  1.0 0.1407652648
H  H36  1  0.29630000  0.61160000  0.73700000  1.0 0.1207025408
H  H37  1  0.28690000  0.42530000  0.61770000  1.0 0.1407652648
H  H38  1  0.34490000  0.32960000  0.55650000  1.0 0.1407652648
H  H39  1  0.50600000  0.24710000  0.59560000  1.0 0.1207025408
H  H40  1  0.48780000  0.14490000  0.54530000  1.0 0.1521787627
H  H41  1  0.37000000  0.19140000  0.21600000  1.0 0.1407652648
H  H42  1  0.38840000  0.29630000  0.26300000  1.0 0.1207025408
H  H43  1  0.71310000  0.57470000  0.61770000  1.0 0.1407652648
H  H44  1  0.65510000  0.67040000  0.55650000  1.0 0.1407652648
H  H45  1  0.49400000  0.75290000  0.59560000  1.0 0.1207025408
H  H46  1  0.51220000  0.85510000  0.54530000  1.0 0.1521787627
H  H47  1  0.63000000  0.80860000  0.21600000  1.0 0.1407652648
H  H48  1  0.61160000  0.70370000  0.26300000  1.0 0.1207025408
C  C1  1  0.52690000  0.63160000  0.95000000  1.0 0.1923092736
C  C2  1  0.57730000  0.67260000  0.91830000  1.0 -0.1588654684
C  C3  1  0.62980000  0.64070000  0.95090000  1.0 -0.1705178039
C  C4  1  0.61020000  0.58010000  0.99910000  1.0 0.2027572228
C  C5  1  0.65120000  0.53490000  0.04400000  1.0 -0.0556667538
C  C6  1  0.71720000  0.55010000  0.06920000  1.0 0.1031117348
C  C7  1  0.76380000  0.52090000  0.98280000  1.0 -0.1338801847
C  C8  1  0.82470000  0.53180000  0.01290000  1.0 -0.053351782
C  C9  1  0.84220000  0.57180000  0.12970000  1.0 -0.1421445513
C  C10  1  0.79730000  0.60170000  0.20890000  1.0 -0.0676491277
C  C11  1  0.73390000  0.59100000  0.18040000  1.0 -0.1452270278
C  C12  1  0.47310000  0.36840000  0.95000000  1.0 0.1923092736
C  C13  1  0.42270000  0.32740000  0.91830000  1.0 -0.1588654684
C  C14  1  0.37020000  0.35930000  0.95090000  1.0 -0.1705178039
C  C15  1  0.38980000  0.41990000  0.99910000  1.0 0.2027572228
C  C16  1  0.34880000  0.46510000  0.04400000  1.0 -0.0556667538
C  C17  1  0.28280000  0.44990000  0.06920000  1.0 0.1031117348
C  C18  1  0.23620000  0.47910000  0.98280000  1.0 -0.1338801847
C  C19  1  0.17530000  0.46820000  0.01290000  1.0 -0.053351782
C  C20  1  0.15780000  0.42820000  0.12970000  1.0 -0.1421445513
C  C21  1  0.20270000  0.39830000  0.20890000  1.0 -0.0676491277
C  C22  1  0.26610000  0.40900000  0.18040000  1.0 -0.1452270278
C  C23  1  0.36840000  0.52690000  0.05000000  1.0 0.1923092736
C  C24  1  0.32740000  0.57730000  0.08170000  1.0 -0.1588654684
C  C25  1  0.35930000  0.62980000  0.04910000  1.0 -0.1705178039
C  C26  1  0.41990000  0.61020000  0.00090000  1.0 0.2027572228
C  C27  1  0.46510000  0.65120000  0.95600000  1.0 -0.0556667538
C  C28  1  0.44990000  0.71720000  0.93080000  1.0 0.1031117348
C  C29  1  0.47910000  0.76380000  0.01720000  1.0 -0.1338801847
C  C30  1  0.46820000  0.82470000  0.98710000  1.0 -0.053351782
C  C31  1  0.42820000  0.84220000  0.87030000  1.0 -0.1421445513
C  C32  1  0.39830000  0.79730000  0.79110000  1.0 -0.0676491277
C  C33  1  0.40900000  0.73390000  0.81960000  1.0 -0.1452270278
C  C34  1  0.63160000  0.47310000  0.05000000  1.0 0.1923092736
C  C35  1  0.67260000  0.42270000  0.08170000  1.0 -0.1588654684
C  C36  1  0.64070000  0.37020000  0.04910000  1.0 -0.1705178039
C  C37  1  0.58010000  0.38980000  0.00090000  1.0 0.2027572228
C  C38  1  0.53490000  0.34880000  0.95600000  1.0 -0.0556667538
C  C39  1  0.55010000  0.28280000  0.93080000  1.0 0.1031117348
C  C40  1  0.52090000  0.23620000  0.01720000  1.0 -0.1338801847
C  C41  1  0.53180000  0.17530000  0.98710000  1.0 -0.053351782
C  C42  1  0.57180000  0.15780000  0.87030000  1.0 -0.1421445513
C  C43  1  0.60170000  0.20270000  0.79110000  1.0 -0.0676491277
C  C44  1  0.59100000  0.26610000  0.81960000  1.0 -0.1452270278
C  C45  1  0.52690000  0.36840000  0.45000000  1.0 0.1923092736
C  C46  1  0.57730000  0.32740000  0.41830000  1.0 -0.1588654684
C  C47  1  0.62980000  0.35930000  0.45090000  1.0 -0.1705178039
C  C48  1  0.61020000  0.41990000  0.49910000  1.0 0.2027572228
C  C49  1  0.65120000  0.46510000  0.54400000  1.0 -0.0556667538
C  C50  1  0.71720000  0.44990000  0.56920000  1.0 0.1031117348
C  C51  1  0.76380000  0.47910000  0.48280000  1.0 -0.1338801847
C  C52  1  0.82470000  0.46820000  0.51290000  1.0 -0.053351782
C  C53  1  0.84220000  0.42820000  0.62970000  1.0 -0.1421445513
C  C54  1  0.79730000  0.39830000  0.70890000  1.0 -0.0676491277
C  C55  1  0.73390000  0.40900000  0.68040000  1.0 -0.1452270278
C  C56  1  0.47310000  0.63160000  0.45000000  1.0 0.1923092736
C  C57  1  0.42270000  0.67260000  0.41830000  1.0 -0.1588654684
C  C58  1  0.37020000  0.64070000  0.45090000  1.0 -0.1705178039
C  C59  1  0.38980000  0.58010000  0.49910000  1.0 0.2027572228
C  C60  1  0.34880000  0.53490000  0.54400000  1.0 -0.0556667538
C  C61  1  0.28280000  0.55010000  0.56920000  1.0 0.1031117348
C  C62  1  0.23620000  0.52090000  0.48280000  1.0 -0.1338801847
C  C63  1  0.17530000  0.53180000  0.51290000  1.0 -0.053351782
C  C64  1  0.15780000  0.57180000  0.62970000  1.0 -0.1421445513
C  C65  1  0.20270000  0.60170000  0.70890000  1.0 -0.0676491277
C  C66  1  0.26610000  0.59100000  0.68040000  1.0 -0.1452270278
C  C67  1  0.36840000  0.47310000  0.55000000  1.0 0.1923092736
C  C68  1  0.32740000  0.42270000  0.58170000  1.0 -0.1588654684
C  C69  1  0.35930000  0.37020000  0.54910000  1.0 -0.1705178039
C  C70  1  0.41990000  0.38980000  0.50090000  1.0 0.2027572228
C  C71  1  0.46510000  0.34880000  0.45600000  1.0 -0.0556667538
C  C72  1  0.44990000  0.28280000  0.43080000  1.0 0.1031117348
C  C73  1  0.47910000  0.23620000  0.51720000  1.0 -0.1338801847
C  C74  1  0.46820000  0.17530000  0.48710000  1.0 -0.053351782
C  C75  1  0.42820000  0.15780000  0.37030000  1.0 -0.1421445513
C  C76  1  0.39830000  0.20270000  0.29110000  1.0 -0.0676491277
C  C77  1  0.40900000  0.26610000  0.31960000  1.0 -0.1452270278
C  C78  1  0.63160000  0.52690000  0.55000000  1.0 0.1923092736
C  C79  1  0.67260000  0.57730000  0.58170000  1.0 -0.1588654684
C  C80  1  0.64070000  0.62980000  0.54910000  1.0 -0.1705178039
C  C81  1  0.58010000  0.61020000  0.50090000  1.0 0.2027572228
C  C82  1  0.53490000  0.65120000  0.45600000  1.0 -0.0556667538
C  C83  1  0.55010000  0.71720000  0.43080000  1.0 0.1031117348
C  C84  1  0.52090000  0.76380000  0.51720000  1.0 -0.1338801847
C  C85  1  0.53180000  0.82470000  0.48710000  1.0 -0.053351782
C  C86  1  0.57180000  0.84220000  0.37030000  1.0 -0.1421445513
C  C87  1  0.60170000  0.79730000  0.29110000  1.0 -0.0676491277
C  C88  1  0.59100000  0.73390000  0.31960000  1.0 -0.1452270278
N  N1  1  0.54840000  0.57440000  0.98960000  1.0 -0.2983313554
N  N2  1  0.45160000  0.42560000  0.98960000  1.0 -0.2983313554
N  N3  1  0.42560000  0.54840000  0.01040000  1.0 -0.2983313554
N  N4  1  0.57440000  0.45160000  0.01040000  1.0 -0.2983313554
N  N5  1  0.54840000  0.42560000  0.48960000  1.0 -0.2983313554
N  N6  1  0.45160000  0.57440000  0.48960000  1.0 -0.2983313554
N  N7  1  0.42560000  0.45160000  0.51040000  1.0 -0.2983313554
N  N8  1  0.57440000  0.54840000  0.51040000  1.0 -0.2983313554
O  O1  1  0.96100000  0.56690000  0.03700000  1.0 -0.7488579542
O  O2  1  0.93400000  0.53410000  0.30930000  1.0 -0.777473809
O  O3  1  0.93330000  0.64640000  0.23000000  1.0 -0.5932857783
O  O4  1  0.03900000  0.43310000  0.03700000  1.0 -0.7488579542
O  O5  1  0.06600000  0.46590000  0.30930000  1.0 -0.777473809
O  O6  1  0.06670000  0.35360000  0.23000000  1.0 -0.5932857783
O  O7  1  0.43310000  0.96100000  0.96300000  1.0 -0.7488579542
O  O8  1  0.46590000  0.93400000  0.69070000  1.0 -0.777473809
O  O9  1  0.35360000  0.93330000  0.77000000  1.0 -0.5932857783
O  O10  1  0.56690000  0.03900000  0.96300000  1.0 -0.7488579542
O  O11  1  0.53410000  0.06600000  0.69070000  1.0 -0.777473809
O  O12  1  0.64640000  0.06670000  0.77000000  1.0 -0.5932857783
O  O13  1  0.96100000  0.43310000  0.53700000  1.0 -0.7488579542
O  O14  1  0.93400000  0.46590000  0.80930000  1.0 -0.777473809
O  O15  1  0.93330000  0.35360000  0.73000000  1.0 -0.5932857783
O  O16  1  0.03900000  0.56690000  0.53700000  1.0 -0.7488579542
O  O17  1  0.06600000  0.53410000  0.80930000  1.0 -0.777473809
O  O18  1  0.06670000  0.64640000  0.73000000  1.0 -0.5932857783
O  O19  1  0.43310000  0.03900000  0.46300000  1.0 -0.7488579542
O  O20  1  0.46590000  0.06600000  0.19070000  1.0 -0.777473809
O  O21  1  0.35360000  0.06670000  0.27000000  1.0 -0.5932857783
O  O22  1  0.56690000  0.96100000  0.46300000  1.0 -0.7488579542
O  O23  1  0.53410000  0.93400000  0.19070000  1.0 -0.777473809
O  O24  1  0.64640000  0.93330000  0.27000000  1.0 -0.5932857783
