# DDEC6 charges by PACMAN v1.1 (https://github.com/mtap-research/PACMAN-charge/)
data_HIQDUJ10_ASR_pacman
_symmetry_space_group_name_H-M   'P 1'
_cell_length_a   21.98000000
_cell_length_b   21.98000000
_cell_length_c   8.96000000
_cell_angle_alpha   90.00000000
_cell_angle_beta   90.00000000
_cell_angle_gamma   90.00000000
_symmetry_Int_Tables_number   1
_chemical_formula_structural   Co2NiP4H28C44(NO3)4
_chemical_formula_sum   'Co4 Ni2 P8 H56 C88 N8 O24'
_cell_volume   4328.75878400
_cell_formula_units_Z   2
loop_
 _symmetry_equiv_pos_site_id
 _symmetry_equiv_pos_as_xyz
  1  'x, y, z'
loop_
 _atom_site_type_symbol
 _atom_site_label
 _atom_site_symmetry_multiplicity
 _atom_site_fract_x
 _atom_site_fract_y
 _atom_site_fract_z
 _atom_site_occupancy
 _atom_site_charge
Co  Co1  1  0.00000000  0.50000000  0.92620000  1.0 1.1706038936
Co  Co2  1  0.50000000  0.00000000  0.07380000  1.0 1.1706038936
Co  Co3  1  0.00000000  0.50000000  0.42620000  1.0 1.1706038936
Co  Co4  1  0.50000000  0.00000000  0.57380000  1.0 1.1706038936
Ni  Ni1  1  0.50000000  0.50000000  0.00000000  1.0 0.3748589381
Ni  Ni2  1  0.50000000  0.50000000  0.50000000  1.0 0.3748589381
P  P1  1  0.92290000  0.58060000  0.17930000  1.0 1.2735501303
P  P2  1  0.07710000  0.41940000  0.17930000  1.0 1.2735501303
P  P3  1  0.41940000  0.92290000  0.82070000  1.0 1.2735501303
P  P4  1  0.58060000  0.07710000  0.82070000  1.0 1.2735501303
P  P5  1  0.92290000  0.41940000  0.67930000  1.0 1.2735501303
P  P6  1  0.07710000  0.58060000  0.67930000  1.0 1.2735501303
P  P7  1  0.41940000  0.07710000  0.32070000  1.0 1.2735501303
P  P8  1  0.58060000  0.92290000  0.32070000  1.0 1.2735501303
H  H1  1  0.96610000  0.65930000  0.19230000  1.0 0.3983861356
H  H2  1  0.57470000  0.71330000  0.88360000  1.0 0.128147982
H  H3  1  0.67030000  0.65500000  0.94380000  1.0 0.128147982
H  H4  1  0.75300000  0.49330000  0.90570000  1.0 0.1099436432
H  H5  1  0.85520000  0.51240000  0.95360000  1.0 0.136126615
H  H6  1  0.80850000  0.63020000  0.28380000  1.0 0.1171852126
H  H7  1  0.70370000  0.61170000  0.23680000  1.0 0.1099436432
H  H8  1  0.03390000  0.34070000  0.19230000  1.0 0.3983861356
H  H9  1  0.42530000  0.28670000  0.88360000  1.0 0.128147982
H  H10  1  0.32970000  0.34500000  0.94380000  1.0 0.128147982
H  H11  1  0.24700000  0.50670000  0.90570000  1.0 0.1099436432
H  H12  1  0.14480000  0.48760000  0.95360000  1.0 0.136126615
H  H13  1  0.19150000  0.36980000  0.28380000  1.0 0.1171852126
H  H14  1  0.29630000  0.38830000  0.23680000  1.0 0.1099436432
H  H15  1  0.34070000  0.96610000  0.80770000  1.0 0.3983861356
H  H16  1  0.28670000  0.57470000  0.11640000  1.0 0.128147982
H  H17  1  0.34500000  0.67030000  0.05620000  1.0 0.128147982
H  H18  1  0.50670000  0.75300000  0.09430000  1.0 0.1099436432
H  H19  1  0.48760000  0.85520000  0.04640000  1.0 0.136126615
H  H20  1  0.36980000  0.80850000  0.71620000  1.0 0.1171852126
H  H21  1  0.38830000  0.70370000  0.76320000  1.0 0.1099436432
H  H22  1  0.65930000  0.03390000  0.80770000  1.0 0.3983861356
H  H23  1  0.71330000  0.42530000  0.11640000  1.0 0.128147982
H  H24  1  0.65500000  0.32970000  0.05620000  1.0 0.128147982
H  H25  1  0.49330000  0.24700000  0.09430000  1.0 0.1099436432
H  H26  1  0.51240000  0.14480000  0.04640000  1.0 0.136126615
H  H27  1  0.63020000  0.19150000  0.71620000  1.0 0.1171852126
H  H28  1  0.61170000  0.29630000  0.76320000  1.0 0.1099436432
H  H29  1  0.96610000  0.34070000  0.69230000  1.0 0.3983861356
H  H30  1  0.57470000  0.28670000  0.38360000  1.0 0.128147982
H  H31  1  0.67030000  0.34500000  0.44380000  1.0 0.128147982
H  H32  1  0.75300000  0.50670000  0.40570000  1.0 0.1099436432
H  H33  1  0.85520000  0.48760000  0.45360000  1.0 0.136126615
H  H34  1  0.80850000  0.36980000  0.78380000  1.0 0.1171852126
H  H35  1  0.70370000  0.38830000  0.73680000  1.0 0.1099436432
H  H36  1  0.03390000  0.65930000  0.69230000  1.0 0.3983861356
H  H37  1  0.42530000  0.71330000  0.38360000  1.0 0.128147982
H  H38  1  0.32970000  0.65500000  0.44380000  1.0 0.128147982
H  H39  1  0.24700000  0.49330000  0.40570000  1.0 0.1099436432
H  H40  1  0.14480000  0.51240000  0.45360000  1.0 0.136126615
H  H41  1  0.19150000  0.63020000  0.78380000  1.0 0.1171852126
H  H42  1  0.29630000  0.61170000  0.73680000  1.0 0.1099436432
H  H43  1  0.34070000  0.03390000  0.30770000  1.0 0.3983861356
H  H44  1  0.28670000  0.42530000  0.61640000  1.0 0.128147982
H  H45  1  0.34500000  0.32970000  0.55620000  1.0 0.128147982
H  H46  1  0.50670000  0.24700000  0.59430000  1.0 0.1099436432
H  H47  1  0.48760000  0.14480000  0.54640000  1.0 0.136126615
H  H48  1  0.36980000  0.19150000  0.21620000  1.0 0.1171852126
H  H49  1  0.38830000  0.29630000  0.26320000  1.0 0.1099436432
H  H50  1  0.65930000  0.96610000  0.30770000  1.0 0.3983861356
H  H51  1  0.71330000  0.57470000  0.61640000  1.0 0.128147982
H  H52  1  0.65500000  0.67030000  0.55620000  1.0 0.128147982
H  H53  1  0.49330000  0.75300000  0.59430000  1.0 0.1099436432
H  H54  1  0.51240000  0.85520000  0.54640000  1.0 0.136126615
H  H55  1  0.63020000  0.80850000  0.21620000  1.0 0.1171852126
H  H56  1  0.61170000  0.70370000  0.26320000  1.0 0.1099436432
C  C1  1  0.52700000  0.63180000  0.94930000  1.0 0.1773318573
C  C2  1  0.57730000  0.67270000  0.91880000  1.0 -0.178076041
C  C3  1  0.62970000  0.64060000  0.95120000  1.0 -0.1904326455
C  C4  1  0.61010000  0.58010000  0.99910000  1.0 0.1924789975
C  C5  1  0.65120000  0.53500000  0.04370000  1.0 -0.0687226654
C  C6  1  0.71720000  0.55050000  0.06890000  1.0 0.0970545932
C  C7  1  0.76400000  0.52070000  0.98300000  1.0 -0.1508063451
C  C8  1  0.82490000  0.53170000  0.01220000  1.0 -0.0687226654
C  C9  1  0.84230000  0.57180000  0.12940000  1.0 -0.178076041
C  C10  1  0.79720000  0.60180000  0.20870000  1.0 -0.0868206174
C  C11  1  0.73390000  0.59110000  0.18020000  1.0 -0.1602756456
C  C12  1  0.47300000  0.36820000  0.94930000  1.0 0.1773318573
C  C13  1  0.42270000  0.32730000  0.91880000  1.0 -0.178076041
C  C14  1  0.37030000  0.35940000  0.95120000  1.0 -0.1904326455
C  C15  1  0.38990000  0.41990000  0.99910000  1.0 0.1924789975
C  C16  1  0.34880000  0.46500000  0.04370000  1.0 -0.0687226654
C  C17  1  0.28280000  0.44950000  0.06890000  1.0 0.0970545932
C  C18  1  0.23600000  0.47930000  0.98300000  1.0 -0.1508063451
C  C19  1  0.17510000  0.46830000  0.01220000  1.0 -0.0687226654
C  C20  1  0.15770000  0.42820000  0.12940000  1.0 -0.178076041
C  C21  1  0.20280000  0.39820000  0.20870000  1.0 -0.0868206174
C  C22  1  0.26610000  0.40890000  0.18020000  1.0 -0.1602756456
C  C23  1  0.36820000  0.52700000  0.05070000  1.0 0.1773318573
C  C24  1  0.32730000  0.57730000  0.08120000  1.0 -0.178076041
C  C25  1  0.35940000  0.62970000  0.04880000  1.0 -0.1904326455
C  C26  1  0.41990000  0.61010000  0.00090000  1.0 0.1924789975
C  C27  1  0.46500000  0.65120000  0.95630000  1.0 -0.0687226654
C  C28  1  0.44950000  0.71720000  0.93110000  1.0 0.0970545932
C  C29  1  0.47930000  0.76400000  0.01700000  1.0 -0.1508063451
C  C30  1  0.46830000  0.82490000  0.98780000  1.0 -0.0687226654
C  C31  1  0.42820000  0.84230000  0.87060000  1.0 -0.178076041
C  C32  1  0.39820000  0.79720000  0.79130000  1.0 -0.0868206174
C  C33  1  0.40890000  0.73390000  0.81980000  1.0 -0.1602756456
C  C34  1  0.63180000  0.47300000  0.05070000  1.0 0.1773318573
C  C35  1  0.67270000  0.42270000  0.08120000  1.0 -0.178076041
C  C36  1  0.64060000  0.37030000  0.04880000  1.0 -0.1904326455
C  C37  1  0.58010000  0.38990000  0.00090000  1.0 0.1924789975
C  C38  1  0.53500000  0.34880000  0.95630000  1.0 -0.0687226654
C  C39  1  0.55050000  0.28280000  0.93110000  1.0 0.0970545932
C  C40  1  0.52070000  0.23600000  0.01700000  1.0 -0.1508063451
C  C41  1  0.53170000  0.17510000  0.98780000  1.0 -0.0687226654
C  C42  1  0.57180000  0.15770000  0.87060000  1.0 -0.178076041
C  C43  1  0.60180000  0.20280000  0.79130000  1.0 -0.0868206174
C  C44  1  0.59110000  0.26610000  0.81980000  1.0 -0.1602756456
C  C45  1  0.52700000  0.36820000  0.44930000  1.0 0.1773318573
C  C46  1  0.57730000  0.32730000  0.41880000  1.0 -0.178076041
C  C47  1  0.62970000  0.35940000  0.45120000  1.0 -0.1904326455
C  C48  1  0.61010000  0.41990000  0.49910000  1.0 0.1924789975
C  C49  1  0.65120000  0.46500000  0.54370000  1.0 -0.0687226654
C  C50  1  0.71720000  0.44950000  0.56890000  1.0 0.0970545932
C  C51  1  0.76400000  0.47930000  0.48300000  1.0 -0.1508063451
C  C52  1  0.82490000  0.46830000  0.51220000  1.0 -0.0687226654
C  C53  1  0.84230000  0.42820000  0.62940000  1.0 -0.178076041
C  C54  1  0.79720000  0.39820000  0.70870000  1.0 -0.0868206174
C  C55  1  0.73390000  0.40890000  0.68020000  1.0 -0.1602756456
C  C56  1  0.47300000  0.63180000  0.44930000  1.0 0.1773318573
C  C57  1  0.42270000  0.67270000  0.41880000  1.0 -0.178076041
C  C58  1  0.37030000  0.64060000  0.45120000  1.0 -0.1904326455
C  C59  1  0.38990000  0.58010000  0.49910000  1.0 0.1924789975
C  C60  1  0.34880000  0.53500000  0.54370000  1.0 -0.0687226654
C  C61  1  0.28280000  0.55050000  0.56890000  1.0 0.0970545932
C  C62  1  0.23600000  0.52070000  0.48300000  1.0 -0.1508063451
C  C63  1  0.17510000  0.53170000  0.51220000  1.0 -0.0687226654
C  C64  1  0.15770000  0.57180000  0.62940000  1.0 -0.178076041
C  C65  1  0.20280000  0.60180000  0.70870000  1.0 -0.0868206174
C  C66  1  0.26610000  0.59110000  0.68020000  1.0 -0.1602756456
C  C67  1  0.36820000  0.47300000  0.55070000  1.0 0.1773318573
C  C68  1  0.32730000  0.42270000  0.58120000  1.0 -0.178076041
C  C69  1  0.35940000  0.37030000  0.54880000  1.0 -0.1904326455
C  C70  1  0.41990000  0.38990000  0.50090000  1.0 0.1924789975
C  C71  1  0.46500000  0.34880000  0.45630000  1.0 -0.0687226654
C  C72  1  0.44950000  0.28280000  0.43110000  1.0 0.0970545932
C  C73  1  0.47930000  0.23600000  0.51700000  1.0 -0.1508063451
C  C74  1  0.46830000  0.17510000  0.48780000  1.0 -0.0687226654
C  C75  1  0.42820000  0.15770000  0.37060000  1.0 -0.178076041
C  C76  1  0.39820000  0.20280000  0.29130000  1.0 -0.0868206174
C  C77  1  0.40890000  0.26610000  0.31980000  1.0 -0.1602756456
C  C78  1  0.63180000  0.52700000  0.55070000  1.0 0.1773318573
C  C79  1  0.67270000  0.57730000  0.58120000  1.0 -0.178076041
C  C80  1  0.64060000  0.62970000  0.54880000  1.0 -0.1904326455
C  C81  1  0.58010000  0.61010000  0.50090000  1.0 0.1924789975
C  C82  1  0.53500000  0.65120000  0.45630000  1.0 -0.0687226654
C  C83  1  0.55050000  0.71720000  0.43110000  1.0 0.0970545932
C  C84  1  0.52070000  0.76400000  0.51700000  1.0 -0.1508063451
C  C85  1  0.53170000  0.82490000  0.48780000  1.0 -0.0687226654
C  C86  1  0.57180000  0.84230000  0.37060000  1.0 -0.178076041
C  C87  1  0.60180000  0.79720000  0.29130000  1.0 -0.0868206174
C  C88  1  0.59110000  0.73390000  0.31980000  1.0 -0.1602756456
N  N1  1  0.54840000  0.57440000  0.98920000  1.0 -0.3095944338
N  N2  1  0.45160000  0.42560000  0.98920000  1.0 -0.3095944338
N  N3  1  0.42560000  0.54840000  0.01080000  1.0 -0.3095944338
N  N4  1  0.57440000  0.45160000  0.01080000  1.0 -0.3095944338
N  N5  1  0.54840000  0.42560000  0.48920000  1.0 -0.3095944338
N  N6  1  0.45160000  0.57440000  0.48920000  1.0 -0.3095944338
N  N7  1  0.42560000  0.45160000  0.51080000  1.0 -0.3095944338
N  N8  1  0.57440000  0.54840000  0.51080000  1.0 -0.3095944338
O  O1  1  0.96110000  0.56690000  0.03760000  1.0 -0.7997473107
O  O2  1  0.93410000  0.53420000  0.30880000  1.0 -0.79268118
O  O3  1  0.93340000  0.64640000  0.22900000  1.0 -0.5633578823
O  O4  1  0.03890000  0.43310000  0.03760000  1.0 -0.7997473107
O  O5  1  0.06590000  0.46580000  0.30880000  1.0 -0.79268118
O  O6  1  0.06660000  0.35360000  0.22900000  1.0 -0.5633578823
O  O7  1  0.43310000  0.96110000  0.96240000  1.0 -0.7997473107
O  O8  1  0.46580000  0.93410000  0.69120000  1.0 -0.79268118
O  O9  1  0.35360000  0.93340000  0.77100000  1.0 -0.5633578823
O  O10  1  0.56690000  0.03890000  0.96240000  1.0 -0.7997473107
O  O11  1  0.53420000  0.06590000  0.69120000  1.0 -0.79268118
O  O12  1  0.64640000  0.06660000  0.77100000  1.0 -0.5633578823
O  O13  1  0.96110000  0.43310000  0.53760000  1.0 -0.7997473107
O  O14  1  0.93410000  0.46580000  0.80880000  1.0 -0.79268118
O  O15  1  0.93340000  0.35360000  0.72900000  1.0 -0.5633578823
O  O16  1  0.03890000  0.56690000  0.53760000  1.0 -0.7997473107
O  O17  1  0.06590000  0.53420000  0.80880000  1.0 -0.79268118
O  O18  1  0.06660000  0.64640000  0.72900000  1.0 -0.5633578823
O  O19  1  0.43310000  0.03890000  0.46240000  1.0 -0.7997473107
O  O20  1  0.46580000  0.06590000  0.19120000  1.0 -0.79268118
O  O21  1  0.35360000  0.06660000  0.27100000  1.0 -0.5633578823
O  O22  1  0.56690000  0.96110000  0.46240000  1.0 -0.7997473107
O  O23  1  0.53420000  0.93410000  0.19120000  1.0 -0.79268118
O  O24  1  0.64640000  0.93340000  0.27100000  1.0 -0.5633578823
