# DDEC6 charges by PACMAN v1.1 (https://github.com/mtap-research/PACMAN-charge/)
data_HIQDUJ04_FSR_pacman
_symmetry_space_group_name_H-M   'P 1'
_cell_length_a   21.98000000
_cell_length_b   21.98000000
_cell_length_c   8.96000000
_cell_angle_alpha   90.00000000
_cell_angle_beta   90.00000000
_cell_angle_gamma   90.00000000
_symmetry_Int_Tables_number   1
_chemical_formula_structural   Co2NiP4H24C44(NO3)4
_chemical_formula_sum   'Co4 Ni2 P8 H48 C88 N8 O24'
_cell_volume   4328.75878400
_cell_formula_units_Z   2
loop_
 _symmetry_equiv_pos_site_id
 _symmetry_equiv_pos_as_xyz
  1  'x, y, z'
loop_
 _atom_site_type_symbol
 _atom_site_label
 _atom_site_symmetry_multiplicity
 _atom_site_fract_x
 _atom_site_fract_y
 _atom_site_fract_z
 _atom_site_occupancy
 _atom_site_charge
Co  Co1  1  0.00000000  0.50000000  0.92840000  1.0 1.2423746604
Co  Co2  1  0.50000000  0.00000000  0.07160000  1.0 1.2423746604
Co  Co3  1  0.00000000  0.50000000  0.42840000  1.0 1.2423746604
Co  Co4  1  0.50000000  0.00000000  0.57160000  1.0 1.2423746604
Ni  Ni1  1  0.50000000  0.50000000  0.00000000  1.0 0.4229827988
Ni  Ni2  1  0.50000000  0.50000000  0.50000000  1.0 0.4229827988
P  P1  1  0.92310000  0.57950000  0.18300000  1.0 1.3328647929
P  P2  1  0.07690000  0.42050000  0.18300000  1.0 1.3328647929
P  P3  1  0.42050000  0.92310000  0.81700000  1.0 1.3328647929
P  P4  1  0.57950000  0.07690000  0.81700000  1.0 1.3328647929
P  P5  1  0.92310000  0.42050000  0.68300000  1.0 1.3328647929
P  P6  1  0.07690000  0.57950000  0.68300000  1.0 1.3328647929
P  P7  1  0.42050000  0.07690000  0.31700000  1.0 1.3328647929
P  P8  1  0.57950000  0.92310000  0.31700000  1.0 1.3328647929
H  H1  1  0.57430000  0.71150000  0.87540000  1.0 0.1397803518
H  H2  1  0.66690000  0.65640000  0.94660000  1.0 0.1397803518
H  H3  1  0.75290000  0.49460000  0.90720000  1.0 0.1209577266
H  H4  1  0.85550000  0.51470000  0.96140000  1.0 0.1478980574
H  H5  1  0.80750000  0.63170000  0.27240000  1.0 0.1478980574
H  H6  1  0.70600000  0.61580000  0.23160000  1.0 0.1269691679
H  H7  1  0.42570000  0.28850000  0.87540000  1.0 0.1397803518
H  H8  1  0.33310000  0.34360000  0.94660000  1.0 0.1397803518
H  H9  1  0.24710000  0.50540000  0.90720000  1.0 0.1209577266
H  H10  1  0.14450000  0.48530000  0.96140000  1.0 0.1478980574
H  H11  1  0.19250000  0.36830000  0.27240000  1.0 0.1478980574
H  H12  1  0.29400000  0.38420000  0.23160000  1.0 0.1269691679
H  H13  1  0.28850000  0.57430000  0.12460000  1.0 0.1397803518
H  H14  1  0.34360000  0.66690000  0.05340000  1.0 0.1397803518
H  H15  1  0.50540000  0.75290000  0.09280000  1.0 0.1209577266
H  H16  1  0.48530000  0.85550000  0.03860000  1.0 0.1478980574
H  H17  1  0.36830000  0.80750000  0.72760000  1.0 0.1478980574
H  H18  1  0.38420000  0.70600000  0.76840000  1.0 0.1269691679
H  H19  1  0.71150000  0.42570000  0.12460000  1.0 0.1397803518
H  H20  1  0.65640000  0.33310000  0.05340000  1.0 0.1397803518
H  H21  1  0.49460000  0.24710000  0.09280000  1.0 0.1209577266
H  H22  1  0.51470000  0.14450000  0.03860000  1.0 0.1478980574
H  H23  1  0.63170000  0.19250000  0.72760000  1.0 0.1478980574
H  H24  1  0.61580000  0.29400000  0.76840000  1.0 0.1269691679
H  H25  1  0.57430000  0.28850000  0.37540000  1.0 0.1397803518
H  H26  1  0.66690000  0.34360000  0.44660000  1.0 0.1397803518
H  H27  1  0.75290000  0.50540000  0.40720000  1.0 0.1209577266
H  H28  1  0.85550000  0.48530000  0.46140000  1.0 0.1478980574
H  H29  1  0.80750000  0.36830000  0.77240000  1.0 0.1478980574
H  H30  1  0.70600000  0.38420000  0.73160000  1.0 0.1269691679
H  H31  1  0.42570000  0.71150000  0.37540000  1.0 0.1397803518
H  H32  1  0.33310000  0.65640000  0.44660000  1.0 0.1397803518
H  H33  1  0.24710000  0.49460000  0.40720000  1.0 0.1209577266
H  H34  1  0.14450000  0.51470000  0.46140000  1.0 0.1478980574
H  H35  1  0.19250000  0.63170000  0.77240000  1.0 0.1478980574
H  H36  1  0.29400000  0.61580000  0.73160000  1.0 0.1269691679
H  H37  1  0.28850000  0.42570000  0.62460000  1.0 0.1397803518
H  H38  1  0.34360000  0.33310000  0.55340000  1.0 0.1397803518
H  H39  1  0.50540000  0.24710000  0.59280000  1.0 0.1209577266
H  H40  1  0.48530000  0.14450000  0.53860000  1.0 0.1478980574
H  H41  1  0.36830000  0.19250000  0.22760000  1.0 0.1478980574
H  H42  1  0.38420000  0.29400000  0.26840000  1.0 0.1269691679
H  H43  1  0.71150000  0.57430000  0.62460000  1.0 0.1397803518
H  H44  1  0.65640000  0.66690000  0.55340000  1.0 0.1397803518
H  H45  1  0.49460000  0.75290000  0.59280000  1.0 0.1209577266
H  H46  1  0.51470000  0.85550000  0.53860000  1.0 0.1478980574
H  H47  1  0.63170000  0.80750000  0.22760000  1.0 0.1478980574
H  H48  1  0.61580000  0.70600000  0.26840000  1.0 0.1269691679
C  C1  1  0.52640000  0.63280000  0.95000000  1.0 0.1698366869
C  C2  1  0.57640000  0.67160000  0.91600000  1.0 -0.1620985699
C  C3  1  0.62650000  0.64100000  0.95100000  1.0 -0.1819038522
C  C4  1  0.60950000  0.58050000  0.99800000  1.0 0.2148154433
C  C5  1  0.65090000  0.53380000  0.04400000  1.0 -0.0446493533
C  C6  1  0.71620000  0.55020000  0.06800000  1.0 0.099282043
C  C7  1  0.76300000  0.52210000  0.98500000  1.0 -0.1286464027
C  C8  1  0.82440000  0.53450000  0.01700000  1.0 -0.0663077003
C  C9  1  0.83970000  0.57520000  0.12800000  1.0 -0.1286464027
C  C10  1  0.79620000  0.60270000  0.19900000  1.0 -0.0663077003
C  C11  1  0.73520000  0.59350000  0.17600000  1.0 -0.1398710143
C  C12  1  0.47360000  0.36720000  0.95000000  1.0 0.1698366869
C  C13  1  0.42360000  0.32840000  0.91600000  1.0 -0.1620985699
C  C14  1  0.37350000  0.35900000  0.95100000  1.0 -0.1819038522
C  C15  1  0.39050000  0.41950000  0.99800000  1.0 0.2148154433
C  C16  1  0.34910000  0.46620000  0.04400000  1.0 -0.0446493533
C  C17  1  0.28380000  0.44980000  0.06800000  1.0 0.099282043
C  C18  1  0.23700000  0.47790000  0.98500000  1.0 -0.1286464027
C  C19  1  0.17560000  0.46550000  0.01700000  1.0 -0.0663077003
C  C20  1  0.16030000  0.42480000  0.12800000  1.0 -0.1286464027
C  C21  1  0.20380000  0.39730000  0.19900000  1.0 -0.0663077003
C  C22  1  0.26480000  0.40650000  0.17600000  1.0 -0.1398710143
C  C23  1  0.36720000  0.52640000  0.05000000  1.0 0.1698366869
C  C24  1  0.32840000  0.57640000  0.08400000  1.0 -0.1620985699
C  C25  1  0.35900000  0.62650000  0.04900000  1.0 -0.1819038522
C  C26  1  0.41950000  0.60950000  0.00200000  1.0 0.2148154433
C  C27  1  0.46620000  0.65090000  0.95600000  1.0 -0.0446493533
C  C28  1  0.44980000  0.71620000  0.93200000  1.0 0.099282043
C  C29  1  0.47790000  0.76300000  0.01500000  1.0 -0.1286464027
C  C30  1  0.46550000  0.82440000  0.98300000  1.0 -0.0663077003
C  C31  1  0.42480000  0.83970000  0.87200000  1.0 -0.1286464027
C  C32  1  0.39730000  0.79620000  0.80100000  1.0 -0.0663077003
C  C33  1  0.40650000  0.73520000  0.82400000  1.0 -0.1398710143
C  C34  1  0.63280000  0.47360000  0.05000000  1.0 0.1698366869
C  C35  1  0.67160000  0.42360000  0.08400000  1.0 -0.1620985699
C  C36  1  0.64100000  0.37350000  0.04900000  1.0 -0.1819038522
C  C37  1  0.58050000  0.39050000  0.00200000  1.0 0.2148154433
C  C38  1  0.53380000  0.34910000  0.95600000  1.0 -0.0446493533
C  C39  1  0.55020000  0.28380000  0.93200000  1.0 0.099282043
C  C40  1  0.52210000  0.23700000  0.01500000  1.0 -0.1286464027
C  C41  1  0.53450000  0.17560000  0.98300000  1.0 -0.0663077003
C  C42  1  0.57520000  0.16030000  0.87200000  1.0 -0.1286464027
C  C43  1  0.60270000  0.20380000  0.80100000  1.0 -0.0663077003
C  C44  1  0.59350000  0.26480000  0.82400000  1.0 -0.1398710143
C  C45  1  0.52640000  0.36720000  0.45000000  1.0 0.1698366869
C  C46  1  0.57640000  0.32840000  0.41600000  1.0 -0.1620985699
C  C47  1  0.62650000  0.35900000  0.45100000  1.0 -0.1819038522
C  C48  1  0.60950000  0.41950000  0.49800000  1.0 0.2148154433
C  C49  1  0.65090000  0.46620000  0.54400000  1.0 -0.0446493533
C  C50  1  0.71620000  0.44980000  0.56800000  1.0 0.099282043
C  C51  1  0.76300000  0.47790000  0.48500000  1.0 -0.1286464027
C  C52  1  0.82440000  0.46550000  0.51700000  1.0 -0.0663077003
C  C53  1  0.83970000  0.42480000  0.62800000  1.0 -0.1286464027
C  C54  1  0.79620000  0.39730000  0.69900000  1.0 -0.0663077003
C  C55  1  0.73520000  0.40650000  0.67600000  1.0 -0.1398710143
C  C56  1  0.47360000  0.63280000  0.45000000  1.0 0.1698366869
C  C57  1  0.42360000  0.67160000  0.41600000  1.0 -0.1620985699
C  C58  1  0.37350000  0.64100000  0.45100000  1.0 -0.1819038522
C  C59  1  0.39050000  0.58050000  0.49800000  1.0 0.2148154433
C  C60  1  0.34910000  0.53380000  0.54400000  1.0 -0.0446493533
C  C61  1  0.28380000  0.55020000  0.56800000  1.0 0.099282043
C  C62  1  0.23700000  0.52210000  0.48500000  1.0 -0.1286464027
C  C63  1  0.17560000  0.53450000  0.51700000  1.0 -0.0663077003
C  C64  1  0.16030000  0.57520000  0.62800000  1.0 -0.1286464027
C  C65  1  0.20380000  0.60270000  0.69900000  1.0 -0.0663077003
C  C66  1  0.26480000  0.59350000  0.67600000  1.0 -0.1398710143
C  C67  1  0.36720000  0.47360000  0.55000000  1.0 0.1698366869
C  C68  1  0.32840000  0.42360000  0.58400000  1.0 -0.1620985699
C  C69  1  0.35900000  0.37350000  0.54900000  1.0 -0.1819038522
C  C70  1  0.41950000  0.39050000  0.50200000  1.0 0.2148154433
C  C71  1  0.46620000  0.34910000  0.45600000  1.0 -0.0446493533
C  C72  1  0.44980000  0.28380000  0.43200000  1.0 0.099282043
C  C73  1  0.47790000  0.23700000  0.51500000  1.0 -0.1286464027
C  C74  1  0.46550000  0.17560000  0.48300000  1.0 -0.0663077003
C  C75  1  0.42480000  0.16030000  0.37200000  1.0 -0.1286464027
C  C76  1  0.39730000  0.20380000  0.30100000  1.0 -0.0663077003
C  C77  1  0.40650000  0.26480000  0.32400000  1.0 -0.1398710143
C  C78  1  0.63280000  0.52640000  0.55000000  1.0 0.1698366869
C  C79  1  0.67160000  0.57640000  0.58400000  1.0 -0.1620985699
C  C80  1  0.64100000  0.62650000  0.54900000  1.0 -0.1819038522
C  C81  1  0.58050000  0.60950000  0.50200000  1.0 0.2148154433
C  C82  1  0.53380000  0.65090000  0.45600000  1.0 -0.0446493533
C  C83  1  0.55020000  0.71620000  0.43200000  1.0 0.099282043
C  C84  1  0.52210000  0.76300000  0.51500000  1.0 -0.1286464027
C  C85  1  0.53450000  0.82440000  0.48300000  1.0 -0.0663077003
C  C86  1  0.57520000  0.83970000  0.37200000  1.0 -0.1286464027
C  C87  1  0.60270000  0.79620000  0.30100000  1.0 -0.0663077003
C  C88  1  0.59350000  0.73520000  0.32400000  1.0 -0.1398710143
N  N1  1  0.54940000  0.57540000  0.98670000  1.0 -0.3111418543
N  N2  1  0.45060000  0.42460000  0.98670000  1.0 -0.3111418543
N  N3  1  0.42460000  0.54940000  0.01330000  1.0 -0.3111418543
N  N4  1  0.57540000  0.45060000  0.01330000  1.0 -0.3111418543
N  N5  1  0.54940000  0.42460000  0.48670000  1.0 -0.3111418543
N  N6  1  0.45060000  0.57540000  0.48670000  1.0 -0.3111418543
N  N7  1  0.42460000  0.45060000  0.51330000  1.0 -0.3111418543
N  N8  1  0.57540000  0.54940000  0.51330000  1.0 -0.3111418543
O  O1  1  0.96100000  0.56680000  0.03300000  1.0 -0.769842228
O  O2  1  0.93470000  0.53150000  0.30800000  1.0 -0.7848483306
O  O3  1  0.93350000  0.64310000  0.23800000  1.0 -0.5826234352
O  O4  1  0.03900000  0.43320000  0.03300000  1.0 -0.769842228
O  O5  1  0.06530000  0.46850000  0.30800000  1.0 -0.7848483306
O  O6  1  0.06650000  0.35690000  0.23800000  1.0 -0.5826234352
O  O7  1  0.43320000  0.96100000  0.96700000  1.0 -0.769842228
O  O8  1  0.46850000  0.93470000  0.69200000  1.0 -0.7853637916
O  O9  1  0.35690000  0.93350000  0.76200000  1.0 -0.5826234352
O  O10  1  0.56680000  0.03900000  0.96700000  1.0 -0.769842228
O  O11  1  0.53150000  0.06530000  0.69200000  1.0 -0.7848483306
O  O12  1  0.64310000  0.06650000  0.76200000  1.0 -0.5826234352
O  O13  1  0.96100000  0.43320000  0.53300000  1.0 -0.769842228
O  O14  1  0.93470000  0.46850000  0.80800000  1.0 -0.7848483306
O  O15  1  0.93350000  0.35690000  0.73800000  1.0 -0.5826234352
O  O16  1  0.03900000  0.56680000  0.53300000  1.0 -0.769842228
O  O17  1  0.06530000  0.53150000  0.80800000  1.0 -0.7853637916
O  O18  1  0.06650000  0.64310000  0.73800000  1.0 -0.5826234352
O  O19  1  0.43320000  0.03900000  0.46700000  1.0 -0.769842228
O  O20  1  0.46850000  0.06530000  0.19200000  1.0 -0.7848483306
O  O21  1  0.35690000  0.06650000  0.26200000  1.0 -0.5826234352
O  O22  1  0.56680000  0.96100000  0.46700000  1.0 -0.769842228
O  O23  1  0.53150000  0.93470000  0.19200000  1.0 -0.7848483306
O  O24  1  0.64310000  0.93350000  0.26200000  1.0 -0.5826234352
