# DDEC6 charges by PACMAN v1.1 (https://github.com/mtap-research/PACMAN-charge/)
data_HIQDUJ02_FSR_pacman
_symmetry_space_group_name_H-M   'P 1'
_cell_length_a   21.98000000
_cell_length_b   21.98000000
_cell_length_c   8.96000000
_cell_angle_alpha   90.00000000
_cell_angle_beta   90.00000000
_cell_angle_gamma   90.00000000
_symmetry_Int_Tables_number   1
_chemical_formula_structural   Co2NiP4H24C44(NO3)4
_chemical_formula_sum   'Co4 Ni2 P8 H48 C88 N8 O24'
_cell_volume   4328.75878400
_cell_formula_units_Z   2
loop_
 _symmetry_equiv_pos_site_id
 _symmetry_equiv_pos_as_xyz
  1  'x, y, z'
loop_
 _atom_site_type_symbol
 _atom_site_label
 _atom_site_symmetry_multiplicity
 _atom_site_fract_x
 _atom_site_fract_y
 _atom_site_fract_z
 _atom_site_occupancy
 _atom_site_charge
Co  Co1  1  0.00000000  0.50000000  0.92300000  1.0 1.2506036254
Co  Co2  1  0.50000000  0.00000000  0.07700000  1.0 1.2506036254
Co  Co3  1  0.00000000  0.50000000  0.42300000  1.0 1.2506036254
Co  Co4  1  0.50000000  0.00000000  0.57700000  1.0 1.2506036254
Ni  Ni1  1  0.50000000  0.50000000  0.00000000  1.0 0.3832259568
Ni  Ni2  1  0.50000000  0.50000000  0.50000000  1.0 0.3832259568
P  P1  1  0.92450000  0.58030000  0.18500000  1.0 1.3321299645
P  P2  1  0.07550000  0.41970000  0.18500000  1.0 1.3321299645
P  P3  1  0.41970000  0.92450000  0.81500000  1.0 1.3321299645
P  P4  1  0.58030000  0.07550000  0.81500000  1.0 1.3321299645
P  P5  1  0.92450000  0.41970000  0.68500000  1.0 1.3321299645
P  P6  1  0.07550000  0.58030000  0.68500000  1.0 1.3321299645
P  P7  1  0.41970000  0.07550000  0.31500000  1.0 1.3321299645
P  P8  1  0.58030000  0.92450000  0.31500000  1.0 1.3321299645
H  H1  1  0.57380000  0.71040000  0.87950000  1.0 0.1411028398
H  H2  1  0.66650000  0.65720000  0.94270000  1.0 0.1411028398
H  H3  1  0.75370000  0.49090000  0.92320000  1.0 0.1180336009
H  H4  1  0.85340000  0.51600000  0.95170000  1.0 0.1523959645
H  H5  1  0.81000000  0.63180000  0.27510000  1.0 0.1411028398
H  H6  1  0.70360000  0.60880000  0.24290000  1.0 0.1180336009
H  H7  1  0.42620000  0.28960000  0.87950000  1.0 0.1411028398
H  H8  1  0.33350000  0.34280000  0.94270000  1.0 0.1411028398
H  H9  1  0.24630000  0.50910000  0.92320000  1.0 0.1180336009
H  H10  1  0.14660000  0.48400000  0.95170000  1.0 0.1523959645
H  H11  1  0.19000000  0.36820000  0.27510000  1.0 0.1411028398
H  H12  1  0.29640000  0.39120000  0.24290000  1.0 0.1180336009
H  H13  1  0.28960000  0.57380000  0.12050000  1.0 0.1411028398
H  H14  1  0.34280000  0.66650000  0.05730000  1.0 0.1411028398
H  H15  1  0.50910000  0.75370000  0.07680000  1.0 0.1180336009
H  H16  1  0.48400000  0.85340000  0.04830000  1.0 0.1523959645
H  H17  1  0.36820000  0.81000000  0.72490000  1.0 0.1411028398
H  H18  1  0.39120000  0.70360000  0.75710000  1.0 0.1180336009
H  H19  1  0.71040000  0.42620000  0.12050000  1.0 0.1411028398
H  H20  1  0.65720000  0.33350000  0.05730000  1.0 0.1411028398
H  H21  1  0.49090000  0.24630000  0.07680000  1.0 0.1180336009
H  H22  1  0.51600000  0.14660000  0.04830000  1.0 0.1523959645
H  H23  1  0.63180000  0.19000000  0.72490000  1.0 0.1411028398
H  H24  1  0.60880000  0.29640000  0.75710000  1.0 0.1180336009
H  H25  1  0.57380000  0.28960000  0.37950000  1.0 0.1411028398
H  H26  1  0.66650000  0.34280000  0.44270000  1.0 0.1411028398
H  H27  1  0.75370000  0.50910000  0.42320000  1.0 0.1180336009
H  H28  1  0.85340000  0.48400000  0.45170000  1.0 0.1523959645
H  H29  1  0.81000000  0.36820000  0.77510000  1.0 0.1411028398
H  H30  1  0.70360000  0.39120000  0.74290000  1.0 0.1180336009
H  H31  1  0.42620000  0.71040000  0.37950000  1.0 0.1411028398
H  H32  1  0.33350000  0.65720000  0.44270000  1.0 0.1411028398
H  H33  1  0.24630000  0.49090000  0.42320000  1.0 0.1180336009
H  H34  1  0.14660000  0.51600000  0.45170000  1.0 0.1523959645
H  H35  1  0.19000000  0.63180000  0.77510000  1.0 0.1411028398
H  H36  1  0.29640000  0.60880000  0.74290000  1.0 0.1180336009
H  H37  1  0.28960000  0.42620000  0.62050000  1.0 0.1411028398
H  H38  1  0.34280000  0.33350000  0.55730000  1.0 0.1411028398
H  H39  1  0.50910000  0.24630000  0.57680000  1.0 0.1180336009
H  H40  1  0.48400000  0.14660000  0.54830000  1.0 0.1523959645
H  H41  1  0.36820000  0.19000000  0.22490000  1.0 0.1411028398
H  H42  1  0.39120000  0.29640000  0.25710000  1.0 0.1180336009
H  H43  1  0.71040000  0.57380000  0.62050000  1.0 0.1411028398
H  H44  1  0.65720000  0.66650000  0.55730000  1.0 0.1411028398
H  H45  1  0.49090000  0.75370000  0.57680000  1.0 0.1180336009
H  H46  1  0.51600000  0.85340000  0.54830000  1.0 0.1523959645
H  H47  1  0.63180000  0.81000000  0.22490000  1.0 0.1411028398
H  H48  1  0.60880000  0.70360000  0.25710000  1.0 0.1180336009
C  C1  1  0.52760000  0.63540000  0.95000000  1.0 0.1523959645
C  C2  1  0.57590000  0.67040000  0.91900000  1.0 -0.1557217744
C  C3  1  0.62630000  0.64160000  0.95200000  1.0 -0.1735445914
C  C4  1  0.60930000  0.58090000  0.00600000  1.0 0.2133970353
C  C5  1  0.65260000  0.53470000  0.05200000  1.0 -0.0367480322
C  C6  1  0.71620000  0.55010000  0.06000000  1.0 0.0799914095
C  C7  1  0.76330000  0.52220000  0.99200000  1.0 -0.1226944608
C  C8  1  0.82360000  0.53450000  0.01400000  1.0 -0.0621813742
C  C9  1  0.84100000  0.57360000  0.12400000  1.0 -0.1226944608
C  C10  1  0.79800000  0.60260000  0.20300000  1.0 -0.0837523193
C  C11  1  0.73340000  0.59070000  0.18000000  1.0 -0.127448341
C  C12  1  0.47240000  0.36460000  0.95000000  1.0 0.1523959645
C  C13  1  0.42410000  0.32960000  0.91900000  1.0 -0.1557217744
C  C14  1  0.37370000  0.35840000  0.95200000  1.0 -0.1735445914
C  C15  1  0.39070000  0.41910000  0.00600000  1.0 0.2133970353
C  C16  1  0.34740000  0.46530000  0.05200000  1.0 -0.0367480322
C  C17  1  0.28380000  0.44990000  0.06000000  1.0 0.0799914095
C  C18  1  0.23670000  0.47780000  0.99200000  1.0 -0.1226944608
C  C19  1  0.17640000  0.46550000  0.01400000  1.0 -0.0621813742
C  C20  1  0.15900000  0.42640000  0.12400000  1.0 -0.1226944608
C  C21  1  0.20200000  0.39740000  0.20300000  1.0 -0.0837523193
C  C22  1  0.26660000  0.40930000  0.18000000  1.0 -0.127448341
C  C23  1  0.36460000  0.52760000  0.05000000  1.0 0.1523959645
C  C24  1  0.32960000  0.57590000  0.08100000  1.0 -0.1557217744
C  C25  1  0.35840000  0.62630000  0.04800000  1.0 -0.1735445914
C  C26  1  0.41910000  0.60930000  0.99400000  1.0 0.2133970353
C  C27  1  0.46530000  0.65260000  0.94800000  1.0 -0.0367480322
C  C28  1  0.44990000  0.71620000  0.94000000  1.0 0.0799914095
C  C29  1  0.47780000  0.76330000  0.00800000  1.0 -0.1226944608
C  C30  1  0.46550000  0.82360000  0.98600000  1.0 -0.0621813742
C  C31  1  0.42640000  0.84100000  0.87600000  1.0 -0.1226944608
C  C32  1  0.39740000  0.79800000  0.79700000  1.0 -0.0837523193
C  C33  1  0.40930000  0.73340000  0.82000000  1.0 -0.127448341
C  C34  1  0.63540000  0.47240000  0.05000000  1.0 0.1523959645
C  C35  1  0.67040000  0.42410000  0.08100000  1.0 -0.1557217744
C  C36  1  0.64160000  0.37370000  0.04800000  1.0 -0.1735445914
C  C37  1  0.58090000  0.39070000  0.99400000  1.0 0.2133970353
C  C38  1  0.53470000  0.34740000  0.94800000  1.0 -0.0367480322
C  C39  1  0.55010000  0.28380000  0.94000000  1.0 0.0799914095
C  C40  1  0.52220000  0.23670000  0.00800000  1.0 -0.1226944608
C  C41  1  0.53450000  0.17640000  0.98600000  1.0 -0.0621813742
C  C42  1  0.57360000  0.15900000  0.87600000  1.0 -0.1226944608
C  C43  1  0.60260000  0.20200000  0.79700000  1.0 -0.0837523193
C  C44  1  0.59070000  0.26660000  0.82000000  1.0 -0.127448341
C  C45  1  0.52760000  0.36460000  0.45000000  1.0 0.1523959645
C  C46  1  0.57590000  0.32960000  0.41900000  1.0 -0.1557217744
C  C47  1  0.62630000  0.35840000  0.45200000  1.0 -0.1735445914
C  C48  1  0.60930000  0.41910000  0.50600000  1.0 0.2133970353
C  C49  1  0.65260000  0.46530000  0.55200000  1.0 -0.0367480322
C  C50  1  0.71620000  0.44990000  0.56000000  1.0 0.0799914095
C  C51  1  0.76330000  0.47780000  0.49200000  1.0 -0.1226944608
C  C52  1  0.82360000  0.46550000  0.51400000  1.0 -0.0621813742
C  C53  1  0.84100000  0.42640000  0.62400000  1.0 -0.1226944608
C  C54  1  0.79800000  0.39740000  0.70300000  1.0 -0.0837523193
C  C55  1  0.73340000  0.40930000  0.68000000  1.0 -0.127448341
C  C56  1  0.47240000  0.63540000  0.45000000  1.0 0.1523959645
C  C57  1  0.42410000  0.67040000  0.41900000  1.0 -0.1557217744
C  C58  1  0.37370000  0.64160000  0.45200000  1.0 -0.1735445914
C  C59  1  0.39070000  0.58090000  0.50600000  1.0 0.2133970353
C  C60  1  0.34740000  0.53470000  0.55200000  1.0 -0.0367480322
C  C61  1  0.28380000  0.55010000  0.56000000  1.0 0.0799914095
C  C62  1  0.23670000  0.52220000  0.49200000  1.0 -0.1226944608
C  C63  1  0.17640000  0.53450000  0.51400000  1.0 -0.0621813742
C  C64  1  0.15900000  0.57360000  0.62400000  1.0 -0.1226944608
C  C65  1  0.20200000  0.60260000  0.70300000  1.0 -0.0837523193
C  C66  1  0.26660000  0.59070000  0.68000000  1.0 -0.127448341
C  C67  1  0.36460000  0.47240000  0.55000000  1.0 0.1523959645
C  C68  1  0.32960000  0.42410000  0.58100000  1.0 -0.1557217744
C  C69  1  0.35840000  0.37370000  0.54800000  1.0 -0.1735445914
C  C70  1  0.41910000  0.39070000  0.49400000  1.0 0.2133970353
C  C71  1  0.46530000  0.34740000  0.44800000  1.0 -0.0367480322
C  C72  1  0.44990000  0.28380000  0.44000000  1.0 0.0799914095
C  C73  1  0.47780000  0.23670000  0.50800000  1.0 -0.1226944608
C  C74  1  0.46550000  0.17640000  0.48600000  1.0 -0.0621813742
C  C75  1  0.42640000  0.15900000  0.37600000  1.0 -0.1226944608
C  C76  1  0.39740000  0.20200000  0.29700000  1.0 -0.0837523193
C  C77  1  0.40930000  0.26660000  0.32000000  1.0 -0.127448341
C  C78  1  0.63540000  0.52760000  0.55000000  1.0 0.1523959645
C  C79  1  0.67040000  0.57590000  0.58100000  1.0 -0.1557217744
C  C80  1  0.64160000  0.62630000  0.54800000  1.0 -0.1735445914
C  C81  1  0.58090000  0.60930000  0.49400000  1.0 0.2133970353
C  C82  1  0.53470000  0.65260000  0.44800000  1.0 -0.0367480322
C  C83  1  0.55010000  0.71620000  0.44000000  1.0 0.0799914095
C  C84  1  0.52220000  0.76330000  0.50800000  1.0 -0.1226944608
C  C85  1  0.53450000  0.82360000  0.48600000  1.0 -0.0621813742
C  C86  1  0.57360000  0.84100000  0.37600000  1.0 -0.1226944608
C  C87  1  0.60260000  0.79800000  0.29700000  1.0 -0.0837523193
C  C88  1  0.59070000  0.73340000  0.32000000  1.0 -0.127448341
N  N1  1  0.54920000  0.57360000  0.99500000  1.0 -0.2967290712
N  N2  1  0.45080000  0.42640000  0.99500000  1.0 -0.2967290712
N  N3  1  0.42640000  0.54920000  0.00500000  1.0 -0.2967290712
N  N4  1  0.57360000  0.45080000  0.00500000  1.0 -0.2967290712
N  N5  1  0.54920000  0.42640000  0.49500000  1.0 -0.2967290712
N  N6  1  0.45080000  0.57360000  0.49500000  1.0 -0.2967290712
N  N7  1  0.42640000  0.45080000  0.50500000  1.0 -0.2967290712
N  N8  1  0.57360000  0.54920000  0.50500000  1.0 -0.2967290712
O  O1  1  0.96210000  0.56450000  0.03600000  1.0 -0.770082051
O  O2  1  0.93540000  0.53260000  0.31100000  1.0 -0.770082051
O  O3  1  0.93480000  0.64600000  0.22900000  1.0 -0.589115834
O  O4  1  0.03790000  0.43550000  0.03600000  1.0 -0.770082051
O  O5  1  0.06460000  0.46740000  0.31100000  1.0 -0.770082051
O  O6  1  0.06520000  0.35400000  0.22900000  1.0 -0.589115834
O  O7  1  0.43550000  0.96210000  0.96400000  1.0 -0.770082051
O  O8  1  0.46740000  0.93540000  0.68900000  1.0 -0.770082051
O  O9  1  0.35400000  0.93480000  0.77100000  1.0 -0.589115834
O  O10  1  0.56450000  0.03790000  0.96400000  1.0 -0.770082051
O  O11  1  0.53260000  0.06460000  0.68900000  1.0 -0.770082051
O  O12  1  0.64600000  0.06520000  0.77100000  1.0 -0.589115834
O  O13  1  0.96210000  0.43550000  0.53600000  1.0 -0.770082051
O  O14  1  0.93540000  0.46740000  0.81100000  1.0 -0.770082051
O  O15  1  0.93480000  0.35400000  0.72900000  1.0 -0.589115834
O  O16  1  0.03790000  0.56450000  0.53600000  1.0 -0.770082051
O  O17  1  0.06460000  0.53260000  0.81100000  1.0 -0.770082051
O  O18  1  0.06520000  0.64600000  0.72900000  1.0 -0.589115834
O  O19  1  0.43550000  0.03790000  0.46400000  1.0 -0.770082051
O  O20  1  0.46740000  0.06460000  0.18900000  1.0 -0.770082051
O  O21  1  0.35400000  0.06520000  0.27100000  1.0 -0.589115834
O  O22  1  0.56450000  0.96210000  0.46400000  1.0 -0.770082051
O  O23  1  0.53260000  0.93540000  0.18900000  1.0 -0.770082051
O  O24  1  0.64600000  0.93480000  0.27100000  1.0 -0.589115834
