# DDEC6 charges by PACMAN v1.1 (https://github.com/mtap-research/PACMAN-charge/)
data_HIQDUJ05_ASR_pacman
_symmetry_space_group_name_H-M   'P 1'
_cell_length_a   21.98000000
_cell_length_b   21.98000000
_cell_length_c   8.96000000
_cell_angle_alpha   90.00000000
_cell_angle_beta   90.00000000
_cell_angle_gamma   90.00000000
_symmetry_Int_Tables_number   1
_chemical_formula_structural   Co2NiP4H24C44(NO3)4
_chemical_formula_sum   'Co4 Ni2 P8 H48 C88 N8 O24'
_cell_volume   4328.75878400
_cell_formula_units_Z   2
loop_
 _symmetry_equiv_pos_site_id
 _symmetry_equiv_pos_as_xyz
  1  'x, y, z'
loop_
 _atom_site_type_symbol
 _atom_site_label
 _atom_site_symmetry_multiplicity
 _atom_site_fract_x
 _atom_site_fract_y
 _atom_site_fract_z
 _atom_site_occupancy
 _atom_site_charge
Co  Co1  1  0.00000000  0.50000000  0.92920000  1.0 1.2632706064
Co  Co2  1  0.50000000  0.00000000  0.07080000  1.0 1.2632706064
Co  Co3  1  0.00000000  0.50000000  0.42920000  1.0 1.2632706064
Co  Co4  1  0.50000000  0.00000000  0.57080000  1.0 1.2632706064
Ni  Ni1  1  0.50000000  0.50000000  0.00000000  1.0 0.3907829124
Ni  Ni2  1  0.50000000  0.50000000  0.50000000  1.0 0.3907829124
P  P1  1  0.92260000  0.58110000  0.18310000  1.0 1.3143686651
P  P2  1  0.07740000  0.41890000  0.18310000  1.0 1.315975638
P  P3  1  0.41890000  0.92260000  0.81690000  1.0 1.315975638
P  P4  1  0.58110000  0.07740000  0.81690000  1.0 1.315975638
P  P5  1  0.92260000  0.41890000  0.68310000  1.0 1.3143686651
P  P6  1  0.07740000  0.58110000  0.68310000  1.0 1.315975638
P  P7  1  0.41890000  0.07740000  0.31690000  1.0 1.315975638
P  P8  1  0.58110000  0.92260000  0.31690000  1.0 1.3143686651
H  H1  1  0.57360000  0.71160000  0.87210000  1.0 0.1383684649
H  H2  1  0.66980000  0.65550000  0.94320000  1.0 0.1383684649
H  H3  1  0.75320000  0.49820000  0.89660000  1.0 0.1204763549
H  H4  1  0.85600000  0.50880000  0.97030000  1.0 0.1492723964
H  H5  1  0.80860000  0.63130000  0.28030000  1.0 0.1383684649
H  H6  1  0.70520000  0.61160000  0.24150000  1.0 0.1204763549
H  H7  1  0.42640000  0.28840000  0.87210000  1.0 0.1383684649
H  H8  1  0.33020000  0.34450000  0.94320000  1.0 0.1383684649
H  H9  1  0.24680000  0.50180000  0.89660000  1.0 0.1204763549
H  H10  1  0.14400000  0.49120000  0.97030000  1.0 0.1492723964
H  H11  1  0.19140000  0.36870000  0.28030000  1.0 0.1383684649
H  H12  1  0.29480000  0.38840000  0.24150000  1.0 0.1204763549
H  H13  1  0.28840000  0.57360000  0.12790000  1.0 0.1383684649
H  H14  1  0.34450000  0.66980000  0.05680000  1.0 0.1383684649
H  H15  1  0.50180000  0.75320000  0.10340000  1.0 0.1204763549
H  H16  1  0.49120000  0.85600000  0.02970000  1.0 0.1492723964
H  H17  1  0.36870000  0.80860000  0.71970000  1.0 0.1383684649
H  H18  1  0.38840000  0.70520000  0.75850000  1.0 0.1204763549
H  H19  1  0.71160000  0.42640000  0.12790000  1.0 0.1383684649
H  H20  1  0.65550000  0.33020000  0.05680000  1.0 0.1383684649
H  H21  1  0.49820000  0.24680000  0.10340000  1.0 0.1204763549
H  H22  1  0.50880000  0.14400000  0.02970000  1.0 0.1492723964
H  H23  1  0.63130000  0.19140000  0.71970000  1.0 0.1383684649
H  H24  1  0.61160000  0.29480000  0.75850000  1.0 0.1204763549
H  H25  1  0.57360000  0.28840000  0.37210000  1.0 0.1383684649
H  H26  1  0.66980000  0.34450000  0.44320000  1.0 0.1383684649
H  H27  1  0.75320000  0.50180000  0.39660000  1.0 0.1204763549
H  H28  1  0.85600000  0.49120000  0.47030000  1.0 0.1492723964
H  H29  1  0.80860000  0.36870000  0.78030000  1.0 0.1383684649
H  H30  1  0.70520000  0.38840000  0.74150000  1.0 0.1204763549
H  H31  1  0.42640000  0.71160000  0.37210000  1.0 0.1383684649
H  H32  1  0.33020000  0.65550000  0.44320000  1.0 0.1383684649
H  H33  1  0.24680000  0.49820000  0.39660000  1.0 0.1204763549
H  H34  1  0.14400000  0.50880000  0.47030000  1.0 0.1492723964
H  H35  1  0.19140000  0.63130000  0.78030000  1.0 0.1383684649
H  H36  1  0.29480000  0.61160000  0.74150000  1.0 0.1204763549
H  H37  1  0.28840000  0.42640000  0.62790000  1.0 0.1383684649
H  H38  1  0.34450000  0.33020000  0.55680000  1.0 0.1383684649
H  H39  1  0.50180000  0.24680000  0.60340000  1.0 0.1204763549
H  H40  1  0.49120000  0.14400000  0.52970000  1.0 0.1492723964
H  H41  1  0.36870000  0.19140000  0.21970000  1.0 0.1383684649
H  H42  1  0.38840000  0.29480000  0.25850000  1.0 0.1204763549
H  H43  1  0.71160000  0.57360000  0.62790000  1.0 0.1383684649
H  H44  1  0.65550000  0.66980000  0.55680000  1.0 0.1383684649
H  H45  1  0.49820000  0.75320000  0.60340000  1.0 0.1204763549
H  H46  1  0.50880000  0.85600000  0.52970000  1.0 0.1492723964
H  H47  1  0.63130000  0.80860000  0.21970000  1.0 0.1383684649
H  H48  1  0.61160000  0.70520000  0.25850000  1.0 0.1204763549
C  C1  1  0.52810000  0.63190000  0.95600000  1.0 0.1914557788
C  C2  1  0.57680000  0.67220000  0.91470000  1.0 -0.1697531574
C  C3  1  0.62930000  0.64070000  0.95040000  1.0 -0.1770470094
C  C4  1  0.61070000  0.58070000  0.00090000  1.0 0.1914557788
C  C5  1  0.65200000  0.53580000  0.04880000  1.0 -0.0370232489
C  C6  1  0.71690000  0.54960000  0.06920000  1.0 0.0956915441
C  C7  1  0.76350000  0.52230000  0.98100000  1.0 -0.1300844185
C  C8  1  0.82510000  0.53150000  0.02000000  1.0 -0.0605911891
C  C9  1  0.84110000  0.57300000  0.12820000  1.0 -0.1419329987
C  C10  1  0.79690000  0.60240000  0.20680000  1.0 -0.0680606988
C  C11  1  0.73500000  0.59140000  0.18280000  1.0 -0.1300844185
C  C12  1  0.47190000  0.36810000  0.95600000  1.0 0.1914557788
C  C13  1  0.42320000  0.32780000  0.91470000  1.0 -0.1697531574
C  C14  1  0.37070000  0.35930000  0.95040000  1.0 -0.1770470094
C  C15  1  0.38930000  0.41930000  0.00090000  1.0 0.1914557788
C  C16  1  0.34800000  0.46420000  0.04880000  1.0 -0.0370232489
C  C17  1  0.28310000  0.45040000  0.06920000  1.0 0.0956915441
C  C18  1  0.23650000  0.47770000  0.98100000  1.0 -0.1300844185
C  C19  1  0.17490000  0.46850000  0.02000000  1.0 -0.0605911891
C  C20  1  0.15890000  0.42700000  0.12820000  1.0 -0.1419329987
C  C21  1  0.20310000  0.39760000  0.20680000  1.0 -0.0680606988
C  C22  1  0.26500000  0.40860000  0.18280000  1.0 -0.1300844185
C  C23  1  0.36810000  0.52810000  0.04400000  1.0 0.1914557788
C  C24  1  0.32780000  0.57680000  0.08530000  1.0 -0.1697531574
C  C25  1  0.35930000  0.62930000  0.04960000  1.0 -0.1770470094
C  C26  1  0.41930000  0.61070000  0.99910000  1.0 0.1914557788
C  C27  1  0.46420000  0.65200000  0.95120000  1.0 -0.0370232489
C  C28  1  0.45040000  0.71690000  0.93080000  1.0 0.0956915441
C  C29  1  0.47770000  0.76350000  0.01900000  1.0 -0.1300844185
C  C30  1  0.46850000  0.82510000  0.98000000  1.0 -0.0605911891
C  C31  1  0.42700000  0.84110000  0.87180000  1.0 -0.1419329987
C  C32  1  0.39760000  0.79690000  0.79320000  1.0 -0.0680606988
C  C33  1  0.40860000  0.73500000  0.81720000  1.0 -0.1300844185
C  C34  1  0.63190000  0.47190000  0.04400000  1.0 0.1914557788
C  C35  1  0.67220000  0.42320000  0.08530000  1.0 -0.1697531574
C  C36  1  0.64070000  0.37070000  0.04960000  1.0 -0.1770470094
C  C37  1  0.58070000  0.38930000  0.99910000  1.0 0.1914557788
C  C38  1  0.53580000  0.34800000  0.95120000  1.0 -0.0370232489
C  C39  1  0.54960000  0.28310000  0.93080000  1.0 0.0956915441
C  C40  1  0.52230000  0.23650000  0.01900000  1.0 -0.1300844185
C  C41  1  0.53150000  0.17490000  0.98000000  1.0 -0.0605911891
C  C42  1  0.57300000  0.15890000  0.87180000  1.0 -0.1419329987
C  C43  1  0.60240000  0.20310000  0.79320000  1.0 -0.0680606988
C  C44  1  0.59140000  0.26500000  0.81720000  1.0 -0.1300844185
C  C45  1  0.52810000  0.36810000  0.45600000  1.0 0.1914557788
C  C46  1  0.57680000  0.32780000  0.41470000  1.0 -0.1697531574
C  C47  1  0.62930000  0.35930000  0.45040000  1.0 -0.1770470094
C  C48  1  0.61070000  0.41930000  0.50090000  1.0 0.1914557788
C  C49  1  0.65200000  0.46420000  0.54880000  1.0 -0.0370232489
C  C50  1  0.71690000  0.45040000  0.56920000  1.0 0.0956915441
C  C51  1  0.76350000  0.47770000  0.48100000  1.0 -0.1300844185
C  C52  1  0.82510000  0.46850000  0.52000000  1.0 -0.0605911891
C  C53  1  0.84110000  0.42700000  0.62820000  1.0 -0.1419329987
C  C54  1  0.79690000  0.39760000  0.70680000  1.0 -0.0680606988
C  C55  1  0.73500000  0.40860000  0.68280000  1.0 -0.1300844185
C  C56  1  0.47190000  0.63190000  0.45600000  1.0 0.1914557788
C  C57  1  0.42320000  0.67220000  0.41470000  1.0 -0.1697531574
C  C58  1  0.37070000  0.64070000  0.45040000  1.0 -0.1770470094
C  C59  1  0.38930000  0.58070000  0.50090000  1.0 0.1914557788
C  C60  1  0.34800000  0.53580000  0.54880000  1.0 -0.0370232489
C  C61  1  0.28310000  0.54960000  0.56920000  1.0 0.0956915441
C  C62  1  0.23650000  0.52230000  0.48100000  1.0 -0.1300844185
C  C63  1  0.17490000  0.53150000  0.52000000  1.0 -0.0605911891
C  C64  1  0.15890000  0.57300000  0.62820000  1.0 -0.1419329987
C  C65  1  0.20310000  0.60240000  0.70680000  1.0 -0.0680606988
C  C66  1  0.26500000  0.59140000  0.68280000  1.0 -0.1300844185
C  C67  1  0.36810000  0.47190000  0.54400000  1.0 0.1914557788
C  C68  1  0.32780000  0.42320000  0.58530000  1.0 -0.1697531574
C  C69  1  0.35930000  0.37070000  0.54960000  1.0 -0.1770470094
C  C70  1  0.41930000  0.38930000  0.49910000  1.0 0.1914557788
C  C71  1  0.46420000  0.34800000  0.45120000  1.0 -0.0370232489
C  C72  1  0.45040000  0.28310000  0.43080000  1.0 0.0956915441
C  C73  1  0.47770000  0.23650000  0.51900000  1.0 -0.1300844185
C  C74  1  0.46850000  0.17490000  0.48000000  1.0 -0.0605911891
C  C75  1  0.42700000  0.15890000  0.37180000  1.0 -0.1419329987
C  C76  1  0.39760000  0.20310000  0.29320000  1.0 -0.0680606988
C  C77  1  0.40860000  0.26500000  0.31720000  1.0 -0.1300844185
C  C78  1  0.63190000  0.52810000  0.54400000  1.0 0.1914557788
C  C79  1  0.67220000  0.57680000  0.58530000  1.0 -0.1697531574
C  C80  1  0.64070000  0.62930000  0.54960000  1.0 -0.1770470094
C  C81  1  0.58070000  0.61070000  0.49910000  1.0 0.1914557788
C  C82  1  0.53580000  0.65200000  0.45120000  1.0 -0.0370232489
C  C83  1  0.54960000  0.71690000  0.43080000  1.0 0.0956915441
C  C84  1  0.52230000  0.76350000  0.51900000  1.0 -0.1300844185
C  C85  1  0.53150000  0.82510000  0.48000000  1.0 -0.0605911891
C  C86  1  0.57300000  0.84110000  0.37180000  1.0 -0.1419329987
C  C87  1  0.60240000  0.79690000  0.29320000  1.0 -0.0680606988
C  C88  1  0.59140000  0.73500000  0.31720000  1.0 -0.1300844185
N  N1  1  0.54810000  0.57490000  0.99100000  1.0 -0.3026778688
N  N2  1  0.45190000  0.42510000  0.99100000  1.0 -0.3026778688
N  N3  1  0.42510000  0.54810000  0.00900000  1.0 -0.3026778688
N  N4  1  0.57490000  0.45190000  0.00900000  1.0 -0.3026778688
N  N5  1  0.54810000  0.42510000  0.49100000  1.0 -0.3026778688
N  N6  1  0.45190000  0.57490000  0.49100000  1.0 -0.3026778688
N  N7  1  0.42510000  0.45190000  0.50900000  1.0 -0.3026778688
N  N8  1  0.57490000  0.54810000  0.50900000  1.0 -0.3026778688
O  O1  1  0.96280000  0.56590000  0.03600000  1.0 -0.7595067498
O  O2  1  0.93400000  0.53500000  0.31100000  1.0 -0.7762386602
O  O3  1  0.93360000  0.64510000  0.23300000  1.0 -0.5756372389
O  O4  1  0.03720000  0.43410000  0.03600000  1.0 -0.7595067498
O  O5  1  0.06600000  0.46500000  0.31100000  1.0 -0.7762386602
O  O6  1  0.06640000  0.35490000  0.23300000  1.0 -0.5756372389
O  O7  1  0.43410000  0.96280000  0.96400000  1.0 -0.7595067498
O  O8  1  0.46500000  0.93400000  0.68900000  1.0 -0.7762386602
O  O9  1  0.35490000  0.93360000  0.76700000  1.0 -0.5756372389
O  O10  1  0.56590000  0.03720000  0.96400000  1.0 -0.7595067498
O  O11  1  0.53500000  0.06600000  0.68900000  1.0 -0.7762386602
O  O12  1  0.64510000  0.06640000  0.76700000  1.0 -0.5756372389
O  O13  1  0.96280000  0.43410000  0.53600000  1.0 -0.7595067498
O  O14  1  0.93400000  0.46500000  0.81100000  1.0 -0.7762386602
O  O15  1  0.93360000  0.35490000  0.73300000  1.0 -0.5756372389
O  O16  1  0.03720000  0.56590000  0.53600000  1.0 -0.7595067498
O  O17  1  0.06600000  0.53500000  0.81100000  1.0 -0.7762386602
O  O18  1  0.06640000  0.64510000  0.73300000  1.0 -0.5756372389
O  O19  1  0.43410000  0.03720000  0.46400000  1.0 -0.7595067498
O  O20  1  0.46500000  0.06600000  0.18900000  1.0 -0.7762386602
O  O21  1  0.35490000  0.06640000  0.26700000  1.0 -0.5756372389
O  O22  1  0.56590000  0.96280000  0.46400000  1.0 -0.7595067498
O  O23  1  0.53500000  0.93400000  0.18900000  1.0 -0.7762386602
O  O24  1  0.64510000  0.93360000  0.26700000  1.0 -0.5756372389
