# DDEC6 charges by PACMAN v1.1 (https://github.com/mtap-research/PACMAN-charge/)
data_HIRNAB_ASR_pacman
_symmetry_space_group_name_H-M   'P 1'
_cell_length_a   11.11950000
_cell_length_b   11.11950000
_cell_length_c   15.97100000
_cell_angle_alpha   80.67800000
_cell_angle_beta   99.32200000
_cell_angle_gamma   109.23000000
_symmetry_Int_Tables_number   1
_chemical_formula_structural   Co2H12C22S2N4O9
_chemical_formula_sum   'Co4 H24 C44 S4 N8 O18'
_cell_volume   1827.35435906
_cell_formula_units_Z   2
loop_
 _symmetry_equiv_pos_site_id
 _symmetry_equiv_pos_as_xyz
  1  'x, y, z'
loop_
 _atom_site_type_symbol
 _atom_site_label
 _atom_site_symmetry_multiplicity
 _atom_site_fract_x
 _atom_site_fract_y
 _atom_site_fract_z
 _atom_site_occupancy
 _atom_site_charge
Co  Co1  1  0.11802000  0.07770000  0.64477000  1.0 0.947965422
Co  Co2  1  0.07770000  0.11802000  0.85523000  1.0 0.947965422
Co  Co3  1  0.88198000  0.92230000  0.35523000  1.0 0.947965422
Co  Co4  1  0.92230000  0.88198000  0.14477000  1.0 0.947965422
H  H1  1  0.34100000  0.01560000  0.58720000  1.0 0.1220427392
H  H2  1  0.01560000  0.34100000  0.91280000  1.0 0.1220427392
H  H3  1  0.65900000  0.98440000  0.41280000  1.0 0.1220427392
H  H4  1  0.98440000  0.65900000  0.08720000  1.0 0.1220427392
H  H5  1  0.15780000  0.25740000  0.47390000  1.0 0.1100477942
H  H6  1  0.25740000  0.15780000  0.02610000  1.0 0.1100477942
H  H7  1  0.84220000  0.74260000  0.52610000  1.0 0.1100477942
H  H8  1  0.74260000  0.84220000  0.97390000  1.0 0.1100477942
H  H9  1  0.26300000  0.29500000  0.35660000  1.0 0.1423500528
H  H10  1  0.29500000  0.26300000  0.14340000  1.0 0.1423500528
H  H11  1  0.73700000  0.70500000  0.64340000  1.0 0.1423500528
H  H12  1  0.70500000  0.73700000  0.85660000  1.0 0.1423500528
H  H13  1  0.14650000  0.71270000  0.53930000  1.0 0.1331797155
H  H14  1  0.71270000  0.14650000  0.96070000  1.0 0.1331797155
H  H15  1  0.85350000  0.28730000  0.46070000  1.0 0.1331797155
H  H16  1  0.28730000  0.85350000  0.03930000  1.0 0.1331797155
H  H17  1  0.16650000  0.49730000  0.55100000  1.0 0.1331797155
H  H18  1  0.49730000  0.16650000  0.94900000  1.0 0.1331797155
H  H19  1  0.83350000  0.50270000  0.44900000  1.0 0.1331797155
H  H20  1  0.50270000  0.83350000  0.05100000  1.0 0.1331797155
H  H21  1  0.40520000  0.18280000  0.35070000  1.0 0.1331797155
H  H22  1  0.18280000  0.40520000  0.14930000  1.0 0.1331797155
H  H23  1  0.59480000  0.81720000  0.64930000  1.0 0.1331797155
H  H24  1  0.81720000  0.59480000  0.85070000  1.0 0.1331797155
C  C1  1  0.10030000  0.31990000  0.70020000  1.0 0.6046100644
C  C2  1  0.31990000  0.10030000  0.79980000  1.0 0.6046100644
C  C3  1  0.89970000  0.68010000  0.29980000  1.0 0.6046100644
C  C4  1  0.68010000  0.89970000  0.20020000  1.0 0.6046100644
C  C5  1  0.10020000  0.45380000  0.66650000  1.0 -0.0975497231
C  C6  1  0.45380000  0.10020000  0.83350000  1.0 -0.0975497231
C  C7  1  0.89980000  0.54620000  0.33350000  1.0 -0.0975497231
C  C8  1  0.54620000  0.89980000  0.16650000  1.0 -0.0975497231
C  C9  1  0.32530000  0.07230000  0.54040000  1.0 0.03007744
C  C10  1  0.07230000  0.32530000  0.95960000  1.0 0.03007744
C  C11  1  0.67470000  0.92770000  0.45960000  1.0 0.03007744
C  C12  1  0.92770000  0.67470000  0.04040000  1.0 0.03007744
C  C13  1  0.07770000  0.66870000  0.65380000  1.0 -0.0975497231
C  C14  1  0.66870000  0.07770000  0.84620000  1.0 -0.0975497231
C  C15  1  0.92230000  0.33130000  0.34620000  1.0 -0.0975497231
C  C16  1  0.33130000  0.92230000  0.15380000  1.0 -0.0975497231
C  C17  1  0.05050000  0.78470000  0.67170000  1.0 0.5640089152
C  C18  1  0.78470000  0.05050000  0.82830000  1.0 0.5640089152
C  C19  1  0.94950000  0.21530000  0.32830000  1.0 0.5640089152
C  C20  1  0.21530000  0.94950000  0.17170000  1.0 0.5640089152
C  C21  1  0.21700000  0.21480000  0.47340000  1.0 0.0909642664
C  C22  1  0.21480000  0.21700000  0.02660000  1.0 0.0909642664
C  C23  1  0.78300000  0.78520000  0.52660000  1.0 0.0909642664
C  C24  1  0.78520000  0.78300000  0.97340000  1.0 0.0909642664
C  C25  1  0.39120000  0.09220000  0.47040000  1.0 0.1100477942
C  C26  1  0.09220000  0.39120000  0.02960000  1.0 0.1100477942
C  C27  1  0.60880000  0.90780000  0.52960000  1.0 0.1100477942
C  C28  1  0.90780000  0.60880000  0.97040000  1.0 0.1100477942
C  C29  1  0.27880000  0.23700000  0.40250000  1.0 -0.1204706723
C  C30  1  0.23700000  0.27880000  0.09750000  1.0 -0.1204706723
C  C31  1  0.72120000  0.76300000  0.59750000  1.0 -0.1204706723
C  C32  1  0.76300000  0.72120000  0.90250000  1.0 -0.1204706723
C  C33  1  0.12460000  0.65060000  0.58560000  1.0 -0.1204706723
C  C34  1  0.65060000  0.12460000  0.91440000  1.0 -0.1204706723
C  C35  1  0.87540000  0.34940000  0.41440000  1.0 -0.1204706723
C  C36  1  0.34940000  0.87540000  0.08560000  1.0 -0.1204706723
C  C37  1  0.13670000  0.52610000  0.59260000  1.0 -0.1204706723
C  C38  1  0.52610000  0.13670000  0.90740000  1.0 -0.1251715558
C  C39  1  0.86330000  0.47390000  0.40740000  1.0 -0.1204706723
C  C40  1  0.47390000  0.86330000  0.09260000  1.0 -0.1204706723
C  C41  1  0.36550000  0.17230000  0.39950000  1.0 -0.0860896098
C  C42  1  0.17230000  0.36550000  0.10050000  1.0 -0.0860896098
C  C43  1  0.63450000  0.82770000  0.60050000  1.0 -0.0860896098
C  C44  1  0.82770000  0.63450000  0.89950000  1.0 -0.0860896098
S  S1  1  0.04501000  0.53415000  0.72843000  1.0 0.1220427392
S  S2  1  0.53415000  0.04501000  0.77157000  1.0 0.1220427392
S  S3  1  0.95499000  0.46585000  0.27157000  1.0 0.1220427392
S  S4  1  0.46585000  0.95499000  0.22843000  1.0 0.1220427392
N  N1  1  0.23790000  0.13370000  0.54290000  1.0 -0.2366907957
N  N2  1  0.13370000  0.23790000  0.95710000  1.0 -0.2366907957
N  N3  1  0.76210000  0.86630000  0.45710000  1.0 -0.2366907957
N  N4  1  0.86630000  0.76210000  0.04290000  1.0 -0.2366907957
N  N5  1  0.48580000  0.03240000  0.46580000  1.0 -0.1065367951
N  N6  1  0.03240000  0.48580000  0.03420000  1.0 -0.1065367951
N  N7  1  0.51420000  0.96760000  0.53420000  1.0 -0.1065367951
N  N8  1  0.96760000  0.51420000  0.96580000  1.0 -0.1065367951
O  O1  1  0.05700000  0.27280000  0.77110000  1.0 -0.5431536201
O  O2  1  0.27280000  0.05700000  0.72890000  1.0 -0.5431536201
O  O3  1  0.94300000  0.72720000  0.22890000  1.0 -0.5431536201
O  O4  1  0.72720000  0.94300000  0.27110000  1.0 -0.5431536201
O  O5  1  0.15060000  0.26760000  0.65580000  1.0 -0.5549998643
O  O6  1  0.26760000  0.15060000  0.84420000  1.0 -0.5549998643
O  O7  1  0.84940000  0.73240000  0.34420000  1.0 -0.5556589725
O  O8  1  0.73240000  0.84940000  0.15580000  1.0 -0.5556589725
O  O9  1  0.00490000  0.00490000  0.75000000  1.0 -0.1672711584
O  O10  1  0.99510000  0.99510000  0.25000000  1.0 -0.1672711584
O  O11  1  0.08100000  0.88640000  0.61820000  1.0 -0.5699007127
O  O12  1  0.88640000  0.08100000  0.88180000  1.0 -0.5699007127
O  O13  1  0.91900000  0.11360000  0.38180000  1.0 -0.5699007127
O  O14  1  0.11360000  0.91900000  0.11820000  1.0 -0.5699007127
O  O15  1  0.00610000  0.77670000  0.74080000  1.0 -0.5046731594
O  O16  1  0.77670000  0.00610000  0.75920000  1.0 -0.5046731594
O  O17  1  0.99390000  0.22330000  0.25920000  1.0 -0.5046731594
O  O18  1  0.22330000  0.99390000  0.24080000  1.0 -0.5046731594
