# DDEC6 charges by PACMAN v1.1 (https://github.com/mtap-research/PACMAN-charge/)
data_HIWKII_FSR_pacman
_symmetry_space_group_name_H-M   'P 1'
_cell_length_a   10.94130000
_cell_length_b   10.94130000
_cell_length_c   12.05200000
_cell_angle_alpha   76.89320000
_cell_angle_beta   103.10700000
_cell_angle_gamma   93.01450000
_symmetry_Int_Tables_number   1
_chemical_formula_structural   Mn2NbH12C12(N5O3)2
_chemical_formula_sum   'Mn4 Nb2 H24 C24 N20 O12'
_cell_volume   1368.57556374
_cell_formula_units_Z   2
loop_
 _symmetry_equiv_pos_site_id
 _symmetry_equiv_pos_as_xyz
  1  'x, y, z'
loop_
 _atom_site_type_symbol
 _atom_site_label
 _atom_site_symmetry_multiplicity
 _atom_site_fract_x
 _atom_site_fract_y
 _atom_site_fract_z
 _atom_site_occupancy
 _atom_site_charge
Mn  Mn1  1  0.76850000  0.30718000  0.14239000  1.0 1.0055505714
Mn  Mn2  1  0.30718000  0.76850000  0.35761000  1.0 1.0055505714
Mn  Mn3  1  0.23150000  0.69282000  0.85761000  1.0 1.0055505714
Mn  Mn4  1  0.69282000  0.23150000  0.64239000  1.0 1.0055505714
Nb  Nb1  1  0.29494000  0.29494000  0.25000000  1.0 0.7871127507
Nb  Nb2  1  0.70506000  0.70506000  0.75000000  1.0 0.7871127507
H  H1  1  0.70470000  0.09890000  0.05120000  1.0 0.39639289
H  H2  1  0.09890000  0.70470000  0.44880000  1.0 0.39639289
H  H3  1  0.29530000  0.90110000  0.94880000  1.0 0.39639289
H  H4  1  0.90110000  0.29530000  0.55120000  1.0 0.39639289
H  H5  1  0.75770000  0.17930000  0.96030000  1.0 0.39639289
H  H6  1  0.17930000  0.75770000  0.53970000  1.0 0.39639289
H  H7  1  0.24230000  0.82070000  0.03970000  1.0 0.39639289
H  H8  1  0.82070000  0.24230000  0.46030000  1.0 0.39639289
H  H9  1  0.72780000  0.11300000  0.31630000  1.0 0.3833710036
H  H10  1  0.11300000  0.72780000  0.18370000  1.0 0.3833710036
H  H11  1  0.27220000  0.88700000  0.68370000  1.0 0.3833710036
H  H12  1  0.88700000  0.27220000  0.81630000  1.0 0.3833710036
H  H13  1  0.86080000  0.11740000  0.32980000  1.0 0.3870872936
H  H14  1  0.11740000  0.86080000  0.17020000  1.0 0.3870872936
H  H15  1  0.13920000  0.88260000  0.67020000  1.0 0.3870872936
H  H16  1  0.88260000  0.13920000  0.82980000  1.0 0.3870872936
H  H17  1  0.72200000  0.49220000  0.42030000  1.0 0.1465209263
H  H18  1  0.49220000  0.72200000  0.07970000  1.0 0.1465209263
H  H19  1  0.27800000  0.50780000  0.57970000  1.0 0.1465209263
H  H20  1  0.50780000  0.27800000  0.92030000  1.0 0.1465209263
H  H21  1  0.63480000  0.57780000  0.07710000  1.0 0.1465209263
H  H22  1  0.57780000  0.63480000  0.42290000  1.0 0.1465209263
H  H23  1  0.36520000  0.42220000  0.92290000  1.0 0.1465209263
H  H24  1  0.42220000  0.36520000  0.57710000  1.0 0.1465209263
C  C1  1  0.08373000  0.31275000  0.20100000  1.0 0.0056487989
C  C2  1  0.31275000  0.08373000  0.29900000  1.0 0.0056487989
C  C3  1  0.91627000  0.68725000  0.79900000  1.0 0.0056487989
C  C4  1  0.68725000  0.91627000  0.70100000  1.0 0.0056487989
C  C5  1  0.23325000  0.22199000  0.08570000  1.0 -0.0494729945
C  C6  1  0.22199000  0.23325000  0.41430000  1.0 -0.0494729945
C  C7  1  0.76675000  0.77801000  0.91430000  1.0 -0.0494729945
C  C8  1  0.77801000  0.76675000  0.58570000  1.0 -0.0494729945
C  C9  1  0.46303000  0.26855000  0.40033000  1.0 -0.0171457858
C  C10  1  0.26855000  0.46303000  0.09967000  1.0 -0.0171457858
C  C11  1  0.53697000  0.73145000  0.59967000  1.0 -0.0171457858
C  C12  1  0.73145000  0.53697000  0.90033000  1.0 -0.0171457858
C  C13  1  0.47188000  0.29710000  0.18101000  1.0 -0.0357486106
C  C14  1  0.29710000  0.47188000  0.31899000  1.0 -0.0357486106
C  C15  1  0.52812000  0.70290000  0.81899000  1.0 -0.0357486106
C  C16  1  0.70290000  0.52812000  0.68101000  1.0 -0.0357486106
C  C17  1  0.67666000  0.53992000  0.35050000  1.0 -0.0702549157
C  C18  1  0.53992000  0.67666000  0.14950000  1.0 -0.0702549157
C  C19  1  0.32334000  0.46008000  0.64950000  1.0 -0.0702549157
C  C20  1  0.46008000  0.32334000  0.85050000  1.0 -0.0702549157
C  C21  1  0.62508000  0.59092000  0.14820000  1.0 -0.0646761314
C  C22  1  0.59092000  0.62508000  0.35180000  1.0 -0.0646761314
C  C23  1  0.37492000  0.40908000  0.85180000  1.0 -0.0646761314
C  C24  1  0.40908000  0.37492000  0.64820000  1.0 -0.0646761314
N  N1  1  0.97612000  0.31718000  0.17610000  1.0 -0.3369834193
N  N2  1  0.31718000  0.97612000  0.32390000  1.0 -0.3369834193
N  N3  1  0.02388000  0.68282000  0.82390000  1.0 -0.3369834193
N  N4  1  0.68282000  0.02388000  0.67610000  1.0 -0.3369834193
N  N5  1  0.20050000  0.18490000  0.00290000  1.0 -0.354136906
N  N6  1  0.18490000  0.20050000  0.49710000  1.0 -0.354136906
N  N7  1  0.79950000  0.81510000  0.99710000  1.0 -0.3576724449
N  N8  1  0.81510000  0.79950000  0.50290000  1.0 -0.354136906
N  N9  1  0.54748000  0.25640000  0.47896000  1.0 -0.3576724449
N  N10  1  0.25640000  0.54748000  0.02104000  1.0 -0.3576724449
N  N11  1  0.45252000  0.74360000  0.52104000  1.0 -0.3576724449
N  N12  1  0.74360000  0.45252000  0.97896000  1.0 -0.3576724449
N  N13  1  0.56232000  0.29864000  0.14752000  1.0 -0.3907500425
N  N14  1  0.29864000  0.56232000  0.35248000  1.0 -0.3907500425
N  N15  1  0.43768000  0.70136000  0.85248000  1.0 -0.3907500425
N  N16  1  0.70136000  0.43768000  0.64752000  1.0 -0.3907500425
N  N17  1  0.69559000  0.52493000  0.24827000  1.0 0.3329121998
N  N18  1  0.52493000  0.69559000  0.25173000  1.0 0.3329121998
N  N19  1  0.30441000  0.47507000  0.75173000  1.0 0.3329121998
N  N20  1  0.47507000  0.30441000  0.74827000  1.0 0.3329121998
O  O1  1  0.74719000  0.17039000  0.03410000  1.0 -0.7304477164
O  O2  1  0.17039000  0.74719000  0.46590000  1.0 -0.7304477164
O  O3  1  0.25281000  0.82961000  0.96590000  1.0 -0.7304477164
O  O4  1  0.82961000  0.25281000  0.53410000  1.0 -0.7304477164
O  O5  1  0.79296000  0.16648000  0.30850000  1.0 -0.6929999956
O  O6  1  0.16648000  0.79296000  0.19150000  1.0 -0.6929999956
O  O7  1  0.20704000  0.83352000  0.69150000  1.0 -0.6929999956
O  O8  1  0.83352000  0.20704000  0.80850000  1.0 -0.6929999956
O  O9  1  0.78279000  0.44753000  0.24826000  1.0 -0.4927810276
O  O10  1  0.44753000  0.78279000  0.25174000  1.0 -0.4927810276
O  O11  1  0.21721000  0.55247000  0.75174000  1.0 -0.4927810276
O  O12  1  0.55247000  0.21721000  0.74826000  1.0 -0.4927810276
