# DDEC6 charges by PACMAN v1.1 (https://github.com/mtap-research/PACMAN-charge/)
data_HIWLOQ_FSR_pacman
_symmetry_space_group_name_H-M   'P 1'
_cell_length_a   9.94620000
_cell_length_b   20.98530000
_cell_length_c   10.60980000
_cell_angle_alpha   90.00000000
_cell_angle_beta   101.33100000
_cell_angle_gamma   90.00000000
_symmetry_Int_Tables_number   1
_chemical_formula_structural   Zn3P4(HO3)4
_chemical_formula_sum   'Zn12 P16 H16 O48'
_cell_volume   2171.35548105
_cell_formula_units_Z   4
loop_
 _symmetry_equiv_pos_site_id
 _symmetry_equiv_pos_as_xyz
  1  'x, y, z'
loop_
 _atom_site_type_symbol
 _atom_site_label
 _atom_site_symmetry_multiplicity
 _atom_site_fract_x
 _atom_site_fract_y
 _atom_site_fract_z
 _atom_site_occupancy
 _atom_site_charge
Zn  Zn1  1  0.18191000  0.24014000  0.66402000  1.0 1.1011893765
Zn  Zn2  1  0.81809000  0.74014000  0.33598000  1.0 1.1011893765
Zn  Zn3  1  0.72915000  0.39071000  0.80533000  1.0 1.1433333174
Zn  Zn4  1  0.27085000  0.89071000  0.19467000  1.0 1.1433333174
Zn  Zn5  1  0.11934000  0.13599000  0.14441000  1.0 1.1279115812
Zn  Zn6  1  0.88066000  0.63599000  0.85559000  1.0 1.1279115812
Zn  Zn7  1  0.33433000  0.48587000  0.70983000  1.0 1.1279115812
Zn  Zn8  1  0.66567000  0.98587000  0.29017000  1.0 1.1249781267
Zn  Zn9  1  0.01064000  0.35846000  0.37849000  1.0 1.0777887122
Zn  Zn10  1  0.98936000  0.85846000  0.62151000  1.0 1.0777887122
Zn  Zn11  1  0.93513000  0.01741000  0.85873000  1.0 1.073395373
Zn  Zn12  1  0.06487000  0.51741000  0.14127000  1.0 1.073395373
P  P1  1  0.43104000  0.33921000  0.68123000  1.0 1.2440877573
P  P2  1  0.56896000  0.83921000  0.31877000  1.0 1.2440877573
P  P3  1  0.15629000  0.55614000  0.88189000  1.0 1.3419833199
P  P4  1  0.84371000  0.05614000  0.11811000  1.0 1.3419833199
P  P5  1  0.89960000  0.31748000  0.62634000  1.0 1.463747205
P  P6  1  0.10040000  0.81748000  0.37366000  1.0 1.463747205
P  P7  1  0.63547000  0.53597000  0.83651000  1.0 1.2440877573
P  P8  1  0.36453000  0.03597000  0.16349000  1.0 1.2455124275
P  P9  1  0.86870000  0.39819000  0.09747000  1.0 1.1875571625
P  P10  1  0.13130000  0.89819000  0.90253000  1.0 1.1875571625
P  P11  1  0.07627000  0.14477000  0.84610000  1.0 1.0576326267
P  P12  1  0.92373000  0.64477000  0.15390000  1.0 1.0576326267
P  P13  1  0.17886000  0.23431000  0.37878000  1.0 1.4076395647
P  P14  1  0.82114000  0.73431000  0.62122000  1.0 1.4076395647
P  P15  1  0.80046000  0.97766000  0.57885000  1.0 1.1279115812
P  P16  1  0.19954000  0.47766000  0.42115000  1.0 1.1279115812
H  H1  1  0.41660000  0.34480000  0.55150000  1.0 -0.1565051472
H  H2  1  0.58340000  0.84480000  0.44850000  1.0 -0.1565051472
H  H3  1  0.26140000  0.60290000  0.87700000  1.0 -0.1799512266
H  H4  1  0.73860000  0.10290000  0.12300000  1.0 -0.1799512266
H  H5  1  0.77970000  0.26580000  0.64840000  1.0 -0.1957776679
H  H6  1  0.22030000  0.76580000  0.35160000  1.0 -0.1957776679
H  H7  1  0.63600000  0.54070000  0.96500000  1.0 -0.1320246367
H  H8  1  0.36400000  0.04070000  0.03500000  1.0 -0.1320246367
H  H9  1  0.78470000  0.44310000  0.11290000  1.0 -0.1320246367
H  H10  1  0.21530000  0.94310000  0.88710000  1.0 -0.1320246367
H  H11  1  0.99150000  0.15490000  0.78500000  1.0 0.0665334442
H  H12  1  0.00850000  0.65490000  0.21500000  1.0 0.0665334442
H  H13  1  0.33250000  0.21950000  0.39030000  1.0 -0.1565051472
H  H14  1  0.66750000  0.71950000  0.60970000  1.0 -0.1565051472
H  H15  1  0.72270000  0.93540000  0.56920000  1.0 -0.0935552514
H  H16  1  0.27730000  0.43540000  0.43080000  1.0 -0.0935552514
O  O1  1  0.57710000  0.33641000  0.75240000  1.0 -0.6724374278
O  O2  1  0.42290000  0.83641000  0.24760000  1.0 -0.6724374278
O  O3  1  0.36380000  0.27599000  0.69730000  1.0 -0.6387707973
O  O4  1  0.63620000  0.77599000  0.30270000  1.0 -0.6387707973
O  O5  1  0.35120000  0.39444000  0.71700000  1.0 -0.6807872637
O  O6  1  0.64880000  0.89444000  0.28300000  1.0 -0.6807872637
O  O7  1  0.19900000  0.49719000  0.81840000  1.0 -0.6387707973
O  O8  1  0.80100000  0.99719000  0.18160000  1.0 -0.6338290556
O  O9  1  0.17480000  0.54940000  0.02530000  1.0 -0.6807872637
O  O10  1  0.82520000  0.04940000  0.97470000  1.0 -0.6807872637
O  O11  1  0.01290000  0.57400000  0.81750000  1.0 -0.6980296954
O  O12  1  0.98710000  0.07400000  0.18250000  1.0 -0.6980296954
O  O13  1  0.04180000  0.29854000  0.69610000  1.0 -0.7481157167
O  O14  1  0.95820000  0.79854000  0.30390000  1.0 -0.7481157167
O  O15  1  0.85570000  0.37672000  0.68980000  1.0 -0.6489480956
O  O16  1  0.14430000  0.87672000  0.31020000  1.0 -0.6489480956
O  O17  1  0.88780000  0.32417000  0.48370000  1.0 -0.707604958
O  O18  1  0.11220000  0.82417000  0.51630000  1.0 -0.707604958
O  O19  1  0.71070000  0.48092000  0.79140000  1.0 -0.685708551
O  O20  1  0.28930000  0.98092000  0.20860000  1.0 -0.685708551
O  O21  1  0.48590000  0.53910000  0.77830000  1.0 -0.6617496494
O  O22  1  0.51410000  0.03910000  0.22170000  1.0 -0.6617496494
O  O23  1  0.70100000  0.59941000  0.81940000  1.0 -0.6489480956
O  O24  1  0.29900000  0.09941000  0.18060000  1.0 -0.6387707973
O  O25  1  0.81280000  0.36066000  0.97610000  1.0 -0.6112543477
O  O26  1  0.18720000  0.86066000  0.02390000  1.0 -0.6112543477
O  O27  1  0.88460000  0.35418000  0.21360000  1.0 -0.6112543477
O  O28  1  0.11540000  0.85418000  0.78640000  1.0 -0.6112543477
O  O29  1  0.00050000  0.43262000  0.08820000  1.0 -0.6617496494
O  O30  1  0.99950000  0.93262000  0.91180000  1.0 -0.6617496494
O  O31  1  0.19200000  0.17396000  0.79310000  1.0 -0.5780159517
O  O32  1  0.80800000  0.67396000  0.20690000  1.0 -0.5780159517
O  O33  1  0.06240000  0.17318000  0.97420000  1.0 -0.6112543477
O  O34  1  0.93760000  0.67318000  0.02580000  1.0 -0.6112543477
O  O35  1  0.08880000  0.07272000  0.85130000  1.0 -0.6489480956
O  O36  1  0.91120000  0.57272000  0.14870000  1.0 -0.6489480956
O  O37  1  0.16970000  0.30570000  0.38450000  1.0 -0.7226410194
O  O38  1  0.83030000  0.80570000  0.61550000  1.0 -0.7226410194
O  O39  1  0.10060000  0.20724000  0.25500000  1.0 -0.6617496494
O  O40  1  0.89940000  0.70724000  0.74500000  1.0 -0.6617496494
O  O41  1  0.13420000  0.20227000  0.49410000  1.0 -0.707604958
O  O42  1  0.86580000  0.70227000  0.50590000  1.0 -0.707604958
O  O43  1  0.75140000  0.01699000  0.46060000  1.0 -0.5780159517
O  O44  1  0.24860000  0.51699000  0.53940000  1.0 -0.5780159517
O  O45  1  0.93500000  0.94533000  0.57150000  1.0 -0.6387707973
O  O46  1  0.06500000  0.44533000  0.42850000  1.0 -0.6387707973
O  O47  1  0.80700000  0.01740000  0.69620000  1.0 -0.6112543477
O  O48  1  0.19300000  0.51740000  0.30380000  1.0 -0.6112543477
