# DDEC6 charges by PACMAN v1.1 (https://github.com/mtap-research/PACMAN-charge/)
data_HIWLIK_ASR_pacman
_symmetry_space_group_name_H-M   'P 1'
_cell_length_a   10.37530000
_cell_length_b   12.40360000
_cell_length_c   15.76400000
_cell_angle_alpha   90.00000000
_cell_angle_beta   90.00000000
_cell_angle_gamma   90.00000000
_symmetry_Int_Tables_number   1
_chemical_formula_structural   Zn3P4(HO3)4
_chemical_formula_sum   'Zn12 P16 H16 O48'
_cell_volume   2028.68604451
_cell_formula_units_Z   4
loop_
 _symmetry_equiv_pos_site_id
 _symmetry_equiv_pos_as_xyz
  1  'x, y, z'
loop_
 _atom_site_type_symbol
 _atom_site_label
 _atom_site_symmetry_multiplicity
 _atom_site_fract_x
 _atom_site_fract_y
 _atom_site_fract_z
 _atom_site_occupancy
 _atom_site_charge
Zn  Zn1  1  0.05568000  0.73625000  0.40018000  1.0 1.1018601156
Zn  Zn2  1  0.94432000  0.26375000  0.90018000  1.0 1.1018601156
Zn  Zn3  1  0.55568000  0.26375000  0.40018000  1.0 1.1018601156
Zn  Zn4  1  0.44432000  0.73625000  0.90018000  1.0 1.1018601156
Zn  Zn5  1  0.75326000  0.08277000  0.08860000  1.0 1.1602861878
Zn  Zn6  1  0.24674000  0.91723000  0.58860000  1.0 1.166647116
Zn  Zn7  1  0.25326000  0.91723000  0.08860000  1.0 1.1602861878
Zn  Zn8  1  0.74674000  0.08277000  0.58860000  1.0 1.166647116
Zn  Zn9  1  0.75932000  0.40015000  0.21151000  1.0 1.1298720038
Zn  Zn10  1  0.24068000  0.59985000  0.71151000  1.0 1.1298720038
Zn  Zn11  1  0.25932000  0.59985000  0.21151000  1.0 1.1298720038
Zn  Zn12  1  0.74068000  0.40015000  0.71151000  1.0 1.1298720038
P  P1  1  0.53920000  0.93819000  0.00697000  1.0 1.1602861878
P  P2  1  0.46080000  0.06181000  0.50697000  1.0 1.1602861878
P  P3  1  0.03920000  0.06181000  0.00697000  1.0 1.1602861878
P  P4  1  0.96080000  0.93819000  0.50697000  1.0 1.1602861878
P  P5  1  0.71020000  0.32692000  0.01973000  1.0 1.1127280986
P  P6  1  0.28980000  0.67308000  0.51973000  1.0 1.1127280986
P  P7  1  0.21020000  0.67308000  0.01973000  1.0 1.1127280986
P  P8  1  0.78980000  0.32692000  0.51973000  1.0 1.1127280986
P  P9  1  0.76456000  0.16754000  0.27920000  1.0 1.2245426572
P  P10  1  0.23544000  0.83246000  0.77920000  1.0 1.2256085074
P  P11  1  0.26456000  0.83246000  0.27920000  1.0 1.2256085074
P  P12  1  0.73544000  0.16754000  0.77920000  1.0 1.2245426572
P  P13  1  0.97952000  0.53337000  0.29660000  1.0 1.2646921075
P  P14  1  0.02048000  0.46663000  0.79660000  1.0 1.2662681337
P  P15  1  0.47952000  0.46663000  0.29660000  1.0 1.2662681337
P  P16  1  0.52048000  0.53337000  0.79660000  1.0 1.2662681337
H  H1  1  0.55930000  0.01420000  0.95560000  1.0 -0.1133774721
H  H2  1  0.44070000  0.98580000  0.45560000  1.0 -0.1133774721
H  H3  1  0.05930000  0.98580000  0.95560000  1.0 -0.1133774721
H  H4  1  0.94070000  0.01420000  0.45560000  1.0 -0.1133774721
H  H5  1  0.62540000  0.36130000  0.97530000  1.0 -0.0584370287
H  H6  1  0.37460000  0.63870000  0.47530000  1.0 -0.0584370287
H  H7  1  0.12540000  0.63870000  0.97530000  1.0 -0.0584370287
H  H8  1  0.87460000  0.36130000  0.47530000  1.0 -0.0584370287
H  H9  1  0.83210000  0.12680000  0.34870000  1.0 -0.0826528051
H  H10  1  0.16790000  0.87320000  0.84870000  1.0 -0.0826528051
H  H11  1  0.33210000  0.87320000  0.34870000  1.0 -0.0826528051
H  H12  1  0.66790000  0.12680000  0.84870000  1.0 -0.0826528051
H  H13  1  0.95750000  0.45100000  0.35370000  1.0 -0.1235060596
H  H14  1  0.04250000  0.54900000  0.85370000  1.0 -0.1235060596
H  H15  1  0.45750000  0.54900000  0.35370000  1.0 -0.1235060596
H  H16  1  0.54250000  0.45100000  0.85370000  1.0 -0.1235060596
O  O1  1  0.63570000  0.95740000  0.07844000  1.0 -0.6023428643
O  O2  1  0.36430000  0.04260000  0.57844000  1.0 -0.6023428643
O  O3  1  0.13570000  0.04260000  0.07844000  1.0 -0.6023428643
O  O4  1  0.86430000  0.95740000  0.57844000  1.0 -0.6023428643
O  O5  1  0.40400000  0.97023000  0.03112000  1.0 -0.6501460576
O  O6  1  0.59600000  0.02977000  0.53112000  1.0 -0.6501460576
O  O7  1  0.90400000  0.02977000  0.03112000  1.0 -0.6501460576
O  O8  1  0.09600000  0.97023000  0.53112000  1.0 -0.6501460576
O  O9  1  0.55130000  0.82430000  0.97332000  1.0 -0.6316995227
O  O10  1  0.44870000  0.17570000  0.47332000  1.0 -0.6316995227
O  O11  1  0.05130000  0.17570000  0.97332000  1.0 -0.6316995227
O  O12  1  0.94870000  0.82430000  0.47332000  1.0 -0.6316995227
O  O13  1  0.70400000  0.39960000  0.09590000  1.0 -0.6023428643
O  O14  1  0.29600000  0.60040000  0.59590000  1.0 -0.6023428643
O  O15  1  0.20400000  0.60040000  0.09590000  1.0 -0.6023428643
O  O16  1  0.79600000  0.39960000  0.59590000  1.0 -0.6023428643
O  O17  1  0.68290000  0.21040000  0.03900000  1.0 -0.69629403
O  O18  1  0.31710000  0.78960000  0.53900000  1.0 -0.69629403
O  O19  1  0.18290000  0.78960000  0.03900000  1.0 -0.69629403
O  O20  1  0.81710000  0.21040000  0.53900000  1.0 -0.69629403
O  O21  1  0.82470000  0.34830000  0.96610000  1.0 -0.6501460576
O  O22  1  0.17530000  0.65170000  0.46610000  1.0 -0.6501460576
O  O23  1  0.32470000  0.65170000  0.96610000  1.0 -0.6501460576
O  O24  1  0.67530000  0.34830000  0.46610000  1.0 -0.6501460576
O  O25  1  0.83300000  0.27198000  0.25820000  1.0 -0.69629403
O  O26  1  0.16700000  0.72802000  0.75820000  1.0 -0.69629403
O  O27  1  0.33300000  0.72802000  0.25820000  1.0 -0.69629403
O  O28  1  0.66700000  0.27198000  0.75820000  1.0 -0.69629403
O  O29  1  0.77830000  0.08467000  0.20960000  1.0 -0.6190192604
O  O30  1  0.22170000  0.91533000  0.70960000  1.0 -0.6190192604
O  O31  1  0.27830000  0.91533000  0.20960000  1.0 -0.6190192604
O  O32  1  0.72170000  0.08467000  0.70960000  1.0 -0.6190192604
O  O33  1  0.62600000  0.18343000  0.30620000  1.0 -0.6869291568
O  O34  1  0.37400000  0.81657000  0.80620000  1.0 -0.6869291568
O  O35  1  0.12600000  0.81657000  0.30620000  1.0 -0.6869291568
O  O36  1  0.87400000  0.18343000  0.80620000  1.0 -0.6869291568
O  O37  1  0.89280000  0.51441000  0.22022000  1.0 -0.6190192604
O  O38  1  0.10720000  0.48559000  0.72022000  1.0 -0.6190192604
O  O39  1  0.39280000  0.48559000  0.22022000  1.0 -0.6190192604
O  O40  1  0.60720000  0.51441000  0.72022000  1.0 -0.6190192604
O  O41  1  0.12030000  0.53551000  0.27621000  1.0 -0.6869291568
O  O42  1  0.87970000  0.46449000  0.77621000  1.0 -0.6869291568
O  O43  1  0.62030000  0.46449000  0.27621000  1.0 -0.6869291568
O  O44  1  0.37970000  0.53551000  0.77621000  1.0 -0.6869291568
O  O45  1  0.93670000  0.63234000  0.34652000  1.0 -0.640027141
O  O46  1  0.06330000  0.36766000  0.84652000  1.0 -0.640027141
O  O47  1  0.43670000  0.36766000  0.34652000  1.0 -0.640027141
O  O48  1  0.56330000  0.63234000  0.84652000  1.0 -0.640027141
