# DDEC6 charges by PACMAN v1.1 (https://github.com/mtap-research/PACMAN-charge/)
data_HIXDOH_FSR_pacman
_symmetry_space_group_name_H-M   'P 1'
_cell_length_a   6.88600000
_cell_length_b   6.88600000
_cell_length_c   8.30000000
_cell_angle_alpha   90.00000000
_cell_angle_beta   90.00000000
_cell_angle_gamma   90.00000000
_symmetry_Int_Tables_number   1
_chemical_formula_structural   CuWC16(N2F5)2
_chemical_formula_sum   'Cu1 W1 C16 N4 F10'
_cell_volume   393.56106680
_cell_formula_units_Z   1
loop_
 _symmetry_equiv_pos_site_id
 _symmetry_equiv_pos_as_xyz
  1  'x, y, z'
loop_
 _atom_site_type_symbol
 _atom_site_label
 _atom_site_symmetry_multiplicity
 _atom_site_fract_x
 _atom_site_fract_y
 _atom_site_fract_z
 _atom_site_occupancy
 _atom_site_charge
Cu  Cu1  1  0.50000000  0.50000000  0.50000000  1.0 0.4197501331
W  W1  1  0.50000000  0.50000000  0.00000000  1.0 1.6459021657
C  C1  1  0.44050000  0.10000000  0.37240000  1.0 0.0310379802
C  C2  1  0.90000000  0.44050000  0.37240000  1.0 0.0310379802
C  C3  1  0.44050000  0.90000000  0.62760000  1.0 0.0310379802
C  C4  1  0.55950000  0.90000000  0.37240000  1.0 0.0310379802
C  C5  1  0.10000000  0.44050000  0.62760000  1.0 0.0310379802
C  C6  1  0.10000000  0.55950000  0.37240000  1.0 0.0310379802
C  C7  1  0.55950000  0.10000000  0.62760000  1.0 0.0310379802
C  C8  1  0.90000000  0.55950000  0.62760000  1.0 0.0310379802
C  C9  1  0.55950000  0.90000000  0.62760000  1.0 0.0310379802
C  C10  1  0.10000000  0.55950000  0.62760000  1.0 0.0310379802
C  C11  1  0.55950000  0.10000000  0.37240000  1.0 0.0310379802
C  C12  1  0.44050000  0.10000000  0.62760000  1.0 0.0310379802
C  C13  1  0.90000000  0.55950000  0.37240000  1.0 0.0310379802
C  C14  1  0.90000000  0.44050000  0.62760000  1.0 0.0310379802
C  C15  1  0.44050000  0.90000000  0.37240000  1.0 0.0310379802
C  C16  1  0.10000000  0.44050000  0.37240000  1.0 0.0310379802
N  N1  1  0.50000000  0.20060000  0.50000000  1.0 -0.1109171615
N  N2  1  0.79940000  0.50000000  0.50000000  1.0 -0.1109171615
N  N3  1  0.50000000  0.79940000  0.50000000  1.0 -0.1041976721
N  N4  1  0.20060000  0.50000000  0.50000000  1.0 -0.1041976721
F  F1  1  0.50000000  0.50000000  0.22960000  1.0 -0.6223465116
F  F2  1  0.50000000  0.50000000  0.77040000  1.0 -0.6223465116
F  F3  1  0.41810000  0.24110000  0.00000000  1.0 -0.1109171615
F  F4  1  0.75890000  0.41810000  0.00000000  1.0 -0.1109171615
F  F5  1  0.41810000  0.75890000  0.00000000  1.0 -0.1109171615
F  F6  1  0.58190000  0.75890000  0.00000000  1.0 -0.1109171615
F  F7  1  0.24110000  0.41810000  0.00000000  1.0 -0.1109171615
F  F8  1  0.24110000  0.58190000  0.00000000  1.0 -0.1109171615
F  F9  1  0.58190000  0.24110000  0.00000000  1.0 -0.1109171615
F  F10  1  0.75890000  0.58190000  0.00000000  1.0 -0.1109171615
