# DDEC6 charges by PACMAN v1.1 (https://github.com/mtap-research/PACMAN-charge/)
data_HIXDOH01_ASR_pacman
_symmetry_space_group_name_H-M   'P 1'
_cell_length_a   9.74500000
_cell_length_b   9.74500000
_cell_length_c   10.77420000
_cell_angle_alpha   63.11250000
_cell_angle_beta   63.11250000
_cell_angle_gamma   89.99990000
_symmetry_Int_Tables_number   1
_chemical_formula_structural   CuH7WC8(N2O)2
_chemical_formula_sum   'Cu2 H14 W2 C16 N8 O4'
_cell_volume   786.55153940
_cell_formula_units_Z   2
loop_
 _symmetry_equiv_pos_site_id
 _symmetry_equiv_pos_as_xyz
  1  'x, y, z'
loop_
 _atom_site_type_symbol
 _atom_site_label
 _atom_site_symmetry_multiplicity
 _atom_site_fract_x
 _atom_site_fract_y
 _atom_site_fract_z
 _atom_site_occupancy
 _atom_site_charge
Cu  Cu1  1  0.75000000  0.75000000  0.50000000  1.0 0.7205382665
Cu  Cu2  1  0.25000000  0.25000000  0.50000000  1.0 0.7205382665
H  H1  1  0.52916000  0.41640000  0.73895000  1.0 0.0590739686
H  H2  1  0.84464000  0.52916000  0.73895000  1.0 0.0590739686
H  H3  1  0.41640000  0.73188000  0.73895000  1.0 0.0590739686
H  H4  1  0.97084000  0.65536000  0.26105000  1.0 0.0590739686
H  H5  1  0.76812000  0.08360000  0.26105000  1.0 0.0590739686
H  H6  1  0.08360000  0.97084000  0.26105000  1.0 0.0590739686
H  H7  1  0.65536000  0.76812000  0.26105000  1.0 0.0590739686
H  H8  1  0.26812000  0.15536000  0.26105000  1.0 0.0590739686
H  H9  1  0.47084000  0.58360000  0.26105000  1.0 0.0590739686
H  H10  1  0.15536000  0.47084000  0.26105000  1.0 0.0590739686
H  H11  1  0.58360000  0.26812000  0.26105000  1.0 0.0590739686
H  H12  1  0.02916000  0.34464000  0.73895000  1.0 0.0590739686
H  H13  1  0.23188000  0.91640000  0.73895000  1.0 0.0590739686
H  H14  1  0.34464000  0.23188000  0.73895000  1.0 0.0590739686
W  W1  1  0.00000000  0.00000000  0.00000000  1.0 1.4025091608
W  W2  1  0.50000000  0.50000000  0.00000000  1.0 1.3884683331
C  C1  1  0.85490000  0.91530000  0.62800000  1.0 0.0716313427
C  C2  1  0.51710000  0.45670000  0.62800000  1.0 0.0380186154
C  C3  1  0.91530000  0.51710000  0.62800000  1.0 0.0380186154
C  C4  1  0.45670000  0.85490000  0.62800000  1.0 0.0380186154
C  C5  1  0.98290000  0.58470000  0.37200000  1.0 0.0380186154
C  C6  1  0.64510000  0.04330000  0.37200000  1.0 0.0380186154
C  C7  1  0.04330000  0.98290000  0.37200000  1.0 0.0346824718
C  C8  1  0.58470000  0.64510000  0.37200000  1.0 0.0380186154
C  C9  1  0.14510000  0.08470000  0.37200000  1.0 0.0380186154
C  C10  1  0.48290000  0.54330000  0.37200000  1.0 0.0380186154
C  C11  1  0.08470000  0.48290000  0.37200000  1.0 0.0380186154
C  C12  1  0.54330000  0.14510000  0.37200000  1.0 0.0380186154
C  C13  1  0.01710000  0.41530000  0.62800000  1.0 0.0380186154
C  C14  1  0.35490000  0.95670000  0.62800000  1.0 0.0380186154
C  C15  1  0.95670000  0.01710000  0.62800000  1.0 0.0716313427
C  C16  1  0.41530000  0.35490000  0.62800000  1.0 0.0380186154
N  N1  1  0.89960000  0.89960000  0.50000000  1.0 -0.1805232683
N  N2  1  0.60040000  0.60040000  0.50000000  1.0 -0.2006415993
N  N3  1  0.89960000  0.60040000  0.50000000  1.0 -0.2006415993
N  N4  1  0.60040000  0.89960000  0.50000000  1.0 -0.2006415993
N  N5  1  0.10040000  0.10040000  0.50000000  1.0 -0.1805232683
N  N6  1  0.39960000  0.39960000  0.50000000  1.0 -0.2006415993
N  N7  1  0.10040000  0.39960000  0.50000000  1.0 -0.2006415993
N  N8  1  0.39960000  0.10040000  0.50000000  1.0 -0.2006415993
O  O1  1  0.88570000  0.88570000  0.22860000  1.0 -1.04658132
O  O2  1  0.61430000  0.61430000  0.77140000  1.0 -1.0399330974
O  O3  1  0.11430000  0.11430000  0.77140000  1.0 -1.0399330974
O  O4  1  0.38570000  0.38570000  0.22860000  1.0 -1.0399330974
