# DDEC6 charges by PACMAN v1.1 (https://github.com/mtap-research/PACMAN-charge/)
data_HIXXAQ_FSR_pacman
_symmetry_space_group_name_H-M   'P 1'
_cell_length_a   8.70960000
_cell_length_b   23.13340000
_cell_length_c   17.90710000
_cell_angle_alpha   90.00000000
_cell_angle_beta   97.19380000
_cell_angle_gamma   90.00000000
_symmetry_Int_Tables_number   1
_chemical_formula_structural   CdH14C26(N3O2)2
_chemical_formula_sum   'Cd4 H56 C104 N24 O16'
_cell_volume   3579.56914168
_cell_formula_units_Z   4
loop_
 _symmetry_equiv_pos_site_id
 _symmetry_equiv_pos_as_xyz
  1  'x, y, z'
loop_
 _atom_site_type_symbol
 _atom_site_label
 _atom_site_symmetry_multiplicity
 _atom_site_fract_x
 _atom_site_fract_y
 _atom_site_fract_z
 _atom_site_occupancy
 _atom_site_charge
Cd  Cd1  1  0.82488000  0.55268000  0.48569000  1.0 0.8765890675
Cd  Cd2  1  0.17512000  0.05268000  0.01431000  1.0 0.8765890675
Cd  Cd3  1  0.17512000  0.44732000  0.51431000  1.0 0.8765890675
Cd  Cd4  1  0.82488000  0.94732000  0.98569000  1.0 0.8765890675
H  H1  1  0.58900000  0.45210000  0.67340000  1.0 0.1195994263
H  H2  1  0.54000000  0.38240000  0.75930000  1.0 0.1417276749
H  H3  1  0.99670000  0.37800000  0.64480000  1.0 0.1417276749
H  H4  1  0.77330000  0.21640000  0.91570000  1.0 0.1496554347
H  H5  1  0.86810000  0.13700000  0.98690000  1.0 0.1139186846
H  H6  1  0.21060000  0.11860000  0.86640000  1.0 0.1195994263
H  H7  1  0.13030000  0.19990000  0.79520000  1.0 0.1576055215
H  H8  1  0.58220000  0.19220000  0.02340000  1.0 0.1195994263
H  H9  1  0.72700000  0.27360000  0.06010000  1.0 0.1417276749
H  H10  1  0.31600000  0.21350000  0.18970000  1.0 0.1496554347
H  H11  1  0.76280000  0.44450000  0.23240000  1.0 0.1496554347
H  H12  1  0.84250000  0.51110000  0.32180000  1.0 0.1265681649
H  H13  1  0.57310000  0.44720000  0.45900000  1.0 0.1265681649
H  H14  1  0.49360000  0.37440000  0.37670000  1.0 0.1496554347
H  H15  1  0.41100000  0.95210000  0.82660000  1.0 0.1195994263
H  H16  1  0.46000000  0.88240000  0.74070000  1.0 0.1417276749
H  H17  1  0.00330000  0.87800000  0.85520000  1.0 0.1417276749
H  H18  1  0.22670000  0.71640000  0.58430000  1.0 0.1496554347
H  H19  1  0.13190000  0.63700000  0.51310000  1.0 0.1139186846
H  H20  1  0.78940000  0.61860000  0.63360000  1.0 0.1195994263
H  H21  1  0.86970000  0.69990000  0.70480000  1.0 0.1576055215
H  H22  1  0.41780000  0.69220000  0.47660000  1.0 0.1195994263
H  H23  1  0.27300000  0.77360000  0.43990000  1.0 0.1417276749
H  H24  1  0.68400000  0.71350000  0.31030000  1.0 0.1496554347
H  H25  1  0.23720000  0.94450000  0.26760000  1.0 0.1496554347
H  H26  1  0.15750000  0.01110000  0.17820000  1.0 0.1265681649
H  H27  1  0.42690000  0.94720000  0.04100000  1.0 0.1265681649
H  H28  1  0.50640000  0.87440000  0.12330000  1.0 0.1496554347
H  H29  1  0.41100000  0.54790000  0.32660000  1.0 0.1195994263
H  H30  1  0.46000000  0.61760000  0.24070000  1.0 0.1417276749
H  H31  1  0.00330000  0.62200000  0.35520000  1.0 0.1417276749
H  H32  1  0.22670000  0.78360000  0.08430000  1.0 0.1496554347
H  H33  1  0.13190000  0.86300000  0.01310000  1.0 0.1139186846
H  H34  1  0.78940000  0.88140000  0.13360000  1.0 0.1195994263
H  H35  1  0.86970000  0.80010000  0.20480000  1.0 0.1576055215
H  H36  1  0.41780000  0.80780000  0.97660000  1.0 0.1195994263
H  H37  1  0.27300000  0.72640000  0.93990000  1.0 0.1417276749
H  H38  1  0.68400000  0.78650000  0.81030000  1.0 0.1496554347
H  H39  1  0.23720000  0.55550000  0.76760000  1.0 0.1496554347
H  H40  1  0.15750000  0.48890000  0.67820000  1.0 0.1265681649
H  H41  1  0.42690000  0.55280000  0.54100000  1.0 0.1265681649
H  H42  1  0.50640000  0.62560000  0.62330000  1.0 0.1496554347
H  H43  1  0.58900000  0.04790000  0.17340000  1.0 0.1195994263
H  H44  1  0.54000000  0.11760000  0.25930000  1.0 0.1417276749
H  H45  1  0.99670000  0.12200000  0.14480000  1.0 0.1417276749
H  H46  1  0.77330000  0.28360000  0.41570000  1.0 0.1496554347
H  H47  1  0.86810000  0.36300000  0.48690000  1.0 0.1139186846
H  H48  1  0.21060000  0.38140000  0.36640000  1.0 0.1195994263
H  H49  1  0.13030000  0.30010000  0.29520000  1.0 0.1576055215
H  H50  1  0.58220000  0.30780000  0.52340000  1.0 0.1195994263
H  H51  1  0.72700000  0.22640000  0.56010000  1.0 0.1417276749
H  H52  1  0.31600000  0.28650000  0.68970000  1.0 0.1496554347
H  H53  1  0.76280000  0.05550000  0.73240000  1.0 0.1496554347
H  H54  1  0.84250000  0.98890000  0.82180000  1.0 0.1265681649
H  H55  1  0.57310000  0.05280000  0.95900000  1.0 0.1265681649
H  H56  1  0.49360000  0.12560000  0.87670000  1.0 0.1496554347
C  C1  1  0.82040000  0.46660000  0.59410000  1.0 0.5714228975
C  C2  1  0.79860000  0.42120000  0.65080000  1.0 -0.04587768
C  C3  1  0.66080000  0.42280000  0.68600000  1.0 -0.0927264568
C  C4  1  0.63190000  0.38230000  0.73780000  1.0 -0.1575046851
C  C5  1  0.74570000  0.34090000  0.75740000  1.0 0.1767803246
C  C6  1  0.88180000  0.33810000  0.72330000  1.0 0.1417276749
C  C7  1  0.90760000  0.37930000  0.66850000  1.0 -0.1462253583
C  C8  1  0.88960000  0.26670000  0.80040000  1.0 0.335625671
C  C9  1  0.94210000  0.21640000  0.84710000  1.0 0.078880517
C  C10  1  0.86250000  0.19760000  0.90520000  1.0 -0.1575046851
C  C11  1  0.92030000  0.14950000  0.94770000  1.0 0.0918914131
C  C12  1  0.12360000  0.13890000  0.87700000  1.0 0.0918914131
C  C13  1  0.07440000  0.18740000  0.83320000  1.0 -0.1462253583
C  C14  1  0.34800000  0.14240000  0.07460000  1.0 0.5540493654
C  C15  1  0.43380000  0.19660000  0.10220000  1.0 -0.0146494492
C  C16  1  0.55880000  0.21380000  0.06430000  1.0 -0.0927264568
C  C17  1  0.64700000  0.26140000  0.08610000  1.0 -0.1575046851
C  C18  1  0.60870000  0.29070000  0.15020000  1.0 0.1677007602
C  C19  1  0.48430000  0.27500000  0.18760000  1.0 0.1496554347
C  C20  1  0.39660000  0.22580000  0.16410000  1.0 -0.1403272842
C  C21  1  0.58550000  0.35020000  0.24360000  1.0 0.3070915567
C  C22  1  0.62700000  0.39790000  0.29530000  1.0 0.0720858352
C  C23  1  0.72680000  0.44270000  0.27910000  1.0 -0.1575046851
C  C24  1  0.77040000  0.48360000  0.33230000  1.0 0.0918914131
C  C25  1  0.61340000  0.44550000  0.41340000  1.0 0.0962825382
C  C26  1  0.56540000  0.40140000  0.36440000  1.0 -0.1575046851
C  C27  1  0.17960000  0.96660000  0.90590000  1.0 0.5714228975
C  C28  1  0.20140000  0.92120000  0.84920000  1.0 -0.04587768
C  C29  1  0.33920000  0.92280000  0.81400000  1.0 -0.0927264568
C  C30  1  0.36810000  0.88230000  0.76220000  1.0 -0.1575046851
C  C31  1  0.25430000  0.84090000  0.74260000  1.0 0.1767803246
C  C32  1  0.11820000  0.83810000  0.77670000  1.0 0.1417276749
C  C33  1  0.09240000  0.87930000  0.83150000  1.0 -0.1403272842
C  C34  1  0.11040000  0.76670000  0.69960000  1.0 0.335625671
C  C35  1  0.05790000  0.71640000  0.65290000  1.0 0.078880517
C  C36  1  0.13750000  0.69760000  0.59480000  1.0 -0.1575046851
C  C37  1  0.07970000  0.64950000  0.55230000  1.0 0.0918914131
C  C38  1  0.87640000  0.63890000  0.62300000  1.0 0.0918914131
C  C39  1  0.92560000  0.68740000  0.66680000  1.0 -0.1462253583
C  C40  1  0.65200000  0.64240000  0.42540000  1.0 0.5540493654
C  C41  1  0.56620000  0.69660000  0.39780000  1.0 -0.0158422141
C  C42  1  0.44120000  0.71380000  0.43570000  1.0 -0.0927264568
C  C43  1  0.35300000  0.76140000  0.41390000  1.0 -0.1575046851
C  C44  1  0.39130000  0.79070000  0.34980000  1.0 0.1677007602
C  C45  1  0.51570000  0.77500000  0.31240000  1.0 0.1496554347
C  C46  1  0.60340000  0.72580000  0.33590000  1.0 -0.1403272842
C  C47  1  0.41450000  0.85020000  0.25640000  1.0 0.3070915567
C  C48  1  0.37300000  0.89790000  0.20470000  1.0 0.0720858352
C  C49  1  0.27320000  0.94270000  0.22090000  1.0 -0.1575046851
C  C50  1  0.22960000  0.98360000  0.16770000  1.0 0.0918914131
C  C51  1  0.38660000  0.94550000  0.08660000  1.0 0.0962825382
C  C52  1  0.43460000  0.90140000  0.13560000  1.0 -0.1575046851
C  C53  1  0.17960000  0.53340000  0.40590000  1.0 0.5714228975
C  C54  1  0.20140000  0.57880000  0.34920000  1.0 -0.04587768
C  C55  1  0.33920000  0.57720000  0.31400000  1.0 -0.0927264568
C  C56  1  0.36810000  0.61770000  0.26220000  1.0 -0.1575046851
C  C57  1  0.25430000  0.65910000  0.24260000  1.0 0.1767803246
C  C58  1  0.11820000  0.66190000  0.27670000  1.0 0.1417276749
C  C59  1  0.09240000  0.62070000  0.33150000  1.0 -0.1403272842
C  C60  1  0.11040000  0.73330000  0.19960000  1.0 0.335625671
C  C61  1  0.05790000  0.78360000  0.15290000  1.0 0.078880517
C  C62  1  0.13750000  0.80240000  0.09480000  1.0 -0.1575046851
C  C63  1  0.07970000  0.85050000  0.05230000  1.0 0.0918914131
C  C64  1  0.87640000  0.86110000  0.12300000  1.0 0.0918914131
C  C65  1  0.92560000  0.81260000  0.16680000  1.0 -0.1462253583
C  C66  1  0.65200000  0.85760000  0.92540000  1.0 0.5540493654
C  C67  1  0.56620000  0.80340000  0.89780000  1.0 -0.0158422141
C  C68  1  0.44120000  0.78620000  0.93570000  1.0 -0.0927264568
C  C69  1  0.35300000  0.73860000  0.91390000  1.0 -0.1575046851
C  C70  1  0.39130000  0.70930000  0.84980000  1.0 0.1677007602
C  C71  1  0.51570000  0.72500000  0.81240000  1.0 0.1496554347
C  C72  1  0.60340000  0.77420000  0.83590000  1.0 -0.1403272842
C  C73  1  0.41450000  0.64980000  0.75640000  1.0 0.3070915567
C  C74  1  0.37300000  0.60210000  0.70470000  1.0 0.0720858352
C  C75  1  0.27320000  0.55730000  0.72090000  1.0 -0.1575046851
C  C76  1  0.22960000  0.51640000  0.66770000  1.0 0.0918914131
C  C77  1  0.38660000  0.55450000  0.58660000  1.0 0.0962825382
C  C78  1  0.43460000  0.59860000  0.63560000  1.0 -0.1575046851
C  C79  1  0.82040000  0.03340000  0.09410000  1.0 0.5714228975
C  C80  1  0.79860000  0.07880000  0.15080000  1.0 -0.04587768
C  C81  1  0.66080000  0.07720000  0.18600000  1.0 -0.0927264568
C  C82  1  0.63190000  0.11770000  0.23780000  1.0 -0.1575046851
C  C83  1  0.74570000  0.15910000  0.25740000  1.0 0.1767803246
C  C84  1  0.88180000  0.16190000  0.22330000  1.0 0.1417276749
C  C85  1  0.90760000  0.12070000  0.16850000  1.0 -0.1403272842
C  C86  1  0.88960000  0.23330000  0.30040000  1.0 0.335625671
C  C87  1  0.94210000  0.28360000  0.34710000  1.0 0.078880517
C  C88  1  0.86250000  0.30240000  0.40520000  1.0 -0.1575046851
C  C89  1  0.92030000  0.35050000  0.44770000  1.0 0.0918914131
C  C90  1  0.12360000  0.36110000  0.37700000  1.0 0.0918914131
C  C91  1  0.07440000  0.31260000  0.33320000  1.0 -0.1462253583
C  C92  1  0.34800000  0.35760000  0.57460000  1.0 0.5540493654
C  C93  1  0.43380000  0.30340000  0.60220000  1.0 -0.0146494492
C  C94  1  0.55880000  0.28620000  0.56430000  1.0 -0.0927264568
C  C95  1  0.64700000  0.23860000  0.58610000  1.0 -0.1575046851
C  C96  1  0.60870000  0.20930000  0.65020000  1.0 0.1677007602
C  C97  1  0.48430000  0.22500000  0.68760000  1.0 0.1496554347
C  C98  1  0.39660000  0.27420000  0.66410000  1.0 -0.1403272842
C  C99  1  0.58550000  0.14980000  0.74360000  1.0 0.3070915567
C  C100  1  0.62700000  0.10210000  0.79530000  1.0 0.0720858352
C  C101  1  0.72680000  0.05730000  0.77910000  1.0 -0.1575046851
C  C102  1  0.77040000  0.01640000  0.83230000  1.0 0.0918914131
C  C103  1  0.61340000  0.05450000  0.91340000  1.0 0.0962825382
C  C104  1  0.56540000  0.09860000  0.86440000  1.0 -0.1575046851
N  N1  1  0.04800000  0.12100000  0.93380000  1.0 -0.2369453291
N  N2  1  0.97200000  0.29070000  0.75050000  1.0 -0.3912860973
N  N3  1  0.75360000  0.29510000  0.80680000  1.0 -0.4008124618
N  N4  1  0.71550000  0.48640000  0.39870000  1.0 -0.2369453291
N  N5  1  0.47090000  0.31230000  0.24690000  1.0 -0.4008124618
N  N6  1  0.66870000  0.33970000  0.18570000  1.0 -0.3772636228
N  N7  1  0.95200000  0.62100000  0.56620000  1.0 -0.2369453291
N  N8  1  0.02800000  0.79070000  0.74950000  1.0 -0.3912860973
N  N9  1  0.24640000  0.79510000  0.69320000  1.0 -0.4008124618
N  N10  1  0.28450000  0.98640000  0.10130000  1.0 -0.2369453291
N  N11  1  0.52910000  0.81230000  0.25310000  1.0 -0.4008124618
N  N12  1  0.33130000  0.83970000  0.31430000  1.0 -0.3772636228
N  N13  1  0.95200000  0.87900000  0.06620000  1.0 -0.2369453291
N  N14  1  0.02800000  0.70930000  0.24950000  1.0 -0.3912860973
N  N15  1  0.24640000  0.70490000  0.19320000  1.0 -0.4008124618
N  N16  1  0.28450000  0.51360000  0.60130000  1.0 -0.2369453291
N  N17  1  0.52910000  0.68770000  0.75310000  1.0 -0.4008124618
N  N18  1  0.33130000  0.66030000  0.81430000  1.0 -0.3772636228
N  N19  1  0.04800000  0.37900000  0.43380000  1.0 -0.2369453291
N  N20  1  0.97200000  0.20930000  0.25050000  1.0 -0.3912860973
N  N21  1  0.75360000  0.20490000  0.30680000  1.0 -0.4008124618
N  N22  1  0.71550000  0.01360000  0.89870000  1.0 -0.2369453291
N  N23  1  0.47090000  0.18770000  0.74690000  1.0 -0.4008124618
N  N24  1  0.66870000  0.16030000  0.68570000  1.0 -0.3739975764
O  O1  1  0.93570000  0.46290000  0.55660000  1.0 -0.5891889406
O  O2  1  0.72500000  0.50800000  0.58460000  1.0 -0.5309506132
O  O3  1  0.23880000  0.12530000  0.10830000  1.0 -0.5352742745
O  O4  1  0.38580000  0.11720000  0.01720000  1.0 -0.549712546
O  O5  1  0.06430000  0.96290000  0.94340000  1.0 -0.5891889406
O  O6  1  0.27500000  0.00800000  0.91540000  1.0 -0.5309506132
O  O7  1  0.76120000  0.62530000  0.39170000  1.0 -0.5352742745
O  O8  1  0.61420000  0.61720000  0.48280000  1.0 -0.549712546
O  O9  1  0.06430000  0.53710000  0.44340000  1.0 -0.5891889406
O  O10  1  0.27500000  0.49200000  0.41540000  1.0 -0.5309506132
O  O11  1  0.76120000  0.87470000  0.89170000  1.0 -0.5352742745
O  O12  1  0.61420000  0.88280000  0.98280000  1.0 -0.549712546
O  O13  1  0.93570000  0.03710000  0.05660000  1.0 -0.5891889406
O  O14  1  0.72500000  0.99200000  0.08460000  1.0 -0.5309506132
O  O15  1  0.23880000  0.37470000  0.60830000  1.0 -0.5352742745
O  O16  1  0.38580000  0.38280000  0.51720000  1.0 -0.549712546
