# DDEC6 charges by PACMAN v1.1 (https://github.com/mtap-research/PACMAN-charge/)
data_HIYGIH_ASR_pacman
_symmetry_space_group_name_H-M   'P 1'
_cell_length_a   28.60020000
_cell_length_b   28.60020000
_cell_length_c   28.60020000
_cell_angle_alpha   121.03300000
_cell_angle_beta   121.03300000
_cell_angle_gamma   88.22060000
_symmetry_Int_Tables_number   1
_chemical_formula_structural   Cu3H12C30(N5O6)2
_chemical_formula_sum   'Cu24 H96 C240 N80 O96'
_cell_volume   16275.25293666
_cell_formula_units_Z   8
loop_
 _symmetry_equiv_pos_site_id
 _symmetry_equiv_pos_as_xyz
  1  'x, y, z'
loop_
 _atom_site_type_symbol
 _atom_site_label
 _atom_site_symmetry_multiplicity
 _atom_site_fract_x
 _atom_site_fract_y
 _atom_site_fract_z
 _atom_site_occupancy
 _atom_site_charge
Cu  Cu1  1  0.90921000  0.63314000  0.54235000  1.0 0.8546302724
Cu  Cu2  1  0.09079000  0.36686000  0.45765000  1.0 0.8546302724
Cu  Cu3  1  0.63314000  0.09079000  0.72393000  1.0 0.8578720498
Cu  Cu4  1  0.36686000  0.90921000  0.27607000  1.0 0.8546302724
Cu  Cu5  1  0.93040000  0.72477000  0.65517000  1.0 0.8797823099
Cu  Cu6  1  0.06960000  0.27523000  0.34483000  1.0 0.8797823099
Cu  Cu7  1  0.72477000  0.06960000  0.79437000  1.0 0.8797823099
Cu  Cu8  1  0.27523000  0.93040000  0.20563000  1.0 0.8797823099
Cu  Cu9  1  0.23762000  0.96434000  0.92816000  1.0 0.8797823099
Cu  Cu10  1  0.03618000  0.30946000  0.07184000  1.0 0.8797823099
Cu  Cu11  1  0.96434000  0.03618000  0.72672000  1.0 0.8797823099
Cu  Cu12  1  0.30946000  0.23762000  0.27328000  1.0 0.8797823099
Cu  Cu13  1  0.76238000  0.03566000  0.07184000  1.0 0.8797823099
Cu  Cu14  1  0.96382000  0.69054000  0.92816000  1.0 0.8797823099
Cu  Cu15  1  0.03566000  0.96382000  0.27328000  1.0 0.8797823099
Cu  Cu16  1  0.69054000  0.76238000  0.72672000  1.0 0.8797823099
Cu  Cu17  1  0.31720000  0.95185000  0.90479000  1.0 0.8578720498
Cu  Cu18  1  0.04706000  0.41241000  0.09521000  1.0 0.8578720498
Cu  Cu19  1  0.95185000  0.04706000  0.63465000  1.0 0.8578720498
Cu  Cu20  1  0.41241000  0.31720000  0.36535000  1.0 0.8578720498
Cu  Cu21  1  0.68280000  0.04815000  0.09521000  1.0 0.8578720498
Cu  Cu22  1  0.95294000  0.58759000  0.90479000  1.0 0.8578720498
Cu  Cu23  1  0.04815000  0.95294000  0.36535000  1.0 0.8578720498
Cu  Cu24  1  0.58759000  0.68280000  0.63465000  1.0 0.8578720498
H  H1  1  0.16050000  0.62140000  0.61430000  1.0 0.2923030998
H  H2  1  0.00710000  0.54620000  0.38570000  1.0 0.2923030998
H  H3  1  0.62140000  0.00710000  0.46090000  1.0 0.2923030998
H  H4  1  0.54620000  0.16050000  0.53910000  1.0 0.2923030998
H  H5  1  0.83950000  0.37860000  0.38570000  1.0 0.2923030998
H  H6  1  0.99290000  0.45380000  0.61430000  1.0 0.2923030998
H  H7  1  0.37860000  0.99290000  0.53910000  1.0 0.2923030998
H  H8  1  0.45380000  0.83950000  0.46090000  1.0 0.2923030998
H  H9  1  0.46050000  0.82760000  0.83830000  1.0 0.300717778
H  H10  1  0.98930000  0.62220000  0.16170000  1.0 0.300717778
H  H11  1  0.82760000  0.98930000  0.36710000  1.0 0.300717778
H  H12  1  0.62220000  0.46050000  0.63290000  1.0 0.300717778
H  H13  1  0.53950000  0.17240000  0.16170000  1.0 0.300717778
H  H14  1  0.01070000  0.37780000  0.83830000  1.0 0.300717778
H  H15  1  0.17240000  0.01070000  0.63290000  1.0 0.300717778
H  H16  1  0.37780000  0.53950000  0.36710000  1.0 0.300717778
H  H17  1  0.40610000  0.50750000  0.61740000  1.0 0.300717778
H  H18  1  0.89010000  0.78870000  0.38260000  1.0 0.300717778
H  H19  1  0.50750000  0.89010000  0.10140000  1.0 0.300717778
H  H20  1  0.78870000  0.40610000  0.89860000  1.0 0.300717778
H  H21  1  0.59390000  0.49250000  0.38260000  1.0 0.300717778
H  H22  1  0.10990000  0.21130000  0.61740000  1.0 0.300717778
H  H23  1  0.49250000  0.10990000  0.89860000  1.0 0.300717778
H  H24  1  0.21130000  0.59390000  0.10140000  1.0 0.300717778
H  H25  1  0.08570000  0.64600000  0.60690000  1.0 0.1313362778
H  H26  1  0.03910000  0.47880000  0.39310000  1.0 0.1313362778
H  H27  1  0.64600000  0.03910000  0.56030000  1.0 0.1313362778
H  H28  1  0.47880000  0.08570000  0.43970000  1.0 0.1313362778
H  H29  1  0.91430000  0.35400000  0.39310000  1.0 0.1313362778
H  H30  1  0.96090000  0.52120000  0.60690000  1.0 0.1313362778
H  H31  1  0.35400000  0.96090000  0.43970000  1.0 0.1313362778
H  H32  1  0.52120000  0.91430000  0.56030000  1.0 0.1313362778
H  H33  1  0.10990000  0.80540000  0.75350000  1.0 0.140126906
H  H34  1  0.05190000  0.35640000  0.24650000  1.0 0.140126906
H  H35  1  0.80540000  0.05190000  0.69550000  1.0 0.140126906
H  H36  1  0.35640000  0.10990000  0.30450000  1.0 0.140126906
H  H37  1  0.89010000  0.19460000  0.24650000  1.0 0.140126906
H  H38  1  0.94810000  0.64360000  0.75350000  1.0 0.140126906
H  H39  1  0.19460000  0.94810000  0.30450000  1.0 0.140126906
H  H40  1  0.64360000  0.89010000  0.69550000  1.0 0.140126906
H  H41  1  0.24200000  0.76350000  0.74630000  1.0 0.140126906
H  H42  1  0.01720000  0.49570000  0.25370000  1.0 0.140126906
H  H43  1  0.76350000  0.01720000  0.52150000  1.0 0.140126906
H  H44  1  0.49570000  0.24200000  0.47850000  1.0 0.140126906
H  H45  1  0.75800000  0.23650000  0.25370000  1.0 0.140126906
H  H46  1  0.98280000  0.50430000  0.74630000  1.0 0.140126906
H  H47  1  0.23650000  0.98280000  0.47850000  1.0 0.140126906
H  H48  1  0.50430000  0.75800000  0.52150000  1.0 0.140126906
H  H49  1  0.52040000  0.74610000  0.75050000  1.0 0.140126906
H  H50  1  0.99560000  0.76990000  0.24950000  1.0 0.140126906
H  H51  1  0.74610000  0.99560000  0.22570000  1.0 0.1453186828
H  H52  1  0.76990000  0.52040000  0.77430000  1.0 0.140126906
H  H53  1  0.47960000  0.25390000  0.24950000  1.0 0.140126906
H  H54  1  0.00440000  0.23010000  0.75050000  1.0 0.140126906
H  H55  1  0.25390000  0.00440000  0.77430000  1.0 0.140126906
H  H56  1  0.23010000  0.47960000  0.22570000  1.0 0.1453186828
H  H57  1  0.67360000  0.86830000  0.88790000  1.0 0.140126906
H  H58  1  0.98040000  0.78570000  0.11210000  1.0 0.140126906
H  H59  1  0.86830000  0.98040000  0.19470000  1.0 0.140126906
H  H60  1  0.78570000  0.67360000  0.80530000  1.0 0.140126906
H  H61  1  0.32640000  0.13170000  0.11210000  1.0 0.140126906
H  H62  1  0.01960000  0.21430000  0.88790000  1.0 0.140126906
H  H63  1  0.13170000  0.01960000  0.80530000  1.0 0.140126906
H  H64  1  0.21430000  0.32640000  0.19470000  1.0 0.140126906
H  H65  1  0.55560000  0.88790000  0.92470000  1.0 0.1313362778
H  H66  1  0.96320000  0.63090000  0.07530000  1.0 0.1313362778
H  H67  1  0.88790000  0.96320000  0.33230000  1.0 0.1313362778
H  H68  1  0.63090000  0.55560000  0.66770000  1.0 0.1313362778
H  H69  1  0.44440000  0.11210000  0.07530000  1.0 0.1313362778
H  H70  1  0.03680000  0.36910000  0.92470000  1.0 0.1313362778
H  H71  1  0.11210000  0.03680000  0.66770000  1.0 0.1313362778
H  H72  1  0.36910000  0.44440000  0.33230000  1.0 0.1313362778
H  H73  1  0.26700000  0.44740000  0.55240000  1.0 0.140126906
H  H74  1  0.89500000  0.71460000  0.44760000  1.0 0.140126906
H  H75  1  0.44740000  0.89500000  0.18040000  1.0 0.140126906
H  H76  1  0.71460000  0.26700000  0.81960000  1.0 0.140126906
H  H77  1  0.73300000  0.55260000  0.44760000  1.0 0.140126906
H  H78  1  0.10500000  0.28540000  0.55240000  1.0 0.140126906
H  H79  1  0.55260000  0.10500000  0.81960000  1.0 0.140126906
H  H80  1  0.28540000  0.73300000  0.18040000  1.0 0.140126906
H  H81  1  0.23660000  0.30370000  0.38570000  1.0 0.140126906
H  H82  1  0.91800000  0.85090000  0.61430000  1.0 0.140126906
H  H83  1  0.30370000  0.91800000  0.06710000  1.0 0.140126906
H  H84  1  0.85090000  0.23660000  0.93290000  1.0 0.140126906
H  H85  1  0.76340000  0.69630000  0.61430000  1.0 0.140126906
H  H86  1  0.08200000  0.14910000  0.38570000  1.0 0.140126906
H  H87  1  0.69630000  0.08200000  0.93290000  1.0 0.140126906
H  H88  1  0.14910000  0.76340000  0.06710000  1.0 0.140126906
H  H89  1  0.38510000  0.42930000  0.51220000  1.0 0.140126906
H  H90  1  0.91710000  0.87290000  0.48780000  1.0 0.140126906
H  H91  1  0.42930000  0.91710000  0.04420000  1.0 0.140126906
H  H92  1  0.87290000  0.38510000  0.95580000  1.0 0.140126906
H  H93  1  0.61490000  0.57070000  0.48780000  1.0 0.140126906
H  H94  1  0.08290000  0.12710000  0.51220000  1.0 0.140126906
H  H95  1  0.57070000  0.08290000  0.95580000  1.0 0.140126906
H  H96  1  0.12710000  0.61490000  0.04420000  1.0 0.140126906
C  C1  1  0.29370000  0.59860000  0.63750000  1.0 0.526286507
C  C2  1  0.96110000  0.65620000  0.36250000  1.0 0.526286507
C  C3  1  0.59860000  0.96110000  0.30490000  1.0 0.526286507
C  C4  1  0.65620000  0.29370000  0.69510000  1.0 0.526286507
C  C5  1  0.70630000  0.40140000  0.36250000  1.0 0.526286507
C  C6  1  0.03890000  0.34380000  0.63750000  1.0 0.526286507
C  C7  1  0.40140000  0.03890000  0.69510000  1.0 0.526286507
C  C8  1  0.34380000  0.70630000  0.30490000  1.0 0.526286507
C  C9  1  0.23810000  0.65470000  0.66140000  1.0 0.5199281258
C  C10  1  0.99330000  0.57670000  0.33860000  1.0 0.5199281258
C  C11  1  0.65470000  0.99330000  0.41660000  1.0 0.5199281258
C  C12  1  0.57670000  0.23810000  0.58340000  1.0 0.5199281258
C  C13  1  0.76190000  0.34530000  0.33860000  1.0 0.5199281258
C  C14  1  0.00670000  0.42330000  0.66140000  1.0 0.5199281258
C  C15  1  0.34530000  0.00670000  0.58340000  1.0 0.5199281258
C  C16  1  0.42330000  0.76190000  0.41660000  1.0 0.5199281258
C  C17  1  0.33550000  0.70440000  0.72410000  1.0 0.5199281258
C  C18  1  0.98030000  0.61140000  0.27590000  1.0 0.5199281258
C  C19  1  0.70440000  0.98030000  0.36890000  1.0 0.5199281258
C  C20  1  0.61140000  0.33550000  0.63110000  1.0 0.5199281258
C  C21  1  0.66450000  0.29560000  0.27590000  1.0 0.5199281258
C  C22  1  0.01970000  0.38860000  0.72410000  1.0 0.5199281258
C  C23  1  0.29560000  0.01970000  0.63110000  1.0 0.5199281258
C  C24  1  0.38860000  0.66450000  0.36890000  1.0 0.5199281258
C  C25  1  0.42650000  0.74870000  0.77300000  1.0 0.5140730548
C  C26  1  0.97570000  0.65350000  0.22700000  1.0 0.5199281258
C  C27  1  0.74870000  0.97570000  0.32220000  1.0 0.5140730548
C  C28  1  0.65350000  0.42650000  0.67780000  1.0 0.5199281258
C  C29  1  0.57350000  0.25130000  0.22700000  1.0 0.5199281258
C  C30  1  0.02430000  0.34650000  0.77300000  1.0 0.5140730548
C  C31  1  0.25130000  0.02430000  0.67780000  1.0 0.5140730548
C  C32  1  0.34650000  0.57350000  0.32220000  1.0 0.5140730548
C  C33  1  0.39870000  0.65190000  0.70260000  1.0 0.5371726263
C  C34  1  0.94930000  0.69610000  0.29740000  1.0 0.5371726263
C  C35  1  0.65190000  0.94930000  0.25320000  1.0 0.5371726263
C  C36  1  0.69610000  0.39870000  0.74680000  1.0 0.5371726263
C  C37  1  0.60130000  0.34810000  0.29740000  1.0 0.5371726263
C  C38  1  0.05070000  0.30390000  0.70260000  1.0 0.5371726263
C  C39  1  0.34810000  0.05070000  0.74680000  1.0 0.5371726263
C  C40  1  0.30390000  0.60130000  0.25320000  1.0 0.5371726263
C  C41  1  0.35940000  0.55400000  0.62700000  1.0 0.5199281258
C  C42  1  0.92700000  0.73240000  0.37300000  1.0 0.526286507
C  C43  1  0.55400000  0.92700000  0.19460000  1.0 0.526286507
C  C44  1  0.73240000  0.35940000  0.80540000  1.0 0.5199281258
C  C45  1  0.64060000  0.44600000  0.37300000  1.0 0.526286507
C  C46  1  0.07300000  0.26760000  0.62700000  1.0 0.5199281258
C  C47  1  0.44600000  0.07300000  0.80540000  1.0 0.5199281258
C  C48  1  0.26760000  0.64060000  0.19460000  1.0 0.5199281258
C  C49  1  0.16800000  0.69750000  0.67490000  1.0 0.2156057204
C  C50  1  0.02260000  0.49310000  0.32510000  1.0 0.2156057204
C  C51  1  0.69750000  0.02260000  0.52950000  1.0 0.2156057204
C  C52  1  0.49310000  0.16800000  0.47050000  1.0 0.2156057204
C  C53  1  0.83200000  0.30250000  0.32510000  1.0 0.2156057204
C  C54  1  0.97740000  0.50690000  0.67490000  1.0 0.2156057204
C  C55  1  0.30250000  0.97740000  0.47050000  1.0 0.2156057204
C  C56  1  0.50690000  0.83200000  0.52950000  1.0 0.2156057204
C  C57  1  0.10960000  0.68260000  0.64600000  1.0 -0.2195762643
C  C58  1  0.03660000  0.46360000  0.35400000  1.0 -0.2195762643
C  C59  1  0.68260000  0.03660000  0.57300000  1.0 -0.2195762643
C  C60  1  0.46360000  0.10960000  0.42700000  1.0 -0.2195762643
C  C61  1  0.89040000  0.31740000  0.35400000  1.0 -0.2195762643
C  C62  1  0.96340000  0.53640000  0.64600000  1.0 -0.2195762643
C  C63  1  0.31740000  0.96340000  0.42700000  1.0 -0.2195762643
C  C64  1  0.53640000  0.89040000  0.57300000  1.0 -0.2195762643
C  C65  1  0.08590000  0.72230000  0.67520000  1.0 -0.0205774938
C  C66  1  0.04710000  0.41070000  0.32480000  1.0 -0.0205774938
C  C67  1  0.72230000  0.04710000  0.63640000  1.0 -0.0205774938
C  C68  1  0.41070000  0.08590000  0.36360000  1.0 -0.0205774938
C  C69  1  0.91410000  0.27770000  0.32480000  1.0 -0.0205774938
C  C70  1  0.95290000  0.58930000  0.67520000  1.0 -0.0205774938
C  C71  1  0.27770000  0.95290000  0.36360000  1.0 -0.0205774938
C  C72  1  0.58930000  0.91410000  0.63640000  1.0 -0.0205774938
C  C73  1  0.12380000  0.77820000  0.73260000  1.0 -0.1018406155
C  C74  1  0.04560000  0.39120000  0.26740000  1.0 -0.1018406155
C  C75  1  0.77820000  0.04560000  0.65440000  1.0 -0.1018406155
C  C76  1  0.39120000  0.12380000  0.34560000  1.0 -0.1018406155
C  C77  1  0.87620000  0.22180000  0.26740000  1.0 -0.1018406155
C  C78  1  0.95440000  0.60880000  0.73260000  1.0 -0.1018406155
C  C79  1  0.22180000  0.95440000  0.34560000  1.0 -0.1069753378
C  C80  1  0.60880000  0.87620000  0.65440000  1.0 -0.1018406155
C  C81  1  0.18140000  0.79310000  0.75810000  1.0 -0.0044281232
C  C82  1  0.03500000  0.42330000  0.24190000  1.0 -0.0044281232
C  C83  1  0.79310000  0.03500000  0.61170000  1.0 -0.0044281232
C  C84  1  0.42330000  0.18140000  0.38830000  1.0 -0.0044281232
C  C85  1  0.81860000  0.20690000  0.24190000  1.0 -0.0044281232
C  C86  1  0.96500000  0.57670000  0.75810000  1.0 -0.0044281232
C  C87  1  0.20690000  0.96500000  0.38830000  1.0 -0.0044281232
C  C88  1  0.57670000  0.81860000  0.61170000  1.0 -0.0044281232
C  C89  1  0.20330000  0.75300000  0.72910000  1.0 -0.1512034838
C  C90  1  0.02390000  0.47420000  0.27090000  1.0 -0.1512034838
C  C91  1  0.75300000  0.02390000  0.54970000  1.0 -0.1512034838
C  C92  1  0.47420000  0.20330000  0.45030000  1.0 -0.1512034838
C  C93  1  0.79670000  0.24700000  0.27090000  1.0 -0.1512034838
C  C94  1  0.97610000  0.52580000  0.72910000  1.0 -0.1512034838
C  C95  1  0.24700000  0.97610000  0.45030000  1.0 -0.1512034838
C  C96  1  0.52580000  0.79670000  0.54970000  1.0 -0.1512034838
C  C97  1  0.02380000  0.70370000  0.64190000  1.0 0.561443794
C  C98  1  0.06180000  0.38190000  0.35810000  1.0 0.561443794
C  C99  1  0.70370000  0.06180000  0.67990000  1.0 0.561443794
C  C100  1  0.38190000  0.02380000  0.32010000  1.0 0.561443794
C  C101  1  0.97620000  0.29630000  0.35810000  1.0 0.561443794
C  C102  1  0.93820000  0.61810000  0.64190000  1.0 0.561443794
C  C103  1  0.29630000  0.93820000  0.32010000  1.0 0.561443794
C  C104  1  0.61810000  0.97620000  0.67990000  1.0 0.561443794
C  C105  1  0.21810000  0.85510000  0.81520000  1.0 0.5797806396
C  C106  1  0.03990000  0.40290000  0.18480000  1.0 0.5797806396
C  C107  1  0.85510000  0.03990000  0.63700000  1.0 0.5797806396
C  C108  1  0.40290000  0.21810000  0.36300000  1.0 0.5797806396
C  C109  1  0.78190000  0.14490000  0.18480000  1.0 0.5797806396
C  C110  1  0.96010000  0.59710000  0.81520000  1.0 0.5797806396
C  C111  1  0.14490000  0.96010000  0.36300000  1.0 0.5797806396
C  C112  1  0.59710000  0.78190000  0.63700000  1.0 0.5797806396
C  C113  1  0.52540000  0.81210000  0.83350000  1.0 0.2363997358
C  C114  1  0.97860000  0.69190000  0.16650000  1.0 0.2363997358
C  C115  1  0.81210000  0.97860000  0.28670000  1.0 0.2363997358
C  C116  1  0.69190000  0.52540000  0.71330000  1.0 0.2363997358
C  C117  1  0.47460000  0.18790000  0.16650000  1.0 0.2363997358
C  C118  1  0.02140000  0.30810000  0.83350000  1.0 0.2363997358
C  C119  1  0.18790000  0.02140000  0.71330000  1.0 0.2363997358
C  C120  1  0.30810000  0.47460000  0.28670000  1.0 0.2346016723
C  C121  1  0.54420000  0.78150000  0.79170000  1.0 -0.1418818939
C  C122  1  0.98980000  0.75250000  0.20830000  1.0 -0.1418818939
C  C123  1  0.78150000  0.98980000  0.23730000  1.0 -0.1418818939
C  C124  1  0.75250000  0.54420000  0.76270000  1.0 -0.1418818939
C  C125  1  0.45580000  0.21850000  0.20830000  1.0 -0.1418818939
C  C126  1  0.01020000  0.24750000  0.79170000  1.0 -0.1418818939
C  C127  1  0.21850000  0.01020000  0.76270000  1.0 -0.1418818939
C  C128  1  0.24750000  0.45580000  0.23730000  1.0 -0.1418818939
C  C129  1  0.59880000  0.80600000  0.81440000  1.0 -0.0205774938
C  C130  1  0.99160000  0.78440000  0.18560000  1.0 -0.0205774938
C  C131  1  0.80600000  0.99160000  0.20720000  1.0 -0.0205774938
C  C132  1  0.78440000  0.59880000  0.79280000  1.0 -0.0205774938
C  C133  1  0.40120000  0.19400000  0.18560000  1.0 -0.0205774938
C  C134  1  0.00840000  0.21560000  0.81440000  1.0 -0.0205774938
C  C135  1  0.19400000  0.00840000  0.79280000  1.0 -0.0205774938
C  C136  1  0.21560000  0.40120000  0.20720000  1.0 -0.0205774938
C  C137  1  0.63683000  0.85463000  0.87460000  1.0 -0.1018406155
C  C138  1  0.98003000  0.76223000  0.12540000  1.0 -0.1018406155
C  C139  1  0.85463000  0.98003000  0.21780000  1.0 -0.1018406155
C  C140  1  0.76223000  0.63683000  0.78220000  1.0 -0.1018406155
C  C141  1  0.36317000  0.14537000  0.12540000  1.0 -0.1018406155
C  C142  1  0.01997000  0.23777000  0.87460000  1.0 -0.1018406155
C  C143  1  0.14537000  0.01997000  0.78220000  1.0 -0.1018406155
C  C144  1  0.23777000  0.36317000  0.21780000  1.0 -0.1018406155
C  C145  1  0.62050000  0.88370000  0.91620000  1.0 -0.0205774938
C  C146  1  0.96750000  0.70430000  0.08380000  1.0 -0.0205774938
C  C147  1  0.88370000  0.96750000  0.26320000  1.0 -0.0205774938
C  C148  1  0.70430000  0.62050000  0.73680000  1.0 -0.0205774938
C  C149  1  0.37950000  0.11630000  0.08380000  1.0 -0.0258479654
C  C150  1  0.03250000  0.29570000  0.91620000  1.0 -0.0205774938
C  C151  1  0.11630000  0.03250000  0.73680000  1.0 -0.0205774938
C  C152  1  0.29570000  0.37950000  0.26320000  1.0 -0.0258479654
C  C153  1  0.56640000  0.86540000  0.89660000  1.0 -0.1795529858
C  C154  1  0.96880000  0.66980000  0.10340000  1.0 -0.1795529858
C  C155  1  0.86540000  0.96880000  0.29900000  1.0 -0.1795529858
C  C156  1  0.66980000  0.56640000  0.70100000  1.0 -0.1795529858
C  C157  1  0.43360000  0.13460000  0.10340000  1.0 -0.1795529858
C  C158  1  0.03120000  0.33020000  0.89660000  1.0 -0.1795529858
C  C159  1  0.13460000  0.03120000  0.70100000  1.0 -0.1795529858
C  C160  1  0.33020000  0.43360000  0.29900000  1.0 -0.1795529858
C  C161  1  0.61270000  0.77250000  0.76440000  1.0 0.5797806396
C  C162  1  0.00810000  0.84830000  0.23560000  1.0 0.5797806396
C  C163  1  0.77250000  0.00810000  0.15980000  1.0 0.5797806396
C  C164  1  0.84830000  0.61270000  0.84020000  1.0 0.5797806396
C  C165  1  0.38730000  0.22750000  0.23560000  1.0 0.5797806396
C  C166  1  0.99190000  0.15170000  0.76440000  1.0 0.5797806396
C  C167  1  0.22750000  0.99190000  0.84020000  1.0 0.5797806396
C  C168  1  0.15170000  0.38730000  0.15980000  1.0 0.5797806396
C  C169  1  0.65900000  0.94160000  0.98040000  1.0 0.5797806396
C  C170  1  0.96120000  0.67860000  0.01960000  1.0 0.5797806396
C  C171  1  0.94160000  0.96120000  0.28260000  1.0 0.5797806396
C  C172  1  0.67860000  0.65900000  0.71740000  1.0 0.5797806396
C  C173  1  0.34100000  0.05840000  0.01960000  1.0 0.5797806396
C  C174  1  0.03880000  0.32140000  0.98040000  1.0 0.5797806396
C  C175  1  0.05840000  0.03880000  0.71740000  1.0 0.5797806396
C  C176  1  0.32140000  0.34100000  0.28260000  1.0 0.5797806396
C  C177  1  0.33280000  0.44810000  0.54110000  1.0 0.2071093223
C  C178  1  0.90700000  0.79170000  0.45890000  1.0 0.2071093223
C  C179  1  0.44810000  0.90700000  0.11530000  1.0 0.2071093223
C  C180  1  0.79170000  0.33280000  0.88470000  1.0 0.2071093223
C  C181  1  0.66720000  0.55190000  0.45890000  1.0 0.2071093223
C  C182  1  0.09300000  0.20830000  0.54110000  1.0 0.2071093223
C  C183  1  0.55190000  0.09300000  0.88470000  1.0 0.2071093223
C  C184  1  0.20830000  0.66720000  0.11530000  1.0 0.2071093223
C  C185  1  0.27850000  0.42630000  0.52460000  1.0 -0.1418818939
C  C186  1  0.90170000  0.75390000  0.47540000  1.0 -0.1418818939
C  C187  1  0.42630000  0.90170000  0.14780000  1.0 -0.1418818939
C  C188  1  0.75390000  0.27850000  0.85220000  1.0 -0.1418818939
C  C189  1  0.72150000  0.57370000  0.47540000  1.0 -0.1418818939
C  C190  1  0.09830000  0.24610000  0.52460000  1.0 -0.1418818939
C  C191  1  0.57370000  0.09830000  0.85220000  1.0 -0.1418818939
C  C192  1  0.24610000  0.72150000  0.14780000  1.0 -0.1418818939
C  C193  1  0.24400000  0.37340000  0.46640000  1.0 -0.0205774938
C  C194  1  0.90700000  0.77760000  0.53360000  1.0 -0.0205774938
C  C195  1  0.37340000  0.90700000  0.12940000  1.0 -0.0205774938
C  C196  1  0.77760000  0.24400000  0.87060000  1.0 -0.0205774938
C  C197  1  0.75600000  0.62660000  0.53360000  1.0 -0.0205774938
C  C198  1  0.09300000  0.22240000  0.46640000  1.0 -0.0205774938
C  C199  1  0.62660000  0.09300000  0.87060000  1.0 -0.0205774938
C  C200  1  0.22240000  0.75600000  0.12940000  1.0 -0.0205774938
C  C201  1  0.26120000  0.33990000  0.42530000  1.0 -0.1069753378
C  C202  1  0.91460000  0.83590000  0.57470000  1.0 -0.1069753378
C  C203  1  0.33990000  0.91460000  0.07870000  1.0 -0.1069753378
C  C204  1  0.83590000  0.26120000  0.92130000  1.0 -0.1069753378
C  C205  1  0.73880000  0.66010000  0.57470000  1.0 -0.1069753378
C  C206  1  0.08540000  0.16410000  0.42530000  1.0 -0.1069753378
C  C207  1  0.66010000  0.08540000  0.92130000  1.0 -0.1069753378
C  C208  1  0.16410000  0.73880000  0.07870000  1.0 -0.1069753378
C  C209  1  0.31360000  0.36030000  0.44330000  1.0 -0.0044281232
C  C210  1  0.91700000  0.87030000  0.55670000  1.0 -0.0044281232
C  C211  1  0.36030000  0.91700000  0.04670000  1.0 -0.0044281232
C  C212  1  0.87030000  0.31360000  0.95330000  1.0 -0.0044281232
C  C213  1  0.68640000  0.63970000  0.55670000  1.0 -0.0044281232
C  C214  1  0.08300000  0.12970000  0.44330000  1.0 -0.0057406766
C  C215  1  0.63970000  0.08300000  0.95330000  1.0 -0.0044281232
C  C216  1  0.12970000  0.68640000  0.04670000  1.0 -0.0057406766
C  C217  1  0.34930000  0.41490000  0.50080000  1.0 -0.197396739
C  C218  1  0.91410000  0.84850000  0.49920000  1.0 -0.197396739
C  C219  1  0.41490000  0.91410000  0.06560000  1.0 -0.197396739
C  C220  1  0.84850000  0.34930000  0.93440000  1.0 -0.197396739
C  C221  1  0.65070000  0.58510000  0.49920000  1.0 -0.197396739
C  C222  1  0.08590000  0.15150000  0.50080000  1.0 -0.197396739
C  C223  1  0.58510000  0.08590000  0.93440000  1.0 -0.197396739
C  C224  1  0.15150000  0.65070000  0.06560000  1.0 -0.197396739
C  C225  1  0.18460000  0.35240000  0.44540000  1.0 0.5797806396
C  C226  1  0.90700000  0.73920000  0.55460000  1.0 0.5797806396
C  C227  1  0.35240000  0.90700000  0.16780000  1.0 0.5797806396
C  C228  1  0.73920000  0.18460000  0.83220000  1.0 0.5797806396
C  C229  1  0.81540000  0.64760000  0.55460000  1.0 0.5797806396
C  C230  1  0.09300000  0.26080000  0.44540000  1.0 0.5797806396
C  C231  1  0.64760000  0.09300000  0.83220000  1.0 0.5797806396
C  C232  1  0.26080000  0.81540000  0.16780000  1.0 0.5797806396
C  C233  1  0.33780000  0.33130000  0.40310000  1.0 0.561443794
C  C234  1  0.92820000  0.93470000  0.59690000  1.0 0.561443794
C  C235  1  0.33130000  0.92820000  0.99350000  1.0 0.561443794
C  C236  1  0.93470000  0.33780000  0.00650000  1.0 0.561443794
C  C237  1  0.66220000  0.66870000  0.59690000  1.0 0.561443794
C  C238  1  0.07180000  0.06530000  0.40310000  1.0 0.561443794
C  C239  1  0.66870000  0.07180000  0.00650000  1.0 0.561443794
C  C240  1  0.06530000  0.66220000  0.99350000  1.0 0.561443794
N  N1  1  0.34430000  0.65090000  0.68940000  1.0 -0.3035739032
N  N2  1  0.96150000  0.65490000  0.31060000  1.0 -0.3098170097
N  N3  1  0.65090000  0.96150000  0.30660000  1.0 -0.3098170097
N  N4  1  0.65490000  0.34430000  0.69340000  1.0 -0.3098170097
N  N5  1  0.65570000  0.34910000  0.31060000  1.0 -0.3098170097
N  N6  1  0.03850000  0.34510000  0.68940000  1.0 -0.3035739032
N  N7  1  0.34910000  0.03850000  0.69340000  1.0 -0.3035739032
N  N8  1  0.34510000  0.65570000  0.30660000  1.0 -0.3035739032
N  N9  1  0.24570000  0.60180000  0.62810000  1.0 -0.5212456638
N  N10  1  0.97370000  0.61760000  0.37190000  1.0 -0.5266889387
N  N11  1  0.60180000  0.97370000  0.35610000  1.0 -0.5266889387
N  N12  1  0.61760000  0.24570000  0.64390000  1.0 -0.5212456638
N  N13  1  0.75430000  0.39820000  0.37190000  1.0 -0.5266889387
N  N14  1  0.02630000  0.38240000  0.62810000  1.0 -0.5212456638
N  N15  1  0.39820000  0.02630000  0.64390000  1.0 -0.5266889387
N  N16  1  0.38240000  0.75430000  0.35610000  1.0 -0.5266889387
N  N17  1  0.28450000  0.70550000  0.70840000  1.0 -0.4844953907
N  N18  1  0.99710000  0.57610000  0.29160000  1.0 -0.488474997
N  N19  1  0.70550000  0.99710000  0.42100000  1.0 -0.4844953907
N  N20  1  0.57610000  0.28450000  0.57900000  1.0 -0.488474997
N  N21  1  0.71550000  0.29450000  0.29160000  1.0 -0.4844953907
N  N22  1  0.00290000  0.42390000  0.70840000  1.0 -0.488474997
N  N23  1  0.29450000  0.00290000  0.57900000  1.0 -0.488474997
N  N24  1  0.42390000  0.71550000  0.42100000  1.0 -0.488474997
N  N25  1  0.37600000  0.75150000  0.76530000  1.0 -0.5101017222
N  N26  1  0.98620000  0.61070000  0.23470000  1.0 -0.5212456638
N  N27  1  0.75150000  0.98620000  0.37550000  1.0 -0.5101017222
N  N28  1  0.61070000  0.37600000  0.62450000  1.0 -0.5212456638
N  N29  1  0.62400000  0.24850000  0.23470000  1.0 -0.5101017222
N  N30  1  0.01380000  0.38930000  0.76530000  1.0 -0.5101017222
N  N31  1  0.24850000  0.01380000  0.62450000  1.0 -0.5101017222
N  N32  1  0.38930000  0.62400000  0.37550000  1.0 -0.5101017222
N  N33  1  0.44190000  0.70040000  0.74530000  1.0 -0.5013412268
N  N34  1  0.95510000  0.69660000  0.25470000  1.0 -0.5101017222
N  N35  1  0.70040000  0.95510000  0.25850000  1.0 -0.5013412268
N  N36  1  0.69660000  0.44190000  0.74150000  1.0 -0.5101017222
N  N37  1  0.55810000  0.29960000  0.25470000  1.0 -0.5101017222
N  N38  1  0.04490000  0.30340000  0.74530000  1.0 -0.5013412268
N  N39  1  0.29960000  0.04490000  0.74150000  1.0 -0.5101017222
N  N40  1  0.30340000  0.55810000  0.25850000  1.0 -0.5013412268
N  N41  1  0.40870000  0.60330000  0.67580000  1.0 -0.5426813071
N  N42  1  0.92750000  0.73290000  0.32420000  1.0 -0.5426813071
N  N43  1  0.60330000  0.92750000  0.19460000  1.0 -0.5426813071
N  N44  1  0.73290000  0.40870000  0.80540000  1.0 -0.5426813071
N  N45  1  0.59130000  0.39670000  0.32420000  1.0 -0.5426813071
N  N46  1  0.07250000  0.26710000  0.67580000  1.0 -0.5426813071
N  N47  1  0.39670000  0.07250000  0.80540000  1.0 -0.5426813071
N  N48  1  0.26710000  0.59130000  0.19460000  1.0 -0.5426813071
N  N49  1  0.30360000  0.55120000  0.60860000  1.0 -0.488474997
N  N50  1  0.94260000  0.69500000  0.39140000  1.0 -0.488474997
N  N51  1  0.55120000  0.94260000  0.24760000  1.0 -0.488474997
N  N52  1  0.69500000  0.30360000  0.75240000  1.0 -0.488474997
N  N53  1  0.69640000  0.44880000  0.39140000  1.0 -0.488474997
N  N54  1  0.05740000  0.30500000  0.60860000  1.0 -0.488474997
N  N55  1  0.44880000  0.05740000  0.75240000  1.0 -0.488474997
N  N56  1  0.30500000  0.69640000  0.24760000  1.0 -0.488474997
N  N57  1  0.18680000  0.65440000  0.64700000  1.0 -0.3098170097
N  N58  1  0.00740000  0.53980000  0.35300000  1.0 -0.3098170097
N  N59  1  0.65440000  0.00740000  0.46760000  1.0 -0.3098170097
N  N60  1  0.53980000  0.18680000  0.53240000  1.0 -0.3195220973
N  N61  1  0.81320000  0.34560000  0.35300000  1.0 -0.3195220973
N  N62  1  0.99260000  0.46020000  0.64700000  1.0 -0.3195220973
N  N63  1  0.34560000  0.99260000  0.53240000  1.0 -0.3195220973
N  N64  1  0.46020000  0.81320000  0.46760000  1.0 -0.3195220973
N  N65  1  0.46870000  0.79850000  0.81660000  1.0 -0.3369892766
N  N66  1  0.98190000  0.65210000  0.18340000  1.0 -0.3369892766
N  N67  1  0.79850000  0.98190000  0.32980000  1.0 -0.3369892766
N  N68  1  0.65210000  0.46870000  0.67020000  1.0 -0.3369892766
N  N69  1  0.53130000  0.20150000  0.18340000  1.0 -0.3369892766
N  N70  1  0.01810000  0.34790000  0.81660000  1.0 -0.3369892766
N  N71  1  0.20150000  0.01810000  0.67020000  1.0 -0.3369892766
N  N72  1  0.34790000  0.53130000  0.32980000  1.0 -0.3369892766
N  N73  1  0.37010000  0.50430000  0.59780000  1.0 -0.3195220973
N  N74  1  0.90650000  0.77230000  0.40220000  1.0 -0.3195220973
N  N75  1  0.50430000  0.90650000  0.13420000  1.0 -0.3195220973
N  N76  1  0.77230000  0.37010000  0.86580000  1.0 -0.3195220973
N  N77  1  0.62990000  0.49570000  0.40220000  1.0 -0.3195220973
N  N78  1  0.09350000  0.22770000  0.59780000  1.0 -0.3195220973
N  N79  1  0.49570000  0.09350000  0.86580000  1.0 -0.3195220973
N  N80  1  0.22770000  0.62990000  0.13420000  1.0 -0.3195220973
O  O1  1  0.98983000  0.65963000  0.58440000  1.0 -0.5101017222
O  O2  1  0.07523000  0.40543000  0.41560000  1.0 -0.5101017222
O  O3  1  0.65963000  0.07523000  0.66980000  1.0 -0.5101017222
O  O4  1  0.40543000  0.98983000  0.33020000  1.0 -0.5101017222
O  O5  1  0.01017000  0.34037000  0.41560000  1.0 -0.5101017222
O  O6  1  0.92477000  0.59457000  0.58440000  1.0 -0.5101017222
O  O7  1  0.34037000  0.92477000  0.33020000  1.0 -0.5101017222
O  O8  1  0.59457000  0.01017000  0.66980000  1.0 -0.5013412268
O  O9  1  0.00916000  0.73810000  0.68086000  1.0 -0.5510906992
O  O10  1  0.05724000  0.32830000  0.31914000  1.0 -0.5510906992
O  O11  1  0.73810000  0.05724000  0.72894000  1.0 -0.5510906992
O  O12  1  0.32830000  0.00916000  0.27106000  1.0 -0.5510906992
O  O13  1  0.99084000  0.26190000  0.31914000  1.0 -0.5510906992
O  O14  1  0.94276000  0.67170000  0.68086000  1.0 -0.5510906992
O  O15  1  0.26190000  0.94276000  0.27106000  1.0 -0.5510906992
O  O16  1  0.67170000  0.99084000  0.72894000  1.0 -0.5510906992
O  O17  1  0.19586000  0.88475000  0.84711000  1.0 -0.5510906992
O  O18  1  0.03764000  0.34875000  0.15289000  1.0 -0.5510906992
O  O19  1  0.88475000  0.03764000  0.68889000  1.0 -0.5510906992
O  O20  1  0.34875000  0.19586000  0.31111000  1.0 -0.5510906992
O  O21  1  0.80414000  0.11525000  0.15289000  1.0 -0.5510906992
O  O22  1  0.96236000  0.65125000  0.84711000  1.0 -0.5510906992
O  O23  1  0.11525000  0.96236000  0.31111000  1.0 -0.5510906992
O  O24  1  0.65125000  0.80414000  0.68889000  1.0 -0.5510906992
O  O25  1  0.26594000  0.87233000  0.83109000  1.0 -0.488474997
O  O26  1  0.04124000  0.43485000  0.16891000  1.0 -0.488474997
O  O27  1  0.87233000  0.04124000  0.60639000  1.0 -0.488474997
O  O28  1  0.43485000  0.26594000  0.39361000  1.0 -0.488474997
O  O29  1  0.73406000  0.12767000  0.16891000  1.0 -0.488474997
O  O30  1  0.95876000  0.56515000  0.83109000  1.0 -0.488474997
O  O31  1  0.12767000  0.95876000  0.39361000  1.0 -0.488474997
O  O32  1  0.56515000  0.73406000  0.60639000  1.0 -0.488474997
O  O33  1  0.57414000  0.72729000  0.70421000  1.0 -0.5426813071
O  O34  1  0.02308000  0.86993000  0.29579000  1.0 -0.5426813071
O  O35  1  0.72729000  0.02308000  0.15315000  1.0 -0.5426813071
O  O36  1  0.86993000  0.57414000  0.84685000  1.0 -0.5426813071
O  O37  1  0.42586000  0.27271000  0.29579000  1.0 -0.5426813071
O  O38  1  0.97692000  0.13007000  0.70421000  1.0 -0.5426813071
O  O39  1  0.27271000  0.97692000  0.84685000  1.0 -0.5426813071
O  O40  1  0.13007000  0.42586000  0.15315000  1.0 -0.5426813071
O  O41  1  0.66266000  0.79107000  0.78321000  1.0 -0.5101017222
O  O42  1  0.00786000  0.87945000  0.21679000  1.0 -0.5101017222
O  O43  1  0.79107000  0.00786000  0.12841000  1.0 -0.5101017222
O  O44  1  0.87945000  0.66266000  0.87159000  1.0 -0.5101017222
O  O45  1  0.33734000  0.20893000  0.21679000  1.0 -0.5101017222
O  O46  1  0.99214000  0.12055000  0.78321000  1.0 -0.5101017222
O  O47  1  0.20893000  0.99214000  0.87159000  1.0 -0.5101017222
O  O48  1  0.12055000  0.33734000  0.12841000  1.0 -0.5101017222
O  O49  1  0.70777000  0.95910000  0.99347000  1.0 -0.5266889387
O  O50  1  0.96563000  0.71430000  0.00653000  1.0 -0.5266889387
O  O51  1  0.95910000  0.96563000  0.25133000  1.0 -0.5266889387
O  O52  1  0.71430000  0.70777000  0.74867000  1.0 -0.5266889387
O  O53  1  0.29223000  0.04090000  0.00653000  1.0 -0.5266889387
O  O54  1  0.03437000  0.28570000  0.99347000  1.0 -0.5266889387
O  O55  1  0.04090000  0.03437000  0.74867000  1.0 -0.5266889387
O  O56  1  0.28570000  0.29223000  0.25133000  1.0 -0.5266889387
O  O57  1  0.64287000  0.96851000  0.01792000  1.0 -0.5212456638
O  O58  1  0.95059000  0.62495000  0.98208000  1.0 -0.5212456638
O  O59  1  0.96851000  0.95059000  0.32564000  1.0 -0.5212456638
O  O60  1  0.62495000  0.64287000  0.67436000  1.0 -0.5212456638
O  O61  1  0.35713000  0.03149000  0.98208000  1.0 -0.5212456638
O  O62  1  0.04941000  0.37505000  0.01792000  1.0 -0.5212456638
O  O63  1  0.03149000  0.04941000  0.67436000  1.0 -0.5212456638
O  O64  1  0.37505000  0.35713000  0.32564000  1.0 -0.5212456638
O  O65  1  0.16934000  0.38183000  0.48171000  1.0 -0.5013412268
O  O66  1  0.90012000  0.68763000  0.51829000  1.0 -0.5013412268
O  O67  1  0.38183000  0.90012000  0.21249000  1.0 -0.5013412268
O  O68  1  0.68763000  0.16934000  0.78751000  1.0 -0.5013412268
O  O69  1  0.83066000  0.61817000  0.51829000  1.0 -0.5013412268
O  O70  1  0.09988000  0.31237000  0.48171000  1.0 -0.5013412268
O  O71  1  0.61817000  0.09988000  0.78751000  1.0 -0.5013412268
O  O72  1  0.31237000  0.83066000  0.21249000  1.0 -0.5013412268
O  O73  1  0.15199000  0.30489000  0.38950000  1.0 -0.5101017222
O  O74  1  0.91539000  0.76249000  0.61050000  1.0 -0.5101017222
O  O75  1  0.30489000  0.91539000  0.15290000  1.0 -0.5101017222
O  O76  1  0.76249000  0.15199000  0.84710000  1.0 -0.5101017222
O  O77  1  0.84801000  0.69511000  0.61050000  1.0 -0.5101017222
O  O78  1  0.08461000  0.23751000  0.38950000  1.0 -0.5101017222
O  O79  1  0.69511000  0.08461000  0.84710000  1.0 -0.5101017222
O  O80  1  0.23751000  0.84801000  0.15290000  1.0 -0.5101017222
O  O81  1  0.29821000  0.28171000  0.34570000  1.0 -0.5510906992
O  O82  1  0.93601000  0.95251000  0.65430000  1.0 -0.5510906992
O  O83  1  0.28171000  0.93601000  0.98350000  1.0 -0.5510906992
O  O84  1  0.95251000  0.29821000  0.01650000  1.0 -0.5510906992
O  O85  1  0.70179000  0.71829000  0.65430000  1.0 -0.5510906992
O  O86  1  0.06399000  0.04749000  0.34570000  1.0 -0.5510906992
O  O87  1  0.71829000  0.06399000  0.01650000  1.0 -0.5510906992
O  O88  1  0.04749000  0.70179000  0.98350000  1.0 -0.5510906992
O  O89  1  0.38339000  0.35039000  0.41940000  1.0 -0.4444144559
O  O90  1  0.93099000  0.96399000  0.58060000  1.0 -0.4481199958
O  O91  1  0.35039000  0.93099000  0.96700000  1.0 -0.4481199958
O  O92  1  0.96399000  0.38339000  0.03300000  1.0 -0.4481199958
O  O93  1  0.61661000  0.64961000  0.58060000  1.0 -0.4481199958
O  O94  1  0.06901000  0.03601000  0.41940000  1.0 -0.4481199958
O  O95  1  0.64961000  0.06901000  0.03300000  1.0 -0.4481199958
O  O96  1  0.03601000  0.61661000  0.96700000  1.0 -0.4481199958
