# DDEC6 charges by PACMAN v1.1 (https://github.com/mtap-research/PACMAN-charge/)
data_HIYHUV_ASR_pacman
_symmetry_space_group_name_H-M   'P 1'
_cell_length_a   19.62060000
_cell_length_b   23.88070000
_cell_length_c   22.15370000
_cell_angle_alpha   90.00000000
_cell_angle_beta   122.72800000
_cell_angle_gamma   90.00000000
_symmetry_Int_Tables_number   1
_chemical_formula_structural   Mn5H96C190(N6O11)4
_chemical_formula_sum   'Mn10 H192 C380 N48 O88'
_cell_volume   8732.30639085
_cell_formula_units_Z   2
loop_
 _symmetry_equiv_pos_site_id
 _symmetry_equiv_pos_as_xyz
  1  'x, y, z'
loop_
 _atom_site_type_symbol
 _atom_site_label
 _atom_site_symmetry_multiplicity
 _atom_site_fract_x
 _atom_site_fract_y
 _atom_site_fract_z
 _atom_site_occupancy
 _atom_site_charge
Mn  Mn1  1  0.28955000  0.36482000  0.75027000  1.0 0.762417273
Mn  Mn2  1  0.83374000  0.60007000  0.43915000  1.0 0.7693502916
Mn  Mn3  1  0.71045000  0.86482000  0.74973000  1.0 0.762417273
Mn  Mn4  1  0.16626000  0.10007000  0.06085000  1.0 0.7693502916
Mn  Mn5  1  0.71045000  0.63518000  0.24973000  1.0 0.762417273
Mn  Mn6  1  0.16626000  0.39993000  0.56085000  1.0 0.7693502916
Mn  Mn7  1  0.28955000  0.13518000  0.25027000  1.0 0.762417273
Mn  Mn8  1  0.83374000  0.89993000  0.93915000  1.0 0.7693502916
Mn  Mn9  1  0.00000000  0.00000000  0.00000000  1.0 0.9337423308
Mn  Mn10  1  0.00000000  0.50000000  0.50000000  1.0 0.9337423308
H  H1  1  0.98620000  0.15910000  0.65260000  1.0 0.0999608701
H  H2  1  0.10430000  0.18850000  0.66200000  1.0 0.1093391733
H  H3  1  0.00530000  0.34010000  0.58680000  1.0 0.0714887034
H  H4  1  0.88720000  0.31070000  0.57740000  1.0 0.0714887034
H  H5  1  0.67550000  0.31950000  0.49610000  1.0 0.0714887034
H  H6  1  0.55070000  0.33940000  0.39320000  1.0 0.060679257
H  H7  1  0.44320000  0.23350000  0.45770000  1.0 0.0484975249
H  H8  1  0.56800000  0.21360000  0.56060000  1.0 0.0714887034
H  H9  1  0.91430000  0.10560000  0.74390000  1.0 0.0899530506
H  H10  1  0.93300000  0.03210000  0.81980000  1.0 0.119293095
H  H11  1  0.69620000  0.03620000  0.74840000  1.0 0.0899530506
H  H12  1  0.67750000  0.10980000  0.67250000  1.0 0.0714887034
H  H13  1  0.37940000  0.37220000  0.54630000  1.0 0.078419474
H  H14  1  0.50000000  0.35750000  0.55480000  1.0 0.0714887034
H  H15  1  0.57070000  0.25890000  0.71850000  1.0 0.0714887034
H  H16  1  0.44890000  0.26970000  0.70850000  1.0 0.0899530506
H  H17  1  0.91080000  0.25290000  0.76470000  1.0 0.060679257
H  H18  1  0.00580000  0.19320000  0.85280000  1.0 0.0899530506
H  H19  1  0.83450000  0.13050000  0.88060000  1.0 0.078419474
H  H20  1  0.73960000  0.19020000  0.79250000  1.0 0.0484975249
H  H21  1  0.66190000  0.42360000  0.55450000  1.0 0.0899530506
H  H22  1  0.70430000  0.48110000  0.49860000  1.0 0.078419474
H  H23  1  0.91130000  0.39570000  0.58940000  1.0 0.0714887034
H  H24  1  0.86410000  0.33580000  0.64000000  1.0 0.0484975249
H  H25  1  0.11120000  0.24310000  0.73030000  1.0 0.1093391733
H  H26  1  0.99880000  0.19630000  0.71410000  1.0 0.078419474
H  H27  1  0.85830000  0.27170000  0.52290000  1.0 0.078419474
H  H28  1  0.97070000  0.31840000  0.53910000  1.0 0.060679257
H  H29  1  0.66580000  0.26430000  0.44590000  1.0 0.0899530506
H  H30  1  0.53200000  0.29660000  0.35980000  1.0 0.0397573445
H  H31  1  0.43710000  0.18900000  0.43090000  1.0 0.0714887034
H  H32  1  0.56860000  0.15950000  0.52300000  1.0 0.078419474
H  H33  1  0.92510000  0.08930000  0.75380000  1.0 0.0999608701
H  H34  1  0.93780000  0.02290000  0.83420000  1.0 0.0999608701
H  H35  1  0.69770000  0.01070000  0.72990000  1.0 0.0899530506
H  H36  1  0.68180000  0.07860000  0.65000000  1.0 0.0999608701
H  H37  1  0.39620000  0.39120000  0.57760000  1.0 0.0999608701
H  H38  1  0.52250000  0.38260000  0.59060000  1.0 0.078419474
H  H39  1  0.58520000  0.27800000  0.74890000  1.0 0.0714887034
H  H40  1  0.46730000  0.28990000  0.74060000  1.0 0.078419474
H  H41  1  0.75540000  0.20630000  0.82050000  1.0 0.0714887034
H  H42  1  0.84720000  0.14200000  0.90300000  1.0 0.078419474
H  H43  1  0.02050000  0.20430000  0.87770000  1.0 0.078419474
H  H44  1  0.92880000  0.26870000  0.79530000  1.0 0.078419474
H  H45  1  0.67820000  0.44530000  0.58600000  1.0 0.0714887034
H  H46  1  0.72020000  0.50000000  0.53040000  1.0 0.0899530506
H  H47  1  0.93250000  0.41830000  0.62750000  1.0 0.0714887034
H  H48  1  0.88480000  0.35770000  0.67670000  1.0 0.0397573445
H  H49  1  0.01380000  0.65910000  0.84740000  1.0 0.0999608701
H  H50  1  0.89570000  0.68850000  0.83800000  1.0 0.1093391733
H  H51  1  0.99470000  0.84010000  0.91320000  1.0 0.0714887034
H  H52  1  0.11280000  0.81070000  0.92260000  1.0 0.0714887034
H  H53  1  0.32450000  0.81950000  0.00390000  1.0 0.0714887034
H  H54  1  0.44930000  0.83940000  0.10680000  1.0 0.060679257
H  H55  1  0.55680000  0.73350000  0.04230000  1.0 0.0484975249
H  H56  1  0.43200000  0.71360000  0.93940000  1.0 0.0714887034
H  H57  1  0.08570000  0.60560000  0.75610000  1.0 0.0899530506
H  H58  1  0.06700000  0.53210000  0.68020000  1.0 0.119293095
H  H59  1  0.30380000  0.53620000  0.75160000  1.0 0.0899530506
H  H60  1  0.32250000  0.60980000  0.82750000  1.0 0.0714887034
H  H61  1  0.62060000  0.87220000  0.95370000  1.0 0.078419474
H  H62  1  0.50000000  0.85750000  0.94520000  1.0 0.0714887034
H  H63  1  0.42930000  0.75890000  0.78150000  1.0 0.078419474
H  H64  1  0.55110000  0.76970000  0.79150000  1.0 0.0899530506
H  H65  1  0.08920000  0.75290000  0.73530000  1.0 0.060679257
H  H66  1  0.99420000  0.69320000  0.64720000  1.0 0.0899530506
H  H67  1  0.16550000  0.63050000  0.61940000  1.0 0.078419474
H  H68  1  0.26040000  0.69020000  0.70750000  1.0 0.0484975249
H  H69  1  0.33810000  0.92360000  0.94550000  1.0 0.0899530506
H  H70  1  0.29570000  0.98110000  0.00140000  1.0 0.078419474
H  H71  1  0.08870000  0.89570000  0.91060000  1.0 0.0714887034
H  H72  1  0.13590000  0.83580000  0.86000000  1.0 0.0484975249
H  H73  1  0.88880000  0.74310000  0.76970000  1.0 0.1093391733
H  H74  1  0.00120000  0.69630000  0.78590000  1.0 0.078419474
H  H75  1  0.14170000  0.77170000  0.97710000  1.0 0.078419474
H  H76  1  0.02930000  0.81840000  0.96090000  1.0 0.060679257
H  H77  1  0.33420000  0.76430000  0.05410000  1.0 0.0899530506
H  H78  1  0.46800000  0.79660000  0.14020000  1.0 0.0397573445
H  H79  1  0.56290000  0.68900000  0.06910000  1.0 0.0714887034
H  H80  1  0.43140000  0.65950000  0.97700000  1.0 0.078419474
H  H81  1  0.07490000  0.58930000  0.74620000  1.0 0.0999608701
H  H82  1  0.06220000  0.52290000  0.66580000  1.0 0.0999608701
H  H83  1  0.30230000  0.51070000  0.77010000  1.0 0.0899530506
H  H84  1  0.31820000  0.57860000  0.85000000  1.0 0.0999608701
H  H85  1  0.60380000  0.89120000  0.92240000  1.0 0.0999608701
H  H86  1  0.47750000  0.88260000  0.90940000  1.0 0.078419474
H  H87  1  0.41480000  0.77800000  0.75110000  1.0 0.0714887034
H  H88  1  0.53270000  0.78990000  0.75940000  1.0 0.078419474
H  H89  1  0.24460000  0.70630000  0.67950000  1.0 0.0714887034
H  H90  1  0.15280000  0.64200000  0.59700000  1.0 0.078419474
H  H91  1  0.97950000  0.70430000  0.62230000  1.0 0.078419474
H  H92  1  0.07120000  0.76870000  0.70470000  1.0 0.078419474
H  H93  1  0.32180000  0.94530000  0.91400000  1.0 0.0714887034
H  H94  1  0.27980000  0.00000000  0.96960000  1.0 0.0899530506
H  H95  1  0.06750000  0.91830000  0.87250000  1.0 0.0714887034
H  H96  1  0.11520000  0.85770000  0.82330000  1.0 0.0397573445
H  H97  1  0.01380000  0.84090000  0.34740000  1.0 0.0999608701
H  H98  1  0.89570000  0.81150000  0.33800000  1.0 0.1093391733
H  H99  1  0.99470000  0.65990000  0.41320000  1.0 0.0714887034
H  H100  1  0.11280000  0.68930000  0.42260000  1.0 0.0714887034
H  H101  1  0.32450000  0.68050000  0.50390000  1.0 0.0714887034
H  H102  1  0.44930000  0.66060000  0.60680000  1.0 0.060679257
H  H103  1  0.55680000  0.76650000  0.54230000  1.0 0.0484975249
H  H104  1  0.43200000  0.78640000  0.43940000  1.0 0.0714887034
H  H105  1  0.08570000  0.89440000  0.25610000  1.0 0.0899530506
H  H106  1  0.06700000  0.96790000  0.18020000  1.0 0.119293095
H  H107  1  0.30380000  0.96380000  0.25160000  1.0 0.0899530506
H  H108  1  0.32250000  0.89020000  0.32750000  1.0 0.0714887034
H  H109  1  0.62060000  0.62780000  0.45370000  1.0 0.078419474
H  H110  1  0.50000000  0.64250000  0.44520000  1.0 0.0714887034
H  H111  1  0.42930000  0.74110000  0.28150000  1.0 0.0714887034
H  H112  1  0.55110000  0.73030000  0.29150000  1.0 0.0899530506
H  H113  1  0.08920000  0.74710000  0.23530000  1.0 0.060679257
H  H114  1  0.99420000  0.80680000  0.14720000  1.0 0.0899530506
H  H115  1  0.16550000  0.86950000  0.11940000  1.0 0.078419474
H  H116  1  0.26040000  0.80980000  0.20750000  1.0 0.0484975249
H  H117  1  0.33810000  0.57640000  0.44550000  1.0 0.0899530506
H  H118  1  0.29570000  0.51890000  0.50140000  1.0 0.078419474
H  H119  1  0.08870000  0.60430000  0.41060000  1.0 0.0714887034
H  H120  1  0.13590000  0.66420000  0.36000000  1.0 0.0484975249
H  H121  1  0.88880000  0.75690000  0.26970000  1.0 0.1093391733
H  H122  1  0.00120000  0.80370000  0.28590000  1.0 0.078419474
H  H123  1  0.14170000  0.72830000  0.47710000  1.0 0.078419474
H  H124  1  0.02930000  0.68160000  0.46090000  1.0 0.060679257
H  H125  1  0.33420000  0.73570000  0.55410000  1.0 0.0899530506
H  H126  1  0.46800000  0.70340000  0.64020000  1.0 0.0397573445
H  H127  1  0.56290000  0.81100000  0.56910000  1.0 0.0714887034
H  H128  1  0.43140000  0.84050000  0.47700000  1.0 0.078419474
H  H129  1  0.07490000  0.91070000  0.24620000  1.0 0.0999608701
H  H130  1  0.06220000  0.97710000  0.16580000  1.0 0.0999608701
H  H131  1  0.30230000  0.98930000  0.27010000  1.0 0.0899530506
H  H132  1  0.31820000  0.92140000  0.35000000  1.0 0.0999608701
H  H133  1  0.60380000  0.60880000  0.42240000  1.0 0.0999608701
H  H134  1  0.47750000  0.61740000  0.40940000  1.0 0.078419474
H  H135  1  0.41480000  0.72200000  0.25110000  1.0 0.0714887034
H  H136  1  0.53270000  0.71010000  0.25940000  1.0 0.078419474
H  H137  1  0.24460000  0.79370000  0.17950000  1.0 0.078419474
H  H138  1  0.15280000  0.85800000  0.09700000  1.0 0.078419474
H  H139  1  0.97950000  0.79570000  0.12230000  1.0 0.078419474
H  H140  1  0.07120000  0.73130000  0.20470000  1.0 0.078419474
H  H141  1  0.32180000  0.55470000  0.41400000  1.0 0.0714887034
H  H142  1  0.27980000  0.50000000  0.46960000  1.0 0.0899530506
H  H143  1  0.06750000  0.58170000  0.37250000  1.0 0.0714887034
H  H144  1  0.11520000  0.64230000  0.32330000  1.0 0.0397573445
H  H145  1  0.98620000  0.34090000  0.15260000  1.0 0.0999608701
H  H146  1  0.10430000  0.31150000  0.16200000  1.0 0.1093391733
H  H147  1  0.00530000  0.15990000  0.08680000  1.0 0.0714887034
H  H148  1  0.88720000  0.18930000  0.07740000  1.0 0.0714887034
H  H149  1  0.67550000  0.18050000  0.99610000  1.0 0.0714887034
H  H150  1  0.55070000  0.16060000  0.89320000  1.0 0.060679257
H  H151  1  0.44320000  0.26650000  0.95770000  1.0 0.0484975249
H  H152  1  0.56800000  0.28640000  0.06060000  1.0 0.0714887034
H  H153  1  0.91430000  0.39440000  0.24390000  1.0 0.0899530506
H  H154  1  0.93300000  0.46790000  0.31980000  1.0 0.119293095
H  H155  1  0.69620000  0.46380000  0.24840000  1.0 0.0899530506
H  H156  1  0.67750000  0.39020000  0.17250000  1.0 0.0714887034
H  H157  1  0.37940000  0.12780000  0.04630000  1.0 0.078419474
H  H158  1  0.50000000  0.14250000  0.05480000  1.0 0.0714887034
H  H159  1  0.57070000  0.24110000  0.21850000  1.0 0.078419474
H  H160  1  0.44890000  0.23030000  0.20850000  1.0 0.0899530506
H  H161  1  0.91080000  0.24710000  0.26470000  1.0 0.060679257
H  H162  1  0.00580000  0.30680000  0.35280000  1.0 0.0899530506
H  H163  1  0.83450000  0.36950000  0.38060000  1.0 0.078419474
H  H164  1  0.73960000  0.30980000  0.29250000  1.0 0.0484975249
H  H165  1  0.66190000  0.07640000  0.05450000  1.0 0.0899530506
H  H166  1  0.70430000  0.01890000  0.99860000  1.0 0.078419474
H  H167  1  0.91130000  0.10430000  0.08940000  1.0 0.0714887034
H  H168  1  0.86410000  0.16420000  0.14000000  1.0 0.0484975249
H  H169  1  0.11120000  0.25690000  0.23030000  1.0 0.1093391733
H  H170  1  0.99880000  0.30370000  0.21410000  1.0 0.078419474
H  H171  1  0.85830000  0.22830000  0.02290000  1.0 0.078419474
H  H172  1  0.97070000  0.18160000  0.03910000  1.0 0.060679257
H  H173  1  0.66580000  0.23570000  0.94590000  1.0 0.0899530506
H  H174  1  0.53200000  0.20340000  0.85980000  1.0 0.0397573445
H  H175  1  0.43710000  0.31100000  0.93090000  1.0 0.0714887034
H  H176  1  0.56860000  0.34050000  0.02300000  1.0 0.078419474
H  H177  1  0.92510000  0.41070000  0.25380000  1.0 0.0999608701
H  H178  1  0.93780000  0.47710000  0.33420000  1.0 0.0999608701
H  H179  1  0.69770000  0.48930000  0.22990000  1.0 0.0899530506
H  H180  1  0.68180000  0.42140000  0.15000000  1.0 0.0999608701
H  H181  1  0.39620000  0.10880000  0.07760000  1.0 0.0999608701
H  H182  1  0.52250000  0.11740000  0.09060000  1.0 0.078419474
H  H183  1  0.58520000  0.22200000  0.24890000  1.0 0.0714887034
H  H184  1  0.46730000  0.21010000  0.24060000  1.0 0.078419474
H  H185  1  0.75540000  0.29370000  0.32050000  1.0 0.078419474
H  H186  1  0.84720000  0.35800000  0.40300000  1.0 0.078419474
H  H187  1  0.02050000  0.29570000  0.37770000  1.0 0.078419474
H  H188  1  0.92880000  0.23130000  0.29530000  1.0 0.078419474
H  H189  1  0.67820000  0.05470000  0.08600000  1.0 0.078419474
H  H190  1  0.72020000  0.00000000  0.03040000  1.0 0.0899530506
H  H191  1  0.93250000  0.08170000  0.12750000  1.0 0.0714887034
H  H192  1  0.88480000  0.14230000  0.17670000  1.0 0.0397573445
C  C1  1  0.13850000  0.30080000  0.63650000  1.0 0.2713502187
C  C2  1  0.99000000  0.19540000  0.63940000  1.0 0.0214041664
C  C3  1  0.06090000  0.21300000  0.64510000  1.0 -0.1005576724
C  C4  1  0.06650000  0.26720000  0.62530000  1.0 0.060679257
C  C5  1  0.00150000  0.30380000  0.60000000  1.0 -0.0291284252
C  C6  1  0.93080000  0.28620000  0.59440000  1.0 -0.013533968
C  C7  1  0.92510000  0.23200000  0.61410000  1.0 -0.0510494665
C  C8  1  0.82720000  0.96870000  0.84060000  1.0 0.2713502187
C  C9  1  0.99120000  0.11630000  0.93180000  1.0 0.321443872
C  C10  1  0.85240000  0.49110000  0.51970000  1.0 0.5276413051
C  C11  1  0.71540000  0.23410000  0.58340000  1.0 0.119293095
C  C12  1  0.78900000  0.15400000  0.65500000  1.0 0.1410272712
C  C13  1  0.85560000  0.22160000  0.62300000  1.0 0.1567402682
C  C14  1  0.63460000  0.26460000  0.53860000  1.0 -0.1185237861
C  C15  1  0.62900000  0.30230000  0.48800000  1.0 -0.2307248996
C  C16  1  0.55400000  0.31420000  0.42700000  1.0 -0.0910894778
C  C17  1  0.48420000  0.28840000  0.41520000  1.0 -0.013533968
C  C18  1  0.48900000  0.25070000  0.46500000  1.0 -0.042524242
C  C19  1  0.56400000  0.23880000  0.52700000  1.0 -0.1565074922
C  C20  1  0.40050000  0.30360000  0.34850000  1.0 0.2367621022
C  C21  1  0.79400000  0.11500000  0.70100000  1.0 0.0024986953
C  C22  1  0.87100000  0.09170000  0.74500000  1.0 -0.0800285819
C  C23  1  0.88200000  0.04800000  0.79000000  1.0 -0.0910894778
C  C24  1  0.81700000  0.02680000  0.79200000  1.0 0.0397573445
C  C25  1  0.73940000  0.05010000  0.74700000  1.0 -0.042524242
C  C26  1  0.72870000  0.09420000  0.70200000  1.0 -0.0910894778
C  C27  1  0.32080000  0.33060000  0.61730000  1.0 0.2595278882
C  C28  1  0.40000000  0.32260000  0.62270000  1.0 -0.0028214027
C  C29  1  0.41770000  0.34850000  0.58170000  1.0 -0.0602193368
C  C30  1  0.49170000  0.34190000  0.58880000  1.0 -0.071088492
C  C31  1  0.55040000  0.31390000  0.64320000  1.0 0.0214041664
C  C32  1  0.53240000  0.28360000  0.68460000  1.0 -0.0602193368
C  C33  1  0.45930000  0.28860000  0.67750000  1.0 -0.071088492
C  C34  1  0.63110000  0.30640000  0.65410000  1.0 0.1491693694
C  C35  1  0.72480000  0.33310000  0.63120000  1.0 0.1491693694
C  C36  1  0.75560000  0.26560000  0.71500000  1.0 0.1491693694
C  C37  1  0.81580000  0.22750000  0.76990000  1.0 0.0214041664
C  C38  1  0.89550000  0.22840000  0.78790000  1.0 -0.0602193368
C  C39  1  0.95240000  0.19260000  0.84070000  1.0 -0.0510494665
C  C40  1  0.92960000  0.15590000  0.87550000  1.0 0.0214041664
C  C41  1  0.84990000  0.15500000  0.85740000  1.0 -0.0510494665
C  C42  1  0.79290000  0.19080000  0.80460000  1.0 -0.071088492
C  C43  1  0.75660000  0.37330000  0.60150000  1.0 0.0295032096
C  C44  1  0.71250000  0.41750000  0.56140000  1.0 -0.0800285819
C  C45  1  0.73900000  0.45380000  0.53040000  1.0 -0.0510494665
C  C46  1  0.81690000  0.44960000  0.54640000  1.0 0.0214041664
C  C47  1  0.86150000  0.40250000  0.58380000  1.0 -0.042524242
C  C48  1  0.83230000  0.36600000  0.61260000  1.0 -0.071088492
C  C49  1  0.05210000  0.28540000  0.63630000  1.0 0.060679257
C  C50  1  0.06050000  0.24880000  0.68870000  1.0 -0.0800285819
C  C51  1  0.99310000  0.22080000  0.67900000  1.0 -0.042524242
C  C52  1  0.91740000  0.22930000  0.61690000  1.0 -0.1005576724
C  C53  1  0.90900000  0.26590000  0.56450000  1.0 -0.0291284252
C  C54  1  0.97640000  0.29400000  0.57420000  1.0 -0.042524242
C  C55  1  0.84770000  0.20100000  0.60700000  1.0 0.2210902734
C  C56  1  0.71130000  0.19540000  0.55330000  1.0 0.1491693694
C  C57  1  0.79150000  0.13760000  0.64530000  1.0 0.1491693694
C  C58  1  0.62990000  0.21310000  0.49590000  1.0 0.0295032096
C  C59  1  0.62110000  0.25040000  0.44520000  1.0 -0.0800285819
C  C60  1  0.54000000  0.26720000  0.39060000  1.0 -0.0510494665
C  C61  1  0.47440000  0.24020000  0.38390000  1.0 -0.0215893046
C  C62  1  0.48260000  0.20350000  0.43350000  1.0 -0.0910894778
C  C63  1  0.56180000  0.18690000  0.49030000  1.0 -0.1005576724
C  C64  1  0.39320000  0.25080000  0.32050000  1.0 0.2367621022
C  C65  1  0.80360000  0.09170000  0.69510000  1.0 0.060679257
C  C66  1  0.87900000  0.07390000  0.74920000  1.0 -0.0510494665
C  C67  1  0.88630000  0.03340000  0.79670000  1.0 -0.1288311822
C  C68  1  0.82050000  0.00830000  0.79040000  1.0 0.0484975249
C  C69  1  0.74340000  0.02680000  0.73440000  1.0 -0.0291284252
C  C70  1  0.73330000  0.06740000  0.68670000  1.0 -0.042524242
C  C71  1  0.32810000  0.35020000  0.63840000  1.0 0.2713502187
C  C72  1  0.41590000  0.33890000  0.65190000  1.0 0.0397573445
C  C73  1  0.43480000  0.36730000  0.61260000  1.0 -0.071088492
C  C74  1  0.51170000  0.36330000  0.62100000  1.0 -0.0602193368
C  C75  1  0.56980000  0.33010000  0.67540000  1.0 0.0295032096
C  C76  1  0.54770000  0.30260000  0.71430000  1.0 -0.0510494665
C  C77  1  0.47630000  0.30730000  0.70800000  1.0 -0.071088492
C  C78  1  0.64940000  0.32540000  0.68800000  1.0 0.1410272712
C  C79  1  0.74470000  0.35190000  0.66380000  1.0 0.1491693694
C  C80  1  0.77360000  0.28450000  0.74500000  1.0 0.1567402682
C  C81  1  0.83300000  0.24390000  0.79970000  1.0 0.0397573445
C  C82  1  0.80860000  0.20590000  0.83200000  1.0 -0.042524242
C  C83  1  0.86360000  0.16740000  0.88140000  1.0 -0.0602193368
C  C84  1  0.94290000  0.16680000  0.89850000  1.0 0.0024986953
C  C85  1  0.96740000  0.20470000  0.86630000  1.0 -0.042524242
C  C86  1  0.91240000  0.24330000  0.81690000  1.0 -0.0291284252
C  C87  1  0.77410000  0.39280000  0.63090000  1.0 0.0295032096
C  C88  1  0.72750000  0.43810000  0.59090000  1.0 -0.0602193368
C  C89  1  0.75380000  0.47110000  0.55960000  1.0 -0.042524242
C  C90  1  0.83130000  0.46450000  0.56850000  1.0 0.0214041664
C  C91  1  0.87960000  0.42220000  0.61600000  1.0 -0.0291284252
C  C92  1  0.85170000  0.38620000  0.64620000  1.0 -0.042524242
C  C93  1  0.12220000  0.31980000  0.64610000  1.0 0.2595278882
C  C94  1  0.00020000  0.12730000  0.95080000  1.0 0.309936182
C  C95  1  0.85780000  0.50070000  0.53000000  1.0 0.5276413051
C  C96  1  0.86150000  0.80080000  0.86350000  1.0 0.2713502187
C  C97  1  0.01000000  0.69540000  0.86060000  1.0 0.0214041664
C  C98  1  0.93910000  0.71300000  0.85490000  1.0 -0.1005576724
C  C99  1  0.93350000  0.76720000  0.87470000  1.0 0.060679257
C  C100  1  0.99850000  0.80380000  0.90000000  1.0 -0.0291284252
C  C101  1  0.06920000  0.78620000  0.90560000  1.0 -0.013533968
C  C102  1  0.07490000  0.73200000  0.88590000  1.0 -0.0510494665
C  C103  1  0.17280000  0.46870000  0.65940000  1.0 0.2713502187
C  C104  1  0.00880000  0.61630000  0.56820000  1.0 0.321443872
C  C105  1  0.14760000  0.99110000  0.98030000  1.0 0.5276413051
C  C106  1  0.28460000  0.73410000  0.91660000  1.0 0.119293095
C  C107  1  0.21100000  0.65400000  0.84500000  1.0 0.1410272712
C  C108  1  0.14440000  0.72160000  0.87700000  1.0 0.1567402682
C  C109  1  0.36540000  0.76460000  0.96140000  1.0 -0.1185237861
C  C110  1  0.37100000  0.80230000  0.01200000  1.0 -0.2307248996
C  C111  1  0.44600000  0.81420000  0.07300000  1.0 -0.0910894778
C  C112  1  0.51580000  0.78840000  0.08480000  1.0 -0.013533968
C  C113  1  0.51100000  0.75070000  0.03500000  1.0 -0.042524242
C  C114  1  0.43600000  0.73880000  0.97300000  1.0 -0.1565074922
C  C115  1  0.59950000  0.80360000  0.15150000  1.0 0.2367621022
C  C116  1  0.20600000  0.61500000  0.79900000  1.0 0.0024986953
C  C117  1  0.12900000  0.59170000  0.75500000  1.0 -0.0800285819
C  C118  1  0.11800000  0.54800000  0.71000000  1.0 -0.0910894778
C  C119  1  0.18300000  0.52680000  0.70800000  1.0 0.0397573445
C  C120  1  0.26060000  0.55010000  0.75300000  1.0 -0.042524242
C  C121  1  0.27130000  0.59420000  0.79800000  1.0 -0.0910894778
C  C122  1  0.67920000  0.83060000  0.88270000  1.0 0.2595278882
C  C123  1  0.60000000  0.82260000  0.87730000  1.0 -0.0028214027
C  C124  1  0.58230000  0.84850000  0.91830000  1.0 -0.0602193368
C  C125  1  0.50830000  0.84190000  0.91120000  1.0 -0.071088492
C  C126  1  0.44960000  0.81390000  0.85680000  1.0 0.0214041664
C  C127  1  0.46760000  0.78360000  0.81540000  1.0 -0.0602193368
C  C128  1  0.54070000  0.78860000  0.82250000  1.0 -0.071088492
C  C129  1  0.36890000  0.80640000  0.84590000  1.0 0.1491693694
C  C130  1  0.27520000  0.83310000  0.86880000  1.0 0.1491693694
C  C131  1  0.24440000  0.76560000  0.78500000  1.0 0.1491693694
C  C132  1  0.18420000  0.72750000  0.73010000  1.0 0.0214041664
C  C133  1  0.10450000  0.72840000  0.71210000  1.0 -0.0602193368
C  C134  1  0.04760000  0.69260000  0.65930000  1.0 -0.0510494665
C  C135  1  0.07040000  0.65590000  0.62450000  1.0 0.0214041664
C  C136  1  0.15010000  0.65500000  0.64260000  1.0 -0.0510494665
C  C137  1  0.20710000  0.69080000  0.69540000  1.0 -0.071088492
C  C138  1  0.24340000  0.87330000  0.89850000  1.0 0.0295032096
C  C139  1  0.28750000  0.91750000  0.93860000  1.0 -0.071088492
C  C140  1  0.26100000  0.95380000  0.96960000  1.0 -0.0510494665
C  C141  1  0.18310000  0.94960000  0.95360000  1.0 0.0214041664
C  C142  1  0.13850000  0.90250000  0.91620000  1.0 -0.042524242
C  C143  1  0.16770000  0.86600000  0.88740000  1.0 -0.071088492
C  C144  1  0.94790000  0.78540000  0.86370000  1.0 0.060679257
C  C145  1  0.93950000  0.74880000  0.81130000  1.0 -0.0800285819
C  C146  1  0.00690000  0.72080000  0.82100000  1.0 -0.042524242
C  C147  1  0.08260000  0.72930000  0.88310000  1.0 -0.1005576724
C  C148  1  0.09100000  0.76590000  0.93550000  1.0 -0.0291284252
C  C149  1  0.02360000  0.79400000  0.92580000  1.0 -0.0510494665
C  C150  1  0.15230000  0.70100000  0.89300000  1.0 0.2210902734
C  C151  1  0.28870000  0.69540000  0.94670000  1.0 0.1491693694
C  C152  1  0.20850000  0.63760000  0.85470000  1.0 0.1491693694
C  C153  1  0.37010000  0.71310000  0.00410000  1.0 0.0295032096
C  C154  1  0.37890000  0.75040000  0.05480000  1.0 -0.0800285819
C  C155  1  0.46000000  0.76720000  0.10940000  1.0 -0.0510494665
C  C156  1  0.52560000  0.74020000  0.11610000  1.0 -0.0215893046
C  C157  1  0.51740000  0.70350000  0.06650000  1.0 -0.0910894778
C  C158  1  0.43820000  0.68690000  0.00970000  1.0 -0.1005576724
C  C159  1  0.60680000  0.75080000  0.17950000  1.0 0.2367621022
C  C160  1  0.19640000  0.59170000  0.80490000  1.0 0.060679257
C  C161  1  0.12100000  0.57390000  0.75080000  1.0 -0.0602193368
C  C162  1  0.11370000  0.53340000  0.70330000  1.0 -0.1288311822
C  C163  1  0.17950000  0.50830000  0.70960000  1.0 0.0484975249
C  C164  1  0.25660000  0.52680000  0.76560000  1.0 -0.0291284252
C  C165  1  0.26670000  0.56740000  0.81330000  1.0 -0.042524242
C  C166  1  0.67190000  0.85020000  0.86160000  1.0 0.2713502187
C  C167  1  0.58410000  0.83890000  0.84810000  1.0 0.0397573445
C  C168  1  0.56520000  0.86730000  0.88740000  1.0 -0.071088492
C  C169  1  0.48830000  0.86330000  0.87900000  1.0 -0.0602193368
C  C170  1  0.43020000  0.83010000  0.82460000  1.0 0.0295032096
C  C171  1  0.45230000  0.80260000  0.78570000  1.0 -0.0510494665
C  C172  1  0.52370000  0.80730000  0.79200000  1.0 -0.071088492
C  C173  1  0.35060000  0.82540000  0.81200000  1.0 0.1410272712
C  C174  1  0.25530000  0.85190000  0.83620000  1.0 0.1491693694
C  C175  1  0.22640000  0.78450000  0.75500000  1.0 0.1567402682
C  C176  1  0.16700000  0.74390000  0.70030000  1.0 0.0397573445
C  C177  1  0.19140000  0.70590000  0.66800000  1.0 -0.042524242
C  C178  1  0.13640000  0.66740000  0.61860000  1.0 -0.0602193368
C  C179  1  0.05710000  0.66680000  0.60150000  1.0 0.0024986953
C  C180  1  0.03260000  0.70470000  0.63370000  1.0 -0.042524242
C  C181  1  0.08760000  0.74330000  0.68310000  1.0 -0.0291284252
C  C182  1  0.22590000  0.89280000  0.86910000  1.0 0.0295032096
C  C183  1  0.27250000  0.93810000  0.90910000  1.0 -0.0602193368
C  C184  1  0.24620000  0.97110000  0.94040000  1.0 -0.042524242
C  C185  1  0.16870000  0.96450000  0.93150000  1.0 0.0214041664
C  C186  1  0.12040000  0.92220000  0.88400000  1.0 -0.0291284252
C  C187  1  0.14830000  0.88620000  0.85380000  1.0 -0.042524242
C  C188  1  0.87780000  0.81980000  0.85390000  1.0 0.2595278882
C  C189  1  0.99980000  0.62730000  0.54920000  1.0 0.309936182
C  C190  1  0.14220000  0.00070000  0.97000000  1.0 0.5276413051
C  C191  1  0.86150000  0.69920000  0.36350000  1.0 0.2713502187
C  C192  1  0.01000000  0.80460000  0.36060000  1.0 0.0214041664
C  C193  1  0.93910000  0.78700000  0.35490000  1.0 -0.1005576724
C  C194  1  0.93350000  0.73280000  0.37470000  1.0 0.060679257
C  C195  1  0.99850000  0.69620000  0.40000000  1.0 -0.0291284252
C  C196  1  0.06920000  0.71380000  0.40560000  1.0 -0.013533968
C  C197  1  0.07490000  0.76800000  0.38590000  1.0 -0.0510494665
C  C198  1  0.17280000  0.03130000  0.15940000  1.0 0.2713502187
C  C199  1  0.00880000  0.88370000  0.06820000  1.0 0.321443872
C  C200  1  0.14760000  0.50890000  0.48030000  1.0 0.5276413051
C  C201  1  0.28460000  0.76590000  0.41660000  1.0 0.119293095
C  C202  1  0.21100000  0.84600000  0.34500000  1.0 0.1410272712
C  C203  1  0.14440000  0.77840000  0.37700000  1.0 0.1567402682
C  C204  1  0.36540000  0.73540000  0.46140000  1.0 -0.1185237861
C  C205  1  0.37100000  0.69770000  0.51200000  1.0 -0.2307248996
C  C206  1  0.44600000  0.68580000  0.57300000  1.0 -0.0910894778
C  C207  1  0.51580000  0.71160000  0.58480000  1.0 -0.013533968
C  C208  1  0.51100000  0.74930000  0.53500000  1.0 -0.042524242
C  C209  1  0.43600000  0.76120000  0.47300000  1.0 -0.1565074922
C  C210  1  0.59950000  0.69640000  0.65150000  1.0 0.2367621022
C  C211  1  0.20600000  0.88500000  0.29900000  1.0 0.0024986953
C  C212  1  0.12900000  0.90830000  0.25500000  1.0 -0.0800285819
C  C213  1  0.11800000  0.95200000  0.21000000  1.0 -0.0910894778
C  C214  1  0.18300000  0.97320000  0.20800000  1.0 0.0397573445
C  C215  1  0.26060000  0.94990000  0.25300000  1.0 -0.042524242
C  C216  1  0.27130000  0.90580000  0.29800000  1.0 -0.0910894778
C  C217  1  0.67920000  0.66940000  0.38270000  1.0 0.2543554468
C  C218  1  0.60000000  0.67740000  0.37730000  1.0 -0.0028214027
C  C219  1  0.58230000  0.65150000  0.41830000  1.0 -0.0602193368
C  C220  1  0.50830000  0.65810000  0.41120000  1.0 -0.071088492
C  C221  1  0.44960000  0.68610000  0.35680000  1.0 0.0214041664
C  C222  1  0.46760000  0.71640000  0.31540000  1.0 -0.0602193368
C  C223  1  0.54070000  0.71140000  0.32250000  1.0 -0.071088492
C  C224  1  0.36890000  0.69360000  0.34590000  1.0 0.1491693694
C  C225  1  0.27520000  0.66690000  0.36880000  1.0 0.1491693694
C  C226  1  0.24440000  0.73440000  0.28500000  1.0 0.1491693694
C  C227  1  0.18420000  0.77250000  0.23010000  1.0 0.0214041664
C  C228  1  0.10450000  0.77160000  0.21210000  1.0 -0.0602193368
C  C229  1  0.04760000  0.80740000  0.15930000  1.0 -0.0510494665
C  C230  1  0.07040000  0.84410000  0.12450000  1.0 0.0214041664
C  C231  1  0.15010000  0.84500000  0.14260000  1.0 -0.0510494665
C  C232  1  0.20710000  0.80920000  0.19540000  1.0 -0.071088492
C  C233  1  0.24340000  0.62670000  0.39850000  1.0 0.0295032096
C  C234  1  0.28750000  0.58250000  0.43860000  1.0 -0.071088492
C  C235  1  0.26100000  0.54620000  0.46960000  1.0 -0.0510494665
C  C236  1  0.18310000  0.55040000  0.45360000  1.0 0.0214041664
C  C237  1  0.13850000  0.59750000  0.41620000  1.0 -0.042524242
C  C238  1  0.16770000  0.63400000  0.38740000  1.0 -0.071088492
C  C239  1  0.94790000  0.71460000  0.36370000  1.0 0.060679257
C  C240  1  0.93950000  0.75120000  0.31130000  1.0 -0.0800285819
C  C241  1  0.00690000  0.77920000  0.32100000  1.0 -0.042524242
C  C242  1  0.08260000  0.77070000  0.38310000  1.0 -0.1005576724
C  C243  1  0.09100000  0.73410000  0.43550000  1.0 -0.0291284252
C  C244  1  0.02360000  0.70600000  0.42580000  1.0 -0.0510494665
C  C245  1  0.15230000  0.79900000  0.39300000  1.0 0.2210902734
C  C246  1  0.28870000  0.80460000  0.44670000  1.0 0.1491693694
C  C247  1  0.20850000  0.86240000  0.35470000  1.0 0.1491693694
C  C248  1  0.37010000  0.78690000  0.50410000  1.0 0.0295032096
C  C249  1  0.37890000  0.74960000  0.55480000  1.0 -0.0800285819
C  C250  1  0.46000000  0.73280000  0.60940000  1.0 -0.0510494665
C  C251  1  0.52560000  0.75980000  0.61610000  1.0 -0.0215893046
C  C252  1  0.51740000  0.79650000  0.56650000  1.0 -0.0910894778
C  C253  1  0.43820000  0.81310000  0.50970000  1.0 -0.1005576724
C  C254  1  0.60680000  0.74920000  0.67950000  1.0 0.2367621022
C  C255  1  0.19640000  0.90830000  0.30490000  1.0 0.060679257
C  C256  1  0.12100000  0.92610000  0.25080000  1.0 -0.0602193368
C  C257  1  0.11370000  0.96660000  0.20330000  1.0 -0.1288311822
C  C258  1  0.17950000  0.99170000  0.20960000  1.0 0.0397573445
C  C259  1  0.25660000  0.97320000  0.26560000  1.0 -0.0291284252
C  C260  1  0.26670000  0.93260000  0.31330000  1.0 -0.042524242
C  C261  1  0.67190000  0.64980000  0.36160000  1.0 0.2713502187
C  C262  1  0.58410000  0.66110000  0.34810000  1.0 0.0397573445
C  C263  1  0.56520000  0.63270000  0.38740000  1.0 -0.071088492
C  C264  1  0.48830000  0.63670000  0.37900000  1.0 -0.0602193368
C  C265  1  0.43020000  0.66990000  0.32460000  1.0 0.0295032096
C  C266  1  0.45230000  0.69740000  0.28570000  1.0 -0.0602193368
C  C267  1  0.52370000  0.69270000  0.29200000  1.0 -0.071088492
C  C268  1  0.35060000  0.67460000  0.31200000  1.0 0.1410272712
C  C269  1  0.25530000  0.64810000  0.33620000  1.0 0.1491693694
C  C270  1  0.22640000  0.71550000  0.25500000  1.0 0.1567402682
C  C271  1  0.16700000  0.75610000  0.20030000  1.0 0.0397573445
C  C272  1  0.19140000  0.79410000  0.16800000  1.0 -0.042524242
C  C273  1  0.13640000  0.83260000  0.11860000  1.0 -0.0602193368
C  C274  1  0.05710000  0.83320000  0.10150000  1.0 0.0024986953
C  C275  1  0.03260000  0.79530000  0.13370000  1.0 -0.042524242
C  C276  1  0.08760000  0.75670000  0.18310000  1.0 -0.0291284252
C  C277  1  0.22590000  0.60720000  0.36910000  1.0 0.0295032096
C  C278  1  0.27250000  0.56190000  0.40910000  1.0 -0.0602193368
C  C279  1  0.24620000  0.52890000  0.44040000  1.0 -0.042524242
C  C280  1  0.16870000  0.53550000  0.43150000  1.0 0.0214041664
C  C281  1  0.12040000  0.57780000  0.38400000  1.0 -0.0291284252
C  C282  1  0.14830000  0.61380000  0.35380000  1.0 -0.042524242
C  C283  1  0.87780000  0.68020000  0.35390000  1.0 0.2595278882
C  C284  1  0.99980000  0.87270000  0.04920000  1.0 0.309936182
C  C285  1  0.14220000  0.49930000  0.47000000  1.0 0.5276413051
C  C286  1  0.13850000  0.19920000  0.13650000  1.0 0.2713502187
C  C287  1  0.99000000  0.30460000  0.13940000  1.0 0.0214041664
C  C288  1  0.06090000  0.28700000  0.14510000  1.0 -0.1005576724
C  C289  1  0.06650000  0.23280000  0.12530000  1.0 0.060679257
C  C290  1  0.00150000  0.19620000  0.10000000  1.0 -0.0291284252
C  C291  1  0.93080000  0.21380000  0.09440000  1.0 -0.013533968
C  C292  1  0.92510000  0.26800000  0.11410000  1.0 -0.0510494665
C  C293  1  0.82720000  0.53130000  0.34060000  1.0 0.2713502187
C  C294  1  0.99120000  0.38370000  0.43180000  1.0 0.321443872
C  C295  1  0.85240000  0.00890000  0.01970000  1.0 0.5276413051
C  C296  1  0.71540000  0.26590000  0.08340000  1.0 0.119293095
C  C297  1  0.78900000  0.34600000  0.15500000  1.0 0.1410272712
C  C298  1  0.85560000  0.27840000  0.12300000  1.0 0.1567402682
C  C299  1  0.63460000  0.23540000  0.03860000  1.0 -0.1185237861
C  C300  1  0.62900000  0.19770000  0.98800000  1.0 -0.2307248996
C  C301  1  0.55400000  0.18580000  0.92700000  1.0 -0.0910894778
C  C302  1  0.48420000  0.21160000  0.91520000  1.0 -0.013533968
C  C303  1  0.48900000  0.24930000  0.96500000  1.0 -0.042524242
C  C304  1  0.56400000  0.26120000  0.02700000  1.0 -0.1565074922
C  C305  1  0.40050000  0.19640000  0.84850000  1.0 0.2367621022
C  C306  1  0.79400000  0.38500000  0.20100000  1.0 0.0024986953
C  C307  1  0.87100000  0.40830000  0.24500000  1.0 -0.0800285819
C  C308  1  0.88200000  0.45200000  0.29000000  1.0 -0.0910894778
C  C309  1  0.81700000  0.47320000  0.29200000  1.0 0.0397573445
C  C310  1  0.73940000  0.44990000  0.24700000  1.0 -0.042524242
C  C311  1  0.72870000  0.40580000  0.20200000  1.0 -0.0910894778
C  C312  1  0.32080000  0.16940000  0.11730000  1.0 0.2543554468
C  C313  1  0.40000000  0.17740000  0.12270000  1.0 -0.0028214027
C  C314  1  0.41770000  0.15150000  0.08170000  1.0 -0.0602193368
C  C315  1  0.49170000  0.15810000  0.08880000  1.0 -0.071088492
C  C316  1  0.55040000  0.18610000  0.14320000  1.0 0.0214041664
C  C317  1  0.53240000  0.21640000  0.18460000  1.0 -0.0602193368
C  C318  1  0.45930000  0.21140000  0.17750000  1.0 -0.071088492
C  C319  1  0.63110000  0.19360000  0.15410000  1.0 0.1491693694
C  C320  1  0.72480000  0.16690000  0.13120000  1.0 0.1491693694
C  C321  1  0.75560000  0.23440000  0.21500000  1.0 0.1491693694
C  C322  1  0.81580000  0.27250000  0.26990000  1.0 0.0214041664
C  C323  1  0.89550000  0.27160000  0.28790000  1.0 -0.0602193368
C  C324  1  0.95240000  0.30740000  0.34070000  1.0 -0.0510494665
C  C325  1  0.92960000  0.34410000  0.37550000  1.0 0.0214041664
C  C326  1  0.84990000  0.34500000  0.35740000  1.0 -0.0510494665
C  C327  1  0.79290000  0.30920000  0.30460000  1.0 -0.071088492
C  C328  1  0.75660000  0.12670000  0.10150000  1.0 0.0295032096
C  C329  1  0.71250000  0.08250000  0.06140000  1.0 -0.071088492
C  C330  1  0.73900000  0.04620000  0.03040000  1.0 -0.0510494665
C  C331  1  0.81690000  0.05040000  0.04640000  1.0 0.0214041664
C  C332  1  0.86150000  0.09750000  0.08380000  1.0 -0.042524242
C  C333  1  0.83230000  0.13400000  0.11260000  1.0 -0.071088492
C  C334  1  0.05210000  0.21460000  0.13630000  1.0 0.060679257
C  C335  1  0.06050000  0.25120000  0.18870000  1.0 -0.0800285819
C  C336  1  0.99310000  0.27920000  0.17900000  1.0 -0.042524242
C  C337  1  0.91740000  0.27070000  0.11690000  1.0 -0.1005576724
C  C338  1  0.90900000  0.23410000  0.06450000  1.0 -0.0291284252
C  C339  1  0.97640000  0.20600000  0.07420000  1.0 -0.042524242
C  C340  1  0.84770000  0.29900000  0.10700000  1.0 0.2210902734
C  C341  1  0.71130000  0.30460000  0.05330000  1.0 0.1491693694
C  C342  1  0.79150000  0.36240000  0.14530000  1.0 0.1491693694
C  C343  1  0.62990000  0.28690000  0.99590000  1.0 0.0295032096
C  C344  1  0.62110000  0.24960000  0.94520000  1.0 -0.0800285819
C  C345  1  0.54000000  0.23280000  0.89060000  1.0 -0.0510494665
C  C346  1  0.47440000  0.25980000  0.88390000  1.0 -0.0215893046
C  C347  1  0.48260000  0.29650000  0.93350000  1.0 -0.0910894778
C  C348  1  0.56180000  0.31310000  0.99030000  1.0 -0.1005576724
C  C349  1  0.39320000  0.24920000  0.82050000  1.0 0.2367621022
C  C350  1  0.80360000  0.40830000  0.19510000  1.0 0.060679257
C  C351  1  0.87900000  0.42610000  0.24920000  1.0 -0.0510494665
C  C352  1  0.88630000  0.46660000  0.29670000  1.0 -0.1288311822
C  C353  1  0.82050000  0.49170000  0.29040000  1.0 0.0397573445
C  C354  1  0.74340000  0.47320000  0.23440000  1.0 -0.0291284252
C  C355  1  0.73330000  0.43260000  0.18670000  1.0 -0.042524242
C  C356  1  0.32810000  0.14980000  0.13840000  1.0 0.2713502187
C  C357  1  0.41590000  0.16110000  0.15190000  1.0 0.0397573445
C  C358  1  0.43480000  0.13270000  0.11260000  1.0 -0.071088492
C  C359  1  0.51170000  0.13670000  0.12100000  1.0 -0.0602193368
C  C360  1  0.56980000  0.16990000  0.17540000  1.0 0.0295032096
C  C361  1  0.54770000  0.19740000  0.21430000  1.0 -0.0510494665
C  C362  1  0.47630000  0.19270000  0.20800000  1.0 -0.071088492
C  C363  1  0.64940000  0.17460000  0.18800000  1.0 0.1410272712
C  C364  1  0.74470000  0.14810000  0.16380000  1.0 0.1491693694
C  C365  1  0.77360000  0.21550000  0.24500000  1.0 0.1567402682
C  C366  1  0.83300000  0.25610000  0.29970000  1.0 0.0397573445
C  C367  1  0.80860000  0.29410000  0.33200000  1.0 -0.042524242
C  C368  1  0.86360000  0.33260000  0.38140000  1.0 -0.0602193368
C  C369  1  0.94290000  0.33320000  0.39850000  1.0 0.0024986953
C  C370  1  0.96740000  0.29530000  0.36630000  1.0 -0.042524242
C  C371  1  0.91240000  0.25670000  0.31690000  1.0 -0.0291284252
C  C372  1  0.77410000  0.10720000  0.13090000  1.0 0.0295032096
C  C373  1  0.72750000  0.06190000  0.09090000  1.0 -0.0602193368
C  C374  1  0.75380000  0.02890000  0.05960000  1.0 -0.042524242
C  C375  1  0.83130000  0.03550000  0.06850000  1.0 0.0214041664
C  C376  1  0.87960000  0.07780000  0.11600000  1.0 -0.0291284252
C  C377  1  0.85170000  0.11380000  0.14620000  1.0 -0.042524242
C  C378  1  0.12220000  0.18020000  0.14610000  1.0 0.2595278882
C  C379  1  0.00020000  0.37270000  0.45080000  1.0 0.309936182
C  C380  1  0.85780000  0.99930000  0.03000000  1.0 0.5276413051
N  N1  1  0.78400000  0.25250000  0.58570000  1.0 -0.1912777719
N  N2  1  0.71800000  0.18490000  0.61800000  1.0 -0.1831696467
N  N3  1  0.85800000  0.17240000  0.65700000  1.0 -0.3506920697
N  N4  1  0.65050000  0.33980000  0.61740000  1.0 -0.1288311822
N  N5  1  0.68250000  0.26810000  0.70370000  1.0 -0.1492075065
N  N6  1  0.78050000  0.29800000  0.68060000  1.0 -0.1492075065
N  N7  1  0.66970000  0.36070000  0.65090000  1.0 -0.1431135751
N  N8  1  0.70030000  0.28680000  0.73440000  1.0 -0.1431135751
N  N9  1  0.80010000  0.31700000  0.71390000  1.0 -0.1431135751
N  N10  1  0.77380000  0.22180000  0.55760000  1.0 -0.1185237861
N  N11  1  0.86040000  0.15820000  0.65250000  1.0 -0.4009708712
N  N12  1  0.71660000  0.15470000  0.59580000  1.0 -0.1492075065
N  N13  1  0.21600000  0.75250000  0.91430000  1.0 -0.1831696467
N  N14  1  0.28200000  0.68490000  0.88200000  1.0 -0.1912777719
N  N15  1  0.14200000  0.67240000  0.84300000  1.0 -0.3506920697
N  N16  1  0.34950000  0.83980000  0.88260000  1.0 -0.1288311822
N  N17  1  0.31750000  0.76810000  0.79630000  1.0 -0.1492075065
N  N18  1  0.21950000  0.79800000  0.81940000  1.0 -0.1492075065
N  N19  1  0.33030000  0.86070000  0.84910000  1.0 -0.1431135751
N  N20  1  0.29970000  0.78680000  0.76560000  1.0 -0.1431135751
N  N21  1  0.19990000  0.81700000  0.78610000  1.0 -0.1492075065
N  N22  1  0.22620000  0.72180000  0.94240000  1.0 -0.1185237861
N  N23  1  0.13960000  0.65820000  0.84750000  1.0 -0.4009708712
N  N24  1  0.28340000  0.65470000  0.90420000  1.0 -0.1492075065
N  N25  1  0.21600000  0.74750000  0.41430000  1.0 -0.1912777719
N  N26  1  0.28200000  0.81510000  0.38200000  1.0 -0.1912777719
N  N27  1  0.14200000  0.82760000  0.34300000  1.0 -0.3506920697
N  N28  1  0.34950000  0.66020000  0.38260000  1.0 -0.1288311822
N  N29  1  0.31750000  0.73190000  0.29630000  1.0 -0.1492075065
N  N30  1  0.21950000  0.70200000  0.31940000  1.0 -0.1492075065
N  N31  1  0.33030000  0.63930000  0.34910000  1.0 -0.1431135751
N  N32  1  0.29970000  0.71320000  0.26560000  1.0 -0.1431135751
N  N33  1  0.19990000  0.68300000  0.28610000  1.0 -0.1492075065
N  N34  1  0.22620000  0.77820000  0.44240000  1.0 -0.1185237861
N  N35  1  0.13960000  0.84180000  0.34750000  1.0 -0.4009708712
N  N36  1  0.28340000  0.84530000  0.40420000  1.0 -0.1492075065
N  N37  1  0.78400000  0.24750000  0.08570000  1.0 -0.1831696467
N  N38  1  0.71800000  0.31510000  0.11800000  1.0 -0.1831696467
N  N39  1  0.85800000  0.32760000  0.15700000  1.0 -0.3506920697
N  N40  1  0.65050000  0.16020000  0.11740000  1.0 -0.1288311822
N  N41  1  0.68250000  0.23190000  0.20370000  1.0 -0.1492075065
N  N42  1  0.78050000  0.20200000  0.18060000  1.0 -0.1492075065
N  N43  1  0.66970000  0.13930000  0.15090000  1.0 -0.1431135751
N  N44  1  0.70030000  0.21320000  0.23440000  1.0 -0.1492075065
N  N45  1  0.80010000  0.18300000  0.21390000  1.0 -0.1431135751
N  N46  1  0.77380000  0.27820000  0.05760000  1.0 -0.1118351506
N  N47  1  0.86040000  0.34180000  0.15250000  1.0 -0.4009708712
N  N48  1  0.71660000  0.34530000  0.09580000  1.0 -0.1492075065
O  O1  1  0.26610000  0.35640000  0.56430000  1.0 -0.1565074922
O  O2  1  0.76620000  0.93880000  0.82700000  1.0 -0.5545548336
O  O3  1  0.89372000  0.96470000  0.90150000  1.0 -0.496429606
O  O4  1  0.33460000  0.33810000  0.69950000  1.0 -0.1912777719
O  O5  1  0.80410000  0.52600000  0.47350000  1.0 -0.4573920356
O  O6  1  0.92670000  0.48880000  0.54280000  1.0 -0.5168281929
O  O7  1  0.06350000  0.12100000  0.94690000  1.0 -0.1912777719
O  O8  1  0.97410000  0.08730000  0.97130000  1.0 -0.3098285073
O  O9  1  0.21370000  0.30770000  0.69070000  1.0 -0.1912777719
O  O10  1  0.11050000  0.33200000  0.58050000  1.0 -0.2990088822
O  O11  1  0.33700000  0.27930000  0.34000000  1.0 -0.1565074922
O  O12  1  0.39300000  0.33900000  0.30100000  1.0 -0.1431135751
O  O13  1  0.31540000  0.31750000  0.67150000  1.0 -0.1185237861
O  O14  1  0.80920000  0.53560000  0.48860000  1.0 -0.4520814033
O  O15  1  0.93090000  0.49150000  0.54860000  1.0 -0.5437391536
O  O16  1  0.07590000  0.13170000  0.97250000  1.0 -0.1999809401
O  O17  1  0.96190000  0.08000000  0.95170000  1.0 -0.3098285073
O  O18  1  0.38410000  0.29580000  0.28670000  1.0 0.0295032096
O  O19  1  0.33730000  0.21560000  0.30870000  1.0 -0.4009708712
O  O20  1  0.12780000  0.33710000  0.60280000  1.0 -0.1185237861
O  O21  1  0.17660000  0.33210000  0.71250000  1.0 -0.2168240037
O  O22  1  0.27840000  0.36570000  0.58920000  1.0 -0.042524242
O  O23  1  0.73390000  0.85640000  0.93570000  1.0 -0.1565074922
O  O24  1  0.23380000  0.43880000  0.67300000  1.0 -0.5545548336
O  O25  1  0.10628000  0.46470000  0.59850000  1.0 -0.4937850373
O  O26  1  0.66540000  0.83810000  0.80050000  1.0 -0.1912777719
O  O27  1  0.19590000  0.02600000  0.02650000  1.0 -0.4573920356
O  O28  1  0.07330000  0.98880000  0.95720000  1.0 -0.5168281929
O  O29  1  0.93650000  0.62100000  0.55310000  1.0 -0.1912777719
O  O30  1  0.02590000  0.58730000  0.52870000  1.0 -0.3098285073
O  O31  1  0.78630000  0.80770000  0.80930000  1.0 -0.1912777719
O  O32  1  0.88950000  0.83200000  0.91950000  1.0 -0.2990088822
O  O33  1  0.66300000  0.77930000  0.16000000  1.0 -0.1565074922
O  O34  1  0.60700000  0.83900000  0.19900000  1.0 -0.1431135751
O  O35  1  0.68460000  0.81750000  0.82850000  1.0 -0.1185237861
O  O36  1  0.19080000  0.03560000  0.01140000  1.0 -0.4520814033
O  O37  1  0.06910000  0.99150000  0.95140000  1.0 -0.5437391536
O  O38  1  0.92410000  0.63170000  0.52750000  1.0 -0.1999809401
O  O39  1  0.03810000  0.58000000  0.54830000  1.0 -0.3098285073
O  O40  1  0.61590000  0.79580000  0.21330000  1.0 0.0295032096
O  O41  1  0.66270000  0.71560000  0.19130000  1.0 -0.4009708712
O  O42  1  0.87220000  0.83710000  0.89720000  1.0 -0.1185237861
O  O43  1  0.82340000  0.83210000  0.78750000  1.0 -0.2146337913
O  O44  1  0.72160000  0.86570000  0.91080000  1.0 -0.042524242
O  O45  1  0.73390000  0.64360000  0.43570000  1.0 -0.1565074922
O  O46  1  0.23380000  0.06120000  0.17300000  1.0 -0.5545548336
O  O47  1  0.10628000  0.03530000  0.09850000  1.0 -0.496429606
O  O48  1  0.66540000  0.66190000  0.30050000  1.0 -0.1912777719
O  O49  1  0.19590000  0.47400000  0.52650000  1.0 -0.4573920356
O  O50  1  0.07330000  0.51120000  0.45720000  1.0 -0.5168281929
O  O51  1  0.93650000  0.87900000  0.05310000  1.0 -0.1912777719
O  O52  1  0.02590000  0.91270000  0.02870000  1.0 -0.3098285073
O  O53  1  0.78630000  0.69230000  0.30930000  1.0 -0.1912777719
O  O54  1  0.88950000  0.66800000  0.41950000  1.0 -0.2990088822
O  O55  1  0.66300000  0.72070000  0.66000000  1.0 -0.1492075065
O  O56  1  0.60700000  0.66100000  0.69900000  1.0 -0.1431135751
O  O57  1  0.68460000  0.68250000  0.32850000  1.0 -0.1185237861
O  O58  1  0.19080000  0.46440000  0.51140000  1.0 -0.4520814033
O  O59  1  0.06910000  0.50850000  0.45140000  1.0 -0.5437391536
O  O60  1  0.92410000  0.86830000  0.02750000  1.0 -0.1999809401
O  O61  1  0.03810000  0.92000000  0.04830000  1.0 -0.3098285073
O  O62  1  0.61590000  0.70420000  0.71330000  1.0 0.0214041664
O  O63  1  0.66270000  0.78440000  0.69130000  1.0 -0.4009708712
O  O64  1  0.87220000  0.66290000  0.39720000  1.0 -0.1185237861
O  O65  1  0.82340000  0.66790000  0.28750000  1.0 -0.2168240037
O  O66  1  0.72160000  0.63430000  0.41080000  1.0 -0.042524242
O  O67  1  0.26610000  0.14360000  0.06430000  1.0 -0.1492075065
O  O68  1  0.76620000  0.56120000  0.32700000  1.0 -0.5545548336
O  O69  1  0.89372000  0.53530000  0.40150000  1.0 -0.4937850373
O  O70  1  0.33460000  0.16190000  0.19950000  1.0 -0.1912777719
O  O71  1  0.80410000  0.97400000  0.97350000  1.0 -0.4573920356
O  O72  1  0.92670000  0.01120000  0.04280000  1.0 -0.5168281929
O  O73  1  0.06350000  0.37900000  0.44690000  1.0 -0.1912777719
O  O74  1  0.97410000  0.41270000  0.47130000  1.0 -0.3098285073
O  O75  1  0.21370000  0.19230000  0.19070000  1.0 -0.1999809401
O  O76  1  0.11050000  0.16800000  0.08050000  1.0 -0.2990088822
O  O77  1  0.33700000  0.22070000  0.84000000  1.0 -0.1565074922
O  O78  1  0.39300000  0.16100000  0.80100000  1.0 -0.1431135751
O  O79  1  0.31540000  0.18250000  0.17150000  1.0 -0.1185237861
O  O80  1  0.80920000  0.96440000  0.98860000  1.0 -0.4520814033
O  O81  1  0.93090000  0.00850000  0.04860000  1.0 -0.5437391536
O  O82  1  0.07590000  0.36830000  0.47250000  1.0 -0.1999809401
O  O83  1  0.96190000  0.42000000  0.45170000  1.0 -0.3098285073
O  O84  1  0.38410000  0.20420000  0.78670000  1.0 0.0295032096
O  O85  1  0.33730000  0.28440000  0.80870000  1.0 -0.4009708712
O  O86  1  0.12780000  0.16290000  0.10280000  1.0 -0.1185237861
O  O87  1  0.17660000  0.16790000  0.21250000  1.0 -0.2168240037
O  O88  1  0.27840000  0.13430000  0.08920000  1.0 -0.042524242
