# DDEC6 charges by PACMAN v1.1 (https://github.com/mtap-research/PACMAN-charge/)
data_HIZTUG_ASR_pacman
_symmetry_space_group_name_H-M   'P 1'
_cell_length_a   33.94180000
_cell_length_b   33.94180000
_cell_length_c   14.21850000
_cell_angle_alpha   90.00000000
_cell_angle_beta   90.00000000
_cell_angle_gamma   120.00000000
_symmetry_Int_Tables_number   1
_chemical_formula_structural   Zn2H30C55O12
_chemical_formula_sum   'Zn16 H240 C440 O96'
_cell_volume   14185.81050362
_cell_formula_units_Z   8
loop_
 _symmetry_equiv_pos_site_id
 _symmetry_equiv_pos_as_xyz
  1  'x, y, z'
loop_
 _atom_site_type_symbol
 _atom_site_label
 _atom_site_symmetry_multiplicity
 _atom_site_fract_x
 _atom_site_fract_y
 _atom_site_fract_z
 _atom_site_occupancy
 _atom_site_charge
Zn  Zn1  1  0.34026000  0.07965000  0.62148000  1.0 0.9344355634
Zn  Zn2  1  0.92035000  0.26061000  0.62148000  1.0 0.9344355634
Zn  Zn3  1  0.73939000  0.65974000  0.62148000  1.0 0.9344355634
Zn  Zn4  1  0.07965000  0.73939000  0.62148000  1.0 0.9344355634
Zn  Zn5  1  0.26061000  0.34026000  0.62148000  1.0 0.9344355634
Zn  Zn6  1  0.65974000  0.92035000  0.62148000  1.0 0.9344355634
Zn  Zn7  1  0.65974000  0.92035000  0.37852000  1.0 0.9344355634
Zn  Zn8  1  0.07965000  0.73939000  0.37852000  1.0 0.9344355634
Zn  Zn9  1  0.26061000  0.34026000  0.37852000  1.0 0.9344355634
Zn  Zn10  1  0.92035000  0.26061000  0.37852000  1.0 0.9344355634
Zn  Zn11  1  0.73939000  0.65974000  0.37852000  1.0 0.9344355634
Zn  Zn12  1  0.34026000  0.07965000  0.37852000  1.0 0.9344355634
Zn  Zn13  1  0.66666667  0.33333333  0.36903000  1.0 0.7654705515
Zn  Zn14  1  0.33333333  0.66666667  0.36903000  1.0 0.7654705515
Zn  Zn15  1  0.33333333  0.66666667  0.63097000  1.0 0.7654705515
Zn  Zn16  1  0.66666667  0.33333333  0.63097000  1.0 0.7654705515
H  H1  1  0.23570000  0.09780000  0.50000000  1.0 0.1295739605
H  H2  1  0.90220000  0.13790000  0.50000000  1.0 0.1295739605
H  H3  1  0.86210000  0.76430000  0.50000000  1.0 0.1295739605
H  H4  1  0.09780000  0.86210000  0.50000000  1.0 0.1295739605
H  H5  1  0.13790000  0.23570000  0.50000000  1.0 0.1295739605
H  H6  1  0.76430000  0.90220000  0.50000000  1.0 0.1295739605
H  H7  1  0.16070000  0.08330000  0.50000000  1.0 0.1129374745
H  H8  1  0.91670000  0.07740000  0.50000000  1.0 0.1129374745
H  H9  1  0.92260000  0.83930000  0.50000000  1.0 0.1129374745
H  H10  1  0.08330000  0.92260000  0.50000000  1.0 0.1129374745
H  H11  1  0.07740000  0.16070000  0.50000000  1.0 0.1129374745
H  H12  1  0.83930000  0.91670000  0.50000000  1.0 0.1129374745
H  H13  1  0.14630000  0.14320000  0.50000000  1.0 0.1129374745
H  H14  1  0.85680000  0.00310000  0.50000000  1.0 0.1129374745
H  H15  1  0.99690000  0.85370000  0.50000000  1.0 0.1129374745
H  H16  1  0.14320000  0.99690000  0.50000000  1.0 0.1129374745
H  H17  1  0.00310000  0.14630000  0.50000000  1.0 0.1129374745
H  H18  1  0.85370000  0.85680000  0.50000000  1.0 0.1129374745
H  H19  1  0.20640000  0.21820000  0.50000000  1.0 0.1295739605
H  H20  1  0.78180000  0.98820000  0.50000000  1.0 0.1295739605
H  H21  1  0.01180000  0.79360000  0.50000000  1.0 0.1295739605
H  H22  1  0.21820000  0.01180000  0.50000000  1.0 0.1295739605
H  H23  1  0.98820000  0.20640000  0.50000000  1.0 0.1295739605
H  H24  1  0.79360000  0.78180000  0.50000000  1.0 0.1295739605
H  H25  1  0.34070000  0.30810000  0.65390000  1.0 0.1382843259
H  H26  1  0.69190000  0.03260000  0.65390000  1.0 0.1382843259
H  H27  1  0.96740000  0.65930000  0.65390000  1.0 0.1382843259
H  H28  1  0.30810000  0.96740000  0.65390000  1.0 0.1382843259
H  H29  1  0.03260000  0.34070000  0.65390000  1.0 0.1382843259
H  H30  1  0.65930000  0.69190000  0.65390000  1.0 0.1382843259
H  H31  1  0.65930000  0.69190000  0.34610000  1.0 0.1382843259
H  H32  1  0.30810000  0.96740000  0.34610000  1.0 0.1382843259
H  H33  1  0.03260000  0.34070000  0.34610000  1.0 0.1382843259
H  H34  1  0.69190000  0.03260000  0.34610000  1.0 0.1382843259
H  H35  1  0.96740000  0.65930000  0.34610000  1.0 0.1382843259
H  H36  1  0.34070000  0.30810000  0.34610000  1.0 0.1382843259
H  H37  1  0.38610000  0.30290000  0.77290000  1.0 0.1187830558
H  H38  1  0.69710000  0.08320000  0.77290000  1.0 0.1187830558
H  H39  1  0.91680000  0.61390000  0.77290000  1.0 0.1187830558
H  H40  1  0.30290000  0.91680000  0.77290000  1.0 0.1187830558
H  H41  1  0.08320000  0.38610000  0.77290000  1.0 0.1187830558
H  H42  1  0.61390000  0.69710000  0.77290000  1.0 0.1187830558
H  H43  1  0.61390000  0.69710000  0.22710000  1.0 0.1187830558
H  H44  1  0.30290000  0.91680000  0.22710000  1.0 0.1187830558
H  H45  1  0.08320000  0.38610000  0.22710000  1.0 0.1187830558
H  H46  1  0.69710000  0.08320000  0.22710000  1.0 0.1187830558
H  H47  1  0.91680000  0.61390000  0.22710000  1.0 0.1187830558
H  H48  1  0.38610000  0.30290000  0.22710000  1.0 0.1187830558
H  H49  1  0.40040000  0.24250000  0.77320000  1.0 0.1129374745
H  H50  1  0.75750000  0.15790000  0.77320000  1.0 0.1129374745
H  H51  1  0.84210000  0.59960000  0.77320000  1.0 0.1129374745
H  H52  1  0.24250000  0.84210000  0.77320000  1.0 0.1129374745
H  H53  1  0.15790000  0.40040000  0.77320000  1.0 0.1129374745
H  H54  1  0.59960000  0.75750000  0.77320000  1.0 0.1129374745
H  H55  1  0.59960000  0.75750000  0.22680000  1.0 0.1129374745
H  H56  1  0.24250000  0.84210000  0.22680000  1.0 0.1129374745
H  H57  1  0.15790000  0.40040000  0.22680000  1.0 0.1129374745
H  H58  1  0.75750000  0.15790000  0.22680000  1.0 0.1129374745
H  H59  1  0.84210000  0.59960000  0.22680000  1.0 0.1129374745
H  H60  1  0.40040000  0.24250000  0.22680000  1.0 0.1129374745
H  H61  1  0.37100000  0.18770000  0.65570000  1.0 0.1295739605
H  H62  1  0.81230000  0.18330000  0.65570000  1.0 0.1295739605
H  H63  1  0.81670000  0.62900000  0.65570000  1.0 0.1295739605
H  H64  1  0.18770000  0.81670000  0.65570000  1.0 0.1295739605
H  H65  1  0.18330000  0.37100000  0.65570000  1.0 0.1295739605
H  H66  1  0.62900000  0.81230000  0.65570000  1.0 0.1295739605
H  H67  1  0.62900000  0.81230000  0.34430000  1.0 0.1295739605
H  H68  1  0.18770000  0.81670000  0.34430000  1.0 0.1295739605
H  H69  1  0.18330000  0.37100000  0.34430000  1.0 0.1295739605
H  H70  1  0.81230000  0.18330000  0.34430000  1.0 0.1295739605
H  H71  1  0.81670000  0.62900000  0.34430000  1.0 0.1295739605
H  H72  1  0.37100000  0.18770000  0.34430000  1.0 0.1295739605
H  H73  1  0.41670000  0.18730000  0.50000000  1.0 0.1187830558
H  H74  1  0.81270000  0.22940000  0.50000000  1.0 0.1187830558
H  H75  1  0.77060000  0.58330000  0.50000000  1.0 0.1187830558
H  H76  1  0.18730000  0.77060000  0.50000000  1.0 0.1187830558
H  H77  1  0.22940000  0.41670000  0.50000000  1.0 0.1187830558
H  H78  1  0.58330000  0.81270000  0.50000000  1.0 0.1187830558
H  H79  1  0.43740000  0.26490000  0.50000000  1.0 0.1129374745
H  H80  1  0.73510000  0.17250000  0.50000000  1.0 0.1129374745
H  H81  1  0.82750000  0.56260000  0.50000000  1.0 0.1129374745
H  H82  1  0.26490000  0.82750000  0.50000000  1.0 0.1129374745
H  H83  1  0.17250000  0.43740000  0.50000000  1.0 0.1129374745
H  H84  1  0.56260000  0.73510000  0.50000000  1.0 0.1129374745
H  H85  1  0.51270000  0.32020000  0.50000000  1.0 0.1187830558
H  H86  1  0.67980000  0.19250000  0.50000000  1.0 0.1187830558
H  H87  1  0.80750000  0.48730000  0.50000000  1.0 0.1187830558
H  H88  1  0.32020000  0.80750000  0.50000000  1.0 0.1187830558
H  H89  1  0.19250000  0.51270000  0.50000000  1.0 0.1187830558
H  H90  1  0.48730000  0.67980000  0.50000000  1.0 0.1187830558
H  H91  1  0.57080000  0.30100000  0.50000000  1.0 0.1187830558
H  H92  1  0.69900000  0.26980000  0.50000000  1.0 0.1187830558
H  H93  1  0.73020000  0.42920000  0.50000000  1.0 0.1187830558
H  H94  1  0.30100000  0.73020000  0.50000000  1.0 0.1187830558
H  H95  1  0.26980000  0.57080000  0.50000000  1.0 0.1187830558
H  H96  1  0.42920000  0.69900000  0.50000000  1.0 0.1187830558
H  H97  1  0.60800000  0.20350000  0.35020000  1.0 0.1295739605
H  H98  1  0.79650000  0.40450000  0.35020000  1.0 0.1295739605
H  H99  1  0.59550000  0.39200000  0.35020000  1.0 0.1295739605
H  H100  1  0.20350000  0.59550000  0.35020000  1.0 0.1295739605
H  H101  1  0.40450000  0.60800000  0.35020000  1.0 0.1295739605
H  H102  1  0.39200000  0.79650000  0.35020000  1.0 0.1295739605
H  H103  1  0.39200000  0.79650000  0.64980000  1.0 0.1295739605
H  H104  1  0.20350000  0.59550000  0.64980000  1.0 0.1295739605
H  H105  1  0.40450000  0.60800000  0.64980000  1.0 0.1295739605
H  H106  1  0.79650000  0.40450000  0.64980000  1.0 0.1295739605
H  H107  1  0.59550000  0.39200000  0.64980000  1.0 0.1295739605
H  H108  1  0.60800000  0.20350000  0.64980000  1.0 0.1295739605
H  H109  1  0.58110000  0.14300000  0.24140000  1.0 0.1187830558
H  H110  1  0.85700000  0.43810000  0.24140000  1.0 0.1187830558
H  H111  1  0.56190000  0.41890000  0.24140000  1.0 0.1187830558
H  H112  1  0.14300000  0.56190000  0.24140000  1.0 0.1187830558
H  H113  1  0.43810000  0.58110000  0.24140000  1.0 0.1187830558
H  H114  1  0.41890000  0.85700000  0.24140000  1.0 0.1187830558
H  H115  1  0.41890000  0.85700000  0.75860000  1.0 0.1187830558
H  H116  1  0.14300000  0.56190000  0.75860000  1.0 0.1187830558
H  H117  1  0.43810000  0.58110000  0.75860000  1.0 0.1187830558
H  H118  1  0.85700000  0.43810000  0.75860000  1.0 0.1187830558
H  H119  1  0.56190000  0.41890000  0.75860000  1.0 0.1187830558
H  H120  1  0.58110000  0.14300000  0.75860000  1.0 0.1187830558
H  H121  1  0.50520000  0.08520000  0.24600000  1.0 0.1129374745
H  H122  1  0.91480000  0.42000000  0.24600000  1.0 0.1129374745
H  H123  1  0.58000000  0.49480000  0.24600000  1.0 0.1129374745
H  H124  1  0.08520000  0.58000000  0.24600000  1.0 0.1129374745
H  H125  1  0.42000000  0.50520000  0.24600000  1.0 0.1129374745
H  H126  1  0.49480000  0.91480000  0.24600000  1.0 0.1129374745
H  H127  1  0.49480000  0.91480000  0.75400000  1.0 0.1129374745
H  H128  1  0.08520000  0.58000000  0.75400000  1.0 0.1129374745
H  H129  1  0.42000000  0.50520000  0.75400000  1.0 0.1129374745
H  H130  1  0.91480000  0.42000000  0.75400000  1.0 0.1129374745
H  H131  1  0.58000000  0.49480000  0.75400000  1.0 0.1129374745
H  H132  1  0.50520000  0.08520000  0.75400000  1.0 0.1129374745
H  H133  1  0.45450000  0.08820000  0.35120000  1.0 0.1382843259
H  H134  1  0.91180000  0.36630000  0.35120000  1.0 0.1382843259
H  H135  1  0.63370000  0.54550000  0.35120000  1.0 0.1382843259
H  H136  1  0.08820000  0.63370000  0.35120000  1.0 0.1382843259
H  H137  1  0.36630000  0.45450000  0.35120000  1.0 0.1382843259
H  H138  1  0.54550000  0.91180000  0.35120000  1.0 0.1382843259
H  H139  1  0.54550000  0.91180000  0.64880000  1.0 0.1382843259
H  H140  1  0.08820000  0.63370000  0.64880000  1.0 0.1382843259
H  H141  1  0.36630000  0.45450000  0.64880000  1.0 0.1382843259
H  H142  1  0.91180000  0.36630000  0.64880000  1.0 0.1382843259
H  H143  1  0.63370000  0.54550000  0.64880000  1.0 0.1382843259
H  H144  1  0.45450000  0.08820000  0.64880000  1.0 0.1382843259
H  H145  1  0.35350000  0.15040000  0.83620000  1.0 0.1295739605
H  H146  1  0.84960000  0.20310000  0.83620000  1.0 0.1295739605
H  H147  1  0.79690000  0.64650000  0.83620000  1.0 0.1295739605
H  H148  1  0.15040000  0.79690000  0.83620000  1.0 0.1295739605
H  H149  1  0.20310000  0.35350000  0.83620000  1.0 0.1295739605
H  H150  1  0.64650000  0.84960000  0.83620000  1.0 0.1295739605
H  H151  1  0.64650000  0.84960000  0.16380000  1.0 0.1295739605
H  H152  1  0.15040000  0.79690000  0.16380000  1.0 0.1295739605
H  H153  1  0.20310000  0.35350000  0.16380000  1.0 0.1295739605
H  H154  1  0.84960000  0.20310000  0.16380000  1.0 0.1295739605
H  H155  1  0.79690000  0.64650000  0.16380000  1.0 0.1295739605
H  H156  1  0.35350000  0.15040000  0.16380000  1.0 0.1295739605
H  H157  1  0.35430000  0.20810000  0.90850000  1.0 0.1129374745
H  H158  1  0.79190000  0.14620000  0.90850000  1.0 0.1129374745
H  H159  1  0.85380000  0.64570000  0.90850000  1.0 0.1129374745
H  H160  1  0.20810000  0.85380000  0.90850000  1.0 0.1129374745
H  H161  1  0.14620000  0.35430000  0.90850000  1.0 0.1129374745
H  H162  1  0.64570000  0.79190000  0.90850000  1.0 0.1129374745
H  H163  1  0.64570000  0.79190000  0.09150000  1.0 0.1129374745
H  H164  1  0.20810000  0.85380000  0.09150000  1.0 0.1129374745
H  H165  1  0.14620000  0.35430000  0.09150000  1.0 0.1129374745
H  H166  1  0.79190000  0.14620000  0.09150000  1.0 0.1129374745
H  H167  1  0.85380000  0.64570000  0.09150000  1.0 0.1129374745
H  H168  1  0.35430000  0.20810000  0.09150000  1.0 0.1129374745
H  H169  1  0.43930000  0.08780000  0.83570000  1.0 0.1187830558
H  H170  1  0.91220000  0.35150000  0.83570000  1.0 0.1187830558
H  H171  1  0.64850000  0.56070000  0.83570000  1.0 0.1187830558
H  H172  1  0.08780000  0.64850000  0.83570000  1.0 0.1187830558
H  H173  1  0.35150000  0.43930000  0.83570000  1.0 0.1187830558
H  H174  1  0.56070000  0.91220000  0.83570000  1.0 0.1187830558
H  H175  1  0.56070000  0.91220000  0.16430000  1.0 0.1187830558
H  H176  1  0.08780000  0.64850000  0.16430000  1.0 0.1187830558
H  H177  1  0.35150000  0.43930000  0.16430000  1.0 0.1187830558
H  H178  1  0.91220000  0.35150000  0.16430000  1.0 0.1187830558
H  H179  1  0.64850000  0.56070000  0.16430000  1.0 0.1187830558
H  H180  1  0.43930000  0.08780000  0.16430000  1.0 0.1187830558
H  H181  1  0.50040000  0.09770000  0.90730000  1.0 0.1039484164
H  H182  1  0.90230000  0.40270000  0.90730000  1.0 0.1039484164
H  H183  1  0.59730000  0.49960000  0.90730000  1.0 0.1039484164
H  H184  1  0.09770000  0.59730000  0.90730000  1.0 0.1039484164
H  H185  1  0.40270000  0.50040000  0.90730000  1.0 0.1039484164
H  H186  1  0.49960000  0.90230000  0.90730000  1.0 0.1039484164
H  H187  1  0.49960000  0.90230000  0.09270000  1.0 0.1039484164
H  H188  1  0.09770000  0.59730000  0.09270000  1.0 0.1039484164
H  H189  1  0.40270000  0.50040000  0.09270000  1.0 0.1039484164
H  H190  1  0.90230000  0.40270000  0.09270000  1.0 0.1039484164
H  H191  1  0.59730000  0.49960000  0.09270000  1.0 0.1039484164
H  H192  1  0.50040000  0.09770000  0.09270000  1.0 0.1039484164
H  H193  1  0.28260000  0.99570000  0.83530000  1.0 0.1295739605
H  H194  1  0.00430000  0.28690000  0.83530000  1.0 0.1295739605
H  H195  1  0.71310000  0.71740000  0.83530000  1.0 0.1295739605
H  H196  1  0.99570000  0.71310000  0.83530000  1.0 0.1295739605
H  H197  1  0.28690000  0.28260000  0.83530000  1.0 0.1295739605
H  H198  1  0.71740000  0.00430000  0.83530000  1.0 0.1295739605
H  H199  1  0.71740000  0.00430000  0.16470000  1.0 0.1295739605
H  H200  1  0.99570000  0.71310000  0.16470000  1.0 0.1295739605
H  H201  1  0.28690000  0.28260000  0.16470000  1.0 0.1295739605
H  H202  1  0.00430000  0.28690000  0.16470000  1.0 0.1295739605
H  H203  1  0.71310000  0.71740000  0.16470000  1.0 0.1295739605
H  H204  1  0.28260000  0.99570000  0.16470000  1.0 0.1295739605
H  H205  1  0.22810000  0.93730000  0.90870000  1.0 0.1129374745
H  H206  1  0.06270000  0.29080000  0.90870000  1.0 0.1129374745
H  H207  1  0.70920000  0.77190000  0.90870000  1.0 0.1129374745
H  H208  1  0.93730000  0.70920000  0.90870000  1.0 0.1129374745
H  H209  1  0.29080000  0.22810000  0.90870000  1.0 0.1129374745
H  H210  1  0.77190000  0.06270000  0.90870000  1.0 0.1129374745
H  H211  1  0.77190000  0.06270000  0.09130000  1.0 0.1129374745
H  H212  1  0.93730000  0.70920000  0.09130000  1.0 0.1129374745
H  H213  1  0.29080000  0.22810000  0.09130000  1.0 0.1129374745
H  H214  1  0.06270000  0.29080000  0.09130000  1.0 0.1129374745
H  H215  1  0.70920000  0.77190000  0.09130000  1.0 0.1129374745
H  H216  1  0.22810000  0.93730000  0.09130000  1.0 0.1129374745
H  H217  1  0.60960000  0.24490000  0.16500000  1.0 0.1129374745
H  H218  1  0.75510000  0.36470000  0.16500000  1.0 0.1129374745
H  H219  1  0.63530000  0.39040000  0.16500000  1.0 0.1129374745
H  H220  1  0.24490000  0.63530000  0.16500000  1.0 0.1129374745
H  H221  1  0.36470000  0.60960000  0.16500000  1.0 0.1129374745
H  H222  1  0.39040000  0.75510000  0.16500000  1.0 0.1129374745
H  H223  1  0.39040000  0.75510000  0.83500000  1.0 0.1129374745
H  H224  1  0.24490000  0.63530000  0.83500000  1.0 0.1129374745
H  H225  1  0.36470000  0.60960000  0.83500000  1.0 0.1129374745
H  H226  1  0.75510000  0.36470000  0.83500000  1.0 0.1129374745
H  H227  1  0.63530000  0.39040000  0.83500000  1.0 0.1129374745
H  H228  1  0.60960000  0.24490000  0.83500000  1.0 0.1129374745
H  H229  1  0.57130000  0.17970000  0.09110000  1.0 0.1129374745
H  H230  1  0.82030000  0.39160000  0.09110000  1.0 0.1129374745
H  H231  1  0.60840000  0.42870000  0.09110000  1.0 0.1129374745
H  H232  1  0.17970000  0.60840000  0.09110000  1.0 0.1129374745
H  H233  1  0.39160000  0.57130000  0.09110000  1.0 0.1129374745
H  H234  1  0.42870000  0.82030000  0.09110000  1.0 0.1129374745
H  H235  1  0.42870000  0.82030000  0.90890000  1.0 0.1129374745
H  H236  1  0.17970000  0.60840000  0.90890000  1.0 0.1129374745
H  H237  1  0.39160000  0.57130000  0.90890000  1.0 0.1129374745
H  H238  1  0.82030000  0.39160000  0.90890000  1.0 0.1129374745
H  H239  1  0.60840000  0.42870000  0.90890000  1.0 0.1129374745
H  H240  1  0.57130000  0.17970000  0.90890000  1.0 0.1129374745
C  C1  1  0.31657000  0.18215000  0.50000000  1.0 -0.0685592277
C  C2  1  0.81785000  0.13442000  0.50000000  1.0 -0.0685592277
C  C3  1  0.86558000  0.68343000  0.50000000  1.0 -0.0685592277
C  C4  1  0.18215000  0.86558000  0.50000000  1.0 -0.0685592277
C  C5  1  0.13442000  0.31657000  0.50000000  1.0 -0.0685592277
C  C6  1  0.68343000  0.81785000  0.50000000  1.0 -0.0685592277
C  C7  1  0.26522000  0.16630000  0.50000000  1.0 0.0389312646
C  C8  1  0.83370000  0.09892000  0.50000000  1.0 0.0389312646
C  C9  1  0.90108000  0.73478000  0.50000000  1.0 0.0389312646
C  C10  1  0.16630000  0.90108000  0.50000000  1.0 0.0389312646
C  C11  1  0.09892000  0.26522000  0.50000000  1.0 0.0389312646
C  C12  1  0.73478000  0.83370000  0.50000000  1.0 0.0389312646
C  C13  1  0.22984000  0.12235000  0.50000000  1.0 -0.1421506144
C  C14  1  0.87765000  0.10749000  0.50000000  1.0 -0.1421506144
C  C15  1  0.89251000  0.77016000  0.50000000  1.0 -0.1494648525
C  C16  1  0.12235000  0.89251000  0.50000000  1.0 -0.1494648525
C  C17  1  0.10749000  0.22984000  0.50000000  1.0 -0.1494648525
C  C18  1  0.77016000  0.87765000  0.50000000  1.0 -0.1494648525
C  C19  1  0.18532000  0.11378000  0.50000000  1.0 -0.1013079804
C  C20  1  0.88622000  0.07154000  0.50000000  1.0 -0.1013079804
C  C21  1  0.92846000  0.81468000  0.50000000  1.0 -0.1013079804
C  C22  1  0.11378000  0.92846000  0.50000000  1.0 -0.1013079804
C  C23  1  0.07154000  0.18532000  0.50000000  1.0 -0.1013079804
C  C24  1  0.81468000  0.88622000  0.50000000  1.0 -0.1013079804
C  C25  1  0.17684000  0.14918000  0.50000000  1.0 -0.1013079804
C  C26  1  0.85082000  0.02766000  0.50000000  1.0 -0.1013079804
C  C27  1  0.97234000  0.82316000  0.50000000  1.0 -0.1013079804
C  C28  1  0.14918000  0.97234000  0.50000000  1.0 -0.1013079804
C  C29  1  0.02766000  0.17684000  0.50000000  1.0 -0.1013079804
C  C30  1  0.82316000  0.85082000  0.50000000  1.0 -0.1013079804
C  C31  1  0.21253000  0.19383000  0.50000000  1.0 -0.1421506144
C  C32  1  0.80617000  0.01870000  0.50000000  1.0 -0.1421506144
C  C33  1  0.98130000  0.78747000  0.50000000  1.0 -0.1421506144
C  C34  1  0.19383000  0.98130000  0.50000000  1.0 -0.1421506144
C  C35  1  0.01870000  0.21253000  0.50000000  1.0 -0.1421506144
C  C36  1  0.78747000  0.80617000  0.50000000  1.0 -0.1421506144
C  C37  1  0.25633000  0.20269000  0.50000000  1.0 0.0389312646
C  C38  1  0.79731000  0.05364000  0.50000000  1.0 0.0389312646
C  C39  1  0.94636000  0.74367000  0.50000000  1.0 0.0389312646
C  C40  1  0.20269000  0.94636000  0.50000000  1.0 0.0389312646
C  C41  1  0.05364000  0.25633000  0.50000000  1.0 0.0389312646
C  C42  1  0.74367000  0.79731000  0.50000000  1.0 0.0389312646
C  C43  1  0.29959000  0.24935000  0.50000000  1.0 -0.0570256128
C  C44  1  0.75065000  0.05024000  0.50000000  1.0 -0.0570256128
C  C45  1  0.94976000  0.70041000  0.50000000  1.0 -0.0570256128
C  C46  1  0.24935000  0.94976000  0.50000000  1.0 -0.0570256128
C  C47  1  0.05024000  0.29959000  0.50000000  1.0 -0.0570256128
C  C48  1  0.70041000  0.75065000  0.50000000  1.0 -0.0570256128
C  C49  1  0.32807000  0.24987000  0.58570000  1.0 0.0389312646
C  C50  1  0.75013000  0.07820000  0.58570000  1.0 0.0389312646
C  C51  1  0.92180000  0.67193000  0.58570000  1.0 0.0389312646
C  C52  1  0.24987000  0.92180000  0.58570000  1.0 0.0389312646
C  C53  1  0.07820000  0.32807000  0.58570000  1.0 0.0389312646
C  C54  1  0.67193000  0.75013000  0.58570000  1.0 0.0389312646
C  C55  1  0.67193000  0.75013000  0.41430000  1.0 0.0389312646
C  C56  1  0.24987000  0.92180000  0.41430000  1.0 0.0389312646
C  C57  1  0.07820000  0.32807000  0.41430000  1.0 0.0389312646
C  C58  1  0.75013000  0.07820000  0.41430000  1.0 0.0389312646
C  C59  1  0.92180000  0.67193000  0.41430000  1.0 0.0389312646
C  C60  1  0.32807000  0.24987000  0.41430000  1.0 0.0389312646
C  C61  1  0.34650000  0.28346000  0.65470000  1.0 -0.129225204
C  C62  1  0.71654000  0.06304000  0.65470000  1.0 -0.129225204
C  C63  1  0.93696000  0.65350000  0.65470000  1.0 -0.129225204
C  C64  1  0.28346000  0.93696000  0.65470000  1.0 -0.129225204
C  C65  1  0.06304000  0.34650000  0.65470000  1.0 -0.129225204
C  C66  1  0.65350000  0.71654000  0.65470000  1.0 -0.129225204
C  C67  1  0.65350000  0.71654000  0.34530000  1.0 -0.129225204
C  C68  1  0.28346000  0.93696000  0.34530000  1.0 -0.129225204
C  C69  1  0.06304000  0.34650000  0.34530000  1.0 -0.129225204
C  C70  1  0.71654000  0.06304000  0.34530000  1.0 -0.129225204
C  C71  1  0.93696000  0.65350000  0.34530000  1.0 -0.129225204
C  C72  1  0.34650000  0.28346000  0.34530000  1.0 -0.129225204
C  C73  1  0.37353000  0.28040000  0.72499000  1.0 -0.1013079804
C  C74  1  0.71960000  0.09313000  0.72499000  1.0 -0.1013079804
C  C75  1  0.90687000  0.62647000  0.72499000  1.0 -0.1013079804
C  C76  1  0.28040000  0.90687000  0.72499000  1.0 -0.1013079804
C  C77  1  0.09313000  0.37353000  0.72499000  1.0 -0.1013079804
C  C78  1  0.62647000  0.71960000  0.72499000  1.0 -0.1013079804
C  C79  1  0.62647000  0.71960000  0.27501000  1.0 -0.1013079804
C  C80  1  0.28040000  0.90687000  0.27501000  1.0 -0.1013079804
C  C81  1  0.09313000  0.37353000  0.27501000  1.0 -0.1013079804
C  C82  1  0.71960000  0.09313000  0.27501000  1.0 -0.1013079804
C  C83  1  0.90687000  0.62647000  0.27501000  1.0 -0.1013079804
C  C84  1  0.37353000  0.28040000  0.27501000  1.0 -0.1013079804
C  C85  1  0.38214000  0.24452000  0.72500000  1.0 -0.1062111062
C  C86  1  0.75548000  0.13762000  0.72500000  1.0 -0.1062111062
C  C87  1  0.86238000  0.61786000  0.72500000  1.0 -0.1062111062
C  C88  1  0.24452000  0.86238000  0.72500000  1.0 -0.1062111062
C  C89  1  0.13762000  0.38214000  0.72500000  1.0 -0.1062111062
C  C90  1  0.61786000  0.75548000  0.72500000  1.0 -0.1062111062
C  C91  1  0.61786000  0.75548000  0.27500000  1.0 -0.1062111062
C  C92  1  0.24452000  0.86238000  0.27500000  1.0 -0.1062111062
C  C93  1  0.13762000  0.38214000  0.27500000  1.0 -0.1062111062
C  C94  1  0.75548000  0.13762000  0.27500000  1.0 -0.1062111062
C  C95  1  0.86238000  0.61786000  0.27500000  1.0 -0.1062111062
C  C96  1  0.38214000  0.24452000  0.27500000  1.0 -0.1062111062
C  C97  1  0.36443000  0.21182000  0.65565000  1.0 -0.129225204
C  C98  1  0.78818000  0.15261000  0.65565000  1.0 -0.129225204
C  C99  1  0.84739000  0.63557000  0.65565000  1.0 -0.129225204
C  C100  1  0.21182000  0.84739000  0.65565000  1.0 -0.129225204
C  C101  1  0.15261000  0.36443000  0.65565000  1.0 -0.129225204
C  C102  1  0.63557000  0.78818000  0.65565000  1.0 -0.129225204
C  C103  1  0.63557000  0.78818000  0.34435000  1.0 -0.129225204
C  C104  1  0.21182000  0.84739000  0.34435000  1.0 -0.129225204
C  C105  1  0.15261000  0.36443000  0.34435000  1.0 -0.129225204
C  C106  1  0.78818000  0.15261000  0.34435000  1.0 -0.129225204
C  C107  1  0.84739000  0.63557000  0.34435000  1.0 -0.129225204
C  C108  1  0.36443000  0.21182000  0.34435000  1.0 -0.129225204
C  C109  1  0.33689000  0.21404000  0.58518000  1.0 0.0389312646
C  C110  1  0.78596000  0.12285000  0.58518000  1.0 0.0389312646
C  C111  1  0.87715000  0.66311000  0.58518000  1.0 0.0389312646
C  C112  1  0.21404000  0.87715000  0.58518000  1.0 0.0389312646
C  C113  1  0.12285000  0.33689000  0.58518000  1.0 0.0389312646
C  C114  1  0.66311000  0.78596000  0.58518000  1.0 0.0389312646
C  C115  1  0.66311000  0.78596000  0.41482000  1.0 0.0389312646
C  C116  1  0.21404000  0.87715000  0.41482000  1.0 0.0389312646
C  C117  1  0.12285000  0.33689000  0.41482000  1.0 0.0389312646
C  C118  1  0.78596000  0.12285000  0.41482000  1.0 0.0389312646
C  C119  1  0.87715000  0.66311000  0.41482000  1.0 0.0389312646
C  C120  1  0.33689000  0.21404000  0.41482000  1.0 0.0389312646
C  C121  1  0.32100000  0.14028000  0.50000000  1.0 0.5942301622
C  C122  1  0.85972000  0.18072000  0.50000000  1.0 0.5942301622
C  C123  1  0.81928000  0.67900000  0.50000000  1.0 0.5942301622
C  C124  1  0.14028000  0.81928000  0.50000000  1.0 0.5942301622
C  C125  1  0.18072000  0.32100000  0.50000000  1.0 0.5942301622
C  C126  1  0.67900000  0.85972000  0.50000000  1.0 0.5942301622
C  C127  1  0.28473000  0.00002000  0.50000000  1.0 0.6025791537
C  C128  1  0.99998000  0.28471000  0.50000000  1.0 0.6025791537
C  C129  1  0.71529000  0.71527000  0.50000000  1.0 0.6025791537
C  C130  1  0.00002000  0.71529000  0.50000000  1.0 0.6025791537
C  C131  1  0.28471000  0.28473000  0.50000000  1.0 0.6025791537
C  C132  1  0.71527000  0.99998000  0.50000000  1.0 0.6025791537
C  C133  1  0.47417000  0.15051000  0.50000000  1.0 -0.0570256128
C  C134  1  0.84949000  0.32366000  0.50000000  1.0 -0.0570256128
C  C135  1  0.67634000  0.52583000  0.50000000  1.0 -0.0570256128
C  C136  1  0.15051000  0.67634000  0.50000000  1.0 -0.0570256128
C  C137  1  0.32366000  0.47417000  0.50000000  1.0 -0.0570256128
C  C138  1  0.52583000  0.84949000  0.50000000  1.0 -0.0570256128
C  C139  1  0.48123000  0.19875000  0.50000000  1.0 0.0389312646
C  C140  1  0.80125000  0.28248000  0.50000000  1.0 0.0389312646
C  C141  1  0.71752000  0.51877000  0.50000000  1.0 0.0389312646
C  C142  1  0.19875000  0.71752000  0.50000000  1.0 0.0389312646
C  C143  1  0.28248000  0.48123000  0.50000000  1.0 0.0389312646
C  C144  1  0.51877000  0.80125000  0.50000000  1.0 0.0389312646
C  C145  1  0.44786000  0.21026000  0.50000000  1.0 -0.1421506144
C  C146  1  0.78974000  0.23760000  0.50000000  1.0 -0.1421506144
C  C147  1  0.76240000  0.55214000  0.50000000  1.0 -0.1421506144
C  C148  1  0.21026000  0.76240000  0.50000000  1.0 -0.1421506144
C  C149  1  0.23760000  0.44786000  0.50000000  1.0 -0.1421506144
C  C150  1  0.55214000  0.78974000  0.50000000  1.0 -0.1421506144
C  C151  1  0.46028000  0.25658000  0.50000000  1.0 -0.0823417645
C  C152  1  0.74342000  0.20370000  0.50000000  1.0 -0.0823417645
C  C153  1  0.79630000  0.53972000  0.50000000  1.0 -0.0823417645
C  C154  1  0.25658000  0.79630000  0.50000000  1.0 -0.0823417645
C  C155  1  0.20370000  0.46028000  0.50000000  1.0 -0.0823417645
C  C156  1  0.53972000  0.74342000  0.50000000  1.0 -0.0823417645
C  C157  1  0.50472000  0.28913000  0.50000000  1.0 -0.0919240096
C  C158  1  0.71087000  0.21559000  0.50000000  1.0 -0.0919240096
C  C159  1  0.78441000  0.49528000  0.50000000  1.0 -0.0919240096
C  C160  1  0.28913000  0.78441000  0.50000000  1.0 -0.0919240096
C  C161  1  0.21559000  0.50472000  0.50000000  1.0 -0.0919240096
C  C162  1  0.49528000  0.71087000  0.50000000  1.0 -0.0919240096
C  C163  1  0.53961000  0.27790000  0.50000000  1.0 -0.1494648525
C  C164  1  0.72210000  0.26171000  0.50000000  1.0 -0.1494648525
C  C165  1  0.73829000  0.46039000  0.50000000  1.0 -0.1494648525
C  C166  1  0.27790000  0.73829000  0.50000000  1.0 -0.1494648525
C  C167  1  0.26171000  0.53961000  0.50000000  1.0 -0.1494648525
C  C168  1  0.46039000  0.72210000  0.50000000  1.0 -0.1494648525
C  C169  1  0.52702000  0.23229000  0.50000000  1.0 0.0327034756
C  C170  1  0.76771000  0.29473000  0.50000000  1.0 0.0327034756
C  C171  1  0.70527000  0.47298000  0.50000000  1.0 0.0327034756
C  C172  1  0.23229000  0.70527000  0.50000000  1.0 0.0327034756
C  C173  1  0.29473000  0.52702000  0.50000000  1.0 0.0327034756
C  C174  1  0.47298000  0.76771000  0.50000000  1.0 0.0327034756
C  C175  1  0.55979000  0.21387000  0.50000000  1.0 -0.0570256128
C  C176  1  0.78613000  0.34592000  0.50000000  1.0 -0.0570256128
C  C177  1  0.65408000  0.44021000  0.50000000  1.0 -0.0570256128
C  C178  1  0.21387000  0.65408000  0.50000000  1.0 -0.0570256128
C  C179  1  0.34592000  0.55979000  0.50000000  1.0 -0.0570256128
C  C180  1  0.44021000  0.78613000  0.50000000  1.0 -0.0570256128
C  C181  1  0.54701000  0.18111000  0.41601000  1.0 0.0389312646
C  C182  1  0.81889000  0.36590000  0.41601000  1.0 0.0389312646
C  C183  1  0.63410000  0.45299000  0.41601000  1.0 0.0389312646
C  C184  1  0.18111000  0.63410000  0.41601000  1.0 0.0389312646
C  C185  1  0.36590000  0.54701000  0.41601000  1.0 0.0389312646
C  C186  1  0.45299000  0.81889000  0.41601000  1.0 0.0389312646
C  C187  1  0.45299000  0.81889000  0.58399000  1.0 0.0389312646
C  C188  1  0.18111000  0.63410000  0.58399000  1.0 0.0389312646
C  C189  1  0.36590000  0.54701000  0.58399000  1.0 0.0389312646
C  C190  1  0.81889000  0.36590000  0.58399000  1.0 0.0389312646
C  C191  1  0.63410000  0.45299000  0.58399000  1.0 0.0389312646
C  C192  1  0.54701000  0.18111000  0.58399000  1.0 0.0389312646
C  C193  1  0.57699000  0.18006000  0.35090000  1.0 -0.1421506144
C  C194  1  0.81994000  0.39693000  0.35090000  1.0 -0.1421506144
C  C195  1  0.60307000  0.42301000  0.35090000  1.0 -0.1421506144
C  C196  1  0.18006000  0.60307000  0.35090000  1.0 -0.1421506144
C  C197  1  0.39693000  0.57699000  0.35090000  1.0 -0.1421506144
C  C198  1  0.42301000  0.81994000  0.35090000  1.0 -0.1421506144
C  C199  1  0.42301000  0.81994000  0.64910000  1.0 -0.1421506144
C  C200  1  0.18006000  0.60307000  0.64910000  1.0 -0.1421506144
C  C201  1  0.39693000  0.57699000  0.64910000  1.0 -0.1421506144
C  C202  1  0.81994000  0.39693000  0.64910000  1.0 -0.1421506144
C  C203  1  0.60307000  0.42301000  0.64910000  1.0 -0.1421506144
C  C204  1  0.57699000  0.18006000  0.64910000  1.0 -0.1421506144
C  C205  1  0.56103000  0.14407000  0.28640000  1.0 -0.1062111062
C  C206  1  0.85593000  0.41696000  0.28640000  1.0 -0.1062111062
C  C207  1  0.58304000  0.43897000  0.28640000  1.0 -0.1062111062
C  C208  1  0.14407000  0.58304000  0.28640000  1.0 -0.1062111062
C  C209  1  0.41696000  0.56103000  0.28640000  1.0 -0.1062111062
C  C210  1  0.43897000  0.85593000  0.28640000  1.0 -0.1062111062
C  C211  1  0.43897000  0.85593000  0.71360000  1.0 -0.1062111062
C  C212  1  0.14407000  0.58304000  0.71360000  1.0 -0.1062111062
C  C213  1  0.41696000  0.56103000  0.71360000  1.0 -0.1062111062
C  C214  1  0.85593000  0.41696000  0.71360000  1.0 -0.1062111062
C  C215  1  0.58304000  0.43897000  0.71360000  1.0 -0.1062111062
C  C216  1  0.56103000  0.14407000  0.71360000  1.0 -0.1062111062
C  C217  1  0.51565000  0.10991000  0.28870000  1.0 -0.1013079804
C  C218  1  0.89009000  0.40574000  0.28870000  1.0 -0.1013079804
C  C219  1  0.59426000  0.48435000  0.28870000  1.0 -0.1013079804
C  C220  1  0.10991000  0.59426000  0.28870000  1.0 -0.1013079804
C  C221  1  0.40574000  0.51565000  0.28870000  1.0 -0.1013079804
C  C222  1  0.48435000  0.89009000  0.28870000  1.0 -0.1013079804
C  C223  1  0.48435000  0.89009000  0.71130000  1.0 -0.1013079804
C  C224  1  0.10991000  0.59426000  0.71130000  1.0 -0.1013079804
C  C225  1  0.40574000  0.51565000  0.71130000  1.0 -0.1013079804
C  C226  1  0.89009000  0.40574000  0.71130000  1.0 -0.1013079804
C  C227  1  0.59426000  0.48435000  0.71130000  1.0 -0.1013079804
C  C228  1  0.51565000  0.10991000  0.71130000  1.0 -0.1013079804
C  C229  1  0.48558000  0.11131000  0.35170000  1.0 -0.1231141655
C  C230  1  0.88869000  0.37427000  0.35170000  1.0 -0.129225204
C  C231  1  0.62573000  0.51442000  0.35170000  1.0 -0.1231141655
C  C232  1  0.11131000  0.62573000  0.35170000  1.0 -0.1231141655
C  C233  1  0.37427000  0.48558000  0.35170000  1.0 -0.1231141655
C  C234  1  0.51442000  0.88869000  0.35170000  1.0 -0.1231141655
C  C235  1  0.51442000  0.88869000  0.64830000  1.0 -0.1231141655
C  C236  1  0.11131000  0.62573000  0.64830000  1.0 -0.1231141655
C  C237  1  0.37427000  0.48558000  0.64830000  1.0 -0.1231141655
C  C238  1  0.88869000  0.37427000  0.64830000  1.0 -0.129225204
C  C239  1  0.62573000  0.51442000  0.64830000  1.0 -0.1231141655
C  C240  1  0.48558000  0.11131000  0.64830000  1.0 -0.1231141655
C  C241  1  0.50108000  0.14691000  0.41630000  1.0 0.0389312646
C  C242  1  0.85309000  0.35417000  0.41630000  1.0 0.0389312646
C  C243  1  0.64583000  0.49892000  0.41630000  1.0 0.0389312646
C  C244  1  0.14691000  0.64583000  0.41630000  1.0 0.0389312646
C  C245  1  0.35417000  0.50108000  0.41630000  1.0 0.0389312646
C  C246  1  0.49892000  0.85309000  0.41630000  1.0 0.0389312646
C  C247  1  0.49892000  0.85309000  0.58370000  1.0 0.0389312646
C  C248  1  0.14691000  0.64583000  0.58370000  1.0 0.0389312646
C  C249  1  0.35417000  0.50108000  0.58370000  1.0 0.0389312646
C  C250  1  0.85309000  0.35417000  0.58370000  1.0 0.0389312646
C  C251  1  0.64583000  0.49892000  0.58370000  1.0 0.0389312646
C  C252  1  0.50108000  0.14691000  0.58370000  1.0 0.0389312646
C  C253  1  0.42294000  0.11804000  0.50000000  1.0 0.6065066031
C  C254  1  0.88196000  0.30490000  0.50000000  1.0 0.6065066031
C  C255  1  0.69510000  0.57706000  0.50000000  1.0 0.6065066031
C  C256  1  0.11804000  0.69510000  0.50000000  1.0 0.6065066031
C  C257  1  0.30490000  0.42294000  0.50000000  1.0 0.6065066031
C  C258  1  0.57706000  0.88196000  0.50000000  1.0 0.6065066031
C  C259  1  0.60790000  0.25566000  0.50000000  1.0 0.5745426587
C  C260  1  0.74434000  0.35224000  0.50000000  1.0 0.5745426587
C  C261  1  0.64776000  0.39210000  0.50000000  1.0 0.5745426587
C  C262  1  0.25566000  0.64776000  0.50000000  1.0 0.5745426587
C  C263  1  0.35224000  0.60790000  0.50000000  1.0 0.5745426587
C  C264  1  0.39210000  0.74434000  0.50000000  1.0 0.5745426587
C  C265  1  0.35692000  0.07445000  0.90750000  1.0 -0.0433422622
C  C266  1  0.92555000  0.28247000  0.90750000  1.0 -0.0433422622
C  C267  1  0.71753000  0.64308000  0.90750000  1.0 -0.0433422622
C  C268  1  0.07445000  0.71753000  0.90750000  1.0 -0.0433422622
C  C269  1  0.28247000  0.35692000  0.90750000  1.0 -0.0433422622
C  C270  1  0.64308000  0.92555000  0.90750000  1.0 -0.0433422622
C  C271  1  0.64308000  0.92555000  0.09250000  1.0 -0.0433422622
C  C272  1  0.07445000  0.71753000  0.09250000  1.0 -0.0433422622
C  C273  1  0.28247000  0.35692000  0.09250000  1.0 -0.0433422622
C  C274  1  0.92555000  0.28247000  0.09250000  1.0 -0.0433422622
C  C275  1  0.71753000  0.64308000  0.09250000  1.0 -0.0433422622
C  C276  1  0.35692000  0.07445000  0.09250000  1.0 -0.0433422622
C  C277  1  0.35353000  0.11480000  0.95108000  1.0 0.0389312646
C  C278  1  0.88520000  0.23873000  0.95108000  1.0 0.0389312646
C  C279  1  0.76127000  0.64647000  0.95108000  1.0 0.0389312646
C  C280  1  0.11480000  0.76127000  0.95108000  1.0 0.0389312646
C  C281  1  0.23873000  0.35353000  0.95108000  1.0 0.0389312646
C  C282  1  0.64647000  0.88520000  0.95108000  1.0 0.0389312646
C  C283  1  0.64647000  0.88520000  0.04892000  1.0 0.0389312646
C  C284  1  0.11480000  0.76127000  0.04892000  1.0 0.0389312646
C  C285  1  0.23873000  0.35353000  0.04892000  1.0 0.0389312646
C  C286  1  0.88520000  0.23873000  0.04892000  1.0 0.0389312646
C  C287  1  0.76127000  0.64647000  0.04892000  1.0 0.0389312646
C  C288  1  0.35353000  0.11480000  0.04892000  1.0 0.0389312646
C  C289  1  0.35374000  0.15047000  0.90310000  1.0 -0.129225204
C  C290  1  0.84953000  0.20327000  0.90310000  1.0 -0.129225204
C  C291  1  0.79673000  0.64626000  0.90310000  1.0 -0.129225204
C  C292  1  0.15047000  0.79673000  0.90310000  1.0 -0.129225204
C  C293  1  0.20327000  0.35374000  0.90310000  1.0 -0.129225204
C  C294  1  0.64626000  0.84953000  0.90310000  1.0 -0.129225204
C  C295  1  0.64626000  0.84953000  0.09690000  1.0 -0.129225204
C  C296  1  0.15047000  0.79673000  0.09690000  1.0 -0.129225204
C  C297  1  0.20327000  0.35374000  0.09690000  1.0 -0.129225204
C  C298  1  0.84953000  0.20327000  0.09690000  1.0 -0.129225204
C  C299  1  0.79673000  0.64626000  0.09690000  1.0 -0.129225204
C  C300  1  0.35374000  0.15047000  0.09690000  1.0 -0.129225204
C  C301  1  0.35428000  0.18630000  0.95170000  1.0 -0.1062111062
C  C302  1  0.81370000  0.16798000  0.95170000  1.0 -0.1062111062
C  C303  1  0.83202000  0.64572000  0.95170000  1.0 -0.1062111062
C  C304  1  0.18630000  0.83202000  0.95170000  1.0 -0.1062111062
C  C305  1  0.16798000  0.35428000  0.95170000  1.0 -0.1062111062
C  C306  1  0.64572000  0.81370000  0.95170000  1.0 -0.1062111062
C  C307  1  0.64572000  0.81370000  0.04830000  1.0 -0.1062111062
C  C308  1  0.18630000  0.83202000  0.04830000  1.0 -0.1062111062
C  C309  1  0.16798000  0.35428000  0.04830000  1.0 -0.1062111062
C  C310  1  0.81370000  0.16798000  0.04830000  1.0 -0.1062111062
C  C311  1  0.83202000  0.64572000  0.04830000  1.0 -0.1062111062
C  C312  1  0.35428000  0.18630000  0.04830000  1.0 -0.1062111062
C  C313  1  0.40037000  0.07953000  0.95043000  1.0 0.0389312646
C  C314  1  0.92047000  0.32084000  0.95043000  1.0 0.0389312646
C  C315  1  0.67916000  0.59963000  0.95043000  1.0 0.0389312646
C  C316  1  0.07953000  0.67916000  0.95043000  1.0 0.0389312646
C  C317  1  0.32084000  0.40037000  0.95043000  1.0 0.0389312646
C  C318  1  0.59963000  0.92047000  0.95043000  1.0 0.0389312646
C  C319  1  0.59963000  0.92047000  0.04957000  1.0 0.0389312646
C  C320  1  0.07953000  0.67916000  0.04957000  1.0 0.0389312646
C  C321  1  0.32084000  0.40037000  0.04957000  1.0 0.0389312646
C  C322  1  0.92047000  0.32084000  0.04957000  1.0 0.0389312646
C  C323  1  0.67916000  0.59963000  0.04957000  1.0 0.0389312646
C  C324  1  0.40037000  0.07953000  0.04957000  1.0 0.0389312646
C  C325  1  0.43897000  0.08706000  0.90250000  1.0 -0.129225204
C  C326  1  0.91294000  0.35191000  0.90250000  1.0 -0.129225204
C  C327  1  0.64809000  0.56103000  0.90250000  1.0 -0.129225204
C  C328  1  0.08706000  0.64809000  0.90250000  1.0 -0.129225204
C  C329  1  0.35191000  0.43897000  0.90250000  1.0 -0.129225204
C  C330  1  0.56103000  0.91294000  0.90250000  1.0 -0.129225204
C  C331  1  0.56103000  0.91294000  0.09750000  1.0 -0.129225204
C  C332  1  0.08706000  0.64809000  0.09750000  1.0 -0.129225204
C  C333  1  0.35191000  0.43897000  0.09750000  1.0 -0.129225204
C  C334  1  0.91294000  0.35191000  0.09750000  1.0 -0.129225204
C  C335  1  0.64809000  0.56103000  0.09750000  1.0 -0.129225204
C  C336  1  0.43897000  0.08706000  0.09750000  1.0 -0.129225204
C  C337  1  0.47684000  0.09350000  0.95050000  1.0 -0.1062111062
C  C338  1  0.90650000  0.38334000  0.95050000  1.0 -0.1062111062
C  C339  1  0.61666000  0.52316000  0.95050000  1.0 -0.1062111062
C  C340  1  0.09350000  0.61666000  0.95050000  1.0 -0.1062111062
C  C341  1  0.38334000  0.47684000  0.95050000  1.0 -0.1062111062
C  C342  1  0.52316000  0.90650000  0.95050000  1.0 -0.1062111062
C  C343  1  0.52316000  0.90650000  0.04950000  1.0 -0.1062111062
C  C344  1  0.09350000  0.61666000  0.04950000  1.0 -0.1062111062
C  C345  1  0.38334000  0.47684000  0.04950000  1.0 -0.1062111062
C  C346  1  0.90650000  0.38334000  0.04950000  1.0 -0.1062111062
C  C347  1  0.61666000  0.52316000  0.04950000  1.0 -0.1062111062
C  C348  1  0.47684000  0.09350000  0.04950000  1.0 -0.1062111062
C  C349  1  0.31721000  0.03234000  0.95132000  1.0 0.0389312646
C  C350  1  0.96766000  0.28487000  0.95132000  1.0 0.0389312646
C  C351  1  0.71513000  0.68279000  0.95132000  1.0 0.0389312646
C  C352  1  0.03234000  0.71513000  0.95132000  1.0 0.0389312646
C  C353  1  0.28487000  0.31721000  0.95132000  1.0 0.0389312646
C  C354  1  0.68279000  0.96766000  0.95132000  1.0 0.0389312646
C  C355  1  0.68279000  0.96766000  0.04868000  1.0 0.0389312646
C  C356  1  0.03234000  0.71513000  0.04868000  1.0 0.0389312646
C  C357  1  0.28487000  0.31721000  0.04868000  1.0 0.0389312646
C  C358  1  0.96766000  0.28487000  0.04868000  1.0 0.0389312646
C  C359  1  0.71513000  0.68279000  0.04868000  1.0 0.0389312646
C  C360  1  0.31721000  0.03234000  0.04868000  1.0 0.0389312646
C  C361  1  0.28282000  0.99579000  0.90210000  1.0 -0.1421506144
C  C362  1  0.00421000  0.28703000  0.90210000  1.0 -0.1421506144
C  C363  1  0.71297000  0.71718000  0.90210000  1.0 -0.1421506144
C  C364  1  0.99579000  0.71297000  0.90210000  1.0 -0.1421506144
C  C365  1  0.28703000  0.28282000  0.90210000  1.0 -0.1421506144
C  C366  1  0.71718000  0.00421000  0.90210000  1.0 -0.1421506144
C  C367  1  0.71718000  0.00421000  0.09790000  1.0 -0.1421506144
C  C368  1  0.99579000  0.71297000  0.09790000  1.0 -0.1421506144
C  C369  1  0.28703000  0.28282000  0.09790000  1.0 -0.1421506144
C  C370  1  0.00421000  0.28703000  0.09790000  1.0 -0.1421506144
C  C371  1  0.71297000  0.71718000  0.09790000  1.0 -0.1421506144
C  C372  1  0.28282000  0.99579000  0.09790000  1.0 -0.1421506144
C  C373  1  0.24929000  0.95996000  0.95130000  1.0 -0.1013079804
C  C374  1  0.04004000  0.28933000  0.95130000  1.0 -0.1013079804
C  C375  1  0.71067000  0.75071000  0.95130000  1.0 -0.1013079804
C  C376  1  0.95996000  0.71067000  0.95130000  1.0 -0.1013079804
C  C377  1  0.28933000  0.24929000  0.95130000  1.0 -0.1013079804
C  C378  1  0.75071000  0.04004000  0.95130000  1.0 -0.1013079804
C  C379  1  0.75071000  0.04004000  0.04870000  1.0 -0.1013079804
C  C380  1  0.95996000  0.71067000  0.04870000  1.0 -0.1013079804
C  C381  1  0.28933000  0.24929000  0.04870000  1.0 -0.1013079804
C  C382  1  0.04004000  0.28933000  0.04870000  1.0 -0.1013079804
C  C383  1  0.71067000  0.75071000  0.04870000  1.0 -0.1013079804
C  C384  1  0.24929000  0.95996000  0.04870000  1.0 -0.1013079804
C  C385  1  0.35393000  0.06960000  0.79963000  1.0 0.5555212867
C  C386  1  0.93040000  0.28433000  0.79963000  1.0 0.5555212867
C  C387  1  0.71567000  0.64607000  0.79963000  1.0 0.5555212867
C  C388  1  0.06960000  0.71567000  0.79963000  1.0 0.5555212867
C  C389  1  0.28433000  0.35393000  0.79963000  1.0 0.5555212867
C  C390  1  0.64607000  0.93040000  0.79963000  1.0 0.5555212867
C  C391  1  0.64607000  0.93040000  0.20037000  1.0 0.5555212867
C  C392  1  0.06960000  0.71567000  0.20037000  1.0 0.5555212867
C  C393  1  0.28433000  0.35393000  0.20037000  1.0 0.5555212867
C  C394  1  0.93040000  0.28433000  0.20037000  1.0 0.5555212867
C  C395  1  0.71567000  0.64607000  0.20037000  1.0 0.5555212867
C  C396  1  0.35393000  0.06960000  0.20037000  1.0 0.5555212867
C  C397  1  0.66666667  0.33333333  0.11009000  1.0 -0.1231141655
C  C398  1  0.33333333  0.66666667  0.11009000  1.0 -0.1231141655
C  C399  1  0.33333333  0.66666667  0.88991000  1.0 -0.1231141655
C  C400  1  0.66666667  0.33333333  0.88991000  1.0 -0.1231141655
C  C401  1  0.63875000  0.28679000  0.04710000  1.0 0.0327034756
C  C402  1  0.71321000  0.35196000  0.04710000  1.0 0.0327034756
C  C403  1  0.64804000  0.36125000  0.04710000  1.0 0.0327034756
C  C404  1  0.28679000  0.64804000  0.04710000  1.0 0.0327034756
C  C405  1  0.35196000  0.63875000  0.04710000  1.0 0.0327034756
C  C406  1  0.36125000  0.71321000  0.04710000  1.0 0.0327034756
C  C407  1  0.36125000  0.71321000  0.95290000  1.0 0.0327034756
C  C408  1  0.28679000  0.64804000  0.95290000  1.0 0.0327034756
C  C409  1  0.35196000  0.63875000  0.95290000  1.0 0.0327034756
C  C410  1  0.71321000  0.35196000  0.95290000  1.0 0.0327034756
C  C411  1  0.64804000  0.36125000  0.95290000  1.0 0.0327034756
C  C412  1  0.63875000  0.28679000  0.95290000  1.0 0.0327034756
C  C413  1  0.61123000  0.24485000  0.09830000  1.0 -0.1749095945
C  C414  1  0.75515000  0.36638000  0.09830000  1.0 -0.1749095945
C  C415  1  0.63362000  0.38877000  0.09830000  1.0 -0.1749095945
C  C416  1  0.24485000  0.63362000  0.09830000  1.0 -0.1779819855
C  C417  1  0.36638000  0.61123000  0.09830000  1.0 -0.1779819855
C  C418  1  0.38877000  0.75515000  0.09830000  1.0 -0.1779819855
C  C419  1  0.38877000  0.75515000  0.90170000  1.0 -0.1779819855
C  C420  1  0.24485000  0.63362000  0.90170000  1.0 -0.1779819855
C  C421  1  0.36638000  0.61123000  0.90170000  1.0 -0.1779819855
C  C422  1  0.75515000  0.36638000  0.90170000  1.0 -0.1749095945
C  C423  1  0.63362000  0.38877000  0.90170000  1.0 -0.1749095945
C  C424  1  0.61123000  0.24485000  0.90170000  1.0 -0.1749095945
C  C425  1  0.58727000  0.20453000  0.04820000  1.0 -0.0685592277
C  C426  1  0.79547000  0.38274000  0.04820000  1.0 -0.0685592277
C  C427  1  0.61726000  0.41273000  0.04820000  1.0 -0.0685592277
C  C428  1  0.20453000  0.61726000  0.04820000  1.0 -0.0685592277
C  C429  1  0.38274000  0.58727000  0.04820000  1.0 -0.0685592277
C  C430  1  0.41273000  0.79547000  0.04820000  1.0 -0.0685592277
C  C431  1  0.41273000  0.79547000  0.95180000  1.0 -0.0685592277
C  C432  1  0.20453000  0.61726000  0.95180000  1.0 -0.0685592277
C  C433  1  0.38274000  0.58727000  0.95180000  1.0 -0.0685592277
C  C434  1  0.79547000  0.38274000  0.95180000  1.0 -0.0685592277
C  C435  1  0.61726000  0.41273000  0.95180000  1.0 -0.0685592277
C  C436  1  0.58727000  0.20453000  0.95180000  1.0 -0.0685592277
C  C437  1  0.66666667  0.33333333  0.21440000  1.0 0.3208708114
C  C438  1  0.33333333  0.66666667  0.21440000  1.0 0.3208708114
C  C439  1  0.33333333  0.66666667  0.78560000  1.0 0.3208708114
C  C440  1  0.66666667  0.33333333  0.78560000  1.0 0.3208708114
O  O1  1  0.32122000  0.12296000  0.57839000  1.0 -0.5331475863
O  O2  1  0.87704000  0.19826000  0.57839000  1.0 -0.5331475863
O  O3  1  0.80174000  0.67878000  0.57839000  1.0 -0.5331475863
O  O4  1  0.12296000  0.80174000  0.57839000  1.0 -0.5331475863
O  O5  1  0.19826000  0.32122000  0.57839000  1.0 -0.5331475863
O  O6  1  0.67878000  0.87704000  0.57839000  1.0 -0.5331475863
O  O7  1  0.67878000  0.87704000  0.42161000  1.0 -0.5331475863
O  O8  1  0.12296000  0.80174000  0.42161000  1.0 -0.5331475863
O  O9  1  0.19826000  0.32122000  0.42161000  1.0 -0.5331475863
O  O10  1  0.87704000  0.19826000  0.42161000  1.0 -0.5331475863
O  O11  1  0.80174000  0.67878000  0.42161000  1.0 -0.5331475863
O  O12  1  0.32122000  0.12296000  0.42161000  1.0 -0.5331475863
O  O13  1  0.29731000  0.01927000  0.57878000  1.0 -0.5331475863
O  O14  1  0.98073000  0.27804000  0.57878000  1.0 -0.5331475863
O  O15  1  0.72196000  0.70269000  0.57878000  1.0 -0.5331475863
O  O16  1  0.01927000  0.72196000  0.57878000  1.0 -0.5331475863
O  O17  1  0.27804000  0.29731000  0.57878000  1.0 -0.5331475863
O  O18  1  0.70269000  0.98073000  0.57878000  1.0 -0.5331475863
O  O19  1  0.70269000  0.98073000  0.42122000  1.0 -0.5331475863
O  O20  1  0.01927000  0.72196000  0.42122000  1.0 -0.5331475863
O  O21  1  0.27804000  0.29731000  0.42122000  1.0 -0.5331475863
O  O22  1  0.98073000  0.27804000  0.42122000  1.0 -0.5331475863
O  O23  1  0.72196000  0.70269000  0.42122000  1.0 -0.5331475863
O  O24  1  0.29731000  0.01927000  0.42122000  1.0 -0.5331475863
O  O25  1  0.40331000  0.10776000  0.57848000  1.0 -0.5441959926
O  O26  1  0.89224000  0.29555000  0.57848000  1.0 -0.5441959926
O  O27  1  0.70445000  0.59669000  0.57848000  1.0 -0.5441959926
O  O28  1  0.10776000  0.70445000  0.57848000  1.0 -0.5441959926
O  O29  1  0.29555000  0.40331000  0.57848000  1.0 -0.5441959926
O  O30  1  0.59669000  0.89224000  0.57848000  1.0 -0.5441959926
O  O31  1  0.59669000  0.89224000  0.42152000  1.0 -0.5441959926
O  O32  1  0.10776000  0.70445000  0.42152000  1.0 -0.5441959926
O  O33  1  0.29555000  0.40331000  0.42152000  1.0 -0.5441959926
O  O34  1  0.89224000  0.29555000  0.42152000  1.0 -0.5441959926
O  O35  1  0.70445000  0.59669000  0.42152000  1.0 -0.5441959926
O  O36  1  0.40331000  0.10776000  0.42152000  1.0 -0.5441959926
O  O37  1  0.62474000  0.27262000  0.42188000  1.0 -0.5331475863
O  O38  1  0.72738000  0.35212000  0.42188000  1.0 -0.5331475863
O  O39  1  0.64788000  0.37526000  0.42188000  1.0 -0.5331475863
O  O40  1  0.27262000  0.64788000  0.42188000  1.0 -0.5331475863
O  O41  1  0.35212000  0.62474000  0.42188000  1.0 -0.5331475863
O  O42  1  0.37526000  0.72738000  0.42188000  1.0 -0.5331475863
O  O43  1  0.37526000  0.72738000  0.57812000  1.0 -0.5331475863
O  O44  1  0.27262000  0.64788000  0.57812000  1.0 -0.5331475863
O  O45  1  0.35212000  0.62474000  0.57812000  1.0 -0.5331475863
O  O46  1  0.72738000  0.35212000  0.57812000  1.0 -0.5331475863
O  O47  1  0.64788000  0.37526000  0.57812000  1.0 -0.5331475863
O  O48  1  0.62474000  0.27262000  0.57812000  1.0 -0.5331475863
O  O49  1  0.33526000  0.08823000  0.75496000  1.0 -0.5214524894
O  O50  1  0.91177000  0.24703000  0.75496000  1.0 -0.5214524894
O  O51  1  0.75297000  0.66474000  0.75496000  1.0 -0.5214524894
O  O52  1  0.08823000  0.75297000  0.75496000  1.0 -0.5214524894
O  O53  1  0.24703000  0.33526000  0.75496000  1.0 -0.5214524894
O  O54  1  0.66474000  0.91177000  0.75496000  1.0 -0.5214524894
O  O55  1  0.66474000  0.91177000  0.24504000  1.0 -0.5214524894
O  O56  1  0.08823000  0.75297000  0.24504000  1.0 -0.5214524894
O  O57  1  0.24703000  0.33526000  0.24504000  1.0 -0.5214524894
O  O58  1  0.91177000  0.24703000  0.24504000  1.0 -0.5214524894
O  O59  1  0.75297000  0.66474000  0.24504000  1.0 -0.5214524894
O  O60  1  0.33526000  0.08823000  0.24504000  1.0 -0.5214524894
O  O61  1  0.36732000  0.04584000  0.76078000  1.0 -0.5128686854
O  O62  1  0.95416000  0.32148000  0.76078000  1.0 -0.5128686854
O  O63  1  0.67852000  0.63268000  0.76078000  1.0 -0.5128686854
O  O64  1  0.04584000  0.67852000  0.76078000  1.0 -0.5128686854
O  O65  1  0.32148000  0.36732000  0.76078000  1.0 -0.5128686854
O  O66  1  0.63268000  0.95416000  0.76078000  1.0 -0.5128686854
O  O67  1  0.63268000  0.95416000  0.23922000  1.0 -0.5128686854
O  O68  1  0.04584000  0.67852000  0.23922000  1.0 -0.5128686854
O  O69  1  0.32148000  0.36732000  0.23922000  1.0 -0.5128686854
O  O70  1  0.95416000  0.32148000  0.23922000  1.0 -0.5128686854
O  O71  1  0.67852000  0.63268000  0.23922000  1.0 -0.5128686854
O  O72  1  0.36732000  0.04584000  0.23922000  1.0 -0.5128686854
O  O73  1  0.67733000  0.30655000  0.25080000  1.0 -0.0570256128
O  O74  1  0.69345000  0.37078000  0.25080000  1.0 -0.0570256128
O  O75  1  0.62922000  0.32267000  0.25080000  1.0 -0.0570256128
O  O76  1  0.30655000  0.62922000  0.25080000  1.0 -0.0570256128
O  O77  1  0.37078000  0.67733000  0.25080000  1.0 -0.0570256128
O  O78  1  0.32267000  0.69345000  0.25080000  1.0 -0.0570256128
O  O79  1  0.32267000  0.69345000  0.74920000  1.0 -0.0570256128
O  O80  1  0.30655000  0.62922000  0.74920000  1.0 -0.0570256128
O  O81  1  0.37078000  0.67733000  0.74920000  1.0 -0.0570256128
O  O82  1  0.69345000  0.37078000  0.74920000  1.0 -0.0570256128
O  O83  1  0.62922000  0.32267000  0.74920000  1.0 -0.0570256128
O  O84  1  0.67733000  0.30655000  0.74920000  1.0 -0.0570256128
O  O85  1  0.65317000  0.35623000  0.25220000  1.0 -0.0164244303
O  O86  1  0.64377000  0.29694000  0.25220000  1.0 -0.0164244303
O  O87  1  0.70306000  0.34683000  0.25220000  1.0 -0.0164244303
O  O88  1  0.35623000  0.70306000  0.25220000  1.0 -0.01114214
O  O89  1  0.29694000  0.65317000  0.25220000  1.0 -0.01114214
O  O90  1  0.34683000  0.64377000  0.25220000  1.0 -0.01114214
O  O91  1  0.34683000  0.64377000  0.74780000  1.0 -0.01114214
O  O92  1  0.35623000  0.70306000  0.74780000  1.0 -0.01114214
O  O93  1  0.29694000  0.65317000  0.74780000  1.0 -0.01114214
O  O94  1  0.64377000  0.29694000  0.74780000  1.0 -0.0164244303
O  O95  1  0.70306000  0.34683000  0.74780000  1.0 -0.0164244303
O  O96  1  0.65317000  0.35623000  0.74780000  1.0 -0.0164244303
