# DDEC6 charges by PACMAN v1.1 (https://github.com/mtap-research/PACMAN-charge/)
data_HOCZOR_FSR_pacman
_symmetry_space_group_name_H-M   'P 1'
_cell_length_a   7.93580000
_cell_length_b   7.93580000
_cell_length_c   49.34900000
_cell_angle_alpha   90.00000000
_cell_angle_beta   90.00000000
_cell_angle_gamma   90.00000000
_symmetry_Int_Tables_number   1
_chemical_formula_structural   CuH21C23N5O6
_chemical_formula_sum   'Cu4 H84 C92 N20 O24'
_cell_volume   3107.84810601
_cell_formula_units_Z   4
loop_
 _symmetry_equiv_pos_site_id
 _symmetry_equiv_pos_as_xyz
  1  'x, y, z'
loop_
 _atom_site_type_symbol
 _atom_site_label
 _atom_site_symmetry_multiplicity
 _atom_site_fract_x
 _atom_site_fract_y
 _atom_site_fract_z
 _atom_site_occupancy
 _atom_site_charge
Cu  Cu1  1  0.44086000  0.44086000  0.12500000  1.0 0.6910838767
Cu  Cu2  1  0.55914000  0.55914000  0.62500000  1.0 0.6910838767
Cu  Cu3  1  0.55914000  0.44086000  0.87500000  1.0 0.6910838767
Cu  Cu4  1  0.44086000  0.55914000  0.37500000  1.0 0.6910838767
H  H1  1  0.63950000  0.06810000  0.02690000  1.0 0.2720242201
H  H2  1  0.72280000  0.06360000  0.08010000  1.0 0.0880322701
H  H3  1  0.87070000  0.31360000  0.07120000  1.0 0.139520879
H  H4  1  0.92360000  0.17230000  0.05070000  1.0 0.139520879
H  H5  1  0.79950000  0.31510000  0.04160000  1.0 0.1317576104
H  H6  1  0.53770000  0.55100000  0.04010000  1.0 0.139520879
H  H7  1  0.40920000  0.06600000  0.11950000  1.0 0.1006419543
H  H8  1  0.21110000  0.85690000  0.11910000  1.0 0.139520879
H  H9  1  0.99720000  0.70500000  0.10180000  1.0 0.139520879
H  H10  1  0.78810000  0.50580000  0.10250000  1.0 0.1006419543
H  H11  1  0.36050000  0.93190000  0.52690000  1.0 0.2720242201
H  H12  1  0.27720000  0.93640000  0.58010000  1.0 0.0880322701
H  H13  1  0.12930000  0.68640000  0.57120000  1.0 0.139520879
H  H14  1  0.07640000  0.82770000  0.55070000  1.0 0.139520879
H  H15  1  0.20050000  0.68490000  0.54160000  1.0 0.1317576104
H  H16  1  0.46230000  0.44900000  0.54010000  1.0 0.139520879
H  H17  1  0.59080000  0.93400000  0.61950000  1.0 0.1006419543
H  H18  1  0.78890000  0.14310000  0.61910000  1.0 0.139520879
H  H19  1  0.00280000  0.29500000  0.60180000  1.0 0.139520879
H  H20  1  0.21190000  0.49420000  0.60250000  1.0 0.1006419543
H  H21  1  0.93190000  0.63950000  0.77690000  1.0 0.2720242201
H  H22  1  0.93640000  0.72280000  0.83010000  1.0 0.0880322701
H  H23  1  0.68640000  0.87070000  0.82120000  1.0 0.139520879
H  H24  1  0.82770000  0.92360000  0.80070000  1.0 0.139520879
H  H25  1  0.68490000  0.79950000  0.79160000  1.0 0.1317576104
H  H26  1  0.44900000  0.53770000  0.79010000  1.0 0.139520879
H  H27  1  0.93400000  0.40920000  0.86950000  1.0 0.1006419543
H  H28  1  0.14310000  0.21110000  0.86910000  1.0 0.139520879
H  H29  1  0.29500000  0.99720000  0.85180000  1.0 0.139520879
H  H30  1  0.49420000  0.78810000  0.85250000  1.0 0.1006419543
H  H31  1  0.06810000  0.36050000  0.27690000  1.0 0.2720242201
H  H32  1  0.06360000  0.27720000  0.33010000  1.0 0.0880322701
H  H33  1  0.31360000  0.12930000  0.32120000  1.0 0.139520879
H  H34  1  0.17230000  0.07640000  0.30070000  1.0 0.139520879
H  H35  1  0.31510000  0.20050000  0.29160000  1.0 0.1317576104
H  H36  1  0.55100000  0.46230000  0.29010000  1.0 0.139520879
H  H37  1  0.06600000  0.59080000  0.36950000  1.0 0.1006419543
H  H38  1  0.85690000  0.78890000  0.36910000  1.0 0.139520879
H  H39  1  0.70500000  0.00280000  0.35180000  1.0 0.139520879
H  H40  1  0.50580000  0.21190000  0.35250000  1.0 0.1006419543
H  H41  1  0.36050000  0.06810000  0.97310000  1.0 0.2720242201
H  H42  1  0.27720000  0.06360000  0.91990000  1.0 0.0880322701
H  H43  1  0.12930000  0.31360000  0.92880000  1.0 0.139520879
H  H44  1  0.07640000  0.17230000  0.94930000  1.0 0.139520879
H  H45  1  0.20050000  0.31510000  0.95840000  1.0 0.1317576104
H  H46  1  0.46230000  0.55100000  0.95990000  1.0 0.139520879
H  H47  1  0.59080000  0.06600000  0.88050000  1.0 0.1006419543
H  H48  1  0.78890000  0.85690000  0.88090000  1.0 0.139520879
H  H49  1  0.00280000  0.70500000  0.89820000  1.0 0.139520879
H  H50  1  0.21190000  0.50580000  0.89750000  1.0 0.1006419543
H  H51  1  0.63950000  0.93190000  0.47310000  1.0 0.2720242201
H  H52  1  0.72280000  0.93640000  0.41990000  1.0 0.0880322701
H  H53  1  0.87070000  0.68640000  0.42880000  1.0 0.139520879
H  H54  1  0.92360000  0.82770000  0.44930000  1.0 0.139520879
H  H55  1  0.79950000  0.68490000  0.45840000  1.0 0.1317576104
H  H56  1  0.53770000  0.44900000  0.45990000  1.0 0.139520879
H  H57  1  0.40920000  0.93400000  0.38050000  1.0 0.1006419543
H  H58  1  0.21110000  0.14310000  0.38090000  1.0 0.139520879
H  H59  1  0.99720000  0.29500000  0.39820000  1.0 0.139520879
H  H60  1  0.78810000  0.49420000  0.39750000  1.0 0.1006419543
H  H61  1  0.06810000  0.63950000  0.22310000  1.0 0.2720242201
H  H62  1  0.06360000  0.72280000  0.16990000  1.0 0.0880322701
H  H63  1  0.31360000  0.87070000  0.17880000  1.0 0.139520879
H  H64  1  0.17230000  0.92360000  0.19930000  1.0 0.139520879
H  H65  1  0.31510000  0.79950000  0.20840000  1.0 0.1317576104
H  H66  1  0.55100000  0.53770000  0.20990000  1.0 0.139520879
H  H67  1  0.06600000  0.40920000  0.13050000  1.0 0.1006419543
H  H68  1  0.85690000  0.21110000  0.13090000  1.0 0.139520879
H  H69  1  0.70500000  0.99720000  0.14820000  1.0 0.139520879
H  H70  1  0.50580000  0.78810000  0.14750000  1.0 0.1006419543
H  H71  1  0.93190000  0.36050000  0.72310000  1.0 0.2720242201
H  H72  1  0.93640000  0.27720000  0.66990000  1.0 0.0880322701
H  H73  1  0.68640000  0.12930000  0.67880000  1.0 0.139520879
H  H74  1  0.82770000  0.07640000  0.69930000  1.0 0.139520879
H  H75  1  0.68490000  0.20050000  0.70840000  1.0 0.1317576104
H  H76  1  0.44900000  0.46230000  0.70990000  1.0 0.139520879
H  H77  1  0.93400000  0.59080000  0.63050000  1.0 0.1006419543
H  H78  1  0.14310000  0.78890000  0.63090000  1.0 0.139520879
H  H79  1  0.29500000  0.00280000  0.64820000  1.0 0.139520879
H  H80  1  0.49420000  0.21190000  0.64750000  1.0 0.1006419543
H  H81  1  0.50000000  0.40190000  0.00000000  1.0 0.1317576104
H  H82  1  0.50000000  0.59810000  0.50000000  1.0 0.1317576104
H  H83  1  0.59810000  0.50000000  0.75000000  1.0 0.1317576104
H  H84  1  0.40190000  0.50000000  0.25000000  1.0 0.1317576104
C  C1  1  0.54450000  0.25150000  0.07675000  1.0 0.54555483
C  C2  1  0.68450000  0.13770000  0.06550000  1.0 0.0260597284
C  C3  1  0.83330000  0.24450000  0.05640000  1.0 -0.4151665734
C  C4  1  0.55670000  0.88420000  0.04777000  1.0 0.4264397679
C  C5  1  0.52340000  0.78220000  0.02278000  1.0 0.1176795347
C  C6  1  0.52290000  0.60740000  0.02376000  1.0 -0.1228048733
C  C7  1  0.29660000  0.09530000  0.12177000  1.0 0.0880322701
C  C8  1  0.17840000  0.96850000  0.12155000  1.0 -0.1762961463
C  C9  1  0.89830000  0.72590000  0.11128000  1.0 -0.1894181387
C  C10  1  0.77100000  0.60610000  0.11188000  1.0 0.1006419543
C  C11  1  0.45550000  0.74850000  0.57675000  1.0 0.54555483
C  C12  1  0.31550000  0.86230000  0.56550000  1.0 0.0260597284
C  C13  1  0.16670000  0.75550000  0.55640000  1.0 -0.4151665734
C  C14  1  0.44330000  0.11580000  0.54777000  1.0 0.4264397679
C  C15  1  0.47660000  0.21780000  0.52278000  1.0 0.1176795347
C  C16  1  0.47710000  0.39260000  0.52376000  1.0 -0.1228048733
C  C17  1  0.70340000  0.90470000  0.62177000  1.0 0.0880322701
C  C18  1  0.82160000  0.03150000  0.62155000  1.0 -0.1762961463
C  C19  1  0.10170000  0.27410000  0.61128000  1.0 -0.1894181387
C  C20  1  0.22900000  0.39390000  0.61188000  1.0 0.1006419543
C  C21  1  0.74850000  0.54450000  0.82675000  1.0 0.54555483
C  C22  1  0.86230000  0.68450000  0.81550000  1.0 0.0260597284
C  C23  1  0.75550000  0.83330000  0.80640000  1.0 -0.4151665734
C  C24  1  0.11580000  0.55670000  0.79777000  1.0 0.4264397679
C  C25  1  0.21780000  0.52340000  0.77278000  1.0 0.1176795347
C  C26  1  0.39260000  0.52290000  0.77376000  1.0 -0.1228048733
C  C27  1  0.90470000  0.29660000  0.87177000  1.0 0.0880322701
C  C28  1  0.03150000  0.17840000  0.87155000  1.0 -0.1762961463
C  C29  1  0.27410000  0.89830000  0.86128000  1.0 -0.1894181387
C  C30  1  0.39390000  0.77100000  0.86188000  1.0 0.1006419543
C  C31  1  0.25150000  0.45550000  0.32675000  1.0 0.54555483
C  C32  1  0.13770000  0.31550000  0.31550000  1.0 0.0260597284
C  C33  1  0.24450000  0.16670000  0.30640000  1.0 -0.4151665734
C  C34  1  0.88420000  0.44330000  0.29777000  1.0 0.4264397679
C  C35  1  0.78220000  0.47660000  0.27278000  1.0 0.1176795347
C  C36  1  0.60740000  0.47710000  0.27376000  1.0 -0.1228048733
C  C37  1  0.09530000  0.70340000  0.37177000  1.0 0.0880322701
C  C38  1  0.96850000  0.82160000  0.37155000  1.0 -0.1762961463
C  C39  1  0.72590000  0.10170000  0.36128000  1.0 -0.1894181387
C  C40  1  0.60610000  0.22900000  0.36188000  1.0 0.1006419543
C  C41  1  0.45550000  0.25150000  0.92325000  1.0 0.54555483
C  C42  1  0.31550000  0.13770000  0.93450000  1.0 0.0260597284
C  C43  1  0.16670000  0.24450000  0.94360000  1.0 -0.4151665734
C  C44  1  0.44330000  0.88420000  0.95223000  1.0 0.4264397679
C  C45  1  0.47660000  0.78220000  0.97722000  1.0 0.1176795347
C  C46  1  0.47710000  0.60740000  0.97624000  1.0 -0.1228048733
C  C47  1  0.70340000  0.09530000  0.87823000  1.0 0.0880322701
C  C48  1  0.82160000  0.96850000  0.87845000  1.0 -0.1762961463
C  C49  1  0.10170000  0.72590000  0.88872000  1.0 -0.1894181387
C  C50  1  0.22900000  0.60610000  0.88812000  1.0 0.1006419543
C  C51  1  0.54450000  0.74850000  0.42325000  1.0 0.54555483
C  C52  1  0.68450000  0.86230000  0.43450000  1.0 0.0260597284
C  C53  1  0.83330000  0.75550000  0.44360000  1.0 -0.4151665734
C  C54  1  0.55670000  0.11580000  0.45223000  1.0 0.4264397679
C  C55  1  0.52340000  0.21780000  0.47722000  1.0 0.1176795347
C  C56  1  0.52290000  0.39260000  0.47624000  1.0 -0.1228048733
C  C57  1  0.29660000  0.90470000  0.37823000  1.0 0.0880322701
C  C58  1  0.17840000  0.03150000  0.37845000  1.0 -0.1762961463
C  C59  1  0.89830000  0.27410000  0.38872000  1.0 -0.1894181387
C  C60  1  0.77100000  0.39390000  0.38812000  1.0 0.1006419543
C  C61  1  0.25150000  0.54450000  0.17325000  1.0 0.54555483
C  C62  1  0.13770000  0.68450000  0.18450000  1.0 0.0260597284
C  C63  1  0.24450000  0.83330000  0.19360000  1.0 -0.4151665734
C  C64  1  0.88420000  0.55670000  0.20223000  1.0 0.4264397679
C  C65  1  0.78220000  0.52340000  0.22722000  1.0 0.1176795347
C  C66  1  0.60740000  0.52290000  0.22624000  1.0 -0.1228048733
C  C67  1  0.09530000  0.29660000  0.12823000  1.0 0.0880322701
C  C68  1  0.96850000  0.17840000  0.12845000  1.0 -0.1762961463
C  C69  1  0.72590000  0.89830000  0.13872000  1.0 -0.1894181387
C  C70  1  0.60610000  0.77100000  0.13812000  1.0 0.1006419543
C  C71  1  0.74850000  0.45550000  0.67325000  1.0 0.54555483
C  C72  1  0.86230000  0.31550000  0.68450000  1.0 0.0260597284
C  C73  1  0.75550000  0.16670000  0.69360000  1.0 -0.4151665734
C  C74  1  0.11580000  0.44330000  0.70223000  1.0 0.4264397679
C  C75  1  0.21780000  0.47660000  0.72722000  1.0 0.1176795347
C  C76  1  0.39260000  0.47710000  0.72624000  1.0 -0.1228048733
C  C77  1  0.90470000  0.70340000  0.62823000  1.0 0.0880322701
C  C78  1  0.03150000  0.82160000  0.62845000  1.0 -0.1762961463
C  C79  1  0.27410000  0.10170000  0.63872000  1.0 -0.1894181387
C  C80  1  0.39390000  0.22900000  0.63812000  1.0 0.1006419543
C  C81  1  0.00960000  0.00960000  0.12500000  1.0 0.1095067386
C  C82  1  0.87710000  0.87710000  0.12500000  1.0 0.1095067386
C  C83  1  0.99040000  0.99040000  0.62500000  1.0 0.1095067386
C  C84  1  0.12290000  0.12290000  0.62500000  1.0 0.1095067386
C  C85  1  0.99040000  0.00960000  0.87500000  1.0 0.1095067386
C  C86  1  0.12290000  0.87710000  0.87500000  1.0 0.1095067386
C  C87  1  0.00960000  0.99040000  0.37500000  1.0 0.1095067386
C  C88  1  0.87710000  0.12290000  0.37500000  1.0 0.1095067386
C  C89  1  0.50000000  0.51910000  0.00000000  1.0 -0.0362874919
C  C90  1  0.50000000  0.48090000  0.50000000  1.0 -0.0362874919
C  C91  1  0.48090000  0.50000000  0.75000000  1.0 -0.0362874919
C  C92  1  0.51910000  0.50000000  0.25000000  1.0 -0.0362874919
N  N1  1  0.62740000  0.03310000  0.04328000  1.0 -0.3227197544
N  N2  1  0.37260000  0.96690000  0.54328000  1.0 -0.3227197544
N  N3  1  0.96690000  0.62740000  0.79328000  1.0 -0.3227197544
N  N4  1  0.03310000  0.37260000  0.29328000  1.0 -0.3227197544
N  N5  1  0.37260000  0.03310000  0.95672000  1.0 -0.3227197544
N  N6  1  0.62740000  0.96690000  0.45672000  1.0 -0.3227197544
N  N7  1  0.03310000  0.62740000  0.20672000  1.0 -0.3227197544
N  N8  1  0.96690000  0.37260000  0.70672000  1.0 -0.3227197544
N  N9  1  0.25870000  0.25870000  0.12500000  1.0 -0.2210402505
N  N10  1  0.62610000  0.62610000  0.12500000  1.0 -0.2110696749
N  N11  1  0.74130000  0.74130000  0.62500000  1.0 -0.2210402505
N  N12  1  0.37390000  0.37390000  0.62500000  1.0 -0.2110696749
N  N13  1  0.74130000  0.25870000  0.87500000  1.0 -0.2210402505
N  N14  1  0.37390000  0.62610000  0.87500000  1.0 -0.2110696749
N  N15  1  0.25870000  0.74130000  0.37500000  1.0 -0.2210402505
N  N16  1  0.62610000  0.37390000  0.37500000  1.0 -0.2110696749
N  N17  1  0.50000000  0.86960000  0.00000000  1.0 -0.3436261953
N  N18  1  0.50000000  0.13040000  0.50000000  1.0 -0.3436261953
N  N19  1  0.13040000  0.50000000  0.75000000  1.0 -0.3436261953
N  N20  1  0.86960000  0.50000000  0.25000000  1.0 -0.3436261953
O  O1  1  0.57930000  0.30700000  0.10030000  1.0 -0.5691137777
O  O2  1  0.41800000  0.28410000  0.06335000  1.0 -0.5456647442
O  O3  1  0.52350000  0.82850000  0.07054000  1.0 -0.4688421578
O  O4  1  0.42070000  0.69300000  0.60030000  1.0 -0.5691137777
O  O5  1  0.58200000  0.71590000  0.56335000  1.0 -0.5456647442
O  O6  1  0.47650000  0.17150000  0.57054000  1.0 -0.4688421578
O  O7  1  0.69300000  0.57930000  0.85030000  1.0 -0.5691137777
O  O8  1  0.71590000  0.41800000  0.81335000  1.0 -0.5456647442
O  O9  1  0.17150000  0.52350000  0.82054000  1.0 -0.4688421578
O  O10  1  0.30700000  0.42070000  0.35030000  1.0 -0.5691137777
O  O11  1  0.28410000  0.58200000  0.31335000  1.0 -0.5456647442
O  O12  1  0.82850000  0.47650000  0.32054000  1.0 -0.4688421578
O  O13  1  0.42070000  0.30700000  0.89970000  1.0 -0.5691137777
O  O14  1  0.58200000  0.28410000  0.93665000  1.0 -0.5456647442
O  O15  1  0.47650000  0.82850000  0.92946000  1.0 -0.4688421578
O  O16  1  0.57930000  0.69300000  0.39970000  1.0 -0.5691137777
O  O17  1  0.41800000  0.71590000  0.43665000  1.0 -0.5456647442
O  O18  1  0.52350000  0.17150000  0.42946000  1.0 -0.4688421578
O  O19  1  0.30700000  0.57930000  0.14970000  1.0 -0.5691137777
O  O20  1  0.28410000  0.41800000  0.18665000  1.0 -0.5456647442
O  O21  1  0.82850000  0.52350000  0.17946000  1.0 -0.4688421578
O  O22  1  0.69300000  0.42070000  0.64970000  1.0 -0.5691137777
O  O23  1  0.71590000  0.58200000  0.68665000  1.0 -0.5456647442
O  O24  1  0.17150000  0.47650000  0.67946000  1.0 -0.4688421578
