# DDEC6 charges by PACMAN v1.1 (https://github.com/mtap-research/PACMAN-charge/)
data_HODWUS_ASR_pacman
_symmetry_space_group_name_H-M   'P 1'
_cell_length_a   9.04940000
_cell_length_b   17.47500000
_cell_length_c   10.53570000
_cell_angle_alpha   90.00000000
_cell_angle_beta   106.35900000
_cell_angle_gamma   90.00000000
_symmetry_Int_Tables_number   1
_chemical_formula_structural   Cd3H26(C9N4)2
_chemical_formula_sum   'Cd6 H52 C36 N16'
_cell_volume   1598.64664854
_cell_formula_units_Z   2
loop_
 _symmetry_equiv_pos_site_id
 _symmetry_equiv_pos_as_xyz
  1  'x, y, z'
loop_
 _atom_site_type_symbol
 _atom_site_label
 _atom_site_symmetry_multiplicity
 _atom_site_fract_x
 _atom_site_fract_y
 _atom_site_fract_z
 _atom_site_occupancy
 _atom_site_charge
Cd  Cd1  1  0.00000000  0.00000000  0.00000000  1.0 0.8680169829
Cd  Cd2  1  0.00000000  0.50000000  0.00000000  1.0 0.8680169829
Cd  Cd3  1  0.83206000  0.75000000  0.65102000  1.0 0.444525505
Cd  Cd4  1  0.16794000  0.25000000  0.34898000  1.0 0.4451773116
Cd  Cd5  1  0.22770000  0.75000000  0.33169000  1.0 0.6807112643
Cd  Cd6  1  0.77230000  0.25000000  0.66831000  1.0 0.6807112643
H  H1  1  0.77740000  0.91820000  0.06750000  1.0 0.2741537639
H  H2  1  0.22260000  0.41820000  0.93250000  1.0 0.2741537639
H  H3  1  0.22260000  0.08180000  0.93250000  1.0 0.2741537639
H  H4  1  0.77740000  0.58180000  0.06750000  1.0 0.2741537639
H  H5  1  0.70040000  0.98510000  0.99990000  1.0 0.2639643797
H  H6  1  0.29960000  0.48510000  0.00010000  1.0 0.2639643797
H  H7  1  0.29960000  0.01490000  0.00010000  1.0 0.2639643797
H  H8  1  0.70040000  0.51490000  0.99990000  1.0 0.2639643797
H  H9  1  0.81460000  0.04380000  0.19820000  1.0 0.0865140972
H  H10  1  0.18540000  0.54380000  0.80180000  1.0 0.0865140972
H  H11  1  0.18540000  0.95620000  0.80180000  1.0 0.0865140972
H  H12  1  0.81460000  0.45620000  0.19820000  1.0 0.0865140972
H  H13  1  0.81130000  0.90100000  0.29390000  1.0 0.1217344576
H  H14  1  0.18870000  0.40100000  0.70610000  1.0 0.1217344576
H  H15  1  0.18870000  0.09900000  0.70610000  1.0 0.1217344576
H  H16  1  0.81130000  0.59900000  0.29390000  1.0 0.1217344576
H  H17  1  0.95110000  0.95650000  0.30830000  1.0 0.1217344576
H  H18  1  0.04890000  0.45650000  0.69170000  1.0 0.1217344576
H  H19  1  0.04890000  0.04350000  0.69170000  1.0 0.1217344576
H  H20  1  0.95110000  0.54350000  0.30830000  1.0 0.1217344576
H  H21  1  0.86940000  0.03520000  0.45220000  1.0 0.1009326731
H  H22  1  0.13060000  0.53520000  0.54780000  1.0 0.1009326731
H  H23  1  0.13060000  0.96480000  0.54780000  1.0 0.1009326731
H  H24  1  0.86940000  0.46480000  0.45220000  1.0 0.1009326731
H  H25  1  0.86550000  0.95130000  0.50480000  1.0 0.1009326731
H  H26  1  0.13450000  0.45130000  0.49520000  1.0 0.1009326731
H  H27  1  0.13450000  0.04870000  0.49520000  1.0 0.1009326731
H  H28  1  0.86550000  0.54870000  0.50480000  1.0 0.1009326731
H  H29  1  0.59660000  0.94640000  0.38820000  1.0 0.1009326731
H  H30  1  0.40340000  0.44640000  0.61180000  1.0 0.1009326731
H  H31  1  0.40340000  0.05360000  0.61180000  1.0 0.1009326731
H  H32  1  0.59660000  0.55360000  0.38820000  1.0 0.1009326731
H  H33  1  0.63320000  0.00820000  0.50200000  1.0 0.1009326731
H  H34  1  0.36680000  0.50820000  0.49800000  1.0 0.1009326731
H  H35  1  0.36680000  0.99180000  0.49800000  1.0 0.1009326731
H  H36  1  0.63320000  0.49180000  0.50200000  1.0 0.1009326731
H  H37  1  0.49110000  0.07170000  0.31160000  1.0 0.1009326731
H  H38  1  0.50890000  0.57170000  0.68840000  1.0 0.1009326731
H  H39  1  0.50890000  0.92830000  0.68840000  1.0 0.1009326731
H  H40  1  0.49110000  0.42830000  0.31160000  1.0 0.1009326731
H  H41  1  0.66140000  0.10160000  0.34000000  1.0 0.1009326731
H  H42  1  0.33860000  0.60160000  0.66000000  1.0 0.1009326731
H  H43  1  0.33860000  0.89840000  0.66000000  1.0 0.1009326731
H  H44  1  0.66140000  0.39840000  0.34000000  1.0 0.1009326731
H  H45  1  0.57550000  0.06600000  0.11750000  1.0 0.11255776
H  H46  1  0.42450000  0.56600000  0.88250000  1.0 0.11255776
H  H47  1  0.42450000  0.93400000  0.88250000  1.0 0.11255776
H  H48  1  0.57550000  0.43400000  0.11750000  1.0 0.11255776
H  H49  1  0.52800000  0.98500000  0.15600000  1.0 0.11255776
H  H50  1  0.47200000  0.48500000  0.84400000  1.0 0.11255776
H  H51  1  0.47200000  0.01500000  0.84400000  1.0 0.11255776
H  H52  1  0.52800000  0.51500000  0.15600000  1.0 0.11255776
C  C1  1  0.87960000  0.85540000  0.76880000  1.0 -0.0759295127
C  C2  1  0.12040000  0.35540000  0.23120000  1.0 -0.0759295127
C  C3  1  0.12040000  0.14460000  0.23120000  1.0 -0.0759295127
C  C4  1  0.87960000  0.64460000  0.76880000  1.0 -0.0759295127
C  C5  1  0.59110000  0.75000000  0.53110000  1.0 -0.0647607944
C  C6  1  0.40890000  0.25000000  0.46890000  1.0 -0.0647607944
C  C7  1  0.97880000  0.75000000  0.51710000  1.0 -0.0717026195
C  C8  1  0.02120000  0.25000000  0.48290000  1.0 -0.0717026195
C  C9  1  0.17960000  0.85380000  0.20950000  1.0 -0.0939484885
C  C10  1  0.82040000  0.35380000  0.79050000  1.0 -0.0939484885
C  C11  1  0.82040000  0.14620000  0.79050000  1.0 -0.0939484885
C  C12  1  0.17960000  0.64620000  0.20950000  1.0 -0.0939484885
C  C13  1  0.75590000  0.99590000  0.18590000  1.0 0.1412828588
C  C14  1  0.24410000  0.49590000  0.81410000  1.0 0.1412828588
C  C15  1  0.24410000  0.00410000  0.81410000  1.0 0.1412828588
C  C16  1  0.75590000  0.50410000  0.18590000  1.0 0.1412828588
C  C17  1  0.84240000  0.95430000  0.30300000  1.0 -0.2351206443
C  C18  1  0.15760000  0.45430000  0.69700000  1.0 -0.2351206443
C  C19  1  0.15760000  0.04570000  0.69700000  1.0 -0.2351206443
C  C20  1  0.84240000  0.54570000  0.30300000  1.0 -0.2351206443
C  C21  1  0.81900000  0.98580000  0.43240000  1.0 -0.1502288706
C  C22  1  0.18100000  0.48580000  0.56760000  1.0 -0.1502288706
C  C23  1  0.18100000  0.01420000  0.56760000  1.0 -0.1502288706
C  C24  1  0.81900000  0.51420000  0.43240000  1.0 -0.1502288706
C  C25  1  0.65000000  0.99400000  0.41830000  1.0 -0.1740412167
C  C26  1  0.35000000  0.49400000  0.58170000  1.0 -0.1740412167
C  C27  1  0.35000000  0.00600000  0.58170000  1.0 -0.1740412167
C  C28  1  0.65000000  0.50600000  0.41830000  1.0 -0.1740412167
C  C29  1  0.59600000  0.05690000  0.31610000  1.0 -0.1398446015
C  C30  1  0.40400000  0.55690000  0.68390000  1.0 -0.1398446015
C  C31  1  0.40400000  0.94310000  0.68390000  1.0 -0.1398446015
C  C32  1  0.59600000  0.44310000  0.31610000  1.0 -0.1398446015
C  C33  1  0.60320000  0.02560000  0.18310000  1.0 -0.2616756013
C  C34  1  0.39680000  0.52560000  0.81690000  1.0 -0.2616756013
C  C35  1  0.39680000  0.97440000  0.81690000  1.0 -0.2616756013
C  C36  1  0.60320000  0.47440000  0.18310000  1.0 -0.2616756013
N  N1  1  0.91140000  0.90710000  0.83570000  1.0 -0.3670348576
N  N2  1  0.08860000  0.40710000  0.16430000  1.0 -0.3670348576
N  N3  1  0.08860000  0.09290000  0.16430000  1.0 -0.3670348576
N  N4  1  0.91140000  0.59290000  0.83570000  1.0 -0.3670348576
N  N5  1  0.46690000  0.75000000  0.46800000  1.0 -0.3428284428
N  N6  1  0.53310000  0.25000000  0.53200000  1.0 -0.3428284428
N  N7  1  0.06280000  0.75000000  0.45840000  1.0 -0.3428284428
N  N8  1  0.93720000  0.25000000  0.54160000  1.0 -0.3428284428
N  N9  1  0.14410000  0.90490000  0.14320000  1.0 -0.3576111993
N  N10  1  0.85590000  0.40490000  0.85680000  1.0 -0.3576111993
N  N11  1  0.85590000  0.09510000  0.85680000  1.0 -0.3576111993
N  N12  1  0.14410000  0.59510000  0.14320000  1.0 -0.3576111993
N  N13  1  0.78200000  0.96960000  0.06570000  1.0 -0.5703902593
N  N14  1  0.21800000  0.46960000  0.93430000  1.0 -0.5703902593
N  N15  1  0.21800000  0.03040000  0.93430000  1.0 -0.5703902593
N  N16  1  0.78200000  0.53040000  0.06570000  1.0 -0.5703902593
