# DDEC6 charges by PACMAN v1.1 (https://github.com/mtap-research/PACMAN-charge/)
data_HOFJIX_FSR_pacman
_symmetry_space_group_name_H-M   'P 1'
_cell_length_a   27.13000000
_cell_length_b   11.76100000
_cell_length_c   43.99900000
_cell_angle_alpha   90.00000000
_cell_angle_beta   128.01000000
_cell_angle_gamma   90.00000000
_symmetry_Int_Tables_number   1
_chemical_formula_structural   La3Cu2H48C76(N3O10)2
_chemical_formula_sum   'La12 Cu8 H192 C304 N24 O80'
_cell_volume   11061.39147696
_cell_formula_units_Z   4
loop_
 _symmetry_equiv_pos_site_id
 _symmetry_equiv_pos_as_xyz
  1  'x, y, z'
loop_
 _atom_site_type_symbol
 _atom_site_label
 _atom_site_symmetry_multiplicity
 _atom_site_fract_x
 _atom_site_fract_y
 _atom_site_fract_z
 _atom_site_occupancy
 _atom_site_charge
La  La1  1  0.55243000  0.58925000  0.80054000  1.0 1.8053928789
La  La2  1  0.44757000  0.08925000  0.69946000  1.0 1.8053928789
La  La3  1  0.44757000  0.41075000  0.19946000  1.0 1.8013559755
La  La4  1  0.55243000  0.91075000  0.30054000  1.0 1.8013559755
La  La5  1  0.94907000  0.55894000  0.69949000  1.0 0.9606511371
La  La6  1  0.05093000  0.05894000  0.80051000  1.0 0.9606511371
La  La7  1  0.05093000  0.44106000  0.30051000  1.0 0.9606511371
La  La8  1  0.94907000  0.94106000  0.19949000  1.0 0.9547364887
La  La9  1  0.94780000  0.42970000  0.69960000  1.0 0.6896597521
La  La10  1  0.05220000  0.92970000  0.80040000  1.0 0.6896597521
La  La11  1  0.05220000  0.57030000  0.30040000  1.0 0.6896597521
La  La12  1  0.94780000  0.07030000  0.19960000  1.0 0.6804086741
Cu  Cu1  1  0.43596000  0.60241000  0.68687000  1.0 0.6804086741
Cu  Cu2  1  0.56404000  0.10241000  0.81313000  1.0 0.6804086741
Cu  Cu3  1  0.56404000  0.39759000  0.31313000  1.0 0.6804086741
Cu  Cu4  1  0.43596000  0.89759000  0.18687000  1.0 0.6804086741
Cu  Cu5  1  0.06596000  0.57892000  0.81351000  1.0 0.5828909602
Cu  Cu6  1  0.93404000  0.07892000  0.68649000  1.0 0.5828909602
Cu  Cu7  1  0.93404000  0.42108000  0.18649000  1.0 0.5828909602
Cu  Cu8  1  0.06596000  0.92108000  0.31351000  1.0 0.5828909602
H  H1  1  0.87530000  0.62310000  0.13420000  1.0 0.1184204743
H  H2  1  0.12470000  0.12310000  0.36580000  1.0 0.1184204743
H  H3  1  0.12470000  0.37690000  0.86580000  1.0 0.1184204743
H  H4  1  0.87530000  0.87690000  0.63420000  1.0 0.1184204743
H  H5  1  0.86060000  0.29700000  0.11380000  1.0 0.1127146957
H  H6  1  0.13940000  0.79700000  0.38620000  1.0 0.1127146957
H  H7  1  0.13940000  0.70300000  0.88620000  1.0 0.1127146957
H  H8  1  0.86060000  0.20300000  0.61380000  1.0 0.1127146957
H  H9  1  0.80350000  0.65820000  0.06760000  1.0 0.1368113251
H  H10  1  0.19650000  0.15820000  0.43240000  1.0 0.1368113251
H  H11  1  0.19650000  0.34180000  0.93240000  1.0 0.1368113251
H  H12  1  0.80350000  0.84180000  0.56760000  1.0 0.1368113251
H  H13  1  0.79500000  0.32720000  0.04890000  1.0 0.1292017514
H  H14  1  0.20500000  0.82720000  0.45110000  1.0 0.1292017514
H  H15  1  0.20500000  0.67280000  0.95110000  1.0 0.1292017514
H  H16  1  0.79500000  0.17280000  0.54890000  1.0 0.1292017514
H  H17  1  0.70980000  0.66360000  0.00740000  1.0 0.1127146957
H  H18  1  0.29020000  0.16360000  0.49260000  1.0 0.1127146957
H  H19  1  0.29020000  0.33640000  0.99260000  1.0 0.1127146957
H  H20  1  0.70980000  0.83640000  0.50740000  1.0 0.1127146957
H  H21  1  0.78390000  0.39420000  0.99470000  1.0 0.1127146957
H  H22  1  0.21610000  0.89420000  0.50530000  1.0 0.1127146957
H  H23  1  0.21610000  0.60580000  0.00530000  1.0 0.1127146957
H  H24  1  0.78390000  0.10580000  0.49470000  1.0 0.1127146957
H  H25  1  0.64660000  0.69390000  0.94090000  1.0 0.1127146957
H  H26  1  0.35340000  0.19390000  0.55910000  1.0 0.1127146957
H  H27  1  0.35340000  0.30610000  0.05910000  1.0 0.1127146957
H  H28  1  0.64660000  0.80610000  0.44090000  1.0 0.1127146957
H  H29  1  0.71800000  0.41580000  0.93010000  1.0 0.1127146957
H  H30  1  0.28200000  0.91580000  0.56990000  1.0 0.1127146957
H  H31  1  0.28200000  0.58420000  0.06990000  1.0 0.1127146957
H  H32  1  0.71800000  0.08420000  0.43010000  1.0 0.1127146957
H  H33  1  0.15100000  0.74690000  0.81700000  1.0 0.1011480854
H  H34  1  0.84900000  0.24690000  0.68300000  1.0 0.1011480854
H  H35  1  0.84900000  0.25310000  0.18300000  1.0 0.1011480854
H  H36  1  0.15100000  0.75310000  0.31700000  1.0 0.1011480854
H  H37  1  0.14450000  0.41570000  0.80910000  1.0 0.1184204743
H  H38  1  0.85550000  0.91570000  0.69090000  1.0 0.1184204743
H  H39  1  0.85550000  0.58430000  0.19090000  1.0 0.1184204743
H  H40  1  0.14450000  0.08430000  0.30910000  1.0 0.1184204743
H  H41  1  0.23360000  0.75100000  0.81520000  1.0 0.1292017514
H  H42  1  0.76640000  0.25100000  0.68480000  1.0 0.1292017514
H  H43  1  0.76640000  0.24900000  0.18480000  1.0 0.1292017514
H  H44  1  0.23360000  0.74900000  0.31520000  1.0 0.1292017514
H  H45  1  0.22850000  0.41460000  0.80850000  1.0 0.1292017514
H  H46  1  0.77150000  0.91460000  0.69150000  1.0 0.1368113251
H  H47  1  0.77150000  0.58540000  0.19150000  1.0 0.1368113251
H  H48  1  0.22850000  0.08540000  0.30850000  1.0 0.1292017514
H  H49  1  0.27600000  0.73840000  0.78360000  1.0 0.1127146957
H  H50  1  0.72400000  0.23840000  0.71640000  1.0 0.1127146957
H  H51  1  0.72400000  0.26160000  0.21640000  1.0 0.1127146957
H  H52  1  0.27600000  0.76160000  0.28360000  1.0 0.1127146957
H  H53  1  0.33280000  0.43590000  0.83670000  1.0 0.1184204743
H  H54  1  0.66720000  0.93590000  0.66330000  1.0 0.1184204743
H  H55  1  0.66720000  0.56410000  0.16330000  1.0 0.1184204743
H  H56  1  0.33280000  0.06410000  0.33670000  1.0 0.1184204743
H  H57  1  0.35680000  0.73820000  0.77940000  1.0 0.1184204743
H  H58  1  0.64320000  0.23820000  0.72060000  1.0 0.1184204743
H  H59  1  0.64320000  0.26180000  0.22060000  1.0 0.1184204743
H  H60  1  0.35680000  0.76180000  0.27940000  1.0 0.1184204743
H  H61  1  0.41370000  0.43960000  0.83210000  1.0 0.1184204743
H  H62  1  0.58630000  0.93960000  0.66790000  1.0 0.1184204743
H  H63  1  0.58630000  0.56040000  0.16790000  1.0 0.1184204743
H  H64  1  0.41370000  0.06040000  0.33210000  1.0 0.1184204743
H  H65  1  0.51000000  0.42980000  0.68100000  1.0 0.1184204743
H  H66  1  0.49000000  0.92980000  0.81900000  1.0 0.1184204743
H  H67  1  0.49000000  0.57020000  0.31900000  1.0 0.1184204743
H  H68  1  0.51000000  0.07020000  0.18100000  1.0 0.1184204743
H  H69  1  0.52280000  0.76100000  0.68720000  1.0 0.1292017514
H  H70  1  0.47720000  0.26100000  0.81280000  1.0 0.1292017514
H  H71  1  0.47720000  0.23900000  0.31280000  1.0 0.1292017514
H  H72  1  0.52280000  0.73900000  0.18720000  1.0 0.1292017514
H  H73  1  0.58870000  0.42210000  0.67570000  1.0 0.1368113251
H  H74  1  0.41130000  0.92210000  0.82430000  1.0 0.1368113251
H  H75  1  0.41130000  0.57790000  0.32430000  1.0 0.1368113251
H  H76  1  0.58870000  0.07790000  0.17570000  1.0 0.1368113251
H  H77  1  0.60800000  0.75660000  0.69010000  1.0 0.1368113251
H  H78  1  0.39200000  0.25660000  0.80990000  1.0 0.1368113251
H  H79  1  0.39200000  0.24340000  0.30990000  1.0 0.1368113251
H  H80  1  0.60800000  0.74340000  0.19010000  1.0 0.1368113251
H  H81  1  0.64260000  0.44520000  0.65120000  1.0 0.1184204743
H  H82  1  0.35740000  0.94520000  0.84880000  1.0 0.1184204743
H  H83  1  0.35740000  0.55480000  0.34880000  1.0 0.1184204743
H  H84  1  0.64260000  0.05480000  0.15120000  1.0 0.1184204743
H  H85  1  0.71410000  0.71720000  0.72240000  1.0 0.1184204743
H  H86  1  0.28590000  0.21720000  0.77760000  1.0 0.1184204743
H  H87  1  0.28590000  0.28280000  0.27760000  1.0 0.1184204743
H  H88  1  0.71410000  0.78280000  0.22240000  1.0 0.1184204743
H  H89  1  0.73370000  0.43270000  0.65790000  1.0 0.1184204743
H  H90  1  0.26630000  0.93270000  0.84210000  1.0 0.1184204743
H  H91  1  0.26630000  0.56730000  0.34210000  1.0 0.1184204743
H  H92  1  0.73370000  0.06730000  0.15790000  1.0 0.1184204743
H  H93  1  0.80390000  0.70380000  0.72680000  1.0 0.1127146957
H  H94  1  0.19610000  0.20380000  0.77320000  1.0 0.1127146957
H  H95  1  0.19610000  0.29620000  0.27320000  1.0 0.1127146957
H  H96  1  0.80390000  0.79620000  0.22680000  1.0 0.1127146957
H  H97  1  0.98040000  0.42270000  0.81150000  1.0 0.1184204743
H  H98  1  0.01960000  0.92270000  0.68850000  1.0 0.1184204743
H  H99  1  0.01960000  0.57730000  0.18850000  1.0 0.1184204743
H  H100  1  0.98040000  0.07730000  0.31150000  1.0 0.1184204743
H  H101  1  0.99120000  0.75180000  0.82060000  1.0 0.1011480854
H  H102  1  0.00880000  0.25180000  0.67940000  1.0 0.1011480854
H  H103  1  0.00880000  0.24820000  0.17940000  1.0 0.1011480854
H  H104  1  0.99120000  0.74820000  0.32060000  1.0 0.1011480854
H  H105  1  0.89830000  0.42260000  0.81290000  1.0 0.1368113251
H  H106  1  0.10170000  0.92260000  0.68710000  1.0 0.1368113251
H  H107  1  0.10170000  0.57740000  0.18710000  1.0 0.1368113251
H  H108  1  0.89830000  0.07740000  0.31290000  1.0 0.1368113251
H  H109  1  0.90520000  0.76050000  0.81960000  1.0 0.1368113251
H  H110  1  0.09480000  0.26050000  0.68040000  1.0 0.1368113251
H  H111  1  0.09480000  0.23950000  0.18040000  1.0 0.1368113251
H  H112  1  0.90520000  0.73950000  0.31960000  1.0 0.1368113251
H  H113  1  0.85080000  0.73200000  0.84230000  1.0 0.1127146957
H  H114  1  0.14920000  0.23200000  0.65770000  1.0 0.1127146957
H  H115  1  0.14920000  0.26800000  0.15770000  1.0 0.1127146957
H  H116  1  0.85080000  0.76800000  0.34230000  1.0 0.1127146957
H  H117  1  0.78930000  0.45220000  0.77700000  1.0 0.1127146957
H  H118  1  0.21070000  0.95220000  0.72300000  1.0 0.1127146957
H  H119  1  0.21070000  0.54780000  0.22300000  1.0 0.1127146957
H  H120  1  0.78930000  0.04780000  0.27700000  1.0 0.1127146957
H  H121  1  0.76140000  0.73320000  0.83800000  1.0 0.1184204743
H  H122  1  0.23860000  0.23320000  0.66200000  1.0 0.1184204743
H  H123  1  0.23860000  0.26680000  0.16200000  1.0 0.1184204743
H  H124  1  0.76140000  0.76680000  0.33800000  1.0 0.1184204743
H  H125  1  0.70070000  0.45270000  0.77300000  1.0 0.1127146957
H  H126  1  0.29930000  0.95270000  0.72700000  1.0 0.1127146957
H  H127  1  0.29930000  0.54730000  0.22700000  1.0 0.1127146957
H  H128  1  0.70070000  0.04730000  0.27300000  1.0 0.1127146957
H  H129  1  0.61790000  0.59610000  0.36820000  1.0 0.1292017514
H  H130  1  0.38210000  0.09610000  0.13180000  1.0 0.1292017514
H  H131  1  0.38210000  0.40390000  0.63180000  1.0 0.1292017514
H  H132  1  0.61790000  0.90390000  0.86820000  1.0 0.1292017514
H  H133  1  0.64850000  0.26340000  0.38370000  1.0 0.1292017514
H  H134  1  0.35150000  0.76340000  0.11630000  1.0 0.1292017514
H  H135  1  0.35150000  0.73660000  0.61630000  1.0 0.1292017514
H  H136  1  0.64850000  0.23660000  0.88370000  1.0 0.1292017514
H  H137  1  0.68810000  0.62350000  0.43480000  1.0 0.1368113251
H  H138  1  0.31190000  0.12350000  0.06520000  1.0 0.1368113251
H  H139  1  0.31190000  0.37650000  0.56520000  1.0 0.1368113251
H  H140  1  0.68810000  0.87650000  0.93480000  1.0 0.1368113251
H  H141  1  0.71430000  0.29160000  0.44990000  1.0 0.1292017514
H  H142  1  0.28570000  0.79160000  0.05010000  1.0 0.1292017514
H  H143  1  0.28570000  0.70840000  0.55010000  1.0 0.1292017514
H  H144  1  0.71430000  0.20840000  0.94990000  1.0 0.1292017514
H  H145  1  0.70470000  0.61790000  0.49150000  1.0 0.1127146957
H  H146  1  0.29530000  0.11790000  0.00850000  1.0 0.1127146957
H  H147  1  0.29530000  0.38210000  0.50850000  1.0 0.1127146957
H  H148  1  0.70470000  0.88210000  0.99150000  1.0 0.1127146957
H  H149  1  0.81110000  0.35390000  0.50660000  1.0 0.1127146957
H  H150  1  0.18890000  0.85390000  0.99340000  1.0 0.1127146957
H  H151  1  0.18890000  0.64610000  0.49340000  1.0 0.1127146957
H  H152  1  0.81110000  0.14610000  0.00660000  1.0 0.1127146957
H  H153  1  0.76850000  0.64320000  0.55800000  1.0 0.1184204743
H  H154  1  0.23150000  0.14320000  0.94200000  1.0 0.1184204743
H  H155  1  0.23150000  0.35680000  0.44200000  1.0 0.1184204743
H  H156  1  0.76850000  0.85680000  0.05800000  1.0 0.1184204743
H  H157  1  0.87660000  0.38260000  0.57260000  1.0 0.1184204743
H  H158  1  0.12340000  0.88260000  0.92740000  1.0 0.1184204743
H  H159  1  0.12340000  0.61740000  0.42740000  1.0 0.1184204743
H  H160  1  0.87660000  0.11740000  0.07260000  1.0 0.1184204743
H  H161  1  0.35470000  0.44110000  0.68450000  1.0 0.1184204743
H  H162  1  0.64530000  0.94110000  0.81550000  1.0 0.1184204743
H  H163  1  0.64530000  0.55890000  0.31550000  1.0 0.1184204743
H  H164  1  0.35470000  0.05890000  0.18450000  1.0 0.1184204743
H  H165  1  0.35450000  0.77060000  0.69140000  1.0 0.1292017514
H  H166  1  0.64550000  0.27060000  0.80860000  1.0 0.1292017514
H  H167  1  0.64550000  0.22940000  0.30860000  1.0 0.1292017514
H  H168  1  0.35450000  0.72940000  0.19140000  1.0 0.1292017514
H  H169  1  0.27600000  0.42610000  0.69060000  1.0 0.1368113251
H  H170  1  0.72400000  0.92610000  0.80940000  1.0 0.1368113251
H  H171  1  0.72400000  0.57390000  0.30940000  1.0 0.1368113251
H  H172  1  0.27600000  0.07390000  0.19060000  1.0 0.1368113251
H  H173  1  0.27240000  0.76430000  0.69410000  1.0 0.1292017514
H  H174  1  0.72760000  0.26430000  0.80590000  1.0 0.1292017514
H  H175  1  0.72760000  0.23570000  0.30590000  1.0 0.1292017514
H  H176  1  0.27240000  0.73570000  0.19410000  1.0 0.1292017514
H  H177  1  0.23330000  0.43450000  0.72030000  1.0 0.1127146957
H  H178  1  0.76670000  0.93450000  0.77970000  1.0 0.1127146957
H  H179  1  0.76670000  0.56550000  0.27970000  1.0 0.1127146957
H  H180  1  0.23330000  0.06550000  0.22030000  1.0 0.1127146957
H  H181  1  0.17220000  0.73860000  0.67070000  1.0 0.1184204743
H  H182  1  0.82780000  0.23860000  0.82930000  1.0 0.1184204743
H  H183  1  0.82780000  0.26140000  0.32930000  1.0 0.1184204743
H  H184  1  0.17220000  0.76140000  0.17070000  1.0 0.1184204743
H  H185  1  0.15420000  0.42630000  0.72640000  1.0 0.1127146957
H  H186  1  0.84580000  0.92630000  0.77360000  1.0 0.1127146957
H  H187  1  0.84580000  0.57370000  0.27360000  1.0 0.1127146957
H  H188  1  0.15420000  0.07370000  0.22640000  1.0 0.1127146957
H  H189  1  0.09390000  0.73160000  0.67610000  1.0 0.1127146957
H  H190  1  0.90610000  0.23160000  0.82390000  1.0 0.1127146957
H  H191  1  0.90610000  0.26840000  0.32390000  1.0 0.1127146957
H  H192  1  0.09390000  0.76840000  0.17610000  1.0 0.1127146957
C  C1  1  0.85840000  0.56280000  0.11690000  1.0 0.1011480854
C  C2  1  0.14160000  0.06280000  0.38310000  1.0 0.1011480854
C  C3  1  0.14160000  0.43720000  0.88310000  1.0 0.1011480854
C  C4  1  0.85840000  0.93720000  0.61690000  1.0 0.1011480854
C  C5  1  0.85010000  0.37120000  0.10460000  1.0 0.0620770549
C  C6  1  0.14990000  0.87120000  0.39540000  1.0 0.0620770549
C  C7  1  0.14990000  0.62880000  0.89540000  1.0 0.0620770549
C  C8  1  0.85010000  0.12880000  0.60460000  1.0 0.0620770549
C  C9  1  0.81550000  0.58400000  0.07650000  1.0 -0.1881384474
C  C10  1  0.18450000  0.08400000  0.42350000  1.0 -0.1881384474
C  C11  1  0.18450000  0.41600000  0.92350000  1.0 -0.1881384474
C  C12  1  0.81550000  0.91600000  0.57650000  1.0 -0.1881384474
C  C13  1  0.81000000  0.38900000  0.06560000  1.0 -0.1967651992
C  C14  1  0.19000000  0.88900000  0.43440000  1.0 -0.1967651992
C  C15  1  0.19000000  0.61100000  0.93440000  1.0 -0.1967651992
C  C16  1  0.81000000  0.11100000  0.56560000  1.0 -0.1967651992
C  C17  1  0.79160000  0.49650000  0.05080000  1.0 0.1184204743
C  C18  1  0.20840000  0.99650000  0.44920000  1.0 0.1184204743
C  C19  1  0.20840000  0.50350000  0.94920000  1.0 0.1184204743
C  C20  1  0.79160000  0.00350000  0.55080000  1.0 0.1184204743
C  C21  1  0.75110000  0.51870000  0.00850000  1.0 0.0718283757
C  C22  1  0.24890000  0.01870000  0.49150000  1.0 0.0718283757
C  C23  1  0.24890000  0.48130000  0.99150000  1.0 0.0718283757
C  C24  1  0.75110000  0.98130000  0.50850000  1.0 0.0718283757
C  C25  1  0.71140000  0.61280000  0.99190000  1.0 -0.1590274773
C  C26  1  0.28860000  0.11280000  0.50810000  1.0 -0.1590274773
C  C27  1  0.28860000  0.38720000  0.00810000  1.0 -0.1590274773
C  C28  1  0.71140000  0.88720000  0.49190000  1.0 -0.1590274773
C  C29  1  0.75450000  0.45230000  0.98420000  1.0 -0.1590274773
C  C30  1  0.24550000  0.95230000  0.51580000  1.0 -0.1590274773
C  C31  1  0.24550000  0.54770000  0.01580000  1.0 -0.1590274773
C  C32  1  0.75450000  0.04770000  0.48420000  1.0 -0.1590274773
C  C33  1  0.67340000  0.63170000  0.95150000  1.0 -0.1023755666
C  C34  1  0.32660000  0.13170000  0.54850000  1.0 -0.1023755666
C  C35  1  0.32660000  0.36830000  0.04850000  1.0 -0.1023755666
C  C36  1  0.67340000  0.86830000  0.45150000  1.0 -0.1023755666
C  C37  1  0.71640000  0.46810000  0.94530000  1.0 -0.0931976001
C  C38  1  0.28360000  0.96810000  0.55470000  1.0 -0.0931976001
C  C39  1  0.28360000  0.53190000  0.05470000  1.0 -0.0931976001
C  C40  1  0.71640000  0.03190000  0.44530000  1.0 -0.0931976001
C  C41  1  0.67580000  0.55800000  0.92760000  1.0 -0.0325967886
C  C42  1  0.32420000  0.05800000  0.57240000  1.0 -0.0325967886
C  C43  1  0.32420000  0.44200000  0.07240000  1.0 -0.0325967886
C  C44  1  0.67580000  0.94200000  0.42760000  1.0 -0.0325967886
C  C45  1  0.63530000  0.57560000  0.88540000  1.0 0.5515425045
C  C46  1  0.36470000  0.07560000  0.61460000  1.0 0.5515425045
C  C47  1  0.36470000  0.42440000  0.11460000  1.0 0.5515425045
C  C48  1  0.63530000  0.92440000  0.38540000  1.0 0.5515425045
C  C49  1  0.16640000  0.67920000  0.81490000  1.0 0.0718283757
C  C50  1  0.83360000  0.17920000  0.68510000  1.0 0.0718283757
C  C51  1  0.83360000  0.32080000  0.18510000  1.0 0.0718283757
C  C52  1  0.16640000  0.82080000  0.31490000  1.0 0.0718283757
C  C53  1  0.16270000  0.48440000  0.81040000  1.0 0.1127146957
C  C54  1  0.83730000  0.98440000  0.68960000  1.0 0.1127146957
C  C55  1  0.83730000  0.51560000  0.18960000  1.0 0.1127146957
C  C56  1  0.16270000  0.01560000  0.31040000  1.0 0.1127146957
C  C57  1  0.21620000  0.68130000  0.81400000  1.0 -0.1881384474
C  C58  1  0.78380000  0.18130000  0.68600000  1.0 -0.1881384474
C  C59  1  0.78380000  0.31870000  0.18600000  1.0 -0.1881384474
C  C60  1  0.21620000  0.81870000  0.31400000  1.0 -0.1881384474
C  C61  1  0.21310000  0.48360000  0.80980000  1.0 -0.1967651992
C  C62  1  0.78690000  0.98360000  0.69020000  1.0 -0.1967651992
C  C63  1  0.78690000  0.51640000  0.19020000  1.0 -0.1967651992
C  C64  1  0.21310000  0.01640000  0.30980000  1.0 -0.1967651992
C  C65  1  0.24090000  0.58400000  0.81110000  1.0 0.1184204743
C  C66  1  0.75910000  0.08400000  0.68890000  1.0 0.1184204743
C  C67  1  0.75910000  0.41600000  0.18890000  1.0 0.1184204743
C  C68  1  0.24090000  0.91600000  0.31110000  1.0 0.1184204743
C  C69  1  0.29480000  0.58840000  0.80990000  1.0 0.0718283757
C  C70  1  0.70520000  0.08840000  0.69010000  1.0 0.0718283757
C  C71  1  0.70520000  0.41160000  0.19010000  1.0 0.0718283757
C  C72  1  0.29480000  0.91160000  0.30990000  1.0 0.0718283757
C  C73  1  0.30330000  0.67680000  0.79320000  1.0 -0.1536454062
C  C74  1  0.69670000  0.17680000  0.70680000  1.0 -0.1536454062
C  C75  1  0.69670000  0.32320000  0.20680000  1.0 -0.1590274773
C  C76  1  0.30330000  0.82320000  0.29320000  1.0 -0.1536454062
C  C77  1  0.33690000  0.49680000  0.82490000  1.0 -0.1536454062
C  C78  1  0.66310000  0.99680000  0.67510000  1.0 -0.1536454062
C  C79  1  0.66310000  0.50320000  0.17510000  1.0 -0.1536454062
C  C80  1  0.33690000  0.00320000  0.32490000  1.0 -0.1536454062
C  C81  1  0.35150000  0.67660000  0.79040000  1.0 -0.1115757085
C  C82  1  0.64850000  0.17660000  0.70960000  1.0 -0.1115757085
C  C83  1  0.64850000  0.32340000  0.20960000  1.0 -0.1183757786
C  C84  1  0.35150000  0.82340000  0.29040000  1.0 -0.1115757085
C  C85  1  0.38510000  0.49900000  0.82170000  1.0 -0.1115757085
C  C86  1  0.61490000  0.99900000  0.67830000  1.0 -0.1115757085
C  C87  1  0.61490000  0.50100000  0.17830000  1.0 -0.1023755666
C  C88  1  0.38510000  0.00100000  0.32170000  1.0 -0.1023755666
C  C89  1  0.39110000  0.58630000  0.80380000  1.0 -0.0141971281
C  C90  1  0.60890000  0.08630000  0.69620000  1.0 -0.0141971281
C  C91  1  0.60890000  0.41370000  0.19620000  1.0 -0.0141971281
C  C92  1  0.39110000  0.91370000  0.30380000  1.0 -0.0141971281
C  C93  1  0.44430000  0.58630000  0.80160000  1.0 0.5515425045
C  C94  1  0.55570000  0.08630000  0.69840000  1.0 0.5515425045
C  C95  1  0.55570000  0.41370000  0.19840000  1.0 0.5515425045
C  C96  1  0.44430000  0.91370000  0.30160000  1.0 0.5515425045
C  C97  1  0.52870000  0.49690000  0.68170000  1.0 0.1011480854
C  C98  1  0.47130000  0.99690000  0.81830000  1.0 0.1011480854
C  C99  1  0.47130000  0.50310000  0.31830000  1.0 0.1011480854
C  C100  1  0.52870000  0.00310000  0.18170000  1.0 0.1011480854
C  C101  1  0.53780000  0.69080000  0.68640000  1.0 0.0801571932
C  C102  1  0.46220000  0.19080000  0.81360000  1.0 0.0801571932
C  C103  1  0.46220000  0.30920000  0.31360000  1.0 0.0801571932
C  C104  1  0.53780000  0.80920000  0.18640000  1.0 0.0801571932
C  C105  1  0.57800000  0.49170000  0.68030000  1.0 -0.1881384474
C  C106  1  0.42200000  0.99170000  0.81970000  1.0 -0.1881384474
C  C107  1  0.42200000  0.50830000  0.31970000  1.0 -0.1881384474
C  C108  1  0.57800000  0.00830000  0.18030000  1.0 -0.1881384474
C  C109  1  0.58830000  0.68870000  0.68770000  1.0 -0.1801861424
C  C110  1  0.41170000  0.18870000  0.81230000  1.0 -0.1801861424
C  C111  1  0.41170000  0.31130000  0.31230000  1.0 -0.1801861424
C  C112  1  0.58830000  0.81130000  0.18770000  1.0 -0.1801861424
C  C113  1  0.61190000  0.58690000  0.68550000  1.0 0.1184204743
C  C114  1  0.38810000  0.08690000  0.81450000  1.0 0.1184204743
C  C115  1  0.38810000  0.41310000  0.31450000  1.0 0.1184204743
C  C116  1  0.61190000  0.91310000  0.18550000  1.0 0.1184204743
C  C117  1  0.66860000  0.57690000  0.68710000  1.0 0.0718283757
C  C118  1  0.33140000  0.07690000  0.81290000  1.0 0.0718283757
C  C119  1  0.33140000  0.42310000  0.31290000  1.0 0.0718283757
C  C120  1  0.66860000  0.92310000  0.18710000  1.0 0.0718283757
C  C121  1  0.67490000  0.49620000  0.66720000  1.0 -0.1536454062
C  C122  1  0.32510000  0.99620000  0.83280000  1.0 -0.1536454062
C  C123  1  0.32510000  0.50380000  0.33280000  1.0 -0.1536454062
C  C124  1  0.67490000  0.00380000  0.16720000  1.0 -0.1536454062
C  C125  1  0.71800000  0.65940000  0.70960000  1.0 -0.1536454062
C  C126  1  0.28200000  0.15940000  0.79040000  1.0 -0.1536454062
C  C127  1  0.28200000  0.34060000  0.29040000  1.0 -0.1536454062
C  C128  1  0.71800000  0.84060000  0.20960000  1.0 -0.1536454062
C  C129  1  0.72950000  0.49020000  0.67070000  1.0 -0.1115757085
C  C130  1  0.27050000  0.99020000  0.82930000  1.0 -0.1115757085
C  C131  1  0.27050000  0.50980000  0.32930000  1.0 -0.1115757085
C  C132  1  0.72950000  0.00980000  0.17070000  1.0 -0.1115757085
C  C133  1  0.77170000  0.65150000  0.71200000  1.0 -0.1115757085
C  C134  1  0.22830000  0.15150000  0.78800000  1.0 -0.1115757085
C  C135  1  0.22830000  0.34850000  0.28800000  1.0 -0.1115757085
C  C136  1  0.77170000  0.84850000  0.21200000  1.0 -0.1115757085
C  C137  1  0.77740000  0.56680000  0.69260000  1.0 -0.0141971281
C  C138  1  0.22260000  0.06680000  0.80740000  1.0 -0.0141971281
C  C139  1  0.22260000  0.43320000  0.30740000  1.0 -0.0141971281
C  C140  1  0.77740000  0.93320000  0.19260000  1.0 -0.0141971281
C  C141  1  0.83670000  0.55560000  0.69650000  1.0 0.5402182814
C  C142  1  0.16330000  0.05560000  0.80350000  1.0 0.5402182814
C  C143  1  0.16330000  0.44440000  0.30350000  1.0 0.5402182814
C  C144  1  0.83670000  0.94440000  0.19650000  1.0 0.5402182814
C  C145  1  0.96560000  0.49160000  0.81330000  1.0 0.090460508
C  C146  1  0.03440000  0.99160000  0.68670000  1.0 0.090460508
C  C147  1  0.03440000  0.50840000  0.18670000  1.0 0.090460508
C  C148  1  0.96560000  0.00840000  0.31330000  1.0 0.090460508
C  C149  1  0.97120000  0.68440000  0.81830000  1.0 0.090460508
C  C150  1  0.02880000  0.18440000  0.68170000  1.0 0.090460508
C  C151  1  0.02880000  0.31560000  0.18170000  1.0 0.090460508
C  C152  1  0.97120000  0.81560000  0.31830000  1.0 0.090460508
C  C153  1  0.91510000  0.49180000  0.81320000  1.0 -0.1881384474
C  C154  1  0.08490000  0.99180000  0.68680000  1.0 -0.1881384474
C  C155  1  0.08490000  0.50820000  0.18680000  1.0 -0.1881384474
C  C156  1  0.91510000  0.00820000  0.31320000  1.0 -0.1881384474
C  C157  1  0.91930000  0.69090000  0.81750000  1.0 -0.1967651992
C  C158  1  0.08070000  0.19090000  0.68250000  1.0 -0.1967651992
C  C159  1  0.08070000  0.30910000  0.18250000  1.0 -0.1967651992
C  C160  1  0.91930000  0.80910000  0.31750000  1.0 -0.1967651992
C  C161  1  0.88880000  0.58880000  0.81360000  1.0 0.1184204743
C  C162  1  0.11120000  0.08880000  0.68640000  1.0 0.1184204743
C  C163  1  0.11120000  0.41120000  0.18640000  1.0 0.1184204743
C  C164  1  0.88880000  0.91120000  0.31360000  1.0 0.1184204743
C  C165  1  0.83130000  0.58660000  0.81130000  1.0 0.0620770549
C  C166  1  0.16870000  0.08660000  0.68870000  1.0 0.0620770549
C  C167  1  0.16870000  0.41340000  0.18870000  1.0 0.0620770549
C  C168  1  0.83130000  0.91340000  0.31130000  1.0 0.0620770549
C  C169  1  0.82100000  0.67490000  0.82870000  1.0 -0.1590274773
C  C170  1  0.17900000  0.17490000  0.67130000  1.0 -0.1590274773
C  C171  1  0.17900000  0.32510000  0.17130000  1.0 -0.1590274773
C  C172  1  0.82100000  0.82510000  0.32870000  1.0 -0.1590274773
C  C173  1  0.78460000  0.50840000  0.78990000  1.0 -0.1536454062
C  C174  1  0.21540000  0.00840000  0.71010000  1.0 -0.1536454062
C  C175  1  0.21540000  0.49160000  0.21010000  1.0 -0.1536454062
C  C176  1  0.78460000  0.99160000  0.28990000  1.0 -0.1536454062
C  C177  1  0.76690000  0.67680000  0.82550000  1.0 -0.1023755666
C  C178  1  0.23310000  0.17680000  0.67450000  1.0 -0.1023755666
C  C179  1  0.23310000  0.32320000  0.17450000  1.0 -0.1023755666
C  C180  1  0.76690000  0.82320000  0.32550000  1.0 -0.1023755666
C  C181  1  0.73050000  0.50950000  0.78670000  1.0 -0.1183757786
C  C182  1  0.26950000  0.00950000  0.71330000  1.0 -0.1183757786
C  C183  1  0.26950000  0.49050000  0.21330000  1.0 -0.1183757786
C  C184  1  0.73050000  0.99050000  0.28670000  1.0 -0.1183757786
C  C185  1  0.72120000  0.59490000  0.80390000  1.0 -0.0018697568
C  C186  1  0.27880000  0.09490000  0.69610000  1.0 -0.0018697568
C  C187  1  0.27880000  0.40510000  0.19610000  1.0 -0.0018697568
C  C188  1  0.72120000  0.90510000  0.30390000  1.0 -0.0018697568
C  C189  1  0.66030000  0.59660000  0.79960000  1.0 0.5402182814
C  C190  1  0.33970000  0.09660000  0.70040000  1.0 0.5402182814
C  C191  1  0.33970000  0.40340000  0.20040000  1.0 0.5402182814
C  C192  1  0.66030000  0.90340000  0.29960000  1.0 0.5402182814
C  C193  1  0.63730000  0.53400000  0.38470000  1.0 0.1011480854
C  C194  1  0.36270000  0.03400000  0.11530000  1.0 0.1011480854
C  C195  1  0.36270000  0.46600000  0.61530000  1.0 0.1011480854
C  C196  1  0.63730000  0.96600000  0.88470000  1.0 0.1011480854
C  C197  1  0.65510000  0.33600000  0.39390000  1.0 0.0620770549
C  C198  1  0.34490000  0.83600000  0.10610000  1.0 0.0620770549
C  C199  1  0.34490000  0.66400000  0.60610000  1.0 0.0620770549
C  C200  1  0.65510000  0.16400000  0.89390000  1.0 0.0620770549
C  C201  1  0.67990000  0.55010000  0.42490000  1.0 -0.1699711766
C  C202  1  0.32010000  0.05010000  0.07510000  1.0 -0.1699711766
C  C203  1  0.32010000  0.44990000  0.57510000  1.0 -0.1699711766
C  C204  1  0.67990000  0.94990000  0.92490000  1.0 -0.1699711766
C  C205  1  0.69550000  0.35370000  0.43340000  1.0 -0.1881384474
C  C206  1  0.30450000  0.85370000  0.06660000  1.0 -0.1881384474
C  C207  1  0.30450000  0.64630000  0.56660000  1.0 -0.1881384474
C  C208  1  0.69550000  0.14630000  0.93340000  1.0 -0.1881384474
C  C209  1  0.70850000  0.46310000  0.44890000  1.0 0.1184204743
C  C210  1  0.29150000  0.96310000  0.05110000  1.0 0.1184204743
C  C211  1  0.29150000  0.53690000  0.55110000  1.0 0.1184204743
C  C212  1  0.70850000  0.03690000  0.94890000  1.0 0.1184204743
C  C213  1  0.75170000  0.48300000  0.49180000  1.0 0.0718283757
C  C214  1  0.24830000  0.98300000  0.00820000  1.0 0.0718283757
C  C215  1  0.24830000  0.51700000  0.50820000  1.0 0.0718283757
C  C216  1  0.75170000  0.01700000  0.99180000  1.0 0.0718283757
C  C217  1  0.73880000  0.57030000  0.50760000  1.0 -0.1590274773
C  C218  1  0.26120000  0.07030000  0.99240000  1.0 -0.1590274773
C  C219  1  0.26120000  0.42970000  0.49240000  1.0 -0.1590274773
C  C220  1  0.73880000  0.92970000  0.00760000  1.0 -0.1590274773
C  C221  1  0.80280000  0.41340000  0.51680000  1.0 -0.1590274773
C  C222  1  0.19720000  0.91340000  0.98320000  1.0 -0.1590274773
C  C223  1  0.19720000  0.58660000  0.48320000  1.0 -0.1590274773
C  C224  1  0.80280000  0.08660000  0.01680000  1.0 -0.1590274773
C  C225  1  0.77780000  0.58550000  0.54780000  1.0 -0.0931976001
C  C226  1  0.22220000  0.08550000  0.95220000  1.0 -0.0931976001
C  C227  1  0.22220000  0.41450000  0.45220000  1.0 -0.0931976001
C  C228  1  0.77780000  0.91450000  0.04780000  1.0 -0.0931976001
C  C229  1  0.84210000  0.42960000  0.55660000  1.0 -0.1115757085
C  C230  1  0.15790000  0.92960000  0.94340000  1.0 -0.1115757085
C  C231  1  0.15790000  0.57040000  0.44340000  1.0 -0.1115757085
C  C232  1  0.84210000  0.07040000  0.05660000  1.0 -0.1115757085
C  C233  1  0.82900000  0.51840000  0.57250000  1.0 -0.0213258007
C  C234  1  0.17100000  0.01840000  0.92750000  1.0 -0.0213258007
C  C235  1  0.17100000  0.48160000  0.42750000  1.0 -0.0213258007
C  C236  1  0.82900000  0.98160000  0.07250000  1.0 -0.0213258007
C  C237  1  0.87410000  0.53880000  0.61540000  1.0 0.5515425045
C  C238  1  0.12590000  0.03880000  0.88460000  1.0 0.5515425045
C  C239  1  0.12590000  0.46120000  0.38460000  1.0 0.5515425045
C  C240  1  0.87410000  0.96120000  0.11540000  1.0 0.5515425045
C  C241  1  0.33860000  0.50720000  0.68700000  1.0 0.1011480854
C  C242  1  0.66140000  0.00720000  0.81300000  1.0 0.1011480854
C  C243  1  0.66140000  0.49280000  0.31300000  1.0 0.1011480854
C  C244  1  0.33860000  0.99280000  0.18700000  1.0 0.1011480854
C  C245  1  0.33800000  0.70040000  0.69060000  1.0 0.1011480854
C  C246  1  0.66200000  0.20040000  0.80940000  1.0 0.1011480854
C  C247  1  0.66200000  0.29960000  0.30940000  1.0 0.1011480854
C  C248  1  0.33800000  0.79960000  0.19060000  1.0 0.1011480854
C  C249  1  0.29000000  0.49750000  0.68990000  1.0 -0.1881384474
C  C250  1  0.71000000  0.99750000  0.81010000  1.0 -0.1881384474
C  C251  1  0.71000000  0.50250000  0.31010000  1.0 -0.1881384474
C  C252  1  0.29000000  0.00250000  0.18990000  1.0 -0.1881384474
C  C253  1  0.28850000  0.69700000  0.69230000  1.0 -0.1881384474
C  C254  1  0.71150000  0.19700000  0.80770000  1.0 -0.1881384474
C  C255  1  0.71150000  0.30300000  0.30770000  1.0 -0.1881384474
C  C256  1  0.28850000  0.80300000  0.19230000  1.0 -0.1881384474
C  C257  1  0.26340000  0.59400000  0.69150000  1.0 0.1184204743
C  C258  1  0.73660000  0.09400000  0.80850000  1.0 0.1184204743
C  C259  1  0.73660000  0.40600000  0.30850000  1.0 0.1184204743
C  C260  1  0.26340000  0.90600000  0.19150000  1.0 0.1184204743
C  C261  1  0.21090000  0.58980000  0.69410000  1.0 0.0718283757
C  C262  1  0.78910000  0.08980000  0.80590000  1.0 0.0718283757
C  C263  1  0.78910000  0.41020000  0.30590000  1.0 0.0718283757
C  C264  1  0.21090000  0.91020000  0.19410000  1.0 0.0718283757
C  C265  1  0.20500000  0.49420000  0.71120000  1.0 -0.1590274773
C  C266  1  0.79500000  0.99420000  0.78880000  1.0 -0.1590274773
C  C267  1  0.79500000  0.50580000  0.28880000  1.0 -0.1590274773
C  C268  1  0.20500000  0.00580000  0.21120000  1.0 -0.1590274773
C  C269  1  0.16880000  0.67460000  0.68180000  1.0 -0.1424095009
C  C270  1  0.83120000  0.17460000  0.81820000  1.0 -0.1424095009
C  C271  1  0.83120000  0.32540000  0.31820000  1.0 -0.1424095009
C  C272  1  0.16880000  0.82540000  0.18180000  1.0 -0.1424095009
C  C273  1  0.15710000  0.48880000  0.71460000  1.0 -0.1115757085
C  C274  1  0.84290000  0.98880000  0.78540000  1.0 -0.1115757085
C  C275  1  0.84290000  0.51120000  0.28540000  1.0 -0.1115757085
C  C276  1  0.15710000  0.01120000  0.21460000  1.0 -0.1115757085
C  C277  1  0.12140000  0.67080000  0.68470000  1.0 -0.1115757085
C  C278  1  0.87860000  0.17080000  0.81530000  1.0 -0.1115757085
C  C279  1  0.87860000  0.32920000  0.31530000  1.0 -0.1115757085
C  C280  1  0.12140000  0.82920000  0.18470000  1.0 -0.1115757085
C  C281  1  0.11440000  0.57550000  0.70070000  1.0 -0.0213258007
C  C282  1  0.88560000  0.07550000  0.79930000  1.0 -0.0213258007
C  C283  1  0.88560000  0.42450000  0.29930000  1.0 -0.0213258007
C  C284  1  0.11440000  0.92450000  0.20070000  1.0 -0.0213258007
C  C285  1  0.06090000  0.57220000  0.70240000  1.0 0.5515425045
C  C286  1  0.93910000  0.07220000  0.79760000  1.0 0.5515425045
C  C287  1  0.93910000  0.42780000  0.29760000  1.0 0.5515425045
C  C288  1  0.06090000  0.92780000  0.20240000  1.0 0.5515425045
C  C289  1  0.47910000  0.37010000  0.72960000  1.0 0.4789948996
C  C290  1  0.52090000  0.87010000  0.77040000  1.0 0.4789948996
C  C291  1  0.52090000  0.62990000  0.27040000  1.0 0.4789948996
C  C292  1  0.47910000  0.12990000  0.22960000  1.0 0.4789948996
C  C293  1  0.51820000  0.30620000  0.76820000  1.0 0.4743145283
C  C294  1  0.48180000  0.80620000  0.73180000  1.0 0.4789948996
C  C295  1  0.48180000  0.69380000  0.23180000  1.0 0.4743145283
C  C296  1  0.51820000  0.19380000  0.26820000  1.0 0.4743145283
C  C297  1  0.97960000  0.27770000  0.73277000  1.0 0.0620770549
C  C298  1  0.02040000  0.77770000  0.76723000  1.0 0.0531802502
C  C299  1  0.02040000  0.72230000  0.26723000  1.0 0.0531802502
C  C300  1  0.97960000  0.22230000  0.23277000  1.0 0.0531802502
C  C301  1  0.02160000  0.34360000  0.77191000  1.0 0.395568962
C  C302  1  0.97840000  0.84360000  0.72809000  1.0 0.395568962
C  C303  1  0.97840000  0.65640000  0.22809000  1.0 0.395568962
C  C304  1  0.02160000  0.15640000  0.27191000  1.0 0.395568962
N  N1  1  0.87440000  0.45620000  0.12966000  1.0 -0.2341608379
N  N2  1  0.12560000  0.95620000  0.37034000  1.0 -0.2341608379
N  N3  1  0.12560000  0.54380000  0.87034000  1.0 -0.2341608379
N  N4  1  0.87440000  0.04380000  0.62966000  1.0 -0.2341608379
N  N5  1  0.13970000  0.57990000  0.81290000  1.0 -0.2220729107
N  N6  1  0.86030000  0.07990000  0.68710000  1.0 -0.2220729107
N  N7  1  0.86030000  0.42010000  0.18710000  1.0 -0.2220729107
N  N8  1  0.13970000  0.92010000  0.31290000  1.0 -0.2220729107
N  N9  1  0.50730000  0.59610000  0.68390000  1.0 -0.2220729107
N  N10  1  0.49270000  0.09610000  0.81610000  1.0 -0.2220729107
N  N11  1  0.49270000  0.40390000  0.31610000  1.0 -0.2220729107
N  N12  1  0.50730000  0.90390000  0.18390000  1.0 -0.2220729107
N  N13  1  0.99400000  0.58770000  0.81600000  1.0 -0.2220729107
N  N14  1  0.00600000  0.08770000  0.68400000  1.0 -0.2220729107
N  N15  1  0.00600000  0.41230000  0.18400000  1.0 -0.2220729107
N  N16  1  0.99400000  0.91230000  0.31600000  1.0 -0.2220729107
N  N17  1  0.62510000  0.42830000  0.37030000  1.0 -0.2466056246
N  N18  1  0.37490000  0.92830000  0.12970000  1.0 -0.2466056246
N  N19  1  0.37490000  0.57170000  0.62970000  1.0 -0.2466056246
N  N20  1  0.62510000  0.07170000  0.87030000  1.0 -0.2466056246
N  N21  1  0.36280000  0.60640000  0.68780000  1.0 -0.2220729107
N  N22  1  0.63720000  0.10640000  0.81220000  1.0 -0.2220729107
N  N23  1  0.63720000  0.39360000  0.31220000  1.0 -0.2220729107
N  N24  1  0.36280000  0.89360000  0.18780000  1.0 -0.2220729107
O  O1  1  0.60050000  0.65840000  0.87030000  1.0 -0.5622029229
O  O2  1  0.39950000  0.15840000  0.62970000  1.0 -0.5622029229
O  O3  1  0.39950000  0.34160000  0.12970000  1.0 -0.5622029229
O  O4  1  0.60050000  0.84160000  0.37030000  1.0 -0.5622029229
O  O5  1  0.63920000  0.50210000  0.86560000  1.0 -0.5835246418
O  O6  1  0.36080000  0.00210000  0.63440000  1.0 -0.5835246418
O  O7  1  0.36080000  0.49790000  0.13440000  1.0 -0.5835246418
O  O8  1  0.63920000  0.99790000  0.36560000  1.0 -0.5835246418
O  O9  1  0.47970000  0.50130000  0.81390000  1.0 -0.5622029229
O  O10  1  0.52030000  0.00130000  0.68610000  1.0 -0.5622029229
O  O11  1  0.52030000  0.49870000  0.18610000  1.0 -0.5622029229
O  O12  1  0.47970000  0.99870000  0.31390000  1.0 -0.5622029229
O  O13  1  0.45110000  0.66690000  0.78600000  1.0 -0.57321201
O  O14  1  0.54890000  0.16690000  0.71400000  1.0 -0.57321201
O  O15  1  0.54890000  0.33310000  0.21400000  1.0 -0.57321201
O  O16  1  0.45110000  0.83310000  0.28600000  1.0 -0.57321201
O  O17  1  0.84020000  0.48150000  0.67810000  1.0 -0.5299161299
O  O18  1  0.15980000  0.98150000  0.82190000  1.0 -0.5299161299
O  O19  1  0.15980000  0.51850000  0.32190000  1.0 -0.5299161299
O  O20  1  0.84020000  0.01850000  0.17810000  1.0 -0.5299161299
O  O21  1  0.87950000  0.62320000  0.71760000  1.0 -0.4954058353
O  O22  1  0.12050000  0.12320000  0.78240000  1.0 -0.4946567837
O  O23  1  0.12050000  0.37680000  0.28240000  1.0 -0.4946567837
O  O24  1  0.87950000  0.87680000  0.21760000  1.0 -0.4946567837
O  O25  1  0.62280000  0.51730000  0.78260000  1.0 -0.5622029229
O  O26  1  0.37720000  0.01730000  0.71740000  1.0 -0.5622029229
O  O27  1  0.37720000  0.48270000  0.21740000  1.0 -0.5622029229
O  O28  1  0.62280000  0.98270000  0.28260000  1.0 -0.5622029229
O  O29  1  0.65370000  0.67750000  0.81550000  1.0 -0.5869238351
O  O30  1  0.34630000  0.17750000  0.68450000  1.0 -0.5869238351
O  O31  1  0.34630000  0.32250000  0.18450000  1.0 -0.5869238351
O  O32  1  0.65370000  0.82250000  0.31550000  1.0 -0.5869238351
O  O33  1  0.91460000  0.46690000  0.63600000  1.0 -0.5354390565
O  O34  1  0.08540000  0.96690000  0.86400000  1.0 -0.5354390565
O  O35  1  0.08540000  0.53310000  0.36400000  1.0 -0.5354390565
O  O36  1  0.91460000  0.03310000  0.13600000  1.0 -0.5299161299
O  O37  1  0.86510000  0.62510000  0.62850000  1.0 -0.5299161299
O  O38  1  0.13490000  0.12510000  0.87150000  1.0 -0.5299161299
O  O39  1  0.13490000  0.37490000  0.37150000  1.0 -0.5299161299
O  O40  1  0.86510000  0.87490000  0.12850000  1.0 -0.5299161299
O  O41  1  0.02520000  0.65460000  0.69150000  1.0 -0.5113326285
O  O42  1  0.97480000  0.15460000  0.80850000  1.0 -0.5113326285
O  O43  1  0.97480000  0.34540000  0.30850000  1.0 -0.5113326285
O  O44  1  0.02520000  0.84540000  0.19150000  1.0 -0.5113326285
O  O45  1  0.05540000  0.48500000  0.71760000  1.0 -0.57321201
O  O46  1  0.94460000  0.98500000  0.78240000  1.0 -0.57321201
O  O47  1  0.94460000  0.51500000  0.28240000  1.0 -0.57321201
O  O48  1  0.05540000  0.01500000  0.21760000  1.0 -0.57321201
O  O49  1  0.48020000  0.48130000  0.73400000  1.0 -0.6161033932
O  O50  1  0.51980000  0.98130000  0.76600000  1.0 -0.6161033932
O  O51  1  0.51980000  0.51870000  0.26600000  1.0 -0.6161033932
O  O52  1  0.48020000  0.01870000  0.23400000  1.0 -0.6161033932
O  O53  1  0.55260000  0.37860000  0.79987000  1.0 -0.6584685866
O  O54  1  0.44740000  0.87860000  0.70013000  1.0 -0.6584685866
O  O55  1  0.44740000  0.62140000  0.20013000  1.0 -0.6584685866
O  O56  1  0.55260000  0.12140000  0.29987000  1.0 -0.6584685866
O  O57  1  0.51100000  0.19900000  0.76585000  1.0 -0.5473253924
O  O58  1  0.48900000  0.69900000  0.73415000  1.0 -0.5473253924
O  O59  1  0.48900000  0.80100000  0.23415000  1.0 -0.5473253924
O  O60  1  0.51100000  0.30100000  0.26585000  1.0 -0.5473253924
O  O61  1  0.44810000  0.31860000  0.69941000  1.0 -0.5160482351
O  O62  1  0.55190000  0.81860000  0.80059000  1.0 -0.5160482351
O  O63  1  0.55190000  0.68140000  0.30059000  1.0 -0.5160482351
O  O64  1  0.44810000  0.18140000  0.19941000  1.0 -0.5160482351
O  O65  1  0.01530000  0.45140000  0.76755000  1.0 -0.5473253924
O  O66  1  0.98470000  0.95140000  0.73245000  1.0 -0.5473253924
O  O67  1  0.98470000  0.54860000  0.23245000  1.0 -0.5473253924
O  O68  1  0.01530000  0.04860000  0.26755000  1.0 -0.5473253924
O  O69  1  0.94840000  0.33250000  0.70155000  1.0 -0.1881384474
O  O70  1  0.05160000  0.83250000  0.79845000  1.0 -0.1881384474
O  O71  1  0.05160000  0.66750000  0.29845000  1.0 -0.1881384474
O  O72  1  0.94840000  0.16750000  0.20155000  1.0 -0.1881384474
O  O73  1  0.05680000  0.29270000  0.80137000  1.0 -0.4051936988
O  O74  1  0.94320000  0.79270000  0.69863000  1.0 -0.4051936988
O  O75  1  0.94320000  0.70730000  0.19863000  1.0 -0.4035603527
O  O76  1  0.05680000  0.20730000  0.30137000  1.0 -0.4051936988
O  O77  1  0.98250000  0.17260000  0.73510000  1.0 -0.4385993529
O  O78  1  0.01750000  0.67260000  0.76490000  1.0 -0.4385993529
O  O79  1  0.01750000  0.82740000  0.26490000  1.0 -0.4385993529
O  O80  1  0.98250000  0.32740000  0.23510000  1.0 -0.4385993529
