# DDEC6 charges by PACMAN v1.1 (https://github.com/mtap-research/PACMAN-charge/)
data_HOGJIX_ASR_pacman
_symmetry_space_group_name_H-M   'P 1'
_cell_length_a   19.42530000
_cell_length_b   19.42530000
_cell_length_c   21.70500000
_cell_angle_alpha   64.17890000
_cell_angle_beta   115.82100000
_cell_angle_gamma   119.38000000
_symmetry_Int_Tables_number   1
_chemical_formula_structural   ZnH3C8NO4
_chemical_formula_sum   'Zn12 H36 C96 N12 O48'
_cell_volume   6161.91095984
_cell_formula_units_Z   12
loop_
 _symmetry_equiv_pos_site_id
 _symmetry_equiv_pos_as_xyz
  1  'x, y, z'
loop_
 _atom_site_type_symbol
 _atom_site_label
 _atom_site_symmetry_multiplicity
 _atom_site_fract_x
 _atom_site_fract_y
 _atom_site_fract_z
 _atom_site_occupancy
 _atom_site_charge
Zn  Zn1  1  0.18801000  0.69795000  0.68740000  1.0 0.9557225447
Zn  Zn2  1  0.69795000  0.18801000  0.81260000  1.0 0.9557225447
Zn  Zn3  1  0.81199000  0.30205000  0.31260000  1.0 0.9557225447
Zn  Zn4  1  0.30205000  0.81199000  0.18740000  1.0 0.9557225447
Zn  Zn5  1  0.27532000  0.73910000  0.82689000  1.0 0.9557225447
Zn  Zn6  1  0.73910000  0.27532000  0.67311000  1.0 0.9557225447
Zn  Zn7  1  0.72468000  0.26090000  0.17311000  1.0 0.9557225447
Zn  Zn8  1  0.26090000  0.72468000  0.32689000  1.0 0.9557225447
Zn  Zn9  1  0.26987000  0.17959000  0.81924000  1.0 0.9534447084
Zn  Zn10  1  0.17959000  0.26987000  0.68076000  1.0 0.9534447084
Zn  Zn11  1  0.73013000  0.82041000  0.18076000  1.0 0.9534447084
Zn  Zn12  1  0.82041000  0.73013000  0.31924000  1.0 0.9534447084
H  H1  1  0.37830000  0.86710000  0.59150000  1.0 0.1366047974
H  H2  1  0.86710000  0.37830000  0.90850000  1.0 0.1366047974
H  H3  1  0.62170000  0.13290000  0.40850000  1.0 0.1366047974
H  H4  1  0.13290000  0.62170000  0.09150000  1.0 0.1366047974
H  H5  1  0.48570000  0.96030000  0.75990000  1.0 0.1314604195
H  H6  1  0.96030000  0.48570000  0.74010000  1.0 0.1314604195
H  H7  1  0.51430000  0.03970000  0.24010000  1.0 0.1314604195
H  H8  1  0.03970000  0.51430000  0.25990000  1.0 0.1314604195
H  H9  1  0.57900000  0.07980000  0.59010000  1.0 0.1314604195
H  H10  1  0.07980000  0.57900000  0.90990000  1.0 0.1314604195
H  H11  1  0.42100000  0.92020000  0.40990000  1.0 0.1314604195
H  H12  1  0.92020000  0.42100000  0.09010000  1.0 0.1314604195
H  H13  1  0.41430000  0.58590000  0.91450000  1.0 0.1314604195
H  H14  1  0.58590000  0.41430000  0.58550000  1.0 0.1314604195
H  H15  1  0.58570000  0.41410000  0.08550000  1.0 0.1314604195
H  H16  1  0.41410000  0.58570000  0.41450000  1.0 0.1314604195
H  H17  1  0.40610000  0.37430000  0.91090000  1.0 0.1366047974
H  H18  1  0.37430000  0.40610000  0.58910000  1.0 0.1366047974
H  H19  1  0.59390000  0.62570000  0.08910000  1.0 0.1366047974
H  H20  1  0.62570000  0.59390000  0.41090000  1.0 0.1366047974
H  H21  1  0.25140000  0.48480000  0.75130000  1.0 0.1314604195
H  H22  1  0.48480000  0.25140000  0.74870000  1.0 0.1314604195
H  H23  1  0.74860000  0.51520000  0.24870000  1.0 0.1314604195
H  H24  1  0.51520000  0.74860000  0.25130000  1.0 0.1314604195
H  H25  1  0.07200000  0.86380000  0.59860000  1.0 0.1314604195
H  H26  1  0.86380000  0.07200000  0.90140000  1.0 0.1314604195
H  H27  1  0.92800000  0.13620000  0.40140000  1.0 0.1314604195
H  H28  1  0.13620000  0.92800000  0.09860000  1.0 0.1314604195
H  H29  1  0.07410000  0.07530000  0.59330000  1.0 0.1314604195
H  H30  1  0.07530000  0.07410000  0.90670000  1.0 0.1314604195
H  H31  1  0.92590000  0.92470000  0.40670000  1.0 0.1314604195
H  H32  1  0.92470000  0.92590000  0.09330000  1.0 0.1314604195
H  H33  1  0.20600000  0.95340000  0.76970000  1.0 0.1314604195
H  H34  1  0.95340000  0.20600000  0.73030000  1.0 0.1314604195
H  H35  1  0.79400000  0.04660000  0.23030000  1.0 0.1314604195
H  H36  1  0.04660000  0.79400000  0.26970000  1.0 0.1314604195
C  C1  1  0.35658000  0.83420000  0.71434000  1.0 0.5990812223
C  C2  1  0.83420000  0.35658000  0.78566000  1.0 0.5990812223
C  C3  1  0.64342000  0.16580000  0.28566000  1.0 0.5990812223
C  C4  1  0.16580000  0.64342000  0.21434000  1.0 0.5990812223
C  C5  1  0.42249000  0.90439000  0.68042000  1.0 -0.0119291928
C  C6  1  0.90439000  0.42249000  0.81958000  1.0 -0.0119291928
C  C7  1  0.57751000  0.09561000  0.31958000  1.0 -0.0119291928
C  C8  1  0.09561000  0.57751000  0.18042000  1.0 -0.0119291928
C  C9  1  0.42002000  0.90856000  0.61420000  1.0 -0.1488551755
C  C10  1  0.90856000  0.42002000  0.88580000  1.0 -0.1488551755
C  C11  1  0.57998000  0.09144000  0.38580000  1.0 -0.1488551755
C  C12  1  0.09144000  0.57998000  0.11420000  1.0 -0.1488551755
C  C13  1  0.48316000  0.96438000  0.71381000  1.0 -0.0960233041
C  C14  1  0.96438000  0.48316000  0.78619000  1.0 -0.0960233041
C  C15  1  0.51684000  0.03562000  0.28619000  1.0 -0.0960233041
C  C16  1  0.03562000  0.51684000  0.21381000  1.0 -0.0960233041
C  C17  1  0.47912000  0.97392000  0.58090000  1.0 0.1564591642
C  C18  1  0.97392000  0.47912000  0.91910000  1.0 0.1564591642
C  C19  1  0.52088000  0.02608000  0.41910000  1.0 0.1564591642
C  C20  1  0.02608000  0.52088000  0.08090000  1.0 0.1564591642
C  C21  1  0.53916000  0.03528000  0.61320000  1.0 -0.1401188631
C  C22  1  0.03528000  0.53916000  0.88680000  1.0 -0.1401188631
C  C23  1  0.46084000  0.96472000  0.38680000  1.0 -0.1488551755
C  C24  1  0.96472000  0.46084000  0.11320000  1.0 -0.1488551755
C  C25  1  0.54123000  0.03173000  0.67887000  1.0 -0.0119291928
C  C26  1  0.03173000  0.54123000  0.82113000  1.0 -0.0119291928
C  C27  1  0.45877000  0.96827000  0.32113000  1.0 -0.0119291928
C  C28  1  0.96827000  0.45877000  0.17887000  1.0 -0.0119291928
C  C29  1  0.60537000  0.09923000  0.71195000  1.0 0.5933409225
C  C30  1  0.09923000  0.60537000  0.78805000  1.0 0.5933409225
C  C31  1  0.39463000  0.90077000  0.28805000  1.0 0.5933409225
C  C32  1  0.90077000  0.39463000  0.21195000  1.0 0.5933409225
C  C33  1  0.29149000  0.60969000  0.79876000  1.0 0.5990812223
C  C34  1  0.60969000  0.29149000  0.70124000  1.0 0.5990812223
C  C35  1  0.70851000  0.39031000  0.20124000  1.0 0.5990812223
C  C36  1  0.39031000  0.70851000  0.29876000  1.0 0.5990812223
C  C37  1  0.32587000  0.54357000  0.82951000  1.0 -0.0119291928
C  C38  1  0.54357000  0.32587000  0.67049000  1.0 -0.0119291928
C  C39  1  0.67413000  0.45643000  0.17049000  1.0 -0.0119291928
C  C40  1  0.45643000  0.67413000  0.32951000  1.0 -0.0119291928
C  C41  1  0.39071000  0.54349000  0.89230000  1.0 -0.1556769271
C  C42  1  0.54349000  0.39071000  0.60770000  1.0 -0.1556769271
C  C43  1  0.60929000  0.45651000  0.10770000  1.0 -0.1556769271
C  C44  1  0.45651000  0.60929000  0.39230000  1.0 -0.1556769271
C  C45  1  0.42015000  0.48005000  0.92150000  1.0 0.1512771103
C  C46  1  0.48005000  0.42015000  0.57850000  1.0 0.1512771103
C  C47  1  0.57985000  0.51995000  0.07850000  1.0 0.1512771103
C  C48  1  0.51995000  0.57985000  0.42150000  1.0 0.1512771103
C  C49  1  0.38580000  0.41760000  0.88980000  1.0 -0.1488551755
C  C50  1  0.41760000  0.38580000  0.61020000  1.0 -0.1488551755
C  C51  1  0.61420000  0.58240000  0.11020000  1.0 -0.1488551755
C  C52  1  0.58240000  0.61420000  0.38980000  1.0 -0.1488551755
C  C53  1  0.32188000  0.41824000  0.82749000  1.0 -0.0166395797
C  C54  1  0.41824000  0.32188000  0.67251000  1.0 -0.0166395797
C  C55  1  0.67812000  0.58176000  0.17251000  1.0 -0.0166395797
C  C56  1  0.58176000  0.67812000  0.32749000  1.0 -0.0166395797
C  C57  1  0.29299000  0.48249000  0.79564000  1.0 -0.0960233041
C  C58  1  0.48249000  0.29299000  0.70436000  1.0 -0.0960233041
C  C59  1  0.70701000  0.51751000  0.20436000  1.0 -0.0960233041
C  C60  1  0.51751000  0.70701000  0.29564000  1.0 -0.0960233041
C  C61  1  0.28300000  0.34932000  0.79437000  1.0 0.5990812223
C  C62  1  0.34932000  0.28300000  0.70563000  1.0 0.5990812223
C  C63  1  0.71700000  0.65068000  0.20563000  1.0 0.5990812223
C  C64  1  0.65068000  0.71700000  0.29437000  1.0 0.5990812223
C  C65  1  0.17740000  0.83078000  0.72378000  1.0 0.5933409225
C  C66  1  0.83078000  0.17740000  0.77622000  1.0 0.5933409225
C  C67  1  0.82260000  0.16922000  0.27622000  1.0 0.5933409225
C  C68  1  0.16922000  0.82260000  0.22378000  1.0 0.5933409225
C  C69  1  0.14679000  0.89919000  0.68949000  1.0 -0.0263935813
C  C70  1  0.89919000  0.14679000  0.81051000  1.0 -0.0263935813
C  C71  1  0.85321000  0.10081000  0.31051000  1.0 -0.0263935813
C  C72  1  0.10081000  0.85321000  0.18949000  1.0 -0.0263935813
C  C73  1  0.09128000  0.90512000  0.62080000  1.0 -0.1401188631
C  C74  1  0.90512000  0.09128000  0.87920000  1.0 -0.1401188631
C  C75  1  0.90872000  0.09488000  0.37920000  1.0 -0.1401188631
C  C76  1  0.09488000  0.90872000  0.12080000  1.0 -0.1401188631
C  C77  1  0.06425000  0.97015000  0.58500000  1.0 0.1512771103
C  C78  1  0.97015000  0.06425000  0.91500000  1.0 0.1512771103
C  C79  1  0.93575000  0.02985000  0.41500000  1.0 0.1512771103
C  C80  1  0.02985000  0.93575000  0.08500000  1.0 0.1512771103
C  C81  1  0.09173000  0.03007000  0.61799000  1.0 -0.1401188631
C  C82  1  0.03007000  0.09173000  0.88201000  1.0 -0.1401188631
C  C83  1  0.90827000  0.96993000  0.38201000  1.0 -0.1401188631
C  C84  1  0.96993000  0.90827000  0.11799000  1.0 -0.1401188631
C  C85  1  0.14411000  0.02421000  0.68613000  1.0 -0.0119291928
C  C86  1  0.02421000  0.14411000  0.81387000  1.0 -0.0119291928
C  C87  1  0.85589000  0.97579000  0.31387000  1.0 -0.0119291928
C  C88  1  0.97579000  0.85589000  0.18613000  1.0 -0.0119291928
C  C89  1  0.17089000  0.95811000  0.72219000  1.0 -0.0890326646
C  C90  1  0.95811000  0.17089000  0.77781000  1.0 -0.0890326646
C  C91  1  0.82911000  0.04189000  0.27781000  1.0 -0.0890326646
C  C92  1  0.04189000  0.82911000  0.22219000  1.0 -0.0890326646
C  C93  1  0.17556000  0.09182000  0.71880000  1.0 0.5990812223
C  C94  1  0.09182000  0.17556000  0.78120000  1.0 0.5990812223
C  C95  1  0.82444000  0.90818000  0.28120000  1.0 0.5990812223
C  C96  1  0.90818000  0.82444000  0.21880000  1.0 0.5990812223
N  N1  1  0.47321000  0.97159000  0.51370000  1.0 -0.119026139
N  N2  1  0.97159000  0.47321000  0.98630000  1.0 -0.119026139
N  N3  1  0.52679000  0.02841000  0.48630000  1.0 -0.119026139
N  N4  1  0.02841000  0.52679000  0.01370000  1.0 -0.119026139
N  N5  1  0.48697000  0.47403000  0.98560000  1.0 -0.1114651576
N  N6  1  0.47403000  0.48697000  0.51440000  1.0 -0.1114651576
N  N7  1  0.51303000  0.52597000  0.01440000  1.0 -0.1114651576
N  N8  1  0.52597000  0.51303000  0.48560000  1.0 -0.1114651576
N  N9  1  0.00951000  0.97009000  0.51521000  1.0 -0.119026139
N  N10  1  0.97009000  0.00951000  0.98479000  1.0 -0.119026139
N  N11  1  0.99049000  0.02991000  0.48479000  1.0 -0.119026139
N  N12  1  0.02991000  0.99049000  0.01521000  1.0 -0.119026139
O  O1  1  0.30038000  0.78616000  0.67775000  1.0 -0.5516532569
O  O2  1  0.78616000  0.30038000  0.82225000  1.0 -0.5516532569
O  O3  1  0.69962000  0.21384000  0.32225000  1.0 -0.5516532569
O  O4  1  0.21384000  0.69962000  0.17775000  1.0 -0.5516532569
O  O5  1  0.36142000  0.82992000  0.77539000  1.0 -0.5224854011
O  O6  1  0.82992000  0.36142000  0.72461000  1.0 -0.5224854011
O  O7  1  0.63858000  0.17008000  0.22461000  1.0 -0.5224854011
O  O8  1  0.17008000  0.63858000  0.27539000  1.0 -0.5224854011
O  O9  1  0.61267000  0.08917000  0.77558000  1.0 -0.5224854011
O  O10  1  0.08917000  0.61267000  0.72442000  1.0 -0.5224854011
O  O11  1  0.38733000  0.91083000  0.22442000  1.0 -0.5224854011
O  O12  1  0.91083000  0.38733000  0.27558000  1.0 -0.5224854011
O  O13  1  0.64577000  0.16249000  0.67221000  1.0 -0.5575805932
O  O14  1  0.16249000  0.64577000  0.82779000  1.0 -0.5575805932
O  O15  1  0.35423000  0.83751000  0.32779000  1.0 -0.5575805932
O  O16  1  0.83751000  0.35423000  0.17221000  1.0 -0.5575805932
O  O17  1  0.23879000  0.61231000  0.73763000  1.0 -0.5361845006
O  O18  1  0.61231000  0.23879000  0.76237000  1.0 -0.5361845006
O  O19  1  0.76121000  0.38769000  0.26237000  1.0 -0.5361845006
O  O20  1  0.38769000  0.76121000  0.23763000  1.0 -0.5361845006
O  O21  1  0.31701000  0.65625000  0.83641000  1.0 -0.5516532569
O  O22  1  0.65625000  0.31701000  0.66359000  1.0 -0.5516532569
O  O23  1  0.68299000  0.34375000  0.16359000  1.0 -0.5516532569
O  O24  1  0.34375000  0.68299000  0.33641000  1.0 -0.5516532569
O  O25  1  0.16090000  0.78906000  0.68490000  1.0 -0.5575805932
O  O26  1  0.78906000  0.16090000  0.81510000  1.0 -0.5575805932
O  O27  1  0.83910000  0.21094000  0.31510000  1.0 -0.5575805932
O  O28  1  0.21094000  0.83910000  0.18490000  1.0 -0.5575805932
O  O29  1  0.22120000  0.82214000  0.78852000  1.0 -0.5291938096
O  O30  1  0.82214000  0.22120000  0.71148000  1.0 -0.5291938096
O  O31  1  0.77880000  0.17786000  0.21148000  1.0 -0.5291938096
O  O32  1  0.17786000  0.77880000  0.28852000  1.0 -0.5291938096
O  O33  1  0.30947000  0.29171000  0.82930000  1.0 -0.5575805932
O  O34  1  0.29171000  0.30947000  0.67070000  1.0 -0.5575805932
O  O35  1  0.69053000  0.70829000  0.17070000  1.0 -0.5575805932
O  O36  1  0.70829000  0.69053000  0.32930000  1.0 -0.5575805932
O  O37  1  0.22726000  0.35364000  0.73592000  1.0 -0.5291938096
O  O38  1  0.35364000  0.22726000  0.76408000  1.0 -0.5291938096
O  O39  1  0.77274000  0.64636000  0.26408000  1.0 -0.5291938096
O  O40  1  0.64636000  0.77274000  0.23592000  1.0 -0.5291938096
O  O41  1  0.21669000  0.08025000  0.78379000  1.0 -0.5291938096
O  O42  1  0.08025000  0.21669000  0.71621000  1.0 -0.5291938096
O  O43  1  0.78331000  0.91975000  0.21621000  1.0 -0.5291938096
O  O44  1  0.91975000  0.78331000  0.28379000  1.0 -0.5291938096
O  O45  1  0.15943000  0.15533000  0.67866000  1.0 -0.5575805932
O  O46  1  0.15533000  0.15943000  0.82134000  1.0 -0.5516532569
O  O47  1  0.84057000  0.84467000  0.32134000  1.0 -0.5575805932
O  O48  1  0.84467000  0.84057000  0.17866000  1.0 -0.5575805932
