# DDEC6 charges by PACMAN v1.1 (https://github.com/mtap-research/PACMAN-charge/)
data_HOGJET_ASR_pacman
_symmetry_space_group_name_H-M   'P 1'
_cell_length_a   18.78770000
_cell_length_b   18.78770000
_cell_length_c   23.10920000
_cell_angle_alpha   66.08630000
_cell_angle_beta   113.91400000
_cell_angle_gamma   119.94600000
_symmetry_Int_Tables_number   1
_chemical_formula_structural   Cu12H48C96N11O54
_chemical_formula_sum   'Cu12 H48 C96 N11 O54'
_cell_volume   6245.47766663
_cell_formula_units_Z   1
loop_
 _symmetry_equiv_pos_site_id
 _symmetry_equiv_pos_as_xyz
  1  'x, y, z'
loop_
 _atom_site_type_symbol
 _atom_site_label
 _atom_site_symmetry_multiplicity
 _atom_site_fract_x
 _atom_site_fract_y
 _atom_site_fract_z
 _atom_site_occupancy
 _atom_site_charge
Cu  Cu1  1  0.20838000  0.21294000  0.30059000  1.0 0.8670328554
Cu  Cu2  1  0.21294000  0.20838000  0.69941000  1.0 0.8670328554
Cu  Cu3  1  0.79162000  0.78706000  0.69941000  1.0 0.8670328554
Cu  Cu4  1  0.78706000  0.79162000  0.30059000  1.0 0.8670328554
Cu  Cu5  1  0.70515000  0.73669000  0.19258000  1.0 0.8585138764
Cu  Cu6  1  0.73669000  0.70515000  0.80742000  1.0 0.8585138764
Cu  Cu7  1  0.29485000  0.26331000  0.80742000  1.0 0.8585138764
Cu  Cu8  1  0.26331000  0.29485000  0.19258000  1.0 0.8585138764
Cu  Cu9  1  0.78281000  0.21719000  0.30995000  1.0 0.8132665451
Cu  Cu10  1  0.21719000  0.78281000  0.69005000  1.0 0.8132665451
Cu  Cu11  1  0.70117000  0.29883000  0.20165000  1.0 0.8366574939
Cu  Cu12  1  0.29883000  0.70117000  0.79835000  1.0 0.8349475559
H  H1  1  0.38410000  0.39990000  0.41060000  1.0 0.1312918914
H  H2  1  0.39990000  0.38410000  0.58940000  1.0 0.1312918914
H  H3  1  0.61590000  0.60010000  0.58940000  1.0 0.1312918914
H  H4  1  0.60010000  0.61590000  0.41060000  1.0 0.1312918914
H  H5  1  0.47720000  0.52280000  0.25020000  1.0 0.1389618437
H  H6  1  0.52280000  0.47720000  0.74980000  1.0 0.1389618437
H  H7  1  0.09720000  0.10620000  0.08380000  1.0 0.1389618437
H  H8  1  0.10620000  0.09720000  0.91620000  1.0 0.1389618437
H  H9  1  0.90280000  0.89380000  0.91620000  1.0 0.1389618437
H  H10  1  0.89380000  0.90280000  0.08380000  1.0 0.1389618437
H  H11  1  0.92460000  0.63700000  0.40750000  1.0 0.1389618437
H  H12  1  0.63700000  0.92460000  0.59250000  1.0 0.1389618437
H  H13  1  0.07540000  0.36300000  0.59250000  1.0 0.1389618437
H  H14  1  0.36300000  0.07540000  0.40750000  1.0 0.1389618437
H  H15  1  0.91370000  0.41070000  0.41720000  1.0 0.1312918914
H  H16  1  0.41070000  0.91370000  0.58280000  1.0 0.1312918914
H  H17  1  0.08630000  0.58930000  0.58280000  1.0 0.1312918914
H  H18  1  0.58930000  0.08630000  0.41720000  1.0 0.1312918914
H  H19  1  0.77050000  0.52250000  0.25730000  1.0 0.1312918914
H  H20  1  0.52250000  0.77050000  0.74270000  1.0 0.1389618437
H  H21  1  0.22950000  0.47750000  0.74270000  1.0 0.1389618437
H  H22  1  0.47750000  0.22950000  0.25730000  1.0 0.1312918914
H  H23  1  0.00210000  0.99790000  0.23800000  1.0 0.1502498086
H  H24  1  0.99790000  0.00210000  0.76200000  1.0 0.1502498086
H  H25  1  0.00700000  0.29700000  0.24750000  1.0 0.1389618437
H  H26  1  0.29700000  0.00700000  0.75250000  1.0 0.1389618437
H  H27  1  0.99300000  0.70300000  0.75250000  1.0 0.1389618437
H  H28  1  0.70300000  0.99300000  0.24750000  1.0 0.1389618437
H  H29  1  0.08770000  0.41610000  0.08440000  1.0 0.1312918914
H  H30  1  0.41610000  0.08770000  0.91560000  1.0 0.1312918914
H  H31  1  0.91230000  0.58390000  0.91560000  1.0 0.1312918914
H  H32  1  0.58390000  0.91230000  0.08440000  1.0 0.1312918914
H  H33  1  0.88350000  0.42450000  0.08980000  1.0 0.1389618437
H  H34  1  0.42450000  0.88350000  0.91020000  1.0 0.1389618437
H  H35  1  0.11650000  0.57550000  0.91020000  1.0 0.1389618437
H  H36  1  0.57550000  0.11650000  0.08980000  1.0 0.1389618437
H  H37  1  0.13323000  0.12731000  0.41420000  1.0 0.3737688061
H  H38  1  0.12731000  0.13323000  0.58580000  1.0 0.3737688061
H  H39  1  0.86677000  0.87269000  0.58580000  1.0 0.3737688061
H  H40  1  0.87269000  0.86677000  0.41420000  1.0 0.3737688061
H  H41  1  0.82243000  0.85837000  0.35265000  1.0 0.3587286021
H  H42  1  0.85837000  0.82243000  0.64735000  1.0 0.3587286021
H  H43  1  0.17757000  0.14163000  0.64735000  1.0 0.3587286021
H  H44  1  0.14163000  0.17757000  0.35265000  1.0 0.3587286021
H  H45  1  0.81981000  0.18019000  0.39524000  1.0 0.2620642479
H  H46  1  0.18019000  0.81981000  0.60476000  1.0 0.2620642479
H  H47  1  0.84057000  0.15943000  0.37809000  1.0 0.2721602019
H  H48  1  0.15943000  0.84057000  0.62191000  1.0 0.2721602019
C  C1  1  0.35300000  0.38240000  0.29660000  1.0 0.5862062271
C  C2  1  0.38240000  0.35300000  0.70340000  1.0 0.5862062271
C  C3  1  0.64700000  0.61760000  0.70340000  1.0 0.5862062271
C  C4  1  0.61760000  0.64700000  0.29660000  1.0 0.5862062271
C  C5  1  0.41650000  0.44950000  0.32830000  1.0 -0.0687466533
C  C6  1  0.44950000  0.41650000  0.67170000  1.0 -0.0687466533
C  C7  1  0.58350000  0.55050000  0.67170000  1.0 -0.0687466533
C  C8  1  0.55050000  0.58350000  0.32830000  1.0 -0.0687466533
C  C9  1  0.42420000  0.44720000  0.38990000  1.0 -0.0920064358
C  C10  1  0.44720000  0.42420000  0.61010000  1.0 -0.0920064358
C  C11  1  0.57580000  0.55280000  0.61010000  1.0 -0.0920064358
C  C12  1  0.55280000  0.57580000  0.38990000  1.0 -0.0920064358
C  C13  1  0.48920000  0.51080000  0.43010000  1.0 0.2438539933
C  C14  1  0.51080000  0.48920000  0.56990000  1.0 0.2438539933
C  C15  1  0.48060000  0.51940000  0.29250000  1.0 -0.0497495461
C  C16  1  0.51940000  0.48060000  0.70750000  1.0 -0.0497495461
C  C17  1  0.13260000  0.32180000  0.19990000  1.0 0.5621662334
C  C18  1  0.32180000  0.13260000  0.80010000  1.0 0.5621662334
C  C19  1  0.86740000  0.67820000  0.80010000  1.0 0.5621662334
C  C20  1  0.67820000  0.86740000  0.19990000  1.0 0.5621662334
C  C21  1  0.05380000  0.05900000  0.10100000  1.0 -0.1811916311
C  C22  1  0.05900000  0.05380000  0.89900000  1.0 -0.1811916311
C  C23  1  0.94620000  0.94100000  0.89900000  1.0 -0.1811916311
C  C24  1  0.94100000  0.94620000  0.10100000  1.0 -0.1811916311
C  C25  1  0.99730000  0.00270000  0.05950000  1.0 0.2204269763
C  C26  1  0.00270000  0.99730000  0.94050000  1.0 0.2204269763
C  C27  1  0.80290000  0.64610000  0.29970000  1.0 0.5621662334
C  C28  1  0.64610000  0.80290000  0.70030000  1.0 0.5621662334
C  C29  1  0.19710000  0.35390000  0.70030000  1.0 0.5621662334
C  C30  1  0.35390000  0.19710000  0.29970000  1.0 0.5621662334
C  C31  1  0.84390000  0.58870000  0.32680000  1.0 -0.0607985132
C  C32  1  0.58870000  0.84390000  0.67320000  1.0 -0.0607985132
C  C33  1  0.15610000  0.41130000  0.67320000  1.0 -0.0607985132
C  C34  1  0.41130000  0.15610000  0.32680000  1.0 -0.0607985132
C  C35  1  0.90590000  0.59330000  0.38880000  1.0 -0.1419808794
C  C36  1  0.59330000  0.90590000  0.61120000  1.0 -0.1419808794
C  C37  1  0.09410000  0.40670000  0.61120000  1.0 -0.1419808794
C  C38  1  0.40670000  0.09410000  0.38880000  1.0 -0.1419808794
C  C39  1  0.93740000  0.52880000  0.42030000  1.0 0.1604068014
C  C40  1  0.52880000  0.93740000  0.57970000  1.0 0.1604068014
C  C41  1  0.06260000  0.47120000  0.57970000  1.0 0.1604068014
C  C42  1  0.47120000  0.06260000  0.42030000  1.0 0.1604068014
C  C43  1  0.89830000  0.45650000  0.39370000  1.0 -0.1217456874
C  C44  1  0.45650000  0.89830000  0.60630000  1.0 -0.1217456874
C  C45  1  0.10170000  0.54350000  0.60630000  1.0 -0.1217456874
C  C46  1  0.54350000  0.10170000  0.39370000  1.0 -0.1217456874
C  C47  1  0.83750000  0.45350000  0.33320000  1.0 -0.0687466533
C  C48  1  0.45350000  0.83750000  0.66680000  1.0 -0.0687466533
C  C49  1  0.16250000  0.54650000  0.66680000  1.0 -0.0687466533
C  C50  1  0.54650000  0.16250000  0.33320000  1.0 -0.0687466533
C  C51  1  0.80980000  0.52240000  0.29800000  1.0 -0.0607985132
C  C52  1  0.52240000  0.80980000  0.70200000  1.0 -0.0607985132
C  C53  1  0.19020000  0.47760000  0.70200000  1.0 -0.0607985132
C  C54  1  0.47760000  0.19020000  0.29800000  1.0 -0.0687466533
C  C55  1  0.80710000  0.38890000  0.30180000  1.0 0.5621662334
C  C56  1  0.38890000  0.80710000  0.69820000  1.0 0.5621662334
C  C57  1  0.19290000  0.61110000  0.69820000  1.0 0.5621662334
C  C58  1  0.61110000  0.19290000  0.30180000  1.0 0.5621662334
C  C59  1  0.12390000  0.12330000  0.19820000  1.0 0.6112724837
C  C60  1  0.12330000  0.12390000  0.80180000  1.0 0.6112724837
C  C61  1  0.87610000  0.87670000  0.80180000  1.0 0.6112724837
C  C62  1  0.87670000  0.87610000  0.19820000  1.0 0.6112724837
C  C63  1  0.05530000  0.05550000  0.16270000  1.0 -0.0244358488
C  C64  1  0.05550000  0.05530000  0.83730000  1.0 -0.0244358488
C  C65  1  0.94470000  0.94450000  0.83730000  1.0 -0.0244358488
C  C66  1  0.94450000  0.94470000  0.16270000  1.0 -0.0244358488
C  C67  1  0.00090000  0.99910000  0.19700000  1.0 -0.0997435194
C  C68  1  0.99910000  0.00090000  0.80300000  1.0 -0.0920064358
C  C69  1  0.85720000  0.31660000  0.20420000  1.0 0.5654780265
C  C70  1  0.31660000  0.85720000  0.79580000  1.0 0.5654780265
C  C71  1  0.14280000  0.68340000  0.79580000  1.0 0.5654780265
C  C72  1  0.68340000  0.14280000  0.20420000  1.0 0.5654780265
C  C73  1  0.93240000  0.35220000  0.17500000  1.0 0.0104550513
C  C74  1  0.35220000  0.93240000  0.82500000  1.0 0.0104550513
C  C75  1  0.06760000  0.64780000  0.82500000  1.0 0.0104550513
C  C76  1  0.64780000  0.06760000  0.17500000  1.0 0.0104550513
C  C77  1  0.99890000  0.32690000  0.20360000  1.0 -0.1067037338
C  C78  1  0.32690000  0.99890000  0.79640000  1.0 -0.0997435194
C  C79  1  0.00110000  0.67310000  0.79640000  1.0 -0.1067037338
C  C80  1  0.67310000  0.00110000  0.20360000  1.0 -0.1067037338
C  C81  1  0.05330000  0.34370000  0.17060000  1.0 0.0104550513
C  C82  1  0.34370000  0.05330000  0.82940000  1.0 0.0104550513
C  C83  1  0.94670000  0.65630000  0.82940000  1.0 0.0104550513
C  C84  1  0.65630000  0.94670000  0.17060000  1.0 0.0104550513
C  C85  1  0.04860000  0.40020000  0.10690000  1.0 -0.1549007301
C  C86  1  0.40020000  0.04860000  0.89310000  1.0 -0.1593724742
C  C87  1  0.95140000  0.59980000  0.89310000  1.0 -0.1549007301
C  C88  1  0.59980000  0.95140000  0.10690000  1.0 -0.1593724742
C  C89  1  0.98830000  0.43010000  0.07940000  1.0 0.1389618437
C  C90  1  0.43010000  0.98830000  0.92060000  1.0 0.1389618437
C  C91  1  0.01170000  0.56990000  0.92060000  1.0 0.1389618437
C  C92  1  0.56990000  0.01170000  0.07940000  1.0 0.1389618437
C  C93  1  0.92730000  0.40570000  0.11080000  1.0 -0.1593724742
C  C94  1  0.40570000  0.92730000  0.88920000  1.0 -0.1593724742
C  C95  1  0.07270000  0.59430000  0.88920000  1.0 -0.1593724742
C  C96  1  0.59430000  0.07270000  0.11080000  1.0 -0.1593724742
N  N1  1  0.50000000  0.50000000  0.50000000  1.0 -0.5737506453
N  N2  1  0.01600000  0.01600000  0.00000000  1.0 -0.0497495461
N  N3  1  0.98400000  0.98400000  0.00000000  1.0 -0.0607985132
N  N4  1  0.98970000  0.52970000  0.48550000  1.0 -0.1217456874
N  N5  1  0.52970000  0.98970000  0.51450000  1.0 -0.1217456874
N  N6  1  0.01030000  0.47030000  0.51450000  1.0 -0.1217456874
N  N7  1  0.47030000  0.01030000  0.48550000  1.0 -0.1217456874
N  N8  1  0.97580000  0.48780000  0.01520000  1.0 -0.0920064358
N  N9  1  0.48780000  0.97580000  0.98480000  1.0 -0.0920064358
N  N10  1  0.02420000  0.51220000  0.98480000  1.0 -0.0839581084
N  N11  1  0.51220000  0.02420000  0.01520000  1.0 -0.0839581084
O  O1  1  0.82797000  0.32303000  0.33687000  1.0 -0.5481636006
O  O2  1  0.32303000  0.82797000  0.66313000  1.0 -0.5481636006
O  O3  1  0.17203000  0.67697000  0.66313000  1.0 -0.5481636006
O  O4  1  0.67697000  0.17203000  0.33687000  1.0 -0.5481636006
O  O5  1  0.79960000  0.33860000  0.17530000  1.0 -0.4474606071
O  O6  1  0.33860000  0.79960000  0.82470000  1.0 -0.4474606071
O  O7  1  0.20040000  0.66140000  0.82470000  1.0 -0.4474606071
O  O8  1  0.66140000  0.20040000  0.17530000  1.0 -0.4474606071
O  O9  1  0.83406000  0.70474000  0.33096000  1.0 -0.5303783793
O  O10  1  0.70474000  0.83406000  0.66904000  1.0 -0.5303783793
O  O11  1  0.16594000  0.29526000  0.66904000  1.0 -0.5303783793
O  O12  1  0.29526000  0.16594000  0.33096000  1.0 -0.5303783793
O  O13  1  0.76390000  0.65650000  0.24160000  1.0 -0.4801193658
O  O14  1  0.65650000  0.76390000  0.75840000  1.0 -0.4801193658
O  O15  1  0.23610000  0.34350000  0.75840000  1.0 -0.4801193658
O  O16  1  0.34350000  0.23610000  0.24160000  1.0 -0.4801193658
O  O17  1  0.30020000  0.31720000  0.32860000  1.0 -0.5303783793
O  O18  1  0.31720000  0.30020000  0.67140000  1.0 -0.5303783793
O  O19  1  0.69980000  0.68280000  0.67140000  1.0 -0.5303783793
O  O20  1  0.68280000  0.69980000  0.32860000  1.0 -0.5303783793
O  O21  1  0.34212000  0.38788000  0.23502000  1.0 -0.5386957232
O  O22  1  0.38788000  0.34212000  0.76498000  1.0 -0.5386957232
O  O23  1  0.65788000  0.61212000  0.76498000  1.0 -0.5386957232
O  O24  1  0.61212000  0.65788000  0.23502000  1.0 -0.5386957232
O  O25  1  0.12143000  0.25917000  0.25733000  1.0 -0.6028709267
O  O26  1  0.25917000  0.12143000  0.74267000  1.0 -0.6028709267
O  O27  1  0.87857000  0.74083000  0.74267000  1.0 -0.6028709267
O  O28  1  0.74083000  0.87857000  0.25733000  1.0 -0.6028709267
O  O29  1  0.17060000  0.33180000  0.16500000  1.0 -0.4262658759
O  O30  1  0.33180000  0.17060000  0.83500000  1.0 -0.4262658759
O  O31  1  0.82940000  0.66820000  0.83500000  1.0 -0.4262658759
O  O32  1  0.66820000  0.82940000  0.16500000  1.0 -0.4223313932
O  O33  1  0.12541000  0.12299000  0.25271000  1.0 -0.4863433757
O  O34  1  0.12299000  0.12541000  0.74729000  1.0 -0.4863433757
O  O35  1  0.87459000  0.87701000  0.74729000  1.0 -0.4863433757
O  O36  1  0.87701000  0.87459000  0.25271000  1.0 -0.4863433757
O  O37  1  0.17500000  0.18940000  0.16250000  1.0 -0.5481636006
O  O38  1  0.18940000  0.17500000  0.83750000  1.0 -0.5481636006
O  O39  1  0.82500000  0.81060000  0.83750000  1.0 -0.5481636006
O  O40  1  0.81060000  0.82500000  0.16250000  1.0 -0.5481636006
O  O41  1  0.16510000  0.14610000  0.38860000  1.0 -0.6313041155
O  O42  1  0.14610000  0.16510000  0.61140000  1.0 -0.6313041155
O  O43  1  0.83490000  0.85390000  0.61140000  1.0 -0.6313041155
O  O44  1  0.85390000  0.83490000  0.38860000  1.0 -0.6313041155
O  O45  1  0.75945000  0.39355000  0.24585000  1.0 -0.4863433757
O  O46  1  0.39355000  0.75945000  0.75415000  1.0 -0.4863433757
O  O47  1  0.24055000  0.60645000  0.75415000  1.0 -0.4801193658
O  O48  1  0.60645000  0.24055000  0.24585000  1.0 -0.4863433757
O  O49  1  0.87160000  0.27040000  0.26400000  1.0 -0.5231904988
O  O50  1  0.27040000  0.87160000  0.73600000  1.0 -0.5231904988
O  O51  1  0.12840000  0.72960000  0.73600000  1.0 -0.5231904988
O  O52  1  0.72960000  0.12840000  0.26400000  1.0 -0.5231904988
O  O53  1  0.84670000  0.15330000  0.40000000  1.0 -0.6127152149
O  O54  1  0.15330000  0.84670000  0.60000000  1.0 -0.6127152149
