# DDEC6 charges by PACMAN v1.1 (https://github.com/mtap-research/PACMAN-charge/)
data_HOJJUN_FSR_pacman
_symmetry_space_group_name_H-M   'P 1'
_cell_length_a   16.84130000
_cell_length_b   16.84130000
_cell_length_c   16.84130000
_cell_angle_alpha   67.93420000
_cell_angle_beta   67.93420000
_cell_angle_gamma   67.93420000
_symmetry_Int_Tables_number   1
_chemical_formula_structural   CuH4C13S2N4O5
_chemical_formula_sum   'Cu6 H24 C78 S12 N24 O30'
_cell_volume   3946.62406438
_cell_formula_units_Z   6
loop_
 _symmetry_equiv_pos_site_id
 _symmetry_equiv_pos_as_xyz
  1  'x, y, z'
loop_
 _atom_site_type_symbol
 _atom_site_label
 _atom_site_symmetry_multiplicity
 _atom_site_fract_x
 _atom_site_fract_y
 _atom_site_fract_z
 _atom_site_occupancy
 _atom_site_charge
Cu  Cu1  1  0.50554000  0.07399000  0.50554000  1.0 0.9386272294
Cu  Cu2  1  0.07399000  0.50554000  0.50554000  1.0 0.9386272294
Cu  Cu3  1  0.50554000  0.50554000  0.07399000  1.0 0.9386272294
Cu  Cu4  1  0.49446000  0.49446000  0.92601000  1.0 0.9386272294
Cu  Cu5  1  0.92601000  0.49446000  0.49446000  1.0 0.9386272294
Cu  Cu6  1  0.49446000  0.92601000  0.49446000  1.0 0.9386272294
H  H1  1  0.52680000  0.23100000  0.23100000  1.0 0.1707067502
H  H2  1  0.23100000  0.23100000  0.52680000  1.0 0.1707067502
H  H3  1  0.23100000  0.52680000  0.23100000  1.0 0.1707067502
H  H4  1  0.47320000  0.76900000  0.76900000  1.0 0.1707067502
H  H5  1  0.76900000  0.47320000  0.76900000  1.0 0.1707067502
H  H6  1  0.76900000  0.76900000  0.47320000  1.0 0.1707067502
H  H7  1  0.51670000  0.00270000  0.21620000  1.0 0.1623417301
H  H8  1  0.00270000  0.21620000  0.51670000  1.0 0.1623417301
H  H9  1  0.21620000  0.51670000  0.00270000  1.0 0.1623417301
H  H10  1  0.48330000  0.78380000  0.99730000  1.0 0.1623417301
H  H11  1  0.99730000  0.48330000  0.78380000  1.0 0.1623417301
H  H12  1  0.78380000  0.99730000  0.48330000  1.0 0.1623417301
H  H13  1  0.48330000  0.99730000  0.78380000  1.0 0.1623417301
H  H14  1  0.99730000  0.78380000  0.48330000  1.0 0.1623417301
H  H15  1  0.78380000  0.48330000  0.99730000  1.0 0.1623417301
H  H16  1  0.51670000  0.21620000  0.00270000  1.0 0.1623417301
H  H17  1  0.00270000  0.51670000  0.21620000  1.0 0.1623417301
H  H18  1  0.21620000  0.00270000  0.51670000  1.0 0.1623417301
H  H19  1  0.55275000  0.17760000  0.55275000  1.0 0.4655204279
H  H20  1  0.17760000  0.55275000  0.55275000  1.0 0.4655204279
H  H21  1  0.55275000  0.55275000  0.17760000  1.0 0.4655204279
H  H22  1  0.44725000  0.44725000  0.82240000  1.0 0.4655204279
H  H23  1  0.82240000  0.44725000  0.44725000  1.0 0.4655204279
H  H24  1  0.44725000  0.82240000  0.44725000  1.0 0.4655204279
C  C1  1  0.51916000  0.06838000  0.33466000  1.0 0.6021748645
C  C2  1  0.06838000  0.33466000  0.51916000  1.0 0.6021748645
C  C3  1  0.33466000  0.51916000  0.06838000  1.0 0.6021748645
C  C4  1  0.48084000  0.66534000  0.93162000  1.0 0.6021748645
C  C5  1  0.93162000  0.48084000  0.66534000  1.0 0.6021748645
C  C6  1  0.66534000  0.93162000  0.48084000  1.0 0.6021748645
C  C7  1  0.48084000  0.93162000  0.66534000  1.0 0.6021748645
C  C8  1  0.93162000  0.66534000  0.48084000  1.0 0.6021748645
C  C9  1  0.66534000  0.48084000  0.93162000  1.0 0.6021748645
C  C10  1  0.51916000  0.33466000  0.06838000  1.0 0.6021748645
C  C11  1  0.06838000  0.51916000  0.33466000  1.0 0.6021748645
C  C12  1  0.33466000  0.06838000  0.51916000  1.0 0.6021748645
C  C13  1  0.52251000  0.11007000  0.23787000  1.0 0.0135203808
C  C14  1  0.11007000  0.23787000  0.52251000  1.0 0.0135203808
C  C15  1  0.23787000  0.52251000  0.11007000  1.0 0.0135203808
C  C16  1  0.47749000  0.76213000  0.88993000  1.0 0.0135203808
C  C17  1  0.88993000  0.47749000  0.76213000  1.0 0.0135203808
C  C18  1  0.76213000  0.88993000  0.47749000  1.0 0.0135203808
C  C19  1  0.47749000  0.88993000  0.76213000  1.0 0.0135203808
C  C20  1  0.88993000  0.76213000  0.47749000  1.0 0.0135203808
C  C21  1  0.76213000  0.47749000  0.88993000  1.0 0.0135203808
C  C22  1  0.52251000  0.23787000  0.11007000  1.0 0.0135203808
C  C23  1  0.11007000  0.52251000  0.23787000  1.0 0.0135203808
C  C24  1  0.23787000  0.11007000  0.52251000  1.0 0.0135203808
C  C25  1  0.52435000  0.19840000  0.19840000  1.0 -0.0855323957
C  C26  1  0.19840000  0.19840000  0.52435000  1.0 -0.0855323957
C  C27  1  0.19840000  0.52435000  0.19840000  1.0 -0.0855323957
C  C28  1  0.47565000  0.80160000  0.80160000  1.0 -0.0855323957
C  C29  1  0.80160000  0.47565000  0.80160000  1.0 -0.0855323957
C  C30  1  0.80160000  0.80160000  0.47565000  1.0 -0.0849989863
C  C31  1  0.51759000  0.06185000  0.18952000  1.0 -0.1187170706
C  C32  1  0.06185000  0.18952000  0.51759000  1.0 -0.1187170706
C  C33  1  0.18952000  0.51759000  0.06185000  1.0 -0.1187170706
C  C34  1  0.48241000  0.81048000  0.93815000  1.0 -0.1187170706
C  C35  1  0.93815000  0.48241000  0.81048000  1.0 -0.1187170706
C  C36  1  0.81048000  0.93815000  0.48241000  1.0 -0.1187170706
C  C37  1  0.48241000  0.93815000  0.81048000  1.0 -0.1187170706
C  C38  1  0.93815000  0.81048000  0.48241000  1.0 -0.1187170706
C  C39  1  0.81048000  0.48241000  0.93815000  1.0 -0.1187170706
C  C40  1  0.51759000  0.18952000  0.06185000  1.0 -0.1187170706
C  C41  1  0.06185000  0.51759000  0.18952000  1.0 -0.1187170706
C  C42  1  0.18952000  0.06185000  0.51759000  1.0 -0.1187170706
C  C43  1  0.51401000  0.10106000  0.10106000  1.0 0.1422183688
C  C44  1  0.10106000  0.10106000  0.51401000  1.0 0.1422183688
C  C45  1  0.10106000  0.51401000  0.10106000  1.0 0.1422183688
C  C46  1  0.48599000  0.89894000  0.89894000  1.0 0.1422183688
C  C47  1  0.89894000  0.48599000  0.89894000  1.0 0.1422183688
C  C48  1  0.89894000  0.89894000  0.48599000  1.0 0.1422183688
C  C49  1  0.50757000  0.04977000  0.04977000  1.0 0.0307604653
C  C50  1  0.04977000  0.04977000  0.50757000  1.0 0.0307604653
C  C51  1  0.04977000  0.50757000  0.04977000  1.0 0.0307604653
C  C52  1  0.49243000  0.95023000  0.95023000  1.0 0.0307604653
C  C53  1  0.95023000  0.49243000  0.95023000  1.0 0.0307604653
C  C54  1  0.95023000  0.95023000  0.49243000  1.0 0.0307604653
C  C55  1  0.45490000  0.08830000  0.99110000  1.0 0.110573674
C  C56  1  0.08830000  0.99110000  0.45490000  1.0 0.110573674
C  C57  1  0.99110000  0.45490000  0.08830000  1.0 0.110573674
C  C58  1  0.54510000  0.00890000  0.91170000  1.0 0.110573674
C  C59  1  0.91170000  0.54510000  0.00890000  1.0 0.110573674
C  C60  1  0.00890000  0.91170000  0.54510000  1.0 0.110573674
C  C61  1  0.54510000  0.91170000  0.00890000  1.0 0.110573674
C  C62  1  0.91170000  0.00890000  0.54510000  1.0 0.110573674
C  C63  1  0.00890000  0.54510000  0.91170000  1.0 0.110573674
C  C64  1  0.45490000  0.99110000  0.08830000  1.0 0.110573674
C  C65  1  0.08830000  0.45490000  0.99110000  1.0 0.110573674
C  C66  1  0.99110000  0.08830000  0.45490000  1.0 0.110573674
C  C67  1  0.55200000  0.05800000  0.96030000  1.0 0.110573674
C  C68  1  0.05800000  0.96030000  0.55200000  1.0 0.110573674
C  C69  1  0.96030000  0.55200000  0.05800000  1.0 0.110573674
C  C70  1  0.44800000  0.03970000  0.94200000  1.0 0.110573674
C  C71  1  0.94200000  0.44800000  0.03970000  1.0 0.110573674
C  C72  1  0.03970000  0.94200000  0.44800000  1.0 0.110573674
C  C73  1  0.44800000  0.94200000  0.03970000  1.0 0.110573674
C  C74  1  0.94200000  0.03970000  0.44800000  1.0 0.110573674
C  C75  1  0.03970000  0.44800000  0.94200000  1.0 0.110573674
C  C76  1  0.55200000  0.96030000  0.05800000  1.0 0.110573674
C  C77  1  0.05800000  0.55200000  0.96030000  1.0 0.110573674
C  C78  1  0.96030000  0.05800000  0.55200000  1.0 0.110573674
S  S1  1  0.34718000  0.19218000  0.90428000  1.0 0.3830785118
S  S2  1  0.19218000  0.90428000  0.34718000  1.0 0.3830785118
S  S3  1  0.90428000  0.34718000  0.19218000  1.0 0.3830785118
S  S4  1  0.65282000  0.09572000  0.80782000  1.0 0.3830785118
S  S5  1  0.80782000  0.65282000  0.09572000  1.0 0.3830785118
S  S6  1  0.09572000  0.80782000  0.65282000  1.0 0.3830785118
S  S7  1  0.65282000  0.80782000  0.09572000  1.0 0.3830785118
S  S8  1  0.80782000  0.09572000  0.65282000  1.0 0.3830785118
S  S9  1  0.09572000  0.65282000  0.80782000  1.0 0.3830785118
S  S10  1  0.34718000  0.90428000  0.19218000  1.0 0.3830785118
S  S11  1  0.19218000  0.34718000  0.90428000  1.0 0.3830785118
S  S12  1  0.90428000  0.19218000  0.34718000  1.0 0.3830785118
N  N1  1  0.38610000  0.17430000  0.98470000  1.0 -0.3635022776
N  N2  1  0.17430000  0.98470000  0.38610000  1.0 -0.3635022776
N  N3  1  0.98470000  0.38610000  0.17430000  1.0 -0.3635022776
N  N4  1  0.61390000  0.01530000  0.82570000  1.0 -0.3635022776
N  N5  1  0.82570000  0.61390000  0.01530000  1.0 -0.3635022776
N  N6  1  0.01530000  0.82570000  0.61390000  1.0 -0.3635022776
N  N7  1  0.61390000  0.82570000  0.01530000  1.0 -0.3635022776
N  N8  1  0.82570000  0.01530000  0.61390000  1.0 -0.3635022776
N  N9  1  0.01530000  0.61390000  0.82570000  1.0 -0.3635022776
N  N10  1  0.38610000  0.98470000  0.17430000  1.0 -0.3635022776
N  N11  1  0.17430000  0.38610000  0.98470000  1.0 -0.3635022776
N  N12  1  0.98470000  0.17430000  0.38610000  1.0 -0.3635022776
N  N13  1  0.61490000  0.10780000  0.90850000  1.0 -0.3231434039
N  N14  1  0.10780000  0.90850000  0.61490000  1.0 -0.3231434039
N  N15  1  0.90850000  0.61490000  0.10780000  1.0 -0.3231434039
N  N16  1  0.38510000  0.09150000  0.89220000  1.0 -0.3231434039
N  N17  1  0.89220000  0.38510000  0.09150000  1.0 -0.3231434039
N  N18  1  0.09150000  0.89220000  0.38510000  1.0 -0.3231434039
N  N19  1  0.38510000  0.89220000  0.09150000  1.0 -0.3231434039
N  N20  1  0.89220000  0.09150000  0.38510000  1.0 -0.3231434039
N  N21  1  0.09150000  0.38510000  0.89220000  1.0 -0.3231434039
N  N22  1  0.61490000  0.90850000  0.10780000  1.0 -0.3231434039
N  N23  1  0.10780000  0.61490000  0.90850000  1.0 -0.3231434039
N  N24  1  0.90850000  0.10780000  0.61490000  1.0 -0.3231434039
O  O1  1  0.52192000  0.11525000  0.37608000  1.0 -0.480933809
O  O2  1  0.11525000  0.37608000  0.52192000  1.0 -0.480933809
O  O3  1  0.37608000  0.52192000  0.11525000  1.0 -0.480933809
O  O4  1  0.47808000  0.62392000  0.88475000  1.0 -0.480933809
O  O5  1  0.88475000  0.47808000  0.62392000  1.0 -0.480933809
O  O6  1  0.62392000  0.88475000  0.47808000  1.0 -0.480933809
O  O7  1  0.47808000  0.88475000  0.62392000  1.0 -0.480933809
O  O8  1  0.88475000  0.62392000  0.47808000  1.0 -0.480933809
O  O9  1  0.62392000  0.47808000  0.88475000  1.0 -0.480933809
O  O10  1  0.52192000  0.37608000  0.11525000  1.0 -0.480933809
O  O11  1  0.11525000  0.52192000  0.37608000  1.0 -0.480933809
O  O12  1  0.37608000  0.11525000  0.52192000  1.0 -0.480933809
O  O13  1  0.51291000  0.98952000  0.36700000  1.0 -0.5043839352
O  O14  1  0.98952000  0.36700000  0.51291000  1.0 -0.5043839352
O  O15  1  0.36700000  0.51291000  0.98952000  1.0 -0.5043839352
O  O16  1  0.48709000  0.63300000  0.01048000  1.0 -0.5043839352
O  O17  1  0.01048000  0.48709000  0.63300000  1.0 -0.5043839352
O  O18  1  0.63300000  0.01048000  0.48709000  1.0 -0.5043839352
O  O19  1  0.48709000  0.01048000  0.63300000  1.0 -0.5043839352
O  O20  1  0.01048000  0.63300000  0.48709000  1.0 -0.5043839352
O  O21  1  0.63300000  0.48709000  0.01048000  1.0 -0.5043839352
O  O22  1  0.51291000  0.36700000  0.98952000  1.0 -0.5043839352
O  O23  1  0.98952000  0.51291000  0.36700000  1.0 -0.5043839352
O  O24  1  0.36700000  0.98952000  0.51291000  1.0 -0.5043839352
O  O25  1  0.51967000  0.19012000  0.51967000  1.0 -0.845554425
O  O26  1  0.19012000  0.51967000  0.51967000  1.0 -0.845554425
O  O27  1  0.51967000  0.51967000  0.19012000  1.0 -0.845554425
O  O28  1  0.48033000  0.48033000  0.80988000  1.0 -0.845554425
O  O29  1  0.80988000  0.48033000  0.48033000  1.0 -0.845554425
O  O30  1  0.48033000  0.80988000  0.48033000  1.0 -0.845554425
