# DDEC6 charges by PACMAN v1.1 (https://github.com/mtap-research/PACMAN-charge/)
data_HOJJAU_ASR_pacman
_symmetry_space_group_name_H-M   'P 1'
_cell_length_a   25.01590000
_cell_length_b   25.01590000
_cell_length_c   24.51900000
_cell_angle_alpha   90.00000000
_cell_angle_beta   90.00000000
_cell_angle_gamma   122.13800000
_symmetry_Int_Tables_number   1
_chemical_formula_structural   Co3P2H36Au2C58N2(ClO6)2
_chemical_formula_sum   'Co12 P8 H144 Au8 C232 N8 Cl8 O48'
_cell_volume   12992.72125258
_cell_formula_units_Z   4
loop_
 _symmetry_equiv_pos_site_id
 _symmetry_equiv_pos_as_xyz
  1  'x, y, z'
loop_
 _atom_site_type_symbol
 _atom_site_label
 _atom_site_symmetry_multiplicity
 _atom_site_fract_x
 _atom_site_fract_y
 _atom_site_fract_z
 _atom_site_occupancy
 _atom_site_charge
Co  Co1  1  0.39720000  0.75030000  0.78441000  1.0 0.8576716242
Co  Co2  1  0.10280000  0.74970000  0.28441000  1.0 0.8576716242
Co  Co3  1  0.25030000  0.89720000  0.71559000  1.0 0.8576716242
Co  Co4  1  0.24970000  0.60280000  0.21559000  1.0 0.8576716242
Co  Co5  1  0.60280000  0.24970000  0.21559000  1.0 0.8576716242
Co  Co6  1  0.89720000  0.25030000  0.71559000  1.0 0.8576716242
Co  Co7  1  0.74970000  0.10280000  0.28441000  1.0 0.8576716242
Co  Co8  1  0.75030000  0.39720000  0.78441000  1.0 0.8576716242
Co  Co9  1  0.37197000  0.87197000  0.75000000  1.0 1.0694335532
Co  Co10  1  0.12803000  0.62803000  0.25000000  1.0 1.0694335532
Co  Co11  1  0.62803000  0.12803000  0.25000000  1.0 1.0694335532
Co  Co12  1  0.87197000  0.37197000  0.75000000  1.0 1.0694335532
P  P1  1  0.42302000  0.77058000  0.42794000  1.0 0.3266264629
P  P2  1  0.07698000  0.72942000  0.92794000  1.0 0.3266264629
P  P3  1  0.27058000  0.92302000  0.07206000  1.0 0.3266264629
P  P4  1  0.22942000  0.57698000  0.57206000  1.0 0.3266264629
P  P5  1  0.57698000  0.22942000  0.57206000  1.0 0.3266264629
P  P6  1  0.92302000  0.27058000  0.07206000  1.0 0.324376477
P  P7  1  0.72942000  0.07698000  0.92794000  1.0 0.324376477
P  P8  1  0.77058000  0.42302000  0.42794000  1.0 0.3266264629
H  H1  1  0.44288000  0.87154000  0.50057000  1.0 0.1199992123
H  H2  1  0.43458000  0.88126000  0.59382000  1.0 0.1363374713
H  H3  1  0.40904000  0.71000000  0.61440000  1.0 0.1199992123
H  H4  1  0.40830000  0.69680000  0.52125000  1.0 0.1104968325
H  H5  1  0.54963000  0.82433000  0.38834000  1.0 0.1199992123
H  H6  1  0.62186000  0.92234000  0.34948000  1.0 0.1302401555
H  H7  1  0.49761000  0.97473000  0.34940000  1.0 0.1363374713
H  H8  1  0.42632000  0.88144000  0.39689000  1.0 0.1199992123
H  H9  1  0.35856000  0.73434000  0.32971000  1.0 0.1199992123
H  H10  1  0.27091000  0.72647000  0.29236000  1.0 0.1302401555
H  H11  1  0.22408000  0.75686000  0.44108000  1.0 0.1199992123
H  H12  1  0.31995000  0.78153000  0.47414000  1.0 0.1104968325
H  H13  1  0.49648000  0.75122000  0.85719000  1.0 0.1104968325
H  H14  1  0.55415000  0.70317000  0.86428000  1.0 0.1199992123
H  H15  1  0.49033000  0.62807000  0.71569000  1.0 0.1199992123
H  H16  1  0.42410000  0.66666667  0.71568000  1.0 0.1104968325
H  H17  1  0.55153000  0.60697000  0.87700000  1.0 0.1104968325
H  H18  1  0.55831000  0.61165000  0.71222000  1.0 0.1104968325
H  H19  1  0.05712000  0.62846000  0.00057000  1.0 0.1199992123
H  H20  1  0.06542000  0.61874000  0.09382000  1.0 0.1363374713
H  H21  1  0.09096000  0.79000000  0.11440000  1.0 0.1199992123
H  H22  1  0.09170000  0.80320000  0.02125000  1.0 0.1104968325
H  H23  1  0.95037000  0.67567000  0.88834000  1.0 0.1199992123
H  H24  1  0.87814000  0.57766000  0.84948000  1.0 0.1302401555
H  H25  1  0.00239000  0.52527000  0.84940000  1.0 0.1363374713
H  H26  1  0.07368000  0.61856000  0.89689000  1.0 0.1199992123
H  H27  1  0.14144000  0.76566000  0.82971000  1.0 0.1199992123
H  H28  1  0.22909000  0.77353000  0.79236000  1.0 0.1302401555
H  H29  1  0.27592000  0.74314000  0.94108000  1.0 0.1199992123
H  H30  1  0.18005000  0.71847000  0.97414000  1.0 0.1104968325
H  H31  1  0.00352000  0.74878000  0.35719000  1.0 0.1104968325
H  H32  1  0.94585000  0.79683000  0.36428000  1.0 0.1199992123
H  H33  1  0.00967000  0.87193000  0.21569000  1.0 0.1199992123
H  H34  1  0.07590000  0.83330000  0.21568000  1.0 0.1104968325
H  H35  1  0.94847000  0.89303000  0.37700000  1.0 0.1104968325
H  H36  1  0.94169000  0.88835000  0.21222000  1.0 0.1104968325
H  H37  1  0.37154000  0.94288000  0.99943000  1.0 0.1199992123
H  H38  1  0.38126000  0.93458000  0.90618000  1.0 0.1363374713
H  H39  1  0.21000000  0.90904000  0.88560000  1.0 0.1199992123
H  H40  1  0.19680000  0.90830000  0.97875000  1.0 0.1104968325
H  H41  1  0.32433000  0.04963000  0.11166000  1.0 0.1199992123
H  H42  1  0.42234000  0.12186000  0.15052000  1.0 0.1302401555
H  H43  1  0.47473000  0.99761000  0.15060000  1.0 0.1363374713
H  H44  1  0.38144000  0.92632000  0.10311000  1.0 0.1199992123
H  H45  1  0.23434000  0.85856000  0.17029000  1.0 0.1199992123
H  H46  1  0.22647000  0.77091000  0.20764000  1.0 0.1302401555
H  H47  1  0.25686000  0.72408000  0.05892000  1.0 0.1199992123
H  H48  1  0.28153000  0.81995000  0.02586000  1.0 0.1104968325
H  H49  1  0.25122000  0.99648000  0.64281000  1.0 0.1104968325
H  H50  1  0.20317000  0.05415000  0.63572000  1.0 0.1199992123
H  H51  1  0.12807000  0.99033000  0.78431000  1.0 0.1199992123
H  H52  1  0.16670000  0.92410000  0.78432000  1.0 0.1104968325
H  H53  1  0.10697000  0.05153000  0.62300000  1.0 0.1104968325
H  H54  1  0.11165000  0.05831000  0.78778000  1.0 0.1104968325
H  H55  1  0.12846000  0.55712000  0.49943000  1.0 0.1199992123
H  H56  1  0.11874000  0.56542000  0.40618000  1.0 0.1363374713
H  H57  1  0.29000000  0.59096000  0.38560000  1.0 0.1199992123
H  H58  1  0.30320000  0.59170000  0.47875000  1.0 0.1104968325
H  H59  1  0.17567000  0.45037000  0.61166000  1.0 0.1199992123
H  H60  1  0.07766000  0.37814000  0.65052000  1.0 0.1302401555
H  H61  1  0.02527000  0.50239000  0.65060000  1.0 0.1363374713
H  H62  1  0.11856000  0.57368000  0.60311000  1.0 0.1199992123
H  H63  1  0.26566000  0.64144000  0.67029000  1.0 0.1199992123
H  H64  1  0.27353000  0.72909000  0.70764000  1.0 0.1302401555
H  H65  1  0.24314000  0.77592000  0.55892000  1.0 0.1199992123
H  H66  1  0.21847000  0.68005000  0.52586000  1.0 0.1104968325
H  H67  1  0.24878000  0.50352000  0.14281000  1.0 0.1104968325
H  H68  1  0.29683000  0.44585000  0.13572000  1.0 0.1199992123
H  H69  1  0.37193000  0.50967000  0.28431000  1.0 0.1199992123
H  H70  1  0.33333333  0.57590000  0.28432000  1.0 0.1104968325
H  H71  1  0.39303000  0.44847000  0.12300000  1.0 0.1104968325
H  H72  1  0.38835000  0.44169000  0.28778000  1.0 0.1104968325
H  H73  1  0.55712000  0.12846000  0.49943000  1.0 0.1199992123
H  H74  1  0.56542000  0.11874000  0.40618000  1.0 0.1363374713
H  H75  1  0.59096000  0.29000000  0.38560000  1.0 0.1199992123
H  H76  1  0.59170000  0.30320000  0.47875000  1.0 0.1104968325
H  H77  1  0.45037000  0.17567000  0.61166000  1.0 0.1199992123
H  H78  1  0.37814000  0.07766000  0.65052000  1.0 0.1302401555
H  H79  1  0.50239000  0.02527000  0.65060000  1.0 0.1363374713
H  H80  1  0.57368000  0.11856000  0.60311000  1.0 0.1199992123
H  H81  1  0.64144000  0.26566000  0.67029000  1.0 0.1199992123
H  H82  1  0.72909000  0.27353000  0.70764000  1.0 0.1302401555
H  H83  1  0.77592000  0.24314000  0.55892000  1.0 0.1199992123
H  H84  1  0.68005000  0.21847000  0.52586000  1.0 0.1104968325
H  H85  1  0.50352000  0.24878000  0.14281000  1.0 0.1104968325
H  H86  1  0.44585000  0.29683000  0.13572000  1.0 0.1199992123
H  H87  1  0.50967000  0.37193000  0.28431000  1.0 0.1199992123
H  H88  1  0.57590000  0.33333333  0.28432000  1.0 0.1104968325
H  H89  1  0.44847000  0.39303000  0.12300000  1.0 0.1104968325
H  H90  1  0.44169000  0.38835000  0.28778000  1.0 0.1104968325
H  H91  1  0.94288000  0.37154000  0.99943000  1.0 0.1199992123
H  H92  1  0.93458000  0.38126000  0.90618000  1.0 0.1363374713
H  H93  1  0.90904000  0.21000000  0.88560000  1.0 0.1199992123
H  H94  1  0.90830000  0.19680000  0.97875000  1.0 0.1104968325
H  H95  1  0.04963000  0.32433000  0.11166000  1.0 0.1199992123
H  H96  1  0.12186000  0.42234000  0.15052000  1.0 0.1302401555
H  H97  1  0.99761000  0.47473000  0.15060000  1.0 0.1363374713
H  H98  1  0.92632000  0.38144000  0.10311000  1.0 0.1199992123
H  H99  1  0.85856000  0.23434000  0.17029000  1.0 0.1199992123
H  H100  1  0.77091000  0.22647000  0.20764000  1.0 0.1302401555
H  H101  1  0.72408000  0.25686000  0.05892000  1.0 0.1199992123
H  H102  1  0.81995000  0.28153000  0.02586000  1.0 0.1104968325
H  H103  1  0.99648000  0.25122000  0.64281000  1.0 0.1104968325
H  H104  1  0.05415000  0.20317000  0.63572000  1.0 0.1199992123
H  H105  1  0.99033000  0.12807000  0.78431000  1.0 0.1199992123
H  H106  1  0.92410000  0.16670000  0.78432000  1.0 0.1104968325
H  H107  1  0.05153000  0.10697000  0.62300000  1.0 0.1104968325
H  H108  1  0.05831000  0.11165000  0.78778000  1.0 0.1104968325
H  H109  1  0.62846000  0.05712000  0.00057000  1.0 0.1199992123
H  H110  1  0.61874000  0.06542000  0.09382000  1.0 0.1363374713
H  H111  1  0.79000000  0.09096000  0.11440000  1.0 0.1199992123
H  H112  1  0.80320000  0.09170000  0.02125000  1.0 0.1104968325
H  H113  1  0.67567000  0.95037000  0.88834000  1.0 0.1199992123
H  H114  1  0.57766000  0.87814000  0.84948000  1.0 0.1302401555
H  H115  1  0.52527000  0.00239000  0.84940000  1.0 0.1363374713
H  H116  1  0.61856000  0.07368000  0.89689000  1.0 0.1199992123
H  H117  1  0.76566000  0.14144000  0.82971000  1.0 0.1199992123
H  H118  1  0.77353000  0.22909000  0.79236000  1.0 0.1302401555
H  H119  1  0.74314000  0.27592000  0.94108000  1.0 0.1199992123
H  H120  1  0.71847000  0.18005000  0.97414000  1.0 0.1104968325
H  H121  1  0.74878000  0.00352000  0.35719000  1.0 0.1104968325
H  H122  1  0.79683000  0.94585000  0.36428000  1.0 0.1199992123
H  H123  1  0.87193000  0.00967000  0.21569000  1.0 0.1199992123
H  H124  1  0.83330000  0.07590000  0.21568000  1.0 0.1104968325
H  H125  1  0.89303000  0.94847000  0.37700000  1.0 0.1104968325
H  H126  1  0.88835000  0.94169000  0.21222000  1.0 0.1104968325
H  H127  1  0.87154000  0.44288000  0.50057000  1.0 0.1199992123
H  H128  1  0.88126000  0.43458000  0.59382000  1.0 0.1363374713
H  H129  1  0.71000000  0.40904000  0.61440000  1.0 0.1199992123
H  H130  1  0.69680000  0.40830000  0.52125000  1.0 0.1104968325
H  H131  1  0.82433000  0.54963000  0.38834000  1.0 0.1199992123
H  H132  1  0.92234000  0.62186000  0.34948000  1.0 0.1302401555
H  H133  1  0.97473000  0.49761000  0.34940000  1.0 0.1363374713
H  H134  1  0.88144000  0.42632000  0.39689000  1.0 0.1199992123
H  H135  1  0.73434000  0.35856000  0.32971000  1.0 0.1199992123
H  H136  1  0.72647000  0.27091000  0.29236000  1.0 0.1302401555
H  H137  1  0.75686000  0.22408000  0.44108000  1.0 0.1199992123
H  H138  1  0.78153000  0.31995000  0.47414000  1.0 0.1104968325
H  H139  1  0.75122000  0.49648000  0.85719000  1.0 0.1104968325
H  H140  1  0.70317000  0.55415000  0.86428000  1.0 0.1199992123
H  H141  1  0.62807000  0.49033000  0.71569000  1.0 0.1199992123
H  H142  1  0.66666667  0.42410000  0.71568000  1.0 0.1104968325
H  H143  1  0.60697000  0.55153000  0.87700000  1.0 0.1104968325
H  H144  1  0.61165000  0.55831000  0.71222000  1.0 0.1104968325
Au  Au1  1  0.43274000  0.69078000  0.40413000  1.0 -0.0634618955
Au  Au2  1  0.06726000  0.80922000  0.90413000  1.0 -0.0634618955
Au  Au3  1  0.19078000  0.93274000  0.09587000  1.0 -0.0634618955
Au  Au4  1  0.30922000  0.56726000  0.59587000  1.0 -0.0634618955
Au  Au5  1  0.56726000  0.30922000  0.59587000  1.0 -0.0634618955
Au  Au6  1  0.93274000  0.19078000  0.09587000  1.0 -0.0634618955
Au  Au7  1  0.80922000  0.06726000  0.90413000  1.0 -0.0634618955
Au  Au8  1  0.69078000  0.43274000  0.40413000  1.0 -0.0634618955
C  C1  1  0.42770000  0.78430000  0.50100000  1.0 -0.0526399388
C  C2  1  0.43470000  0.83770000  0.52390000  1.0 -0.130386263
C  C3  1  0.43060000  0.84420000  0.57900000  1.0 -0.0911674215
C  C4  1  0.42030000  0.79490000  0.61230000  1.0 -0.0066183408
C  C5  1  0.41430000  0.74250000  0.59080000  1.0 -0.0911674215
C  C6  1  0.41560000  0.73540000  0.53580000  1.0 -0.130386263
C  C7  1  0.41320000  0.80120000  0.67280000  1.0 0.590664303
C  C8  1  0.47970000  0.84530000  0.39680000  1.0 -0.0443045105
C  C9  1  0.53910000  0.85510000  0.38200000  1.0 -0.130386263
C  C10  1  0.58050000  0.91270000  0.35770000  1.0 -0.0911674215
C  C11  1  0.56620000  0.95560000  0.34510000  1.0 -0.0015519842
C  C12  1  0.50880000  0.94500000  0.35840000  1.0 -0.0911674215
C  C13  1  0.46600000  0.88860000  0.38590000  1.0 -0.1197677477
C  C14  1  0.61510000  0.01650000  0.31390000  1.0 0.590664303
C  C15  1  0.34760000  0.75780000  0.40630000  1.0 -0.0634618955
C  C16  1  0.33180000  0.74140000  0.35200000  1.0 -0.1197677477
C  C17  1  0.27930000  0.73530000  0.33020000  1.0 -0.0911674215
C  C18  1  0.23810000  0.74190000  0.36200000  1.0 -0.0015519842
C  C19  1  0.25340000  0.75560000  0.41730000  1.0 -0.0978245222
C  C20  1  0.30840000  0.76700000  0.43770000  1.0 -0.1197677477
C  C21  1  0.18370000  0.74110000  0.33660000  1.0 0.5599339736
C  C22  1  0.49060000  0.72100000  0.83050000  1.0 0.0976788319
C  C23  1  0.52670000  0.69430000  0.83420000  1.0 -0.1965414173
C  C24  1  0.52210000  0.65510000  0.79370000  1.0 0.0976788319
C  C25  1  0.48760000  0.64880000  0.74700000  1.0 -0.175917806
C  C26  1  0.44960000  0.67280000  0.74660000  1.0 0.0674163477
C  C27  1  0.55480000  0.62360000  0.79560000  1.0 0.0518455343
C  C28  1  0.56610000  0.60070000  0.84330000  1.0 -0.161244558
C  C29  1  0.57040000  0.60300000  0.74620000  1.0 -0.161244558
C  C30  1  0.07230000  0.71570000  0.00100000  1.0 -0.0526399388
C  C31  1  0.06530000  0.66230000  0.02390000  1.0 -0.130386263
C  C32  1  0.06940000  0.65580000  0.07900000  1.0 -0.0911674215
C  C33  1  0.07970000  0.70510000  0.11230000  1.0 -0.0066183408
C  C34  1  0.08570000  0.75750000  0.09080000  1.0 -0.0911674215
C  C35  1  0.08440000  0.76460000  0.03580000  1.0 -0.130386263
C  C36  1  0.08680000  0.69880000  0.17280000  1.0 0.590664303
C  C37  1  0.02030000  0.65470000  0.89680000  1.0 -0.0443045105
C  C38  1  0.96090000  0.64490000  0.88200000  1.0 -0.130386263
C  C39  1  0.91950000  0.58730000  0.85770000  1.0 -0.0911674215
C  C40  1  0.93380000  0.54440000  0.84510000  1.0 -0.0015519842
C  C41  1  0.99120000  0.55500000  0.85840000  1.0 -0.0911674215
C  C42  1  0.03400000  0.61140000  0.88590000  1.0 -0.1197677477
C  C43  1  0.88490000  0.48350000  0.81390000  1.0 0.590664303
C  C44  1  0.15240000  0.74220000  0.90630000  1.0 -0.0634618955
C  C45  1  0.16820000  0.75860000  0.85200000  1.0 -0.1197677477
C  C46  1  0.22070000  0.76470000  0.83020000  1.0 -0.0911674215
C  C47  1  0.26190000  0.75810000  0.86200000  1.0 -0.0015519842
C  C48  1  0.24660000  0.74440000  0.91730000  1.0 -0.0978245222
C  C49  1  0.19160000  0.73300000  0.93770000  1.0 -0.1197677477
C  C50  1  0.31630000  0.75890000  0.83660000  1.0 0.5599339736
C  C51  1  0.00940000  0.77900000  0.33050000  1.0 0.0976788319
C  C52  1  0.97330000  0.80570000  0.33420000  1.0 -0.1965414173
C  C53  1  0.97790000  0.84490000  0.29370000  1.0 0.0976788319
C  C54  1  0.01240000  0.85120000  0.24700000  1.0 -0.175917806
C  C55  1  0.05040000  0.82720000  0.24660000  1.0 0.0674163477
C  C56  1  0.94520000  0.87640000  0.29560000  1.0 0.0518455343
C  C57  1  0.93390000  0.89930000  0.34330000  1.0 -0.161244558
C  C58  1  0.92960000  0.89700000  0.24620000  1.0 -0.161244558
C  C59  1  0.28430000  0.92770000  0.99900000  1.0 -0.0526399388
C  C60  1  0.33770000  0.93470000  0.97610000  1.0 -0.130386263
C  C61  1  0.34420000  0.93060000  0.92100000  1.0 -0.0911674215
C  C62  1  0.29490000  0.92030000  0.88770000  1.0 -0.0066183408
C  C63  1  0.24250000  0.91430000  0.90920000  1.0 -0.0911674215
C  C64  1  0.23540000  0.91560000  0.96420000  1.0 -0.130386263
C  C65  1  0.30120000  0.91320000  0.82720000  1.0 0.590664303
C  C66  1  0.34530000  0.97970000  0.10320000  1.0 -0.0443045105
C  C67  1  0.35510000  0.03910000  0.11800000  1.0 -0.130386263
C  C68  1  0.41270000  0.08050000  0.14230000  1.0 -0.0911674215
C  C69  1  0.45560000  0.06620000  0.15490000  1.0 -0.0015519842
C  C70  1  0.44500000  0.00880000  0.14160000  1.0 -0.0911674215
C  C71  1  0.38860000  0.96600000  0.11410000  1.0 -0.1197677477
C  C72  1  0.51650000  0.11510000  0.18610000  1.0 0.590664303
C  C73  1  0.25780000  0.84760000  0.09370000  1.0 -0.0634618955
C  C74  1  0.24140000  0.83180000  0.14800000  1.0 -0.1197677477
C  C75  1  0.23530000  0.77930000  0.16980000  1.0 -0.0911674215
C  C76  1  0.24190000  0.73810000  0.13800000  1.0 -0.0015519842
C  C77  1  0.25560000  0.75340000  0.08270000  1.0 -0.0978245222
C  C78  1  0.26700000  0.80840000  0.06230000  1.0 -0.1197677477
C  C79  1  0.24110000  0.68370000  0.16340000  1.0 0.5599339736
C  C80  1  0.22100000  0.99060000  0.66950000  1.0 0.0976788319
C  C81  1  0.19430000  0.02670000  0.66580000  1.0 -0.1965414173
C  C82  1  0.15510000  0.02210000  0.70630000  1.0 0.0976788319
C  C83  1  0.14880000  0.98760000  0.75300000  1.0 -0.174882369
C  C84  1  0.17280000  0.94960000  0.75340000  1.0 0.0674163477
C  C85  1  0.12360000  0.05480000  0.70440000  1.0 0.0518455343
C  C86  1  0.10070000  0.06610000  0.65670000  1.0 -0.161244558
C  C87  1  0.10300000  0.07040000  0.75380000  1.0 -0.161244558
C  C88  1  0.21570000  0.57230000  0.49900000  1.0 -0.0526399388
C  C89  1  0.16230000  0.56530000  0.47610000  1.0 -0.130386263
C  C90  1  0.15580000  0.56940000  0.42100000  1.0 -0.0911674215
C  C91  1  0.20510000  0.57970000  0.38770000  1.0 -0.0066183408
C  C92  1  0.25750000  0.58570000  0.40920000  1.0 -0.0911674215
C  C93  1  0.26460000  0.58440000  0.46420000  1.0 -0.130386263
C  C94  1  0.19880000  0.58680000  0.32720000  1.0 0.590664303
C  C95  1  0.15470000  0.52030000  0.60320000  1.0 -0.0443045105
C  C96  1  0.14490000  0.46090000  0.61800000  1.0 -0.130386263
C  C97  1  0.08730000  0.41950000  0.64230000  1.0 -0.0911674215
C  C98  1  0.04440000  0.43380000  0.65490000  1.0 -0.0015519842
C  C99  1  0.05500000  0.49120000  0.64160000  1.0 -0.0911674215
C  C100  1  0.11140000  0.53400000  0.61410000  1.0 -0.1197677477
C  C101  1  0.98350000  0.38490000  0.68610000  1.0 0.590664303
C  C102  1  0.24220000  0.65240000  0.59370000  1.0 -0.0634618955
C  C103  1  0.25860000  0.66820000  0.64800000  1.0 -0.1197677477
C  C104  1  0.26470000  0.72070000  0.66980000  1.0 -0.0911674215
C  C105  1  0.25810000  0.76190000  0.63800000  1.0 -0.0015519842
C  C106  1  0.24440000  0.74660000  0.58270000  1.0 -0.0978245222
C  C107  1  0.23300000  0.69160000  0.56230000  1.0 -0.1197677477
C  C108  1  0.25890000  0.81630000  0.66340000  1.0 0.5599339736
C  C109  1  0.27900000  0.50940000  0.16950000  1.0 0.0976788319
C  C110  1  0.30570000  0.47330000  0.16580000  1.0 -0.1965414173
C  C111  1  0.34490000  0.47790000  0.20630000  1.0 0.0976788319
C  C112  1  0.35120000  0.51240000  0.25300000  1.0 -0.174882369
C  C113  1  0.32720000  0.55040000  0.25340000  1.0 0.0674163477
C  C114  1  0.37640000  0.44520000  0.20440000  1.0 0.0518455343
C  C115  1  0.39930000  0.43390000  0.15670000  1.0 -0.161244558
C  C116  1  0.39700000  0.42960000  0.25380000  1.0 -0.161244558
C  C117  1  0.57230000  0.21570000  0.49900000  1.0 -0.0526399388
C  C118  1  0.56530000  0.16230000  0.47610000  1.0 -0.130386263
C  C119  1  0.56940000  0.15580000  0.42100000  1.0 -0.0911674215
C  C120  1  0.57970000  0.20510000  0.38770000  1.0 -0.0066183408
C  C121  1  0.58570000  0.25750000  0.40920000  1.0 -0.0911674215
C  C122  1  0.58440000  0.26460000  0.46420000  1.0 -0.130386263
C  C123  1  0.58680000  0.19880000  0.32720000  1.0 0.590664303
C  C124  1  0.52030000  0.15470000  0.60320000  1.0 -0.0443045105
C  C125  1  0.46090000  0.14490000  0.61800000  1.0 -0.130386263
C  C126  1  0.41950000  0.08730000  0.64230000  1.0 -0.0911674215
C  C127  1  0.43380000  0.04440000  0.65490000  1.0 -0.0015519842
C  C128  1  0.49120000  0.05500000  0.64160000  1.0 -0.0911674215
C  C129  1  0.53400000  0.11140000  0.61410000  1.0 -0.1197677477
C  C130  1  0.38490000  0.98350000  0.68610000  1.0 0.590664303
C  C131  1  0.65240000  0.24220000  0.59370000  1.0 -0.0634618955
C  C132  1  0.66820000  0.25860000  0.64800000  1.0 -0.1197677477
C  C133  1  0.72070000  0.26470000  0.66980000  1.0 -0.0911674215
C  C134  1  0.76190000  0.25810000  0.63800000  1.0 -0.0015519842
C  C135  1  0.74660000  0.24440000  0.58270000  1.0 -0.0978245222
C  C136  1  0.69160000  0.23300000  0.56230000  1.0 -0.1197677477
C  C137  1  0.81630000  0.25890000  0.66340000  1.0 0.5599339736
C  C138  1  0.50940000  0.27900000  0.16950000  1.0 0.0976788319
C  C139  1  0.47330000  0.30570000  0.16580000  1.0 -0.1965414173
C  C140  1  0.47790000  0.34490000  0.20630000  1.0 0.0976788319
C  C141  1  0.51240000  0.35120000  0.25300000  1.0 -0.174882369
C  C142  1  0.55040000  0.32720000  0.25340000  1.0 0.0674163477
C  C143  1  0.44520000  0.37640000  0.20440000  1.0 0.0518455343
C  C144  1  0.43390000  0.39930000  0.15670000  1.0 -0.161244558
C  C145  1  0.42960000  0.39700000  0.25380000  1.0 -0.161244558
C  C146  1  0.92770000  0.28430000  0.99900000  1.0 -0.0526399388
C  C147  1  0.93470000  0.33770000  0.97610000  1.0 -0.130386263
C  C148  1  0.93060000  0.34420000  0.92100000  1.0 -0.0911674215
C  C149  1  0.92030000  0.29490000  0.88770000  1.0 -0.0066183408
C  C150  1  0.91430000  0.24250000  0.90920000  1.0 -0.0911674215
C  C151  1  0.91560000  0.23540000  0.96420000  1.0 -0.130386263
C  C152  1  0.91320000  0.30120000  0.82720000  1.0 0.590664303
C  C153  1  0.97970000  0.34530000  0.10320000  1.0 -0.0443045105
C  C154  1  0.03910000  0.35510000  0.11800000  1.0 -0.130386263
C  C155  1  0.08050000  0.41270000  0.14230000  1.0 -0.0911674215
C  C156  1  0.06620000  0.45560000  0.15490000  1.0 -0.0015519842
C  C157  1  0.00880000  0.44500000  0.14160000  1.0 -0.0911674215
C  C158  1  0.96600000  0.38860000  0.11410000  1.0 -0.1197677477
C  C159  1  0.11510000  0.51650000  0.18610000  1.0 0.590664303
C  C160  1  0.84760000  0.25780000  0.09370000  1.0 -0.0634618955
C  C161  1  0.83180000  0.24140000  0.14800000  1.0 -0.1197677477
C  C162  1  0.77930000  0.23530000  0.16980000  1.0 -0.0911674215
C  C163  1  0.73810000  0.24190000  0.13800000  1.0 -0.0015519842
C  C164  1  0.75340000  0.25560000  0.08270000  1.0 -0.0978245222
C  C165  1  0.80840000  0.26700000  0.06230000  1.0 -0.1197677477
C  C166  1  0.68370000  0.24110000  0.16340000  1.0 0.5599339736
C  C167  1  0.99060000  0.22100000  0.66950000  1.0 0.0976788319
C  C168  1  0.02670000  0.19430000  0.66580000  1.0 -0.1965414173
C  C169  1  0.02210000  0.15510000  0.70630000  1.0 0.0976788319
C  C170  1  0.98760000  0.14880000  0.75300000  1.0 -0.175917806
C  C171  1  0.94960000  0.17280000  0.75340000  1.0 0.0674163477
C  C172  1  0.05480000  0.12360000  0.70440000  1.0 0.0518455343
C  C173  1  0.06610000  0.10070000  0.65670000  1.0 -0.161244558
C  C174  1  0.07040000  0.10300000  0.75380000  1.0 -0.161244558
C  C175  1  0.71570000  0.07230000  0.00100000  1.0 -0.0526399388
C  C176  1  0.66230000  0.06530000  0.02390000  1.0 -0.130386263
C  C177  1  0.65580000  0.06940000  0.07900000  1.0 -0.0911674215
C  C178  1  0.70510000  0.07970000  0.11230000  1.0 -0.0066183408
C  C179  1  0.75750000  0.08570000  0.09080000  1.0 -0.0911674215
C  C180  1  0.76460000  0.08440000  0.03580000  1.0 -0.130386263
C  C181  1  0.69880000  0.08680000  0.17280000  1.0 0.590664303
C  C182  1  0.65470000  0.02030000  0.89680000  1.0 -0.0443045105
C  C183  1  0.64490000  0.96090000  0.88200000  1.0 -0.130386263
C  C184  1  0.58730000  0.91950000  0.85770000  1.0 -0.0911674215
C  C185  1  0.54440000  0.93380000  0.84510000  1.0 -0.0015519842
C  C186  1  0.55500000  0.99120000  0.85840000  1.0 -0.0911674215
C  C187  1  0.61140000  0.03400000  0.88590000  1.0 -0.1197677477
C  C188  1  0.48350000  0.88490000  0.81390000  1.0 0.590664303
C  C189  1  0.74220000  0.15240000  0.90630000  1.0 -0.0634618955
C  C190  1  0.75860000  0.16820000  0.85200000  1.0 -0.1197677477
C  C191  1  0.76470000  0.22070000  0.83020000  1.0 -0.0911674215
C  C192  1  0.75810000  0.26190000  0.86200000  1.0 -0.0015519842
C  C193  1  0.74440000  0.24660000  0.91730000  1.0 -0.0978245222
C  C194  1  0.73300000  0.19160000  0.93770000  1.0 -0.1197677477
C  C195  1  0.75890000  0.31630000  0.83660000  1.0 0.5599339736
C  C196  1  0.77900000  0.00940000  0.33050000  1.0 0.0976788319
C  C197  1  0.80570000  0.97330000  0.33420000  1.0 -0.1965414173
C  C198  1  0.84490000  0.97790000  0.29370000  1.0 0.0976788319
C  C199  1  0.85120000  0.01240000  0.24700000  1.0 -0.175917806
C  C200  1  0.82720000  0.05040000  0.24660000  1.0 0.0674163477
C  C201  1  0.87640000  0.94520000  0.29560000  1.0 0.0518455343
C  C202  1  0.89930000  0.93390000  0.34330000  1.0 -0.161244558
C  C203  1  0.89700000  0.92960000  0.24620000  1.0 -0.161244558
C  C204  1  0.78430000  0.42770000  0.50100000  1.0 -0.0526399388
C  C205  1  0.83770000  0.43470000  0.52390000  1.0 -0.130386263
C  C206  1  0.84420000  0.43060000  0.57900000  1.0 -0.0911674215
C  C207  1  0.79490000  0.42030000  0.61230000  1.0 -0.0066183408
C  C208  1  0.74250000  0.41430000  0.59080000  1.0 -0.0911674215
C  C209  1  0.73540000  0.41560000  0.53580000  1.0 -0.130386263
C  C210  1  0.80120000  0.41320000  0.67280000  1.0 0.590664303
C  C211  1  0.84530000  0.47970000  0.39680000  1.0 -0.0443045105
C  C212  1  0.85510000  0.53910000  0.38200000  1.0 -0.130386263
C  C213  1  0.91270000  0.58050000  0.35770000  1.0 -0.0911674215
C  C214  1  0.95560000  0.56620000  0.34510000  1.0 -0.0015519842
C  C215  1  0.94500000  0.50880000  0.35840000  1.0 -0.0911674215
C  C216  1  0.88860000  0.46600000  0.38590000  1.0 -0.1197677477
C  C217  1  0.01650000  0.61510000  0.31390000  1.0 0.590664303
C  C218  1  0.75780000  0.34760000  0.40630000  1.0 -0.0634618955
C  C219  1  0.74140000  0.33180000  0.35200000  1.0 -0.1197677477
C  C220  1  0.73530000  0.27930000  0.33020000  1.0 -0.0911674215
C  C221  1  0.74190000  0.23810000  0.36200000  1.0 -0.0015519842
C  C222  1  0.75560000  0.25340000  0.41730000  1.0 -0.0978245222
C  C223  1  0.76700000  0.30840000  0.43770000  1.0 -0.1197677477
C  C224  1  0.74110000  0.18370000  0.33660000  1.0 0.5599339736
C  C225  1  0.72100000  0.49060000  0.83050000  1.0 0.0976788319
C  C226  1  0.69430000  0.52670000  0.83420000  1.0 -0.1965414173
C  C227  1  0.65510000  0.52210000  0.79370000  1.0 0.0976788319
C  C228  1  0.64880000  0.48760000  0.74700000  1.0 -0.174882369
C  C229  1  0.67280000  0.44960000  0.74660000  1.0 0.0674163477
C  C230  1  0.62360000  0.55480000  0.79560000  1.0 0.0518455343
C  C231  1  0.60070000  0.56610000  0.84330000  1.0 -0.161244558
C  C232  1  0.60300000  0.57040000  0.74620000  1.0 -0.161244558
N  N1  1  0.44820000  0.70620000  0.79140000  1.0 -0.2604557964
N  N2  1  0.05180000  0.79380000  0.29140000  1.0 -0.2604557964
N  N3  1  0.20620000  0.94820000  0.70860000  1.0 -0.2604557964
N  N4  1  0.29380000  0.55180000  0.20860000  1.0 -0.2604557964
N  N5  1  0.55180000  0.29380000  0.20860000  1.0 -0.2604557964
N  N6  1  0.94820000  0.20620000  0.70860000  1.0 -0.2604557964
N  N7  1  0.79380000  0.05180000  0.29140000  1.0 -0.2604557964
N  N8  1  0.70620000  0.44820000  0.79140000  1.0 -0.2604557964
Cl  Cl1  1  0.43601000  0.60519000  0.37810000  1.0 -0.2375545271
Cl  Cl2  1  0.06399000  0.89481000  0.87810000  1.0 -0.2375545271
Cl  Cl3  1  0.10519000  0.93601000  0.12190000  1.0 -0.2327235597
Cl  Cl4  1  0.39481000  0.56399000  0.62190000  1.0 -0.2327235597
Cl  Cl5  1  0.56399000  0.39481000  0.62190000  1.0 -0.2375545271
Cl  Cl6  1  0.93601000  0.10519000  0.12190000  1.0 -0.2327235597
Cl  Cl7  1  0.89481000  0.06399000  0.87810000  1.0 -0.2327235597
Cl  Cl8  1  0.60519000  0.43601000  0.37810000  1.0 -0.2327235597
O  O1  1  0.40419000  0.84181000  0.68800000  1.0 -0.5228367763
O  O2  1  0.41300000  0.76020000  0.70340000  1.0 -0.5529573428
O  O3  1  0.66864000  0.02696000  0.30880000  1.0 -0.5305880624
O  O4  1  0.59221000  0.04599000  0.29460000  1.0 -0.5305880624
O  O5  1  0.16572000  0.71888000  0.28950000  1.0 -0.5739434826
O  O6  1  0.15560000  0.76080000  0.36200000  1.0 -0.4924149121
O  O7  1  0.09581000  0.65819000  0.18800000  1.0 -0.5228367763
O  O8  1  0.08700000  0.73980000  0.20340000  1.0 -0.5529573428
O  O9  1  0.83136000  0.47304000  0.80880000  1.0 -0.5305880624
O  O10  1  0.90779000  0.45401000  0.79460000  1.0 -0.5305880624
O  O11  1  0.33428000  0.78112000  0.78950000  1.0 -0.5739434826
O  O12  1  0.34440000  0.73920000  0.86200000  1.0 -0.4924149121
O  O13  1  0.34181000  0.90419000  0.81200000  1.0 -0.5228367763
O  O14  1  0.26020000  0.91300000  0.79660000  1.0 -0.5529573428
O  O15  1  0.52696000  0.16864000  0.19120000  1.0 -0.5305880624
O  O16  1  0.54599000  0.09221000  0.20540000  1.0 -0.5305880624
O  O17  1  0.21888000  0.66572000  0.21050000  1.0 -0.5739434826
O  O18  1  0.26080000  0.65560000  0.13800000  1.0 -0.4924149121
O  O19  1  0.15819000  0.59581000  0.31200000  1.0 -0.5228367763
O  O20  1  0.23980000  0.58700000  0.29660000  1.0 -0.5529573428
O  O21  1  0.97304000  0.33136000  0.69120000  1.0 -0.5305880624
O  O22  1  0.95401000  0.40779000  0.70540000  1.0 -0.5305880624
O  O23  1  0.28112000  0.83428000  0.71050000  1.0 -0.5739434826
O  O24  1  0.23920000  0.84440000  0.63800000  1.0 -0.4924149121
O  O25  1  0.59581000  0.15819000  0.31200000  1.0 -0.5228367763
O  O26  1  0.58700000  0.23980000  0.29660000  1.0 -0.5529573428
O  O27  1  0.33136000  0.97304000  0.69120000  1.0 -0.5305880624
O  O28  1  0.40779000  0.95401000  0.70540000  1.0 -0.5305880624
O  O29  1  0.83428000  0.28112000  0.71050000  1.0 -0.5739434826
O  O30  1  0.84440000  0.23920000  0.63800000  1.0 -0.4924149121
O  O31  1  0.90419000  0.34181000  0.81200000  1.0 -0.5228367763
O  O32  1  0.91300000  0.26020000  0.79660000  1.0 -0.5529573428
O  O33  1  0.16864000  0.52696000  0.19120000  1.0 -0.5305880624
O  O34  1  0.09221000  0.54599000  0.20540000  1.0 -0.5305880624
O  O35  1  0.66572000  0.21888000  0.21050000  1.0 -0.5739434826
O  O36  1  0.65560000  0.26080000  0.13800000  1.0 -0.4924149121
O  O37  1  0.65819000  0.09581000  0.18800000  1.0 -0.5228367763
O  O38  1  0.73980000  0.08700000  0.20340000  1.0 -0.5529573428
O  O39  1  0.47304000  0.83136000  0.80880000  1.0 -0.5305880624
O  O40  1  0.45401000  0.90779000  0.79460000  1.0 -0.5305880624
O  O41  1  0.78112000  0.33428000  0.78950000  1.0 -0.5739434826
O  O42  1  0.73920000  0.34440000  0.86200000  1.0 -0.4924149121
O  O43  1  0.84181000  0.40419000  0.68800000  1.0 -0.5228367763
O  O44  1  0.76020000  0.41300000  0.70340000  1.0 -0.5529573428
O  O45  1  0.02696000  0.66864000  0.30880000  1.0 -0.5305880624
O  O46  1  0.04599000  0.59221000  0.29460000  1.0 -0.5305880624
O  O47  1  0.71888000  0.16572000  0.28950000  1.0 -0.5739434826
O  O48  1  0.76080000  0.15560000  0.36200000  1.0 -0.4924149121
