# DDEC6 charges by PACMAN v1.1 (https://github.com/mtap-research/PACMAN-charge/)
data_HOJJEY_ASR_pacman
_symmetry_space_group_name_H-M   'P 1'
_cell_length_a   24.79610000
_cell_length_b   24.79610000
_cell_length_c   24.24000000
_cell_angle_alpha   90.00000000
_cell_angle_beta   90.00000000
_cell_angle_gamma   122.01800000
_symmetry_Int_Tables_number   1
_chemical_formula_structural   Co3P2H40Au2C62Br2(NO6)2
_chemical_formula_sum   'Co12 P8 H160 Au8 C248 Br8 N8 O48'
_cell_volume   12636.72608547
_cell_formula_units_Z   4
loop_
 _symmetry_equiv_pos_site_id
 _symmetry_equiv_pos_as_xyz
  1  'x, y, z'
loop_
 _atom_site_type_symbol
 _atom_site_label
 _atom_site_symmetry_multiplicity
 _atom_site_fract_x
 _atom_site_fract_y
 _atom_site_fract_z
 _atom_site_occupancy
 _atom_site_charge
Co  Co1  1  0.24235000  0.88849000  0.21180000  1.0 0.8571288929
Co  Co2  1  0.25765000  0.61151000  0.71180000  1.0 0.8571288929
Co  Co3  1  0.38849000  0.74235000  0.28820000  1.0 0.8571288929
Co  Co4  1  0.11151000  0.75765000  0.78820000  1.0 0.8571288929
Co  Co5  1  0.75765000  0.11151000  0.78820000  1.0 0.8571288929
Co  Co6  1  0.74235000  0.38849000  0.28820000  1.0 0.8571288929
Co  Co7  1  0.61151000  0.25765000  0.71180000  1.0 0.8571288929
Co  Co8  1  0.88849000  0.24235000  0.21180000  1.0 0.8571288929
Co  Co9  1  0.36744000  0.86744000  0.25000000  1.0 1.0824202046
Co  Co10  1  0.13256000  0.63256000  0.75000000  1.0 1.0824202046
Co  Co11  1  0.63256000  0.13256000  0.75000000  1.0 1.0824202046
Co  Co12  1  0.86744000  0.36744000  0.25000000  1.0 1.0824202046
P  P1  1  0.26928000  0.93116000  0.57071000  1.0 0.3460518108
P  P2  1  0.23072000  0.56884000  0.07071000  1.0 0.3460518108
P  P3  1  0.43116000  0.76928000  0.92929000  1.0 0.3460518108
P  P4  1  0.06884000  0.73072000  0.42929000  1.0 0.3460518108
P  P5  1  0.73072000  0.06884000  0.42929000  1.0 0.3439347094
P  P6  1  0.76928000  0.43116000  0.92929000  1.0 0.3460518108
P  P7  1  0.56884000  0.23072000  0.07071000  1.0 0.3439347094
P  P8  1  0.93116000  0.26928000  0.57071000  1.0 0.3439347094
H  H1  1  0.37359000  0.95675000  0.49820000  1.0 0.121306264
H  H2  1  0.37729000  0.93561000  0.40417000  1.0 0.1373680279
H  H3  1  0.20388000  0.91092000  0.38356000  1.0 0.121306264
H  H4  1  0.19208000  0.91558000  0.47674000  1.0 0.1123337335
H  H5  1  0.33370000  0.06198000  0.60200000  1.0 0.121306264
H  H6  1  0.42737000  0.13201000  0.65024000  1.0 0.121306264
H  H7  1  0.47706000  0.00112000  0.64626000  1.0 0.1318569839
H  H8  1  0.37879000  0.92709000  0.60808000  1.0 0.121306264
H  H9  1  0.23561000  0.86689000  0.67256000  1.0 0.121306264
H  H10  1  0.22823000  0.77773000  0.70770000  1.0 0.1318569839
H  H11  1  0.26136000  0.73220000  0.55390000  1.0 0.121306264
H  H12  1  0.27297000  0.82581000  0.52225000  1.0 0.121306264
H  H13  1  0.24081000  0.97737000  0.13398000  1.0 0.121306264
H  H14  1  0.20085000  0.04993000  0.12671000  1.0 0.1318569839
H  H15  1  0.11056000  0.97814000  0.27244000  1.0 0.1318569839
H  H16  1  0.15158000  0.90952000  0.27415000  1.0 0.1123337335
H  H17  1  0.11427000  0.05585000  0.10949000  1.0 0.0908925241
H  H18  1  0.11969000  0.06943000  0.27607000  1.0 0.0908925241
H  H19  1  0.03342000  0.98062000  0.22009000  1.0 0.0908925241
H  H20  1  0.19303000  0.13747000  0.16364000  1.0 0.0908925241
H  H21  1  0.12641000  0.54325000  0.99820000  1.0 0.121306264
H  H22  1  0.12271000  0.56439000  0.90417000  1.0 0.1373680279
H  H23  1  0.29612000  0.58908000  0.88356000  1.0 0.121306264
H  H24  1  0.30792000  0.58442000  0.97674000  1.0 0.1123337335
H  H25  1  0.16630000  0.43802000  0.10200000  1.0 0.121306264
H  H26  1  0.07263000  0.36799000  0.15024000  1.0 0.121306264
H  H27  1  0.02294000  0.49888000  0.14626000  1.0 0.1318569839
H  H28  1  0.12121000  0.57291000  0.10808000  1.0 0.121306264
H  H29  1  0.26439000  0.63311000  0.17256000  1.0 0.121306264
H  H30  1  0.27177000  0.72227000  0.20770000  1.0 0.1318569839
H  H31  1  0.23864000  0.76780000  0.05390000  1.0 0.121306264
H  H32  1  0.22703000  0.67419000  0.02225000  1.0 0.121306264
H  H33  1  0.25919000  0.52263000  0.63398000  1.0 0.121306264
H  H34  1  0.29915000  0.45007000  0.62671000  1.0 0.1318569839
H  H35  1  0.38944000  0.52186000  0.77244000  1.0 0.1318569839
H  H36  1  0.34842000  0.59048000  0.77415000  1.0 0.1123337335
H  H37  1  0.38573000  0.44415000  0.60949000  1.0 0.0908925241
H  H38  1  0.38031000  0.43057000  0.77607000  1.0 0.0908925241
H  H39  1  0.46658000  0.51938000  0.72009000  1.0 0.0908925241
H  H40  1  0.30697000  0.36253000  0.66364000  1.0 0.0908925241
H  H41  1  0.45675000  0.87359000  0.00180000  1.0 0.121306264
H  H42  1  0.43561000  0.87729000  0.09583000  1.0 0.1373680279
H  H43  1  0.41092000  0.70388000  0.11644000  1.0 0.121306264
H  H44  1  0.41558000  0.69208000  0.02326000  1.0 0.1123337335
H  H45  1  0.56198000  0.83370000  0.89800000  1.0 0.121306264
H  H46  1  0.63201000  0.92737000  0.84976000  1.0 0.121306264
H  H47  1  0.50112000  0.97706000  0.85374000  1.0 0.1318569839
H  H48  1  0.42709000  0.87879000  0.89192000  1.0 0.121306264
H  H49  1  0.36689000  0.73561000  0.82744000  1.0 0.121306264
H  H50  1  0.27773000  0.72823000  0.79230000  1.0 0.1318569839
H  H51  1  0.23220000  0.76136000  0.94610000  1.0 0.121306264
H  H52  1  0.32581000  0.77297000  0.97775000  1.0 0.121306264
H  H53  1  0.47737000  0.74081000  0.36602000  1.0 0.121306264
H  H54  1  0.54993000  0.70085000  0.37329000  1.0 0.1318569839
H  H55  1  0.47814000  0.61056000  0.22756000  1.0 0.1318569839
H  H56  1  0.40952000  0.65158000  0.22585000  1.0 0.1123337335
H  H57  1  0.55585000  0.61427000  0.39051000  1.0 0.0908925241
H  H58  1  0.56943000  0.61969000  0.22393000  1.0 0.0908925241
H  H59  1  0.48062000  0.53342000  0.27991000  1.0 0.0908925241
H  H60  1  0.63747000  0.69303000  0.33636000  1.0 0.0908925241
H  H61  1  0.04325000  0.62641000  0.50180000  1.0 0.121306264
H  H62  1  0.06439000  0.62271000  0.59583000  1.0 0.1373680279
H  H63  1  0.08908000  0.79612000  0.61644000  1.0 0.121306264
H  H64  1  0.08442000  0.80792000  0.52326000  1.0 0.1123337335
H  H65  1  0.93802000  0.66630000  0.39800000  1.0 0.121306264
H  H66  1  0.86799000  0.57263000  0.34976000  1.0 0.121306264
H  H67  1  0.99888000  0.52294000  0.35374000  1.0 0.1318569839
H  H68  1  0.07291000  0.62121000  0.39192000  1.0 0.121306264
H  H69  1  0.13311000  0.76439000  0.32744000  1.0 0.121306264
H  H70  1  0.22227000  0.77177000  0.29230000  1.0 0.1318569839
H  H71  1  0.26780000  0.73864000  0.44610000  1.0 0.121306264
H  H72  1  0.17419000  0.72703000  0.47775000  1.0 0.121306264
H  H73  1  0.02263000  0.75919000  0.86602000  1.0 0.121306264
H  H74  1  0.95007000  0.79915000  0.87329000  1.0 0.1318569839
H  H75  1  0.02186000  0.88944000  0.72756000  1.0 0.1318569839
H  H76  1  0.09048000  0.84842000  0.72585000  1.0 0.1123337335
H  H77  1  0.94415000  0.88573000  0.89051000  1.0 0.0908925241
H  H78  1  0.93057000  0.88031000  0.72393000  1.0 0.0908925241
H  H79  1  0.01938000  0.96658000  0.77991000  1.0 0.0908925241
H  H80  1  0.86253000  0.80697000  0.83636000  1.0 0.0908925241
H  H81  1  0.62641000  0.04325000  0.50180000  1.0 0.121306264
H  H82  1  0.62271000  0.06439000  0.59583000  1.0 0.1373680279
H  H83  1  0.79612000  0.08908000  0.61644000  1.0 0.121306264
H  H84  1  0.80792000  0.08442000  0.52326000  1.0 0.1123337335
H  H85  1  0.66630000  0.93802000  0.39800000  1.0 0.121306264
H  H86  1  0.57263000  0.86799000  0.34976000  1.0 0.121306264
H  H87  1  0.52294000  0.99888000  0.35374000  1.0 0.1318569839
H  H88  1  0.62121000  0.07291000  0.39192000  1.0 0.121306264
H  H89  1  0.76439000  0.13311000  0.32744000  1.0 0.121306264
H  H90  1  0.77177000  0.22227000  0.29230000  1.0 0.1318569839
H  H91  1  0.73864000  0.26780000  0.44610000  1.0 0.121306264
H  H92  1  0.72703000  0.17419000  0.47775000  1.0 0.121306264
H  H93  1  0.75919000  0.02263000  0.86602000  1.0 0.121306264
H  H94  1  0.79915000  0.95007000  0.87329000  1.0 0.1318569839
H  H95  1  0.88944000  0.02186000  0.72756000  1.0 0.1318569839
H  H96  1  0.84842000  0.09048000  0.72585000  1.0 0.1123337335
H  H97  1  0.88573000  0.94415000  0.89051000  1.0 0.0908925241
H  H98  1  0.88031000  0.93057000  0.72393000  1.0 0.0908925241
H  H99  1  0.96658000  0.01938000  0.77991000  1.0 0.0908925241
H  H100  1  0.80697000  0.86253000  0.83636000  1.0 0.0908925241
H  H101  1  0.87359000  0.45675000  0.00180000  1.0 0.121306264
H  H102  1  0.87729000  0.43561000  0.09583000  1.0 0.1373680279
H  H103  1  0.70388000  0.41092000  0.11644000  1.0 0.121306264
H  H104  1  0.69208000  0.41558000  0.02326000  1.0 0.1123337335
H  H105  1  0.83370000  0.56198000  0.89800000  1.0 0.121306264
H  H106  1  0.92737000  0.63201000  0.84976000  1.0 0.121306264
H  H107  1  0.97706000  0.50112000  0.85374000  1.0 0.1318569839
H  H108  1  0.87879000  0.42709000  0.89192000  1.0 0.121306264
H  H109  1  0.73561000  0.36689000  0.82744000  1.0 0.121306264
H  H110  1  0.72823000  0.27773000  0.79230000  1.0 0.1318569839
H  H111  1  0.76136000  0.23220000  0.94610000  1.0 0.121306264
H  H112  1  0.77297000  0.32581000  0.97775000  1.0 0.121306264
H  H113  1  0.74081000  0.47737000  0.36602000  1.0 0.121306264
H  H114  1  0.70085000  0.54993000  0.37329000  1.0 0.1318569839
H  H115  1  0.61056000  0.47814000  0.22756000  1.0 0.1318569839
H  H116  1  0.65158000  0.40952000  0.22585000  1.0 0.1123337335
H  H117  1  0.61427000  0.55585000  0.39051000  1.0 0.0908925241
H  H118  1  0.61969000  0.56943000  0.22393000  1.0 0.0908925241
H  H119  1  0.53342000  0.48062000  0.27991000  1.0 0.0908925241
H  H120  1  0.69303000  0.63747000  0.33636000  1.0 0.0908925241
H  H121  1  0.54325000  0.12641000  0.99820000  1.0 0.121306264
H  H122  1  0.56439000  0.12271000  0.90417000  1.0 0.1373680279
H  H123  1  0.58908000  0.29612000  0.88356000  1.0 0.121306264
H  H124  1  0.58442000  0.30792000  0.97674000  1.0 0.1123337335
H  H125  1  0.43802000  0.16630000  0.10200000  1.0 0.121306264
H  H126  1  0.36799000  0.07263000  0.15024000  1.0 0.121306264
H  H127  1  0.49888000  0.02294000  0.14626000  1.0 0.1318569839
H  H128  1  0.57291000  0.12121000  0.10808000  1.0 0.121306264
H  H129  1  0.63311000  0.26439000  0.17256000  1.0 0.121306264
H  H130  1  0.72227000  0.27177000  0.20770000  1.0 0.1318569839
H  H131  1  0.76780000  0.23864000  0.05390000  1.0 0.121306264
H  H132  1  0.67419000  0.22703000  0.02225000  1.0 0.121306264
H  H133  1  0.52263000  0.25919000  0.63398000  1.0 0.121306264
H  H134  1  0.45007000  0.29915000  0.62671000  1.0 0.1318569839
H  H135  1  0.52186000  0.38944000  0.77244000  1.0 0.1318569839
H  H136  1  0.59048000  0.34842000  0.77415000  1.0 0.1123337335
H  H137  1  0.44415000  0.38573000  0.60949000  1.0 0.0908925241
H  H138  1  0.43057000  0.38031000  0.77607000  1.0 0.0908925241
H  H139  1  0.51938000  0.46658000  0.72009000  1.0 0.0908925241
H  H140  1  0.36253000  0.30697000  0.66364000  1.0 0.0908925241
H  H141  1  0.95675000  0.37359000  0.49820000  1.0 0.121306264
H  H142  1  0.93561000  0.37729000  0.40417000  1.0 0.1373680279
H  H143  1  0.91092000  0.20388000  0.38356000  1.0 0.121306264
H  H144  1  0.91558000  0.19208000  0.47674000  1.0 0.1123337335
H  H145  1  0.06198000  0.33370000  0.60200000  1.0 0.121306264
H  H146  1  0.13201000  0.42737000  0.65024000  1.0 0.121306264
H  H147  1  0.00112000  0.47706000  0.64626000  1.0 0.1318569839
H  H148  1  0.92709000  0.37879000  0.60808000  1.0 0.121306264
H  H149  1  0.86689000  0.23561000  0.67256000  1.0 0.121306264
H  H150  1  0.77773000  0.22823000  0.70770000  1.0 0.1318569839
H  H151  1  0.73220000  0.26136000  0.55390000  1.0 0.121306264
H  H152  1  0.82581000  0.27297000  0.52225000  1.0 0.121306264
H  H153  1  0.97737000  0.24081000  0.13398000  1.0 0.121306264
H  H154  1  0.04993000  0.20085000  0.12671000  1.0 0.1318569839
H  H155  1  0.97814000  0.11056000  0.27244000  1.0 0.1318569839
H  H156  1  0.90952000  0.15158000  0.27415000  1.0 0.1123337335
H  H157  1  0.05585000  0.11427000  0.10949000  1.0 0.0908925241
H  H158  1  0.06943000  0.11969000  0.27607000  1.0 0.0908925241
H  H159  1  0.98062000  0.03342000  0.22009000  1.0 0.0908925241
H  H160  1  0.13747000  0.19303000  0.16364000  1.0 0.0908925241
Au  Au1  1  0.18924000  0.94242000  0.59584000  1.0 -0.1005252713
Au  Au2  1  0.31076000  0.55758000  0.09584000  1.0 -0.1005252713
Au  Au3  1  0.44242000  0.68924000  0.90416000  1.0 -0.1005252713
Au  Au4  1  0.05758000  0.81076000  0.40416000  1.0 -0.1005252713
Au  Au5  1  0.81076000  0.05758000  0.40416000  1.0 -0.1005252713
Au  Au6  1  0.68924000  0.44242000  0.90416000  1.0 -0.1005252713
Au  Au7  1  0.55758000  0.31076000  0.09584000  1.0 -0.1005252713
Au  Au8  1  0.94242000  0.18924000  0.59584000  1.0 -0.1005252713
C  C1  1  0.28080000  0.93340000  0.49740000  1.0 -0.0535545579
C  C2  1  0.33770000  0.94350000  0.47510000  1.0 -0.1181997946
C  C3  1  0.34100000  0.93380000  0.41940000  1.0 -0.0904482771
C  C4  1  0.28900000  0.92100000  0.38560000  1.0 -0.0022129701
C  C5  1  0.23690000  0.91690000  0.40750000  1.0 -0.0817040858
C  C6  1  0.23020000  0.92100000  0.46220000  1.0 -0.1309170325
C  C7  1  0.29460000  0.91040000  0.32370000  1.0 0.5840982244
C  C8  1  0.34460000  0.98700000  0.60360000  1.0 -0.0411943114
C  C9  1  0.36110000  0.04830000  0.61350000  1.0 -0.1309170325
C  C10  1  0.41820000  0.09080000  0.64050000  1.0 -0.0904482771
C  C11  1  0.46040000  0.07360000  0.65290000  1.0 -0.0341502927
C  C12  1  0.44660000  0.01240000  0.63930000  1.0 -0.0817040858
C  C13  1  0.38900000  0.96900000  0.61590000  1.0 -0.1309170325
C  C14  1  0.51920000  0.11660000  0.68450000  1.0 0.5985231221
C  C15  1  0.25580000  0.85240000  0.59340000  1.0 -0.0579731801
C  C16  1  0.24170000  0.83950000  0.64960000  1.0 -0.1005252713
C  C17  1  0.23720000  0.78740000  0.66960000  1.0 -0.0904482771
C  C18  1  0.24530000  0.74650000  0.63600000  1.0 0.0078718033
C  C19  1  0.25750000  0.76010000  0.57820000  1.0 -0.1005252713
C  C20  1  0.26330000  0.81450000  0.56000000  1.0 -0.1077099633
C  C21  1  0.24490000  0.69130000  0.66050000  1.0 0.5646658586
C  C22  1  0.21410000  0.97830000  0.16150000  1.0 0.121306264
C  C23  1  0.19000000  0.02180000  0.15710000  1.0 -0.2286541547
C  C24  1  0.15200000  0.01980000  0.19820000  1.0 0.1123337335
C  C25  1  0.13660000  0.97880000  0.24340000  1.0 -0.2366598408
C  C26  1  0.16110000  0.93850000  0.24460000  1.0 0.1027556591
C  C27  1  0.11970000  0.05630000  0.19390000  1.0 0.0489765684
C  C28  1  0.10380000  0.06860000  0.14280000  1.0 -0.1005252713
C  C29  1  0.10640000  0.07720000  0.24180000  1.0 -0.0817040858
C  C30  1  0.05510000  0.02410000  0.21000000  1.0 -0.1005252713
C  C31  1  0.15030000  0.11690000  0.17600000  1.0 -0.1077099633
C  C32  1  0.21920000  0.56660000  0.99740000  1.0 -0.0535545579
C  C33  1  0.16230000  0.55650000  0.97510000  1.0 -0.1181997946
C  C34  1  0.15900000  0.56620000  0.91940000  1.0 -0.0904482771
C  C35  1  0.21100000  0.57900000  0.88560000  1.0 -0.0022129701
C  C36  1  0.26310000  0.58310000  0.90750000  1.0 -0.0817040858
C  C37  1  0.26980000  0.57900000  0.96220000  1.0 -0.1309170325
C  C38  1  0.20540000  0.58960000  0.82370000  1.0 0.5840982244
C  C39  1  0.15540000  0.51300000  0.10360000  1.0 -0.0411943114
C  C40  1  0.13890000  0.45170000  0.11350000  1.0 -0.1309170325
C  C41  1  0.08180000  0.40920000  0.14050000  1.0 -0.0904482771
C  C42  1  0.03960000  0.42640000  0.15290000  1.0 -0.0341502927
C  C43  1  0.05340000  0.48760000  0.13930000  1.0 -0.0817040858
C  C44  1  0.11100000  0.53100000  0.11590000  1.0 -0.1357574417
C  C45  1  0.98080000  0.38340000  0.18450000  1.0 0.5985231221
C  C46  1  0.24420000  0.64760000  0.09340000  1.0 -0.0579731801
C  C47  1  0.25830000  0.66050000  0.14960000  1.0 -0.1005252713
C  C48  1  0.26280000  0.71260000  0.16960000  1.0 -0.0904482771
C  C49  1  0.25470000  0.75350000  0.13600000  1.0 0.0078718033
C  C50  1  0.24250000  0.73990000  0.07820000  1.0 -0.1005252713
C  C51  1  0.23670000  0.68550000  0.06000000  1.0 -0.1077099633
C  C52  1  0.25510000  0.80870000  0.16050000  1.0 0.5646658586
C  C53  1  0.28590000  0.52170000  0.66150000  1.0 0.121306264
C  C54  1  0.31000000  0.47820000  0.65710000  1.0 -0.2286541547
C  C55  1  0.34800000  0.48020000  0.69820000  1.0 0.1123337335
C  C56  1  0.36340000  0.52120000  0.74340000  1.0 -0.2366598408
C  C57  1  0.33890000  0.56150000  0.74460000  1.0 0.1027556591
C  C58  1  0.38030000  0.44370000  0.69390000  1.0 0.0489765684
C  C59  1  0.39620000  0.43140000  0.64280000  1.0 -0.1005252713
C  C60  1  0.39360000  0.42280000  0.74180000  1.0 -0.0817040858
C  C61  1  0.44490000  0.47590000  0.71000000  1.0 -0.1005252713
C  C62  1  0.34970000  0.38310000  0.67600000  1.0 -0.1077099633
C  C63  1  0.43340000  0.78080000  0.00260000  1.0 -0.0535545579
C  C64  1  0.44350000  0.83770000  0.02490000  1.0 -0.1181997946
C  C65  1  0.43380000  0.84100000  0.08060000  1.0 -0.0904482771
C  C66  1  0.42100000  0.78900000  0.11440000  1.0 -0.0022129701
C  C67  1  0.41690000  0.73690000  0.09250000  1.0 -0.0817040858
C  C68  1  0.42100000  0.73020000  0.03780000  1.0 -0.1309170325
C  C69  1  0.41040000  0.79460000  0.17630000  1.0 0.5840982244
C  C70  1  0.48700000  0.84460000  0.89640000  1.0 -0.0411943114
C  C71  1  0.54830000  0.86110000  0.88650000  1.0 -0.1309170325
C  C72  1  0.59080000  0.91820000  0.85950000  1.0 -0.0904482771
C  C73  1  0.57360000  0.96040000  0.84710000  1.0 -0.0341502927
C  C74  1  0.51240000  0.94660000  0.86070000  1.0 -0.0817040858
C  C75  1  0.46900000  0.88900000  0.88410000  1.0 -0.1309170325
C  C76  1  0.61660000  0.01920000  0.81550000  1.0 0.5985231221
C  C77  1  0.35240000  0.75580000  0.90660000  1.0 -0.0579731801
C  C78  1  0.33950000  0.74170000  0.85040000  1.0 -0.1005252713
C  C79  1  0.28740000  0.73720000  0.83040000  1.0 -0.0904482771
C  C80  1  0.24650000  0.74530000  0.86400000  1.0 0.0078718033
C  C81  1  0.26010000  0.75750000  0.92180000  1.0 -0.1005252713
C  C82  1  0.31450000  0.76330000  0.94000000  1.0 -0.1077099633
C  C83  1  0.19130000  0.74490000  0.83950000  1.0 0.5646658586
C  C84  1  0.47830000  0.71410000  0.33850000  1.0 0.121306264
C  C85  1  0.52180000  0.69000000  0.34290000  1.0 -0.2286541547
C  C86  1  0.51980000  0.65200000  0.30180000  1.0 0.1123337335
C  C87  1  0.47880000  0.63660000  0.25660000  1.0 -0.2366598408
C  C88  1  0.43850000  0.66110000  0.25540000  1.0 0.1027556591
C  C89  1  0.55630000  0.61970000  0.30610000  1.0 0.0489765684
C  C90  1  0.56860000  0.60380000  0.35720000  1.0 -0.1005252713
C  C91  1  0.57720000  0.60640000  0.25820000  1.0 -0.0904482771
C  C92  1  0.52410000  0.55510000  0.29000000  1.0 -0.1005252713
C  C93  1  0.61690000  0.65030000  0.32400000  1.0 -0.1077099633
C  C94  1  0.06660000  0.71920000  0.50260000  1.0 -0.0535545579
C  C95  1  0.05650000  0.66230000  0.52490000  1.0 -0.1181997946
C  C96  1  0.06620000  0.65900000  0.58060000  1.0 -0.0904482771
C  C97  1  0.07900000  0.71100000  0.61440000  1.0 -0.0022129701
C  C98  1  0.08310000  0.76310000  0.59250000  1.0 -0.0817040858
C  C99  1  0.07900000  0.76980000  0.53780000  1.0 -0.1309170325
C  C100  1  0.08960000  0.70540000  0.67630000  1.0 0.5840982244
C  C101  1  0.01300000  0.65540000  0.39640000  1.0 -0.0411943114
C  C102  1  0.95170000  0.63890000  0.38650000  1.0 -0.1309170325
C  C103  1  0.90920000  0.58180000  0.35950000  1.0 -0.0904482771
C  C104  1  0.92640000  0.53960000  0.34710000  1.0 -0.0341502927
C  C105  1  0.98760000  0.55340000  0.36070000  1.0 -0.0817040858
C  C106  1  0.03100000  0.61100000  0.38410000  1.0 -0.1357574417
C  C107  1  0.88340000  0.48080000  0.31550000  1.0 0.5985231221
C  C108  1  0.14760000  0.74420000  0.40660000  1.0 -0.0579731801
C  C109  1  0.16050000  0.75830000  0.35040000  1.0 -0.1005252713
C  C110  1  0.21260000  0.76280000  0.33040000  1.0 -0.0904482771
C  C111  1  0.25350000  0.75470000  0.36400000  1.0 0.0078718033
C  C112  1  0.23990000  0.74250000  0.42180000  1.0 -0.1005252713
C  C113  1  0.18550000  0.73670000  0.44000000  1.0 -0.1077099633
C  C114  1  0.30870000  0.75510000  0.33950000  1.0 0.5646658586
C  C115  1  0.02170000  0.78590000  0.83850000  1.0 0.121306264
C  C116  1  0.97820000  0.81000000  0.84290000  1.0 -0.2286541547
C  C117  1  0.98020000  0.84800000  0.80180000  1.0 0.1123337335
C  C118  1  0.02120000  0.86340000  0.75660000  1.0 -0.2366598408
C  C119  1  0.06150000  0.83890000  0.75540000  1.0 0.1027556591
C  C120  1  0.94370000  0.88030000  0.80610000  1.0 0.0489765684
C  C121  1  0.93140000  0.89620000  0.85720000  1.0 -0.1005252713
C  C122  1  0.92280000  0.89360000  0.75820000  1.0 -0.0904482771
C  C123  1  0.97590000  0.94490000  0.79000000  1.0 -0.1005252713
C  C124  1  0.88310000  0.84970000  0.82400000  1.0 -0.1005252713
C  C125  1  0.71920000  0.06660000  0.50260000  1.0 -0.0535545579
C  C126  1  0.66230000  0.05650000  0.52490000  1.0 -0.1181997946
C  C127  1  0.65900000  0.06620000  0.58060000  1.0 -0.0904482771
C  C128  1  0.71100000  0.07900000  0.61440000  1.0 -0.0022129701
C  C129  1  0.76310000  0.08310000  0.59250000  1.0 -0.0817040858
C  C130  1  0.76980000  0.07900000  0.53780000  1.0 -0.1309170325
C  C131  1  0.70540000  0.08960000  0.67630000  1.0 0.5840982244
C  C132  1  0.65540000  0.01300000  0.39640000  1.0 -0.0411943114
C  C133  1  0.63890000  0.95170000  0.38650000  1.0 -0.1309170325
C  C134  1  0.58180000  0.90920000  0.35950000  1.0 -0.0904482771
C  C135  1  0.53960000  0.92640000  0.34710000  1.0 -0.0341502927
C  C136  1  0.55340000  0.98760000  0.36070000  1.0 -0.0817040858
C  C137  1  0.61100000  0.03100000  0.38410000  1.0 -0.1357574417
C  C138  1  0.48080000  0.88340000  0.31550000  1.0 0.5985231221
C  C139  1  0.74420000  0.14760000  0.40660000  1.0 -0.0579731801
C  C140  1  0.75830000  0.16050000  0.35040000  1.0 -0.1005252713
C  C141  1  0.76280000  0.21260000  0.33040000  1.0 -0.0904482771
C  C142  1  0.75470000  0.25350000  0.36400000  1.0 0.0078718033
C  C143  1  0.74250000  0.23990000  0.42180000  1.0 -0.1005252713
C  C144  1  0.73670000  0.18550000  0.44000000  1.0 -0.1077099633
C  C145  1  0.75510000  0.30870000  0.33950000  1.0 0.5646658586
C  C146  1  0.78590000  0.02170000  0.83850000  1.0 0.121306264
C  C147  1  0.81000000  0.97820000  0.84290000  1.0 -0.2286541547
C  C148  1  0.84800000  0.98020000  0.80180000  1.0 0.1123337335
C  C149  1  0.86340000  0.02120000  0.75660000  1.0 -0.2366598408
C  C150  1  0.83890000  0.06150000  0.75540000  1.0 0.1027556591
C  C151  1  0.88030000  0.94370000  0.80610000  1.0 0.0489765684
C  C152  1  0.89620000  0.93140000  0.85720000  1.0 -0.1005252713
C  C153  1  0.89360000  0.92280000  0.75820000  1.0 -0.0817040858
C  C154  1  0.94490000  0.97590000  0.79000000  1.0 -0.1005252713
C  C155  1  0.84970000  0.88310000  0.82400000  1.0 -0.1077099633
C  C156  1  0.78080000  0.43340000  0.00260000  1.0 -0.0535545579
C  C157  1  0.83770000  0.44350000  0.02490000  1.0 -0.1181997946
C  C158  1  0.84100000  0.43380000  0.08060000  1.0 -0.0904482771
C  C159  1  0.78900000  0.42100000  0.11440000  1.0 -0.0022129701
C  C160  1  0.73690000  0.41690000  0.09250000  1.0 -0.0817040858
C  C161  1  0.73020000  0.42100000  0.03780000  1.0 -0.1309170325
C  C162  1  0.79460000  0.41040000  0.17630000  1.0 0.5840982244
C  C163  1  0.84460000  0.48700000  0.89640000  1.0 -0.0411943114
C  C164  1  0.86110000  0.54830000  0.88650000  1.0 -0.1309170325
C  C165  1  0.91820000  0.59080000  0.85950000  1.0 -0.0904482771
C  C166  1  0.96040000  0.57360000  0.84710000  1.0 -0.0341502927
C  C167  1  0.94660000  0.51240000  0.86070000  1.0 -0.0817040858
C  C168  1  0.88900000  0.46900000  0.88410000  1.0 -0.1357574417
C  C169  1  0.01920000  0.61660000  0.81550000  1.0 0.5985231221
C  C170  1  0.75580000  0.35240000  0.90660000  1.0 -0.0579731801
C  C171  1  0.74170000  0.33950000  0.85040000  1.0 -0.1005252713
C  C172  1  0.73720000  0.28740000  0.83040000  1.0 -0.0904482771
C  C173  1  0.74530000  0.24650000  0.86400000  1.0 0.0078718033
C  C174  1  0.75750000  0.26010000  0.92180000  1.0 -0.1005252713
C  C175  1  0.76330000  0.31450000  0.94000000  1.0 -0.1077099633
C  C176  1  0.74490000  0.19130000  0.83950000  1.0 0.5646658586
C  C177  1  0.71410000  0.47830000  0.33850000  1.0 0.121306264
C  C178  1  0.69000000  0.52180000  0.34290000  1.0 -0.2286541547
C  C179  1  0.65200000  0.51980000  0.30180000  1.0 0.1123337335
C  C180  1  0.63660000  0.47880000  0.25660000  1.0 -0.2366598408
C  C181  1  0.66110000  0.43850000  0.25540000  1.0 0.1027556591
C  C182  1  0.61970000  0.55630000  0.30610000  1.0 0.0489765684
C  C183  1  0.60380000  0.56860000  0.35720000  1.0 -0.1005252713
C  C184  1  0.60640000  0.57720000  0.25820000  1.0 -0.0904482771
C  C185  1  0.55510000  0.52410000  0.29000000  1.0 -0.1005252713
C  C186  1  0.65030000  0.61690000  0.32400000  1.0 -0.1077099633
C  C187  1  0.56660000  0.21920000  0.99740000  1.0 -0.0535545579
C  C188  1  0.55650000  0.16230000  0.97510000  1.0 -0.1181997946
C  C189  1  0.56620000  0.15900000  0.91940000  1.0 -0.0904482771
C  C190  1  0.57900000  0.21100000  0.88560000  1.0 -0.0022129701
C  C191  1  0.58310000  0.26310000  0.90750000  1.0 -0.0817040858
C  C192  1  0.57900000  0.26980000  0.96220000  1.0 -0.1309170325
C  C193  1  0.58960000  0.20540000  0.82370000  1.0 0.5840982244
C  C194  1  0.51300000  0.15540000  0.10360000  1.0 -0.0411943114
C  C195  1  0.45170000  0.13890000  0.11350000  1.0 -0.1309170325
C  C196  1  0.40920000  0.08180000  0.14050000  1.0 -0.0904482771
C  C197  1  0.42640000  0.03960000  0.15290000  1.0 -0.0341502927
C  C198  1  0.48760000  0.05340000  0.13930000  1.0 -0.0817040858
C  C199  1  0.53100000  0.11100000  0.11590000  1.0 -0.1357574417
C  C200  1  0.38340000  0.98080000  0.18450000  1.0 0.5985231221
C  C201  1  0.64760000  0.24420000  0.09340000  1.0 -0.0579731801
C  C202  1  0.66050000  0.25830000  0.14960000  1.0 -0.1005252713
C  C203  1  0.71260000  0.26280000  0.16960000  1.0 -0.0904482771
C  C204  1  0.75350000  0.25470000  0.13600000  1.0 0.0078718033
C  C205  1  0.73990000  0.24250000  0.07820000  1.0 -0.1005252713
C  C206  1  0.68550000  0.23670000  0.06000000  1.0 -0.1077099633
C  C207  1  0.80870000  0.25510000  0.16050000  1.0 0.5646658586
C  C208  1  0.52170000  0.28590000  0.66150000  1.0 0.121306264
C  C209  1  0.47820000  0.31000000  0.65710000  1.0 -0.2286541547
C  C210  1  0.48020000  0.34800000  0.69820000  1.0 0.1123337335
C  C211  1  0.52120000  0.36340000  0.74340000  1.0 -0.2366598408
C  C212  1  0.56150000  0.33890000  0.74460000  1.0 0.1027556591
C  C213  1  0.44370000  0.38030000  0.69390000  1.0 0.0489765684
C  C214  1  0.43140000  0.39620000  0.64280000  1.0 -0.1077099633
C  C215  1  0.42280000  0.39360000  0.74180000  1.0 -0.0904482771
C  C216  1  0.47590000  0.44490000  0.71000000  1.0 -0.1005252713
C  C217  1  0.38310000  0.34970000  0.67600000  1.0 -0.1077099633
C  C218  1  0.93340000  0.28080000  0.49740000  1.0 -0.0535545579
C  C219  1  0.94350000  0.33770000  0.47510000  1.0 -0.1181997946
C  C220  1  0.93380000  0.34100000  0.41940000  1.0 -0.0904482771
C  C221  1  0.92100000  0.28900000  0.38560000  1.0 -0.0022129701
C  C222  1  0.91690000  0.23690000  0.40750000  1.0 -0.0817040858
C  C223  1  0.92100000  0.23020000  0.46220000  1.0 -0.1309170325
C  C224  1  0.91040000  0.29460000  0.32370000  1.0 0.5840982244
C  C225  1  0.98700000  0.34460000  0.60360000  1.0 -0.0411943114
C  C226  1  0.04830000  0.36110000  0.61350000  1.0 -0.1309170325
C  C227  1  0.09080000  0.41820000  0.64050000  1.0 -0.0904482771
C  C228  1  0.07360000  0.46040000  0.65290000  1.0 -0.0341502927
C  C229  1  0.01240000  0.44660000  0.63930000  1.0 -0.0817040858
C  C230  1  0.96900000  0.38900000  0.61590000  1.0 -0.1309170325
C  C231  1  0.11660000  0.51920000  0.68450000  1.0 0.5985231221
C  C232  1  0.85240000  0.25580000  0.59340000  1.0 -0.0579731801
C  C233  1  0.83950000  0.24170000  0.64960000  1.0 -0.1005252713
C  C234  1  0.78740000  0.23720000  0.66960000  1.0 -0.0904482771
C  C235  1  0.74650000  0.24530000  0.63600000  1.0 0.0078718033
C  C236  1  0.76010000  0.25750000  0.57820000  1.0 -0.1005252713
C  C237  1  0.81450000  0.26330000  0.56000000  1.0 -0.1077099633
C  C238  1  0.69130000  0.24490000  0.66050000  1.0 0.5646658586
C  C239  1  0.97830000  0.21410000  0.16150000  1.0 0.121306264
C  C240  1  0.02180000  0.19000000  0.15710000  1.0 -0.2286541547
C  C241  1  0.01980000  0.15200000  0.19820000  1.0 0.1123337335
C  C242  1  0.97880000  0.13660000  0.24340000  1.0 -0.2366598408
C  C243  1  0.93850000  0.16110000  0.24460000  1.0 0.1027556591
C  C244  1  0.05630000  0.11970000  0.19390000  1.0 0.0489765684
C  C245  1  0.06860000  0.10380000  0.14280000  1.0 -0.1077099633
C  C246  1  0.07720000  0.10640000  0.24180000  1.0 -0.0904482771
C  C247  1  0.02410000  0.05510000  0.21000000  1.0 -0.1005252713
C  C248  1  0.11690000  0.15030000  0.17600000  1.0 -0.1077099633
Br  Br1  1  0.10006000  0.94868000  0.62132000  1.0 -0.2681755229
Br  Br2  1  0.39994000  0.55132000  0.12132000  1.0 -0.2681755229
Br  Br3  1  0.44868000  0.60006000  0.87868000  1.0 -0.2681755229
Br  Br4  1  0.05132000  0.89994000  0.37868000  1.0 -0.2681755229
Br  Br5  1  0.89994000  0.05132000  0.37868000  1.0 -0.2681755229
Br  Br6  1  0.60006000  0.44868000  0.87868000  1.0 -0.2632128998
Br  Br7  1  0.55132000  0.39994000  0.12132000  1.0 -0.2632128998
Br  Br8  1  0.94868000  0.10006000  0.62132000  1.0 -0.2681755229
N  N1  1  0.19760000  0.94280000  0.20340000  1.0 -0.2366598408
N  N2  1  0.30240000  0.55720000  0.70340000  1.0 -0.2366598408
N  N3  1  0.44280000  0.69760000  0.29660000  1.0 -0.2366598408
N  N4  1  0.05720000  0.80240000  0.79660000  1.0 -0.2366598408
N  N5  1  0.80240000  0.05720000  0.79660000  1.0 -0.2366598408
N  N6  1  0.69760000  0.44280000  0.29660000  1.0 -0.2366598408
N  N7  1  0.55720000  0.30240000  0.70340000  1.0 -0.2366598408
N  N8  1  0.94280000  0.19760000  0.20340000  1.0 -0.2366598408
O  O1  1  0.33589000  0.90191000  0.31060000  1.0 -0.5056338563
O  O2  1  0.24955000  0.90525000  0.29290000  1.0 -0.5784417121
O  O3  1  0.53332000  0.17408000  0.68700000  1.0 -0.5707396298
O  O4  1  0.55020000  0.09440000  0.70280000  1.0 -0.531004022
O  O5  1  0.22281000  0.67259000  0.70930000  1.0 -0.5994340881
O  O6  1  0.26520000  0.66260000  0.63340000  1.0 -0.531004022
O  O7  1  0.16411000  0.59809000  0.81060000  1.0 -0.5056338563
O  O8  1  0.25045000  0.59475000  0.79290000  1.0 -0.5784417121
O  O9  1  0.96668000  0.32592000  0.18700000  1.0 -0.5707396298
O  O10  1  0.94980000  0.40560000  0.20280000  1.0 -0.531004022
O  O11  1  0.27719000  0.82741000  0.20930000  1.0 -0.5994340881
O  O12  1  0.23480000  0.83740000  0.13340000  1.0 -0.531004022
O  O13  1  0.40191000  0.83589000  0.18940000  1.0 -0.5056338563
O  O14  1  0.40525000  0.74955000  0.20710000  1.0 -0.5784417121
O  O15  1  0.67408000  0.03332000  0.81300000  1.0 -0.5707396298
O  O16  1  0.59440000  0.05020000  0.79720000  1.0 -0.531004022
O  O17  1  0.17259000  0.72281000  0.79070000  1.0 -0.5994340881
O  O18  1  0.16260000  0.76520000  0.86660000  1.0 -0.531004022
O  O19  1  0.09809000  0.66411000  0.68940000  1.0 -0.5056338563
O  O20  1  0.09475000  0.75045000  0.70710000  1.0 -0.5784417121
O  O21  1  0.82592000  0.46668000  0.31300000  1.0 -0.5707396298
O  O22  1  0.90560000  0.44980000  0.29720000  1.0 -0.531004022
O  O23  1  0.32741000  0.77719000  0.29070000  1.0 -0.5994340881
O  O24  1  0.33740000  0.73480000  0.36660000  1.0 -0.531004022
O  O25  1  0.66411000  0.09809000  0.68940000  1.0 -0.5056338563
O  O26  1  0.75045000  0.09475000  0.70710000  1.0 -0.5784417121
O  O27  1  0.46668000  0.82592000  0.31300000  1.0 -0.5707396298
O  O28  1  0.44980000  0.90560000  0.29720000  1.0 -0.531004022
O  O29  1  0.77719000  0.32741000  0.29070000  1.0 -0.5994340881
O  O30  1  0.73480000  0.33740000  0.36660000  1.0 -0.531004022
O  O31  1  0.83589000  0.40191000  0.18940000  1.0 -0.5056338563
O  O32  1  0.74955000  0.40525000  0.20710000  1.0 -0.5784417121
O  O33  1  0.03332000  0.67408000  0.81300000  1.0 -0.5707396298
O  O34  1  0.05020000  0.59440000  0.79720000  1.0 -0.531004022
O  O35  1  0.72281000  0.17259000  0.79070000  1.0 -0.5994340881
O  O36  1  0.76520000  0.16260000  0.86660000  1.0 -0.531004022
O  O37  1  0.59809000  0.16411000  0.81060000  1.0 -0.5042255177
O  O38  1  0.59475000  0.25045000  0.79290000  1.0 -0.5784417121
O  O39  1  0.32592000  0.96668000  0.18700000  1.0 -0.5707396298
O  O40  1  0.40560000  0.94980000  0.20280000  1.0 -0.531004022
O  O41  1  0.82741000  0.27719000  0.20930000  1.0 -0.5994340881
O  O42  1  0.83740000  0.23480000  0.13340000  1.0 -0.531004022
O  O43  1  0.90191000  0.33589000  0.31060000  1.0 -0.5056338563
O  O44  1  0.90525000  0.24955000  0.29290000  1.0 -0.5784417121
O  O45  1  0.17408000  0.53332000  0.68700000  1.0 -0.5707396298
O  O46  1  0.09440000  0.55020000  0.70280000  1.0 -0.531004022
O  O47  1  0.67259000  0.22281000  0.70930000  1.0 -0.5994340881
O  O48  1  0.66260000  0.26520000  0.63340000  1.0 -0.531004022
