# DDEC6 charges by PACMAN v1.1 (https://github.com/mtap-research/PACMAN-charge/)
data_HOJLUP_FSR_pacman
_symmetry_space_group_name_H-M   'P 1'
_cell_length_a   15.96910000
_cell_length_b   15.96910000
_cell_length_c   15.80800000
_cell_angle_alpha   82.30140000
_cell_angle_beta   97.69860000
_cell_angle_gamma   83.83200000
_symmetry_Int_Tables_number   1
_chemical_formula_structural   Zn2H43C55N7O8
_chemical_formula_sum   'Zn4 H86 C110 N14 O16'
_cell_volume   3926.48592111
_cell_formula_units_Z   2
loop_
 _symmetry_equiv_pos_site_id
 _symmetry_equiv_pos_as_xyz
  1  'x, y, z'
loop_
 _atom_site_type_symbol
 _atom_site_label
 _atom_site_symmetry_multiplicity
 _atom_site_fract_x
 _atom_site_fract_y
 _atom_site_fract_z
 _atom_site_occupancy
 _atom_site_charge
Zn  Zn1  1  0.06027000  0.96039000  0.73420000  1.0 0.8306823292
Zn  Zn2  1  0.03961000  0.93973000  0.23420000  1.0 0.8306823292
Zn  Zn3  1  0.96114000  0.01940000  0.86853000  1.0 0.8620516577
Zn  Zn4  1  0.98060000  0.03886000  0.36853000  1.0 0.8620516577
H  H1  1  0.84880000  0.97360000  0.51250000  1.0 0.1397189244
H  H2  1  0.02640000  0.15120000  0.01250000  1.0 0.1397189244
H  H3  1  0.71640000  0.98040000  0.42650000  1.0 0.1299718978
H  H4  1  0.01960000  0.28360000  0.92650000  1.0 0.1299718978
H  H5  1  0.59810000  0.01870000  0.63190000  1.0 0.1198824172
H  H6  1  0.98130000  0.40190000  0.13190000  1.0 0.1198824172
H  H7  1  0.73050000  0.01190000  0.71790000  1.0 0.1299718978
H  H8  1  0.98810000  0.26950000  0.21790000  1.0 0.1299718978
H  H9  1  0.44880000  0.93740000  0.38640000  1.0 0.1299718978
H  H10  1  0.06260000  0.55120000  0.88640000  1.0 0.1299718978
H  H11  1  0.30710000  0.92630000  0.33310000  1.0 0.1299718978
H  H12  1  0.07370000  0.69290000  0.83310000  1.0 0.1299718978
H  H13  1  0.22760000  0.11540000  0.46220000  1.0 0.1299718978
H  H14  1  0.88460000  0.77240000  0.96220000  1.0 0.1299718978
H  H15  1  0.36930000  0.12650000  0.51550000  1.0 0.1299718978
H  H16  1  0.87350000  0.63070000  0.01550000  1.0 0.1299718978
H  H17  1  0.12870000  0.20350000  0.63320000  1.0 0.1198824172
H  H18  1  0.79650000  0.87130000  0.13320000  1.0 0.1198824172
H  H19  1  0.13980000  0.34440000  0.57710000  1.0 0.1299718978
H  H20  1  0.65560000  0.86020000  0.07710000  1.0 0.1299718978
H  H21  1  0.97550000  0.42870000  0.73070000  1.0 0.1198824172
H  H22  1  0.57130000  0.02450000  0.23070000  1.0 0.1198824172
H  H23  1  0.96420000  0.28780000  0.78680000  1.0 0.1198824172
H  H24  1  0.71220000  0.03580000  0.28680000  1.0 0.1198824172
H  H25  1  0.06880000  0.57820000  0.46720000  1.0 0.1299718978
H  H26  1  0.42180000  0.93120000  0.96720000  1.0 0.1299718978
H  H27  1  0.06270000  0.71310000  0.38620000  1.0 0.1138678914
H  H28  1  0.28690000  0.93730000  0.88620000  1.0 0.1138678914
H  H29  1  0.99150000  0.82270000  0.58670000  1.0 0.1198824172
H  H30  1  0.17730000  0.00850000  0.08670000  1.0 0.1198824172
H  H31  1  0.99760000  0.68780000  0.66770000  1.0 0.1299718978
H  H32  1  0.31220000  0.00240000  0.16770000  1.0 0.1299718978
H  H33  1  0.21150000  0.84350000  0.80290000  1.0 0.1138678914
H  H34  1  0.15650000  0.78850000  0.30290000  1.0 0.1138678914
H  H35  1  0.32140000  0.75900000  0.75830000  1.0 0.1299718978
H  H36  1  0.24100000  0.67860000  0.25830000  1.0 0.1299718978
H  H37  1  0.23460000  0.86140000  0.50920000  1.0 0.1299718978
H  H38  1  0.13860000  0.76540000  0.00920000  1.0 0.1299718978
H  H39  1  0.12480000  0.94600000  0.55380000  1.0 0.1198824172
H  H40  1  0.05400000  0.87520000  0.05380000  1.0 0.1198824172
H  H41  1  0.55820000  0.69580000  0.60270000  1.0 0.1198824172
H  H42  1  0.30420000  0.44180000  0.10270000  1.0 0.1198824172
H  H43  1  0.37470000  0.54650000  0.54670000  1.0 0.1299718978
H  H44  1  0.45350000  0.62530000  0.04670000  1.0 0.1299718978
H  H45  1  0.52620000  0.83120000  0.63650000  1.0 0.1299718978
H  H46  1  0.16880000  0.47380000  0.13650000  1.0 0.1299718978
H  H47  1  0.43490000  0.87870000  0.59030000  1.0 0.1299718978
H  H48  1  0.12130000  0.56510000  0.09030000  1.0 0.1299718978
H  H49  1  0.44900000  0.84120000  0.69100000  1.0 0.1397189244
H  H50  1  0.15880000  0.55100000  0.19100000  1.0 0.1397189244
H  H51  1  0.24010000  0.57830000  0.56370000  1.0 0.1397189244
H  H52  1  0.42170000  0.75990000  0.06370000  1.0 0.1397189244
H  H53  1  0.22620000  0.63460000  0.63830000  1.0 0.1397189244
H  H54  1  0.36540000  0.77380000  0.13830000  1.0 0.1397189244
H  H55  1  0.20060000  0.67640000  0.53900000  1.0 0.1299718978
H  H56  1  0.32360000  0.79940000  0.03900000  1.0 0.1299718978
H  H57  1  0.54090000  0.48250000  0.53520000  1.0 0.2583699593
H  H58  1  0.51750000  0.45910000  0.03520000  1.0 0.2583699593
H  H59  1  0.61600000  0.60840000  0.50020000  1.0 0.1138678914
H  H60  1  0.39160000  0.38400000  0.00020000  1.0 0.1138678914
H  H61  1  0.63770000  0.57850000  0.60330000  1.0 0.1198824172
H  H62  1  0.42150000  0.36230000  0.10330000  1.0 0.1198824172
H  H63  1  0.60170000  0.39230000  0.57080000  1.0 0.1198824172
H  H64  1  0.60770000  0.39830000  0.07080000  1.0 0.1198824172
H  H65  1  0.76630000  0.55070000  0.48950000  1.0 0.1299718978
H  H66  1  0.44930000  0.23370000  0.98950000  1.0 0.1299718978
H  H67  1  0.63520000  0.24440000  0.58730000  1.0 0.1397189244
H  H68  1  0.75560000  0.36480000  0.08730000  1.0 0.1397189244
H  H69  1  0.68640000  0.20880000  0.51660000  1.0 0.1397189244
H  H70  1  0.79120000  0.31360000  0.01660000  1.0 0.1397189244
H  H71  1  0.73560000  0.21520000  0.61010000  1.0 0.1397189244
H  H72  1  0.78480000  0.26440000  0.11010000  1.0 0.1397189244
H  H73  1  0.91020000  0.38180000  0.43950000  1.0 0.1397189244
H  H74  1  0.61820000  0.08980000  0.93950000  1.0 0.1397189244
H  H75  1  0.86680000  0.47320000  0.38950000  1.0 0.1397189244
H  H76  1  0.52680000  0.13320000  0.88950000  1.0 0.1397189244
H  H77  1  0.91960000  0.46500000  0.48430000  1.0 0.1475328201
H  H78  1  0.53500000  0.08040000  0.98430000  1.0 0.1475328201
H  H79  1  0.90270000  0.22690000  0.58600000  1.0 0.1299718978
H  H80  1  0.77310000  0.09730000  0.08600000  1.0 0.1299718978
H  H81  1  0.97680000  0.11040000  0.54090000  1.0 0.1198824172
H  H82  1  0.88960000  0.02320000  0.04090000  1.0 0.1198824172
H  H83  1  0.83920000  0.17440000  0.30170000  1.0 0.1138678914
H  H84  1  0.82560000  0.16080000  0.80170000  1.0 0.1138678914
H  H85  1  0.76520000  0.29080000  0.34680000  1.0 0.1299718978
H  H86  1  0.70920000  0.23480000  0.84680000  1.0 0.1299718978
C  C1  1  0.88770000  0.99170000  0.68220000  1.0 0.5694331049
C  C2  1  0.00830000  0.11230000  0.18220000  1.0 0.5694331049
C  C3  1  0.80210000  0.99210000  0.62330000  1.0 -0.0142907176
C  C4  1  0.00790000  0.19790000  0.12330000  1.0 -0.0142907176
C  C5  1  0.79800000  0.98280000  0.53670000  1.0 -0.089450879
C  C6  1  0.01720000  0.20200000  0.03670000  1.0 -0.089450879
C  C7  1  0.71920000  0.98680000  0.48560000  1.0 -0.1671774369
C  C8  1  0.01320000  0.28080000  0.98560000  1.0 -0.1671774369
C  C9  1  0.64480000  0.00020000  0.52110000  1.0 0.1475328201
C  C10  1  0.99980000  0.35520000  0.02110000  1.0 0.1475328201
C  C11  1  0.64900000  0.00960000  0.60770000  1.0 -0.1614953923
C  C12  1  0.99040000  0.35100000  0.10770000  1.0 -0.1671774369
C  C13  1  0.72770000  0.00550000  0.65880000  1.0 -0.089450879
C  C14  1  0.99450000  0.27230000  0.15880000  1.0 -0.089450879
C  C15  1  0.42240000  0.03300000  0.45590000  1.0 0.1475328201
C  C16  1  0.96700000  0.57760000  0.95590000  1.0 0.1475328201
C  C17  1  0.40390000  0.97350000  0.40180000  1.0 -0.1614953923
C  C18  1  0.02650000  0.59610000  0.90180000  1.0 -0.1614953923
C  C19  1  0.31970000  0.96690000  0.37010000  1.0 -0.0999602644
C  C20  1  0.03310000  0.68030000  0.87010000  1.0 -0.0999602644
C  C21  1  0.25400000  0.01980000  0.39260000  1.0 -0.0385797663
C  C22  1  0.98020000  0.74600000  0.89260000  1.0 -0.0385797663
C  C23  1  0.27250000  0.07930000  0.44680000  1.0 -0.089450879
C  C24  1  0.92070000  0.72750000  0.94680000  1.0 -0.089450879
C  C25  1  0.35660000  0.08580000  0.47840000  1.0 -0.1614953923
C  C26  1  0.91420000  0.64340000  0.97840000  1.0 -0.1614953923
C  C27  1  0.16630000  0.00750000  0.35380000  1.0 0.5694331049
C  C28  1  0.99250000  0.83370000  0.85380000  1.0 0.5694331049
C  C29  1  0.03780000  0.13780000  0.73860000  1.0 0.5601721325
C  C30  1  0.86220000  0.96220000  0.23860000  1.0 0.5601721325
C  C31  1  0.04540000  0.23240000  0.71530000  1.0 -0.0194304708
C  C32  1  0.76760000  0.95460000  0.21530000  1.0 -0.0194304708
C  C33  1  0.09760000  0.24920000  0.65300000  1.0 -0.119162359
C  C34  1  0.75080000  0.90240000  0.15300000  1.0 -0.119162359
C  C35  1  0.10410000  0.33290000  0.61960000  1.0 -0.1506402573
C  C36  1  0.66710000  0.89590000  0.11960000  1.0 -0.1506402573
C  C37  1  0.05860000  0.39980000  0.64860000  1.0 0.1857044616
C  C38  1  0.60020000  0.94140000  0.14860000  1.0 0.1857044616
C  C39  1  0.00660000  0.38300000  0.71090000  1.0 -0.1614953923
C  C40  1  0.61700000  0.99340000  0.21090000  1.0 -0.1614953923
C  C41  1  0.99990000  0.29930000  0.74430000  1.0 -0.0999602644
C  C42  1  0.70070000  0.00010000  0.24430000  1.0 -0.0999602644
C  C43  1  0.03370000  0.62030000  0.57510000  1.0 0.1813816646
C  C44  1  0.37970000  0.96630000  0.07510000  1.0 0.1813816646
C  C45  1  0.05310000  0.62790000  0.49150000  1.0 -0.1506402573
C  C46  1  0.37210000  0.94690000  0.99150000  1.0 -0.1506402573
C  C47  1  0.04940000  0.70800000  0.44330000  1.0 -0.0999602644
C  C48  1  0.29200000  0.95060000  0.94330000  1.0 -0.0999602644
C  C49  1  0.02650000  0.78070000  0.47880000  1.0 -0.0688169336
C  C50  1  0.21930000  0.97350000  0.97880000  1.0 -0.0649930692
C  C51  1  0.00720000  0.77320000  0.56240000  1.0 -0.0825757297
C  C52  1  0.22680000  0.99280000  0.06240000  1.0 -0.0825757297
C  C53  1  0.01080000  0.69300000  0.61060000  1.0 -0.1614953923
C  C54  1  0.30700000  0.98920000  0.11060000  1.0 -0.1614953923
C  C55  1  0.01460000  0.86460000  0.42630000  1.0 0.5694331049
C  C56  1  0.13540000  0.98540000  0.92630000  1.0 0.5694331049
C  C57  1  0.21620000  0.84720000  0.74330000  1.0 0.0785995927
C  C58  1  0.15280000  0.78380000  0.24330000  1.0 0.0785995927
C  C59  1  0.28150000  0.79690000  0.71680000  1.0 -0.1955589398
C  C60  1  0.20310000  0.71850000  0.21680000  1.0 -0.1955589398
C  C61  1  0.28830000  0.80230000  0.62960000  1.0 0.1397189244
C  C62  1  0.19770000  0.71170000  0.12960000  1.0 0.1397189244
C  C63  1  0.22990000  0.85770000  0.56880000  1.0 -0.1844151846
C  C64  1  0.14230000  0.77010000  0.06880000  1.0 -0.1844151846
C  C65  1  0.16460000  0.90800000  0.59540000  1.0 0.0785995927
C  C66  1  0.09200000  0.83540000  0.09540000  1.0 0.0785995927
C  C67  1  0.35360000  0.73560000  0.60440000  1.0 -0.0649930692
C  C68  1  0.26440000  0.64640000  0.10440000  1.0 -0.0649930692
C  C69  1  0.43870000  0.74890000  0.61300000  1.0 0.1299718978
C  C70  1  0.25110000  0.56130000  0.11300000  1.0 0.1299718978
C  C71  1  0.50000000  0.68680000  0.59690000  1.0 -0.2433246008
C  C72  1  0.31320000  0.50000000  0.09690000  1.0 -0.2433246008
C  C73  1  0.47620000  0.61140000  0.57220000  1.0 0.040122391
C  C74  1  0.38860000  0.52380000  0.07220000  1.0 0.040122391
C  C75  1  0.39100000  0.59820000  0.56400000  1.0 -0.2287028959
C  C76  1  0.40180000  0.60900000  0.06400000  1.0 -0.2287028959
C  C77  1  0.32980000  0.66020000  0.57970000  1.0 0.1397189244
C  C78  1  0.33980000  0.67020000  0.07970000  1.0 0.1397189244
C  C79  1  0.46450000  0.83230000  0.63500000  1.0 -0.4495914287
C  C80  1  0.16770000  0.53550000  0.13500000  1.0 -0.4495914287
C  C81  1  0.24140000  0.63520000  0.58000000  1.0 -0.4495914287
C  C82  1  0.36480000  0.75860000  0.08000000  1.0 -0.4495914287
C  C83  1  0.61850000  0.56010000  0.54720000  1.0 -0.0194304708
C  C84  1  0.43990000  0.38150000  0.04720000  1.0 -0.0194304708
C  C85  1  0.67570000  0.48250000  0.53280000  1.0 0.040122391
C  C86  1  0.51750000  0.32430000  0.03280000  1.0 0.040122391
C  C87  1  0.65300000  0.40080000  0.54870000  1.0 -0.2222435108
C  C88  1  0.59920000  0.34700000  0.04870000  1.0 -0.2222435108
C  C89  1  0.70560000  0.33160000  0.53210000  1.0 0.1397189244
C  C90  1  0.66840000  0.29440000  0.03210000  1.0 0.1397189244
C  C91  1  0.78080000  0.34400000  0.49960000  1.0 -0.0688169336
C  C92  1  0.65600000  0.21920000  0.99960000  1.0 -0.0688169336
C  C93  1  0.80330000  0.42570000  0.48370000  1.0 0.1299718978
C  C94  1  0.57430000  0.19670000  0.98370000  1.0 0.1299718978
C  C95  1  0.75090000  0.49490000  0.50030000  1.0 -0.2433246008
C  C96  1  0.50510000  0.24910000  0.00030000  1.0 -0.2433246008
C  C97  1  0.68970000  0.24170000  0.56400000  1.0 -0.4495914287
C  C98  1  0.75830000  0.31030000  0.06400000  1.0 -0.4495914287
C  C99  1  0.88160000  0.43740000  0.44600000  1.0 -0.4495914287
C  C100  1  0.56260000  0.11840000  0.94600000  1.0 -0.4495914287
C  C101  1  0.82700000  0.26980000  0.47060000  1.0 0.1299718978
C  C102  1  0.73020000  0.17300000  0.97060000  1.0 0.1299718978
C  C103  1  0.88990000  0.21630000  0.52830000  1.0 -0.1850927404
C  C104  1  0.78370000  0.11010000  0.02830000  1.0 -0.1844151846
C  C105  1  0.93380000  0.14700000  0.50150000  1.0 0.067811034
C  C106  1  0.85300000  0.06620000  0.00150000  1.0 0.067811034
C  C107  1  0.85210000  0.18510000  0.35940000  1.0 0.0785995927
C  C108  1  0.81490000  0.14790000  0.85940000  1.0 0.0785995927
C  C109  1  0.80810000  0.25430000  0.38620000  1.0 -0.1955589398
C  C110  1  0.74570000  0.19190000  0.88620000  1.0 -0.1955589398
N  N1  1  0.56010000  0.01870000  0.47350000  1.0 -0.0688169336
N  N2  1  0.98130000  0.43990000  0.97350000  1.0 -0.0688169336
N  N3  1  0.50320000  0.03800000  0.49760000  1.0 -0.0825757297
N  N4  1  0.96200000  0.49680000  0.99760000  1.0 -0.0825757297
N  N5  1  0.06830000  0.48230000  0.60100000  1.0 -0.2522291026
N  N6  1  0.51770000  0.93170000  0.10100000  1.0 -0.2522291026
N  N7  1  0.01690000  0.54570000  0.63380000  1.0 -0.2681773684
N  N8  1  0.45430000  0.98310000  0.13380000  1.0 -0.2681773684
N  N9  1  0.15780000  0.90260000  0.68260000  1.0 -0.2522291026
N  N10  1  0.09740000  0.84220000  0.18260000  1.0 -0.2522291026
N  N11  1  0.55110000  0.53310000  0.54700000  1.0 -0.2062969139
N  N12  1  0.46690000  0.44890000  0.04700000  1.0 -0.2062969139
N  N13  1  0.91500000  0.13140000  0.41710000  1.0 -0.2522291026
N  N14  1  0.86860000  0.08500000  0.91710000  1.0 -0.2522291026
O  O1  1  0.95160000  0.96860000  0.65260000  1.0 -0.4890110275
O  O2  1  0.03140000  0.04840000  0.15260000  1.0 -0.4890110275
O  O3  1  0.88180000  0.00880000  0.75720000  1.0 -0.5694432488
O  O4  1  0.99120000  0.11820000  0.25720000  1.0 -0.5694432488
O  O5  1  0.14990000  0.96750000  0.29590000  1.0 -0.4890110275
O  O6  1  0.03250000  0.85010000  0.79590000  1.0 -0.4890110275
O  O7  1  0.10890000  0.03670000  0.40310000  1.0 -0.5822850546
O  O8  1  0.96330000  0.89110000  0.90310000  1.0 -0.5822850546
O  O9  1  0.07020000  0.08460000  0.70750000  1.0 -0.4358163408
O  O10  1  0.91540000  0.92980000  0.20750000  1.0 -0.4358163408
O  O11  1  0.99800000  0.13000000  0.80800000  1.0 -0.5822850546
O  O12  1  0.87000000  0.00200000  0.30800000  1.0 -0.5822850546
O  O13  1  0.03460000  0.86540000  0.35170000  1.0 -0.5694432488
O  O14  1  0.13460000  0.96540000  0.85170000  1.0 -0.5694432488
O  O15  1  0.99280000  0.93260000  0.45770000  1.0 -0.5361557683
O  O16  1  0.06740000  0.00720000  0.95770000  1.0 -0.5361557683
