# DDEC6 charges by PACMAN v1.1 (https://github.com/mtap-research/PACMAN-charge/)
data_HOJNAY_ASR_pacman
_symmetry_space_group_name_H-M   'P 1'
_cell_length_a   10.89560000
_cell_length_b   11.01390000
_cell_length_c   16.54370000
_cell_angle_alpha   88.38700000
_cell_angle_beta   107.46600000
_cell_angle_gamma   116.74400000
_symmetry_Int_Tables_number   1
_chemical_formula_structural   Tb3H24C54(O12F5)2
_chemical_formula_sum   'Tb3 H24 C54 O24 F10'
_cell_volume   1677.80642471
_cell_formula_units_Z   1
loop_
 _symmetry_equiv_pos_site_id
 _symmetry_equiv_pos_as_xyz
  1  'x, y, z'
loop_
 _atom_site_type_symbol
 _atom_site_label
 _atom_site_symmetry_multiplicity
 _atom_site_fract_x
 _atom_site_fract_y
 _atom_site_fract_z
 _atom_site_occupancy
 _atom_site_charge
Tb  Tb1  1  0.68882000  0.03567000  0.08659000  1.0 2.0336996841
Tb  Tb2  1  0.31118000  0.96433000  0.91341000  1.0 2.0336996841
Tb  Tb3  1  0.00000000  0.00000000  0.50000000  1.0 1.1910687017
H  H1  1  0.62910000  0.39060000  0.07460000  1.0 0.1578218716
H  H2  1  0.49660000  0.03190000  0.26800000  1.0 0.1278530921
H  H3  1  0.21140000  0.15390000  0.12680000  1.0 0.122738605
H  H4  1  0.12620000  0.14620000  0.24060000  1.0 0.1043008625
H  H5  1  0.99820000  0.45370000  0.86910000  1.0 0.122738605
H  H6  1  0.83420000  0.67740000  0.94120000  1.0 0.122738605
H  H7  1  0.80470000  0.25420000  0.88250000  1.0 0.1278530921
H  H8  1  0.39840000  0.85040000  0.38640000  1.0 0.222558156
H  H9  1  0.74640000  0.89720000  0.27590000  1.0 0.1043008625
H  H10  1  0.61380000  0.13720000  0.45360000  1.0 0.2071119773
H  H11  1  0.22250000  0.87760000  0.37330000  1.0 0.203981981
H  H12  1  0.48410000  0.19690000  0.50550000  1.0 0.203981981
H  H13  1  0.37090000  0.60940000  0.92540000  1.0 0.1578218716
H  H14  1  0.50340000  0.96810000  0.73200000  1.0 0.1278530921
H  H15  1  0.78860000  0.84610000  0.87320000  1.0 0.122738605
H  H16  1  0.87380000  0.85380000  0.75940000  1.0 0.1043008625
H  H17  1  0.00180000  0.54630000  0.13090000  1.0 0.122738605
H  H18  1  0.16580000  0.32260000  0.05880000  1.0 0.122738605
H  H19  1  0.19530000  0.74580000  0.11750000  1.0 0.1278530921
H  H20  1  0.60160000  0.14960000  0.61360000  1.0 0.222558156
H  H21  1  0.25360000  0.10280000  0.72410000  1.0 0.1043008625
H  H22  1  0.38620000  0.86280000  0.54640000  1.0 0.2071119773
H  H23  1  0.77750000  0.12240000  0.62670000  1.0 0.203981981
H  H24  1  0.51590000  0.80310000  0.49450000  1.0 0.203981981
C  C1  1  0.93460000  0.58650000  0.90390000  1.0 -0.0155520613
C  C2  1  0.06250000  0.71560000  0.90050000  1.0 0.5511434603
C  C3  1  0.57500000  0.21660000  0.92340000  1.0 0.6177160072
C  C4  1  0.71010000  0.47340000  0.93730000  1.0 0.0663650784
C  C5  1  0.42750000  0.09000000  0.12170000  1.0 0.6320785809
C  C6  1  0.70260000  0.34610000  0.92020000  1.0 -0.0605583951
C  C7  1  0.57730000  0.43410000  0.04370000  1.0 -0.2502015901
C  C8  1  0.42240000  0.05480000  0.26250000  1.0 -0.2039681149
C  C9  1  0.36250000  0.09370000  0.18620000  1.0 -0.0351939981
C  C10  1  0.25150000  0.12790000  0.17800000  1.0 -0.0725795735
C  C11  1  0.20040000  0.12330000  0.24610000  1.0 -0.1839959991
C  C12  1  0.26040000  0.08450000  0.32250000  1.0 -0.159351505
C  C13  1  0.37130000  0.05020000  0.33070000  1.0 0.0039413074
C  C14  1  0.60040000  0.48450000  0.96850000  1.0 -0.0337815766
C  C15  1  0.92650000  0.45860000  0.88620000  1.0 -0.1020956222
C  C16  1  0.82790000  0.59250000  0.92920000  1.0 -0.1486668261
C  C17  1  0.81040000  0.33900000  0.89430000  1.0 -0.1197687831
C  C18  1  0.47880000  0.44850000  0.07210000  1.0 0.2365915406
C  C19  1  0.43200000  0.03900000  0.41820000  1.0 -0.1486668261
C  C20  1  0.44900000  0.92000000  0.43460000  1.0 0.0469018149
C  C21  1  0.49300000  0.11870000  0.49880000  1.0 0.0232317041
C  C22  1  0.18210000  0.09230000  0.38040000  1.0 0.5010185617
C  C23  1  0.79900000  0.99100000  0.29460000  1.0 0.5301912355
C  C24  1  0.54500000  0.07070000  0.46830000  1.0 0.0039413074
C  C25  1  0.29240000  0.90060000  0.42700000  1.0 -0.0605583951
C  C26  1  0.41690000  0.01060000  0.41770000  1.0 -0.1434481985
C  C27  1  0.18560000  0.08990000  0.38160000  1.0 0.5010185617
C  C28  1  0.06540000  0.41350000  0.09610000  1.0 -0.0155520613
C  C29  1  0.93750000  0.28440000  0.09950000  1.0 0.5511434603
C  C30  1  0.42500000  0.78340000  0.07660000  1.0 0.6177160072
C  C31  1  0.28990000  0.52660000  0.06270000  1.0 0.0663650784
C  C32  1  0.57250000  0.91000000  0.87830000  1.0 0.6320785809
C  C33  1  0.29740000  0.65390000  0.07980000  1.0 -0.0605583951
C  C34  1  0.42270000  0.56590000  0.95630000  1.0 -0.2502015901
C  C35  1  0.57760000  0.94520000  0.73750000  1.0 -0.2039681149
C  C36  1  0.63750000  0.90630000  0.81380000  1.0 -0.0351939981
C  C37  1  0.74850000  0.87210000  0.82200000  1.0 -0.0725795735
C  C38  1  0.79960000  0.87670000  0.75390000  1.0 -0.1839959991
C  C39  1  0.73960000  0.91550000  0.67750000  1.0 -0.159351505
C  C40  1  0.62870000  0.94980000  0.66930000  1.0 0.0039413074
C  C41  1  0.39960000  0.51550000  0.03150000  1.0 -0.0337815766
C  C42  1  0.07350000  0.54140000  0.11380000  1.0 -0.1020956222
C  C43  1  0.17210000  0.40750000  0.07080000  1.0 -0.1486668261
C  C44  1  0.18960000  0.66100000  0.10570000  1.0 -0.1197687831
C  C45  1  0.52120000  0.55150000  0.92790000  1.0 0.2365915406
C  C46  1  0.56800000  0.96100000  0.58180000  1.0 -0.1486668261
C  C47  1  0.55100000  0.08000000  0.56540000  1.0 0.0469018149
C  C48  1  0.50700000  0.88130000  0.50120000  1.0 0.0232317041
C  C49  1  0.81790000  0.90770000  0.61960000  1.0 0.5010185617
C  C50  1  0.20100000  0.00900000  0.70540000  1.0 0.5301912355
C  C51  1  0.45500000  0.92930000  0.53170000  1.0 0.0039413074
C  C52  1  0.70760000  0.09940000  0.57300000  1.0 -0.0605583951
C  C53  1  0.58310000  0.98940000  0.58230000  1.0 -0.1434481985
C  C54  1  0.81440000  0.91010000  0.61840000  1.0 0.5010185617
O  O1  1  0.59240000  0.13780000  0.97690000  1.0 -0.702162571
O  O2  1  0.55080000  0.09710000  0.14390000  1.0 -0.6362549138
O  O3  1  0.34910000  0.07830000  0.04490000  1.0 -0.669221915
O  O4  1  0.15100000  0.71170000  0.86840000  1.0 -0.590175457
O  O5  1  0.07990000  0.82650000  0.93120000  1.0 -0.6195991707
O  O6  1  0.45390000  0.18880000  0.87290000  1.0 -0.590175457
O  O7  1  0.15930000  0.02680000  0.44120000  1.0 -0.2907421213
O  O8  1  0.13600000  0.17510000  0.36500000  1.0 -0.1434481985
O  O9  1  0.80740000  0.06620000  0.23880000  1.0 -0.5642968189
O  O10  1  0.85500000  0.02400000  0.37480000  1.0 -0.669221915
O  O11  1  0.20900000  0.20680000  0.40400000  1.0 -0.1434481985
O  O12  1  0.10300000  0.98210000  0.39600000  1.0 -0.2371089529
O  O13  1  0.40760000  0.86220000  0.02310000  1.0 -0.702162571
O  O14  1  0.44920000  0.90290000  0.85610000  1.0 -0.6362549138
O  O15  1  0.65090000  0.92170000  0.95510000  1.0 -0.669221915
O  O16  1  0.84900000  0.28830000  0.13160000  1.0 -0.590175457
O  O17  1  0.92010000  0.17350000  0.06880000  1.0 -0.6195991707
O  O18  1  0.54610000  0.81120000  0.12710000  1.0 -0.590175457
O  O19  1  0.84070000  0.97320000  0.55880000  1.0 -0.2907421213
O  O20  1  0.86400000  0.82490000  0.63500000  1.0 -0.1434481985
O  O21  1  0.19260000  0.93380000  0.76120000  1.0 -0.5642968189
O  O22  1  0.14500000  0.97600000  0.62520000  1.0 -0.669221915
O  O23  1  0.79100000  0.79320000  0.59600000  1.0 -0.1434481985
O  O24  1  0.89700000  0.01790000  0.60400000  1.0 -0.2371089529
F  F1  1  0.46270000  0.40060000  0.14620000  1.0 -0.1486668261
F  F2  1  0.48100000  0.23180000  0.49970000  1.0 -0.1126510647
F  F3  1  0.17810000  0.87770000  0.34730000  1.0 -0.1020956222
F  F4  1  0.65810000  0.19080000  0.46910000  1.0 -0.0939274353
F  F5  1  0.39300000  0.83000000  0.36190000  1.0 -0.1197687831
F  F6  1  0.53730000  0.59940000  0.85380000  1.0 -0.1486668261
F  F7  1  0.51900000  0.76820000  0.50030000  1.0 -0.1126510647
F  F8  1  0.82190000  0.12230000  0.65270000  1.0 -0.1020956222
F  F9  1  0.34190000  0.80920000  0.53090000  1.0 -0.0939274353
F  F10  1  0.60700000  0.17000000  0.63810000  1.0 -0.1197687831
