# DDEC6 charges by PACMAN v1.1 (https://github.com/mtap-research/PACMAN-charge/)
data_HOMXIR_ASR_pacman
_symmetry_space_group_name_H-M   'P 1'
_cell_length_a   17.50910000
_cell_length_b   41.25550000
_cell_length_c   41.25550000
_cell_angle_alpha   120.00000000
_cell_angle_beta   90.00000000
_cell_angle_gamma   90.00000000
_symmetry_Int_Tables_number   1
_chemical_formula_structural   Zn8H47(C44O13)2
_chemical_formula_sum   'Zn24 H141 C264 O78'
_cell_volume   25808.22668911
_cell_formula_units_Z   3
loop_
 _symmetry_equiv_pos_site_id
 _symmetry_equiv_pos_as_xyz
  1  'x, y, z'
loop_
 _atom_site_type_symbol
 _atom_site_label
 _atom_site_symmetry_multiplicity
 _atom_site_fract_x
 _atom_site_fract_y
 _atom_site_fract_z
 _atom_site_occupancy
 _atom_site_charge
Zn  Zn1  1  0.83733000  0.59522000  0.96853000  1.0 0.9133721959
Zn  Zn2  1  0.83148000  0.37355000  0.40545000  1.0 0.9133721959
Zn  Zn3  1  0.83570000  0.03132000  0.62776000  1.0 0.918221512
Zn  Zn4  1  0.33744000  0.40455000  0.03159000  1.0 0.918221512
Zn  Zn5  1  0.33159000  0.62733000  0.59546000  1.0 0.918221512
Zn  Zn6  1  0.33867000  0.96869000  0.37185000  1.0 0.918221512
Zn  Zn7  1  0.16586000  0.40481000  0.03160000  1.0 0.918221512
Zn  Zn8  1  0.16013000  0.62665000  0.59551000  1.0 0.918221512
Zn  Zn9  1  0.16707000  0.96806000  0.37343000  1.0 0.918221512
Zn  Zn10  1  0.66581000  0.59490000  0.96833000  1.0 0.918221512
Zn  Zn11  1  0.66005000  0.37350000  0.40496000  1.0 0.918221512
Zn  Zn12  1  0.66451000  0.03174000  0.62606000  1.0 0.918221512
Zn  Zn13  1  0.75246000  0.57017000  0.89693000  1.0 0.9133721959
Zn  Zn14  1  0.75161000  0.52229000  0.93295000  1.0 0.9133721959
Zn  Zn15  1  0.74473000  0.32689000  0.43012000  1.0 0.9133721959
Zn  Zn16  1  0.74582000  0.41073000  0.47799000  1.0 0.9133721959
Zn  Zn17  1  0.75030000  0.10304000  0.67340000  1.0 0.918221512
Zn  Zn18  1  0.75384000  0.06709000  0.58958000  1.0 0.9133721959
Zn  Zn19  1  0.25207000  0.42935000  0.10301000  1.0 0.9133721959
Zn  Zn20  1  0.25152000  0.47744000  0.06722000  1.0 0.9133721959
Zn  Zn21  1  0.24455000  0.67345000  0.57035000  1.0 0.9133721959
Zn  Zn22  1  0.24607000  0.58957000  0.52273000  1.0 0.918221512
Zn  Zn23  1  0.25318000  0.89698000  0.32551000  1.0 0.9133721959
Zn  Zn24  1  0.25702000  0.93221000  0.40911000  1.0 0.9039574797
H  H1  1  0.02878000  0.64097000  0.94640000  1.0 0.1114792357
H  H2  1  0.14683000  0.64856000  0.91944000  1.0 0.1114792357
H  H3  1  0.04468000  0.59027000  0.80945000  1.0 0.1114792357
H  H4  1  0.92590000  0.58426000  0.83674000  1.0 0.1114792357
H  H5  1  0.12831000  0.62938000  0.80196000  1.0 0.1017348209
H  H6  1  0.35772000  0.65554000  0.76777000  1.0 0.1114792357
H  H7  1  0.89326000  0.46125000  0.96173000  1.0 0.116531259
H  H8  1  0.01338000  0.56675000  0.01737000  1.0 0.116531259
H  H9  1  0.70054000  0.42091000  0.83189000  1.0 0.116531259
H  H10  1  0.69811000  0.36760000  0.76814000  1.0 0.1114792357
H  H11  1  0.35692000  0.65534000  0.70855000  1.0 0.1114792357
H  H12  1  0.02126000  0.30425000  0.35873000  1.0 0.1114792357
H  H13  1  0.13868000  0.26972000  0.35151000  1.0 0.1017348209
H  H14  1  0.03987000  0.21864000  0.41114000  1.0 0.1114792357
H  H15  1  0.91898000  0.25062000  0.41664000  1.0 0.116531259
H  H16  1  0.12323000  0.17205000  0.37132000  1.0 0.1017348209
H  H17  1  0.35383000  0.11274000  0.34325000  1.0 0.1114792357
H  H18  1  0.88877000  0.50006000  0.53964000  1.0 0.116531259
H  H19  1  0.00886000  0.44988000  0.43411000  1.0 0.116531259
H  H20  1  0.67668000  0.29737000  0.56797000  1.0 0.1114792357
H  H21  1  0.67780000  0.30690000  0.51436000  1.0 0.116531259
H  H22  1  0.35677000  0.05383000  0.34356000  1.0 0.1114792357
H  H23  1  0.02607000  0.05422000  0.69668000  1.0 0.116531259
H  H24  1  0.14372000  0.08169000  0.73093000  1.0 0.1017348209
H  H25  1  0.04481000  0.19235000  0.78159000  1.0 0.1017348209
H  H26  1  0.92377000  0.16574000  0.74988000  1.0 0.116531259
H  H27  1  0.12811000  0.19912000  0.82822000  1.0 0.1017348209
H  H28  1  0.35882000  0.23176000  0.88741000  1.0 0.1114792357
H  H29  1  0.69261000  0.27090000  0.70394000  1.0 0.1017348209
H  H30  1  0.69304000  0.20786000  0.69439000  1.0 0.1114792357
H  H31  1  0.36018000  0.29105000  0.94634000  1.0 0.1114792357
H  H32  1  0.52854000  0.35834000  0.05442000  1.0 0.1114792357
H  H33  1  0.64665000  0.35148000  0.08184000  1.0 0.1017348209
H  H34  1  0.54653000  0.41410000  0.19203000  1.0 0.1114792357
H  H35  1  0.42760000  0.41919000  0.16431000  1.0 0.1114792357
H  H36  1  0.62843000  0.37715000  0.20213000  1.0 0.1017348209
H  H37  1  0.85836000  0.40259000  0.26257000  1.0 0.1017348209
H  H38  1  0.39350000  0.53870000  0.03867000  1.0 0.116531259
H  H39  1  0.51330000  0.43312000  0.98284000  1.0 0.116531259
H  H40  1  0.19910000  0.57850000  0.16818000  1.0 0.1114792357
H  H41  1  0.19683000  0.63186000  0.23188000  1.0 0.1114792357
H  H42  1  0.85729000  0.40067000  0.32058000  1.0 0.1114792357
H  H43  1  0.52066000  0.69581000  0.64125000  1.0 0.1114792357
H  H44  1  0.63882000  0.73025000  0.64905000  1.0 0.1017348209
H  H45  1  0.53913000  0.78080000  0.58914000  1.0 0.1017348209
H  H46  1  0.42000000  0.74746000  0.58279000  1.0 0.116531259
H  H47  1  0.62269000  0.82776000  0.62870000  1.0 0.1017348209
H  H48  1  0.85268000  0.88779000  0.65705000  1.0 0.1114792357
H  H49  1  0.38876000  0.50063000  0.46140000  1.0 0.1114792357
H  H50  1  0.50911000  0.55032000  0.56683000  1.0 0.116531259
H  H51  1  0.17763000  0.70284000  0.43248000  1.0 0.1114792357
H  H52  1  0.17875000  0.69345000  0.48617000  1.0 0.1114792357
H  H53  1  0.85469000  0.94668000  0.65667000  1.0 0.1114792357
H  H54  1  0.52885000  0.94649000  0.30349000  1.0 0.1114792357
H  H55  1  0.64710000  0.91960000  0.26916000  1.0 0.1017348209
H  H56  1  0.54598000  0.80942000  0.21811000  1.0 0.1017348209
H  H57  1  0.42695000  0.83662000  0.25122000  1.0 0.116531259
H  H58  1  0.62992000  0.80182000  0.17146000  1.0 0.1017348209
H  H59  1  0.86015000  0.76800000  0.11180000  1.0 0.1114792357
H  H60  1  0.39747000  0.96146000  0.49813000  1.0 0.1114792357
H  H61  1  0.51721000  0.01815000  0.44925000  1.0 0.116531259
H  H62  1  0.19829000  0.72827000  0.29360000  1.0 0.1017348209
H  H63  1  0.19917000  0.79121000  0.30295000  1.0 0.1114792357
H  H64  1  0.86057000  0.70853000  0.05308000  1.0 0.1114792357
H  H65  1  0.97501000  0.35823000  0.05426000  1.0 0.1114792357
H  H66  1  0.85779000  0.35106000  0.08175000  1.0 0.1017348209
H  H67  1  0.95763000  0.41025000  0.19226000  1.0 0.1017348209
H  H68  1  0.07831000  0.41562000  0.16556000  1.0 0.116531259
H  H69  1  0.87370000  0.37099000  0.19946000  1.0 0.1017348209
H  H70  1  0.64229000  0.34396000  0.23145000  1.0 0.1114792357
H  H71  1  0.10881000  0.53927000  0.03961000  1.0 0.116531259
H  H72  1  0.98866000  0.43378000  0.98395000  1.0 0.116531259
H  H73  1  0.31424000  0.56579000  0.27117000  1.0 0.1017348209
H  H74  1  0.31186000  0.51214000  0.20806000  1.0 0.1114792357
H  H75  1  0.63925000  0.34477000  0.29094000  1.0 0.1114792357
H  H76  1  0.96821000  0.69568000  0.64185000  1.0 0.1114792357
H  H77  1  0.85022000  0.73009000  0.64882000  1.0 0.1017348209
H  H78  1  0.95103000  0.77837000  0.58701000  1.0 0.1114792357
H  H79  1  0.06979000  0.74543000  0.58180000  1.0 0.1114792357
H  H80  1  0.86812000  0.82519000  0.62357000  1.0 0.1017348209
H  H81  1  0.63807000  0.85929000  0.59714000  1.0 0.1017348209
H  H82  1  0.10441000  0.49953000  0.46145000  1.0 0.116531259
H  H83  1  0.98431000  0.54971000  0.56697000  1.0 0.116531259
H  H84  1  0.30133000  0.58975000  0.42188000  1.0 0.116531259
H  H85  1  0.30505000  0.60015000  0.36858000  1.0 0.1017348209
H  H86  1  0.63808000  0.91941000  0.59941000  1.0 0.1114792357
H  H87  1  0.97608000  0.94580000  0.30397000  1.0 0.116531259
H  H88  1  0.85827000  0.91861000  0.26933000  1.0 0.1017348209
H  H89  1  0.95797000  0.80830000  0.22131000  1.0 0.1114792357
H  H90  1  0.07673000  0.83583000  0.25444000  1.0 0.1114792357
H  H91  1  0.87513000  0.79789000  0.17448000  1.0 0.1017348209
H  H92  1  0.64333000  0.73880000  0.14061000  1.0 0.1017348209
H  H93  1  0.11260000  0.95826000  0.50331000  1.0 0.1485480005
H  H94  1  0.31404000  0.83156000  0.40876000  1.0 0.116531259
H  H95  1  0.31782000  0.76789000  0.39850000  1.0 0.1114792357
H  H96  1  0.64183000  0.68082000  0.08067000  1.0 0.1114792357
H  H97  1  0.47598000  0.64131000  0.94518000  1.0 0.1114792357
H  H98  1  0.35799000  0.64859000  0.91805000  1.0 0.1017348209
H  H99  1  0.45677000  0.58566000  0.80761000  1.0 0.1114792357
H  H100  1  0.57579000  0.58004000  0.83507000  1.0 0.116531259
H  H101  1  0.37354000  0.62242000  0.79737000  1.0 0.1017348209
H  H102  1  0.14099000  0.59746000  0.73892000  1.0 0.1017348209
H  H103  1  0.60876000  0.46058000  0.96061000  1.0 0.116531259
H  H104  1  0.48896000  0.56615000  0.01644000  1.0 0.116531259
H  H105  1  0.81666000  0.43360000  0.72910000  1.0 0.1017348209
H  H106  1  0.81451000  0.48716000  0.79222000  1.0 0.1114792357
H  H107  1  0.13828000  0.59995000  0.68123000  1.0 0.1114792357
H  H108  1  0.46821000  0.30481000  0.35909000  1.0 0.1114792357
H  H109  1  0.35011000  0.27048000  0.35214000  1.0 0.1017348209
H  H110  1  0.45059000  0.22233000  0.41415000  1.0 0.1114792357
H  H111  1  0.56947000  0.25520000  0.41934000  1.0 0.1114792357
H  H112  1  0.36851000  0.17535000  0.37711000  1.0 0.1017348209
H  H113  1  0.13901000  0.14051000  0.40295000  1.0 0.1017348209
H  H114  1  0.60453000  0.50060000  0.53920000  1.0 0.116531259
H  H115  1  0.48413000  0.45094000  0.43378000  1.0 0.116531259
H  H116  1  0.80394000  0.40954000  0.57816000  1.0 0.116531259
H  H117  1  0.80793000  0.39891000  0.63130000  1.0 0.1017348209
H  H118  1  0.13995000  0.08036000  0.40062000  1.0 0.116531259
H  H119  1  0.47291000  0.05452000  0.69505000  1.0 0.116531259
H  H120  1  0.35508000  0.08188000  0.72962000  1.0 0.1017348209
H  H121  1  0.45549000  0.19205000  0.77766000  1.0 0.1114792357
H  H122  1  0.57418000  0.16436000  0.74456000  1.0 0.1114792357
H  H123  1  0.37330000  0.20226000  0.82467000  1.0 0.1017348209
H  H124  1  0.14267000  0.26214000  0.85920000  1.0 0.1017348209
H  H125  1  0.61190000  0.04061000  0.49948000  1.0 0.116531259
H  H126  1  0.49171000  0.98384000  0.54814000  1.0 0.1114792357
H  H127  1  0.81415000  0.16822000  0.59025000  1.0 0.116531259
H  H128  1  0.81839000  0.23205000  0.60080000  1.0 0.1114792357
H  H129  1  0.14207000  0.31991000  0.91930000  1.0 0.1114792357
H  H130  1  0.73929000  0.39812000  0.67855000  1.0 0.1017348209
H  H131  1  0.74991000  0.27976000  0.60175000  1.0 0.1017348209
H  H132  1  0.76946000  0.32191000  0.71991000  1.0 0.1017348209
H  H133  1  0.23634000  0.60191000  0.32162000  1.0 0.1017348209
H  H134  1  0.25394000  0.71993000  0.39885000  1.0 0.1017348209
H  H135  1  0.27131000  0.67684000  0.27901000  1.0 0.1017348209
H  H136  1  0.25174000  0.61495000  0.88381000  1.0 0.1017348209
H  H137  1  0.24401000  0.26904000  0.38569000  1.0 0.1017348209
H  H138  1  0.24890000  0.11665000  0.73123000  1.0 0.1017348209
H  H139  1  0.75286000  0.38509000  0.11667000  1.0 0.1017348209
H  H140  1  0.74446000  0.73139000  0.61523000  1.0 0.1017348209
H  H141  1  0.75206000  0.88424000  0.26791000  1.0 0.1017348209
C  C1  1  0.89833000  0.60364000  0.90969000  1.0 0.6067038412
C  C2  1  0.96733000  0.61216000  0.89384000  1.0 -0.048029288
C  C3  1  0.03113000  0.63031000  0.91652000  1.0 -0.0825750041
C  C4  1  0.09938000  0.63428000  0.90092000  1.0 -0.1463672782
C  C5  1  0.10643000  0.61981000  0.86204000  1.0 0.0810079519
C  C6  1  0.04180000  0.60241000  0.83952000  1.0 -0.1463672782
C  C7  1  0.97330000  0.59884000  0.85520000  1.0 -0.0896508879
C  C8  1  0.18100000  0.62187000  0.84487000  1.0 0.0810079519
C  C9  1  0.18183000  0.62555000  0.81268000  1.0 -0.1977045335
C  C10  1  0.30993000  0.64261000  0.74903000  1.0 -0.1434918391
C  C11  1  0.88736000  0.53289000  0.97381000  1.0 0.6037646766
C  C12  1  0.94543000  0.51630000  0.98773000  1.0 -0.0331584889
C  C13  1  0.93997000  0.47864000  0.97873000  1.0 -0.0896508879
C  C14  1  0.00721000  0.53771000  0.00989000  1.0 -0.0956841921
C  C15  1  0.72610000  0.42383000  0.80958000  1.0 -0.0825750041
C  C16  1  0.72519000  0.39324000  0.77302000  1.0 -0.1463672782
C  C17  1  0.30930000  0.64283000  0.71509000  1.0 -0.0825750041
C  C18  1  0.89109000  0.30595000  0.39692000  1.0 0.6037646766
C  C19  1  0.95941000  0.28121000  0.38795000  1.0 -0.048029288
C  C20  1  0.02328000  0.28527000  0.36970000  1.0 -0.0896508879
C  C21  1  0.09140000  0.26571000  0.36605000  1.0 -0.1463672782
C  C22  1  0.09935000  0.24170000  0.38102000  1.0 0.0810079519
C  C23  1  0.03567000  0.23639000  0.39884000  1.0 -0.1463672782
C  C24  1  0.96633000  0.25478000  0.40223000  1.0 -0.0896508879
C  C25  1  0.17447000  0.22279000  0.37878000  1.0 0.0810079519
C  C26  1  0.17636000  0.18684000  0.37493000  1.0 -0.1977045335
C  C27  1  0.30725000  0.10663000  0.35658000  1.0 -0.1434918391
C  C28  1  0.88246000  0.44061000  0.46797000  1.0 0.6037646766
C  C29  1  0.94093000  0.47089000  0.48460000  1.0 -0.0331584889
C  C30  1  0.93555000  0.49958000  0.52223000  1.0 -0.0896508879
C  C31  1  0.00278000  0.47148000  0.46314000  1.0 -0.0896508879
C  C32  1  0.70599000  0.32166000  0.57062000  1.0 -0.1463672782
C  C33  1  0.70595000  0.32728000  0.53990000  1.0 -0.0825750041
C  C34  1  0.30879000  0.07252000  0.35643000  1.0 -0.0825750041
C  C35  1  0.89584000  0.09062000  0.69487000  1.0 0.6037646766
C  C36  1  0.96419000  0.10646000  0.71956000  1.0 -0.048029288
C  C37  1  0.02812000  0.08419000  0.71552000  1.0 -0.0896508879
C  C38  1  0.09636000  0.10018000  0.73491000  1.0 -0.1434918391
C  C39  1  0.10430000  0.13919000  0.75872000  1.0 0.0810079519
C  C40  1  0.04058000  0.16228000  0.76399000  1.0 -0.1463672782
C  C41  1  0.97115000  0.14721000  0.74577000  1.0 -0.0896508879
C  C42  1  0.17943000  0.15594000  0.77750000  1.0 0.0810079519
C  C43  1  0.18126000  0.18809000  0.81339000  1.0 -0.1977045335
C  C44  1  0.31162000  0.25085000  0.89342000  1.0 -0.1434918391
C  C45  1  0.88793000  0.02500000  0.56014000  1.0 0.6308891113
C  C46  1  0.94461000  0.00992000  0.52962000  1.0 -0.048029288
C  C47  1  0.95034000  0.01677000  0.49812000  1.0 -0.0331584889
C  C48  1  0.00641000  0.98959000  0.52607000  1.0 -0.048029288
C  C49  1  0.72092000  0.24910000  0.67934000  1.0 -0.1434918391
C  C50  1  0.72044000  0.21281000  0.67371000  1.0 -0.0825750041
C  C51  1  0.31225000  0.28485000  0.92753000  1.0 -0.0825750041
C  C52  1  0.39875000  0.39679000  0.09077000  1.0 0.6067038412
C  C53  1  0.46800000  0.38904000  0.10705000  1.0 -0.048029288
C  C54  1  0.53137000  0.37011000  0.08446000  1.0 -0.0825750041
C  C55  1  0.59968000  0.36660000  0.10033000  1.0 -0.1434918391
C  C56  1  0.60731000  0.38240000  0.13939000  1.0 0.0810079519
C  C57  1  0.54325000  0.40085000  0.16186000  1.0 -0.1434918391
C  C58  1  0.47463000  0.40388000  0.14593000  1.0 -0.0896508879
C  C59  1  0.68161000  0.37990000  0.15651000  1.0 0.0810079519
C  C60  1  0.68216000  0.37718000  0.18928000  1.0 -0.1977045335
C  C61  1  0.81081000  0.38900000  0.26766000  1.0 -0.1434918391
C  C62  1  0.38737000  0.46700000  0.02645000  1.0 0.6037646766
C  C63  1  0.44549000  0.48361000  0.01257000  1.0 -0.0331584889
C  C64  1  0.44015000  0.52129000  0.02163000  1.0 -0.0896508879
C  C65  1  0.50721000  0.46218000  0.99037000  1.0 -0.0956841921
C  C66  1  0.22439000  0.57556000  0.19054000  1.0 -0.0825750041
C  C67  1  0.22358000  0.60618000  0.22707000  1.0 -0.1463672782
C  C68  1  0.80999000  0.38826000  0.30130000  1.0 -0.0825750041
C  C69  1  0.39139000  0.69446000  0.60300000  1.0 0.6037646766
C  C70  1  0.46033000  0.71887000  0.61148000  1.0 -0.048029288
C  C71  1  0.52353000  0.71472000  0.63022000  1.0 -0.0825750041
C  C72  1  0.59187000  0.73423000  0.63433000  1.0 -0.1463672782
C  C73  1  0.59967000  0.75826000  0.61946000  1.0 0.0810079519
C  C74  1  0.53562000  0.76309000  0.60152000  1.0 -0.1434918391
C  C75  1  0.46696000  0.74385000  0.59777000  1.0 -0.0896508879
C  C76  1  0.67453000  0.77734000  0.62172000  1.0 0.0810079519
C  C77  1  0.67602000  0.81319000  0.62533000  1.0 -0.1977045335
C  C78  1  0.80594000  0.89373000  0.64366000  1.0 -0.1434918391
C  C79  1  0.38264000  0.55992000  0.53315000  1.0 0.6037646766
C  C80  1  0.44103000  0.52957000  0.51644000  1.0 -0.0331584889
C  C81  1  0.43556000  0.50100000  0.47874000  1.0 -0.0896508879
C  C82  1  0.50294000  0.52881000  0.53777000  1.0 -0.0896508879
C  C83  1  0.20605000  0.67830000  0.42973000  1.0 -0.1463672782
C  C84  1  0.20606000  0.67279000  0.46051000  1.0 -0.0825750041
C  C85  1  0.80693000  0.92783000  0.64379000  1.0 -0.0825750041
C  C86  1  0.39896000  0.90966000  0.30449000  1.0 0.6067038412
C  C87  1  0.46789000  0.89381000  0.28009000  1.0 -0.048029288
C  C88  1  0.53144000  0.91658000  0.28446000  1.0 -0.0825750041
C  C89  1  0.59981000  0.90102000  0.26501000  1.0 -0.1463672782
C  C90  1  0.60721000  0.86211000  0.24088000  1.0 0.0810079519
C  C91  1  0.54280000  0.83951000  0.23586000  1.0 -0.1434918391
C  C92  1  0.47418000  0.85513000  0.25499000  1.0 -0.0896508879
C  C93  1  0.68199000  0.84504000  0.22191000  1.0 0.0810079519
C  C94  1  0.68327000  0.81274000  0.18613000  1.0 -0.1977045335
C  C95  1  0.81260000  0.74914000  0.10597000  1.0 -0.1434918391
C  C96  1  0.39165000  0.97390000  0.43898000  1.0 0.6037646766
C  C97  1  0.44957000  0.98797000  0.46954000  1.0 -0.0331584889
C  C98  1  0.44393000  0.97873000  0.49801000  1.0 -0.0896508879
C  C99  1  0.51099000  0.01049000  0.47068000  1.0 -0.0956841921
C  C100  1  0.22540000  0.75020000  0.31853000  1.0 -0.1434918391
C  C101  1  0.22516000  0.78644000  0.32403000  1.0 -0.0825750041
C  C102  1  0.81268000  0.71504000  0.07196000  1.0 -0.0896508879
C  C103  1  0.10574000  0.39610000  0.09054000  1.0 0.6037646766
C  C104  1  0.03737000  0.38718000  0.10637000  1.0 -0.048029288
C  C105  1  0.97325000  0.36910000  0.08418000  1.0 -0.0896508879
C  C106  1  0.90524000  0.36548000  0.10022000  1.0 -0.1434918391
C  C107  1  0.89759000  0.38036000  0.13922000  1.0 0.0810079519
C  C108  1  0.96153000  0.39801000  0.16221000  1.0 -0.1463672782
C  C109  1  0.03078000  0.40133000  0.14707000  1.0 -0.0896508879
C  C110  1  0.82248000  0.37827000  0.15604000  1.0 0.0810079519
C  C111  1  0.82058000  0.37461000  0.18828000  1.0 -0.1977045335
C  C112  1  0.68912000  0.35717000  0.25076000  1.0 -0.1434918391
C  C113  1  0.11503000  0.46750000  0.02719000  1.0 0.6037646766
C  C114  1  0.05664000  0.48423000  0.01358000  1.0 -0.0331584889
C  C115  1  0.06204000  0.52190000  0.02263000  1.0 -0.0896508879
C  C116  1  0.99479000  0.46283000  0.99147000  1.0 -0.0896508879
C  C117  1  0.28760000  0.56897000  0.24924000  1.0 -0.1463672782
C  C118  1  0.28687000  0.53823000  0.21295000  1.0 -0.0825750041
C  C119  1  0.68748000  0.35731000  0.28487000  1.0 -0.0896508879
C  C120  1  0.09836000  0.69379000  0.60361000  1.0 0.6067038412
C  C121  1  0.02909000  0.71791000  0.61152000  1.0 -0.048029288
C  C122  1  0.96557000  0.71414000  0.63029000  1.0 -0.0825750041
C  C123  1  0.89732000  0.73360000  0.63386000  1.0 -0.1434918391
C  C124  1  0.88985000  0.75708000  0.61828000  1.0 0.0810079519
C  C125  1  0.95411000  0.76127000  0.60006000  1.0 -0.1434918391
C  C126  1  0.02266000  0.74221000  0.59696000  1.0 -0.0896508879
C  C127  1  0.81541000  0.77659000  0.62062000  1.0 0.0810079519
C  C128  1  0.81452000  0.81210000  0.62332000  1.0 -0.1977045335
C  C129  1  0.68505000  0.87825000  0.61111000  1.0 -0.1434918391
C  C130  1  0.11034000  0.55917000  0.53304000  1.0 0.6037646766
C  C131  1  0.05224000  0.52871000  0.51648000  1.0 -0.0331584889
C  C132  1  0.05767000  0.49999000  0.47886000  1.0 -0.0896508879
C  C133  1  0.99044000  0.52809000  0.53795000  1.0 -0.0896508879
C  C134  1  0.27405000  0.61444000  0.42432000  1.0 -0.0825750041
C  C135  1  0.27564000  0.62037000  0.39371000  1.0 -0.1434918391
C  C136  1  0.68522000  0.91275000  0.61208000  1.0 -0.0825750041
C  C137  1  0.10566000  0.90928000  0.30601000  1.0 0.6067038412
C  C138  1  0.03642000  0.89312000  0.28188000  1.0 -0.048029288
C  C139  1  0.97321000  0.91579000  0.28554000  1.0 -0.0825750041
C  C140  1  0.90506000  0.90003000  0.26594000  1.0 -0.1434918391
C  C141  1  0.89731000  0.86099000  0.24247000  1.0 0.0810079519
C  C142  1  0.96127000  0.83844000  0.23840000  1.0 -0.1434918391
C  C143  1  0.02979000  0.85428000  0.25757000  1.0 -0.0896508879
C  C144  1  0.82282000  0.84400000  0.22287000  1.0 0.0810079519
C  C145  1  0.82168000  0.81106000  0.18745000  1.0 -0.1977045335
C  C146  1  0.69050000  0.73330000  0.12161000  1.0 -0.1434918391
C  C147  1  0.12068000  0.97148000  0.44054000  1.0 0.6209465201
C  C148  1  0.06421000  0.98431000  0.47119000  1.0 -0.0560898339
C  C149  1  0.06786000  0.97505000  0.50092000  1.0 -0.132963634
C  C150  1  0.00030000  0.00580000  0.47454000  1.0 -0.0331584889
C  C151  1  0.28880000  0.80909000  0.38354000  1.0 -0.0825750041
C  C152  1  0.29051000  0.77257000  0.37767000  1.0 -0.1434918391
C  C153  1  0.68978000  0.69969000  0.08722000  1.0 -0.0825750041
C  C154  1  0.60514000  0.60237000  0.90870000  1.0 0.6067038412
C  C155  1  0.53594000  0.61027000  0.89243000  1.0 -0.048029288
C  C156  1  0.47293000  0.62951000  0.91514000  1.0 -0.0896508879
C  C157  1  0.40465000  0.63328000  0.89943000  1.0 -0.1463672782
C  C158  1  0.39657000  0.61746000  0.86038000  1.0 0.0810079519
C  C159  1  0.46035000  0.59883000  0.83776000  1.0 -0.1434918391
C  C160  1  0.52901000  0.59550000  0.85355000  1.0 -0.0896508879
C  C161  1  0.32185000  0.61998000  0.84352000  1.0 0.0810079519
C  C162  1  0.32025000  0.62256000  0.81063000  1.0 -0.1977045335
C  C163  1  0.18789000  0.61109000  0.73341000  1.0 -0.1434918391
C  C164  1  0.61515000  0.53235000  0.97304000  1.0 0.6037646766
C  C165  1  0.55677000  0.51566000  0.98672000  1.0 -0.0331584889
C  C166  1  0.56207000  0.47797000  0.97763000  1.0 -0.0896508879
C  C167  1  0.49501000  0.53709000  0.00889000  1.0 -0.0896508879
C  C168  1  0.78985000  0.43041000  0.75098000  1.0 -0.1434918391
C  C169  1  0.78925000  0.46111000  0.78729000  1.0 -0.0825750041
C  C170  1  0.18647000  0.61217000  0.69995000  1.0 -0.0825750041
C  C171  1  0.59825000  0.30663000  0.39729000  1.0 0.6067038412
C  C172  1  0.52892000  0.28262000  0.38950000  1.0 -0.048029288
C  C173  1  0.46546000  0.28641000  0.37070000  1.0 -0.0825750041
C  C174  1  0.39716000  0.26700000  0.36714000  1.0 -0.1434918391
C  C175  1  0.38964000  0.24356000  0.38275000  1.0 0.0810079519
C  C176  1  0.45378000  0.23940000  0.40106000  1.0 -0.1434918391
C  C177  1  0.52238000  0.25840000  0.40415000  1.0 -0.0896508879
C  C178  1  0.31534000  0.22391000  0.38021000  1.0 0.0810079519
C  C179  1  0.31479000  0.18833000  0.37730000  1.0 -0.1977045335
C  C180  1  0.18624000  0.12170000  0.38903000  1.0 -0.1434918391
C  C181  1  0.61024000  0.44113000  0.46747000  1.0 0.6037646766
C  C182  1  0.55222000  0.47166000  0.48417000  1.0 -0.0331584889
C  C183  1  0.55775000  0.50026000  0.52186000  1.0 -0.0896508879
C  C184  1  0.49037000  0.47246000  0.46284000  1.0 -0.0896508879
C  C185  1  0.77593000  0.38505000  0.57581000  1.0 -0.0825750041
C  C186  1  0.77767000  0.37898000  0.60633000  1.0 -0.1434918391
C  C187  1  0.18696000  0.08719000  0.38803000  1.0 -0.0825750041
C  C188  1  0.60287000  0.09087000  0.69311000  1.0 0.6067038412
C  C189  1  0.53358000  0.10712000  0.71716000  1.0 -0.048029288
C  C190  1  0.47019000  0.08454000  0.71347000  1.0 -0.0825750041
C  C191  1  0.40203000  0.10039000  0.73303000  1.0 -0.1434918391
C  C192  1  0.39454000  0.13943000  0.75651000  1.0 0.0810079519
C  C193  1  0.45863000  0.16190000  0.76057000  1.0 -0.1434918391
C  C194  1  0.52712000  0.14598000  0.74142000  1.0 -0.0896508879
C  C195  1  0.32026000  0.15653000  0.77624000  1.0 0.0810079519
C  C196  1  0.31965000  0.18932000  0.81176000  1.0 -0.1977045335
C  C197  1  0.18988000  0.26734000  0.87810000  1.0 -0.1434918391
C  C198  1  0.61717000  0.02763000  0.55862000  1.0 0.6037646766
C  C199  1  0.55959000  0.01404000  0.52795000  1.0 -0.0331584889
C  C200  1  0.56533000  0.02335000  0.49950000  1.0 -0.0896508879
C  C201  1  0.49809000  0.99158000  0.52678000  1.0 -0.0896508879
C  C202  1  0.78759000  0.19055000  0.61513000  1.0 -0.0825750041
C  C203  1  0.78960000  0.22716000  0.62117000  1.0 -0.1463672782
C  C204  1  0.18970000  0.30084000  0.91259000  1.0 -0.0825750041
C  C205  1  0.75475000  0.49147000  0.85498000  1.0 0.6037646766
C  C206  1  0.75721000  0.45821000  0.81696000  1.0 -0.0560898339
C  C207  1  0.75686000  0.39613000  0.74312000  1.0 0.0810079519
C  C208  1  0.75494000  0.36384000  0.70391000  1.0 0.0810079519
C  C209  1  0.74706000  0.36991000  0.67339000  1.0 -0.1977045335
C  C210  1  0.74326000  0.36359000  0.50882000  1.0 0.6037646766
C  C211  1  0.74114000  0.35892000  0.54211000  1.0 -0.048029288
C  C212  1  0.74301000  0.34707000  0.60414000  1.0 0.0810079519
C  C213  1  0.74704000  0.33992000  0.63629000  1.0 0.0810079519
C  C214  1  0.75123000  0.30312000  0.63006000  1.0 -0.1977045335
C  C215  1  0.75381000  0.14504000  0.63668000  1.0 0.6037646766
C  C216  1  0.75365000  0.18313000  0.64158000  1.0 -0.048029288
C  C217  1  0.75623000  0.25701000  0.65342000  1.0 0.0810079519
C  C218  1  0.75665000  0.29616000  0.66008000  1.0 0.0810079519
C  C219  1  0.76066000  0.32685000  0.69678000  1.0 -0.1977045335
C  C220  1  0.25328000  0.50800000  0.14516000  1.0 0.6037646766
C  C221  1  0.25526000  0.54117000  0.18322000  1.0 -0.0560898339
C  C222  1  0.25519000  0.60332000  0.25699000  1.0 0.0810079519
C  C223  1  0.25429000  0.63584000  0.29607000  1.0 0.0810079519
C  C224  1  0.24550000  0.63003000  0.32679000  1.0 -0.1977045335
C  C225  1  0.24283000  0.63644000  0.49162000  1.0 0.6037646766
C  C226  1  0.24041000  0.64094000  0.45822000  1.0 -0.0560898339
C  C227  1  0.24208000  0.65256000  0.39605000  1.0 0.0810079519
C  C228  1  0.24661000  0.65983000  0.36401000  1.0 0.0810079519
C  C229  1  0.25299000  0.69657000  0.37055000  1.0 -0.2138584321
C  C230  1  0.25671000  0.85442000  0.36160000  1.0 0.6037646766
C  C231  1  0.25669000  0.81630000  0.35658000  1.0 -0.0560898339
C  C232  1  0.25878000  0.74256000  0.34504000  1.0 0.0810079519
C  C233  1  0.25877000  0.70363000  0.33878000  1.0 0.0810079519
C  C234  1  0.26194000  0.67252000  0.30250000  1.0 -0.1977045335
C  C235  1  0.25156000  0.61909000  0.85991000  1.0 -0.1977045335
C  C236  1  0.25068000  0.62506000  0.79461000  1.0 0.0810079519
C  C237  1  0.24946000  0.62646000  0.75875000  1.0 0.0810079519
C  C238  1  0.24741000  0.62776000  0.69018000  1.0 -0.048029288
C  C239  1  0.24678000  0.62777000  0.65402000  1.0 0.6067038412
C  C240  1  0.24456000  0.24094000  0.38141000  1.0 -0.1977045335
C  C241  1  0.24586000  0.16947000  0.37493000  1.0 0.0810079519
C  C242  1  0.24629000  0.13209000  0.37324000  1.0 0.0810079519
C  C243  1  0.24858000  0.06232000  0.37206000  1.0 -0.048029288
C  C244  1  0.25029000  0.02619000  0.37208000  1.0 0.6037646766
C  C245  1  0.24950000  0.14053000  0.75930000  1.0 -0.1977045335
C  C246  1  0.25064000  0.20571000  0.83063000  1.0 0.0810079519
C  C247  1  0.25065000  0.24156000  0.86788000  1.0 0.0810079519
C  C248  1  0.25114000  0.31019000  0.93761000  1.0 -0.048029288
C  C249  1  0.25154000  0.34630000  0.97379000  1.0 0.6067038412
C  C250  1  0.75236000  0.38093000  0.14056000  1.0 -0.1977045335
C  C251  1  0.75106000  0.37480000  0.20578000  1.0 0.0810079519
C  C252  1  0.75050000  0.37336000  0.24163000  1.0 0.0810079519
C  C253  1  0.74802000  0.37273000  0.31052000  1.0 -0.044498681
C  C254  1  0.74675000  0.37282000  0.34672000  1.0 0.6067038412
C  C255  1  0.74478000  0.75943000  0.61936000  1.0 -0.1977045335
C  C256  1  0.74536000  0.83073000  0.62542000  1.0 0.0810079519
C  C257  1  0.74532000  0.86807000  0.62697000  1.0 0.0810079519
C  C258  1  0.74649000  0.93783000  0.62809000  1.0 -0.048029288
C  C259  1  0.74781000  0.97391000  0.62791000  1.0 0.6067038412
C  C260  1  0.75230000  0.86028000  0.23990000  1.0 -0.1977045335
C  C261  1  0.75237000  0.79481000  0.16878000  1.0 0.0810079519
C  C262  1  0.75176000  0.75882000  0.13163000  1.0 0.0810079519
C  C263  1  0.75114000  0.68995000  0.06209000  1.0 -0.048029288
C  C264  1  0.75126000  0.65366000  0.02606000  1.0 0.6037646766
O  O1  1  0.83773000  0.59129000  0.89011000  1.0 -0.5292198377
O  O2  1  0.83280000  0.51257000  0.95347000  1.0 -0.5191486495
O  O3  1  0.90252000  0.60685000  0.94195000  1.0 -0.5292198377
O  O4  1  0.89315000  0.56696000  0.98213000  1.0 -0.5191486495
O  O5  1  0.30985000  0.62834000  0.63892000  1.0 -0.5292198377
O  O6  1  0.83075000  0.29912000  0.40980000  1.0 -0.535122401
O  O7  1  0.82742000  0.44078000  0.48813000  1.0 -0.5191486495
O  O8  1  0.89550000  0.33481000  0.39336000  1.0 -0.5292198377
O  O9  1  0.88823000  0.41487000  0.43393000  1.0 -0.5191486495
O  O10  1  0.31428000  0.01094000  0.37094000  1.0 -0.5292198377
O  O11  1  0.83564000  0.11037000  0.70154000  1.0 -0.5292198377
O  O12  1  0.83498000  0.04581000  0.55973000  1.0 -0.5292198377
O  O13  1  0.90008000  0.05808000  0.66622000  1.0 -0.5292198377
O  O14  1  0.89259000  0.01693000  0.58609000  1.0 -0.5292198377
O  O15  1  0.31498000  0.36114000  0.98919000  1.0 -0.5292198377
O  O16  1  0.33793000  0.40893000  0.11018000  1.0 -0.5292198377
O  O17  1  0.33285000  0.48731000  0.04686000  1.0 -0.5191486495
O  O18  1  0.40289000  0.39322000  0.05835000  1.0 -0.5292198377
O  O19  1  0.39310000  0.43289000  0.01803000  1.0 -0.5191486495
O  O20  1  0.80964000  0.37372000  0.36266000  1.0 -0.5292198377
O  O21  1  0.33077000  0.70130000  0.59029000  1.0 -0.5292198377
O  O22  1  0.32777000  0.55974000  0.51291000  1.0 -0.5191486495
O  O23  1  0.39571000  0.66576000  0.60681000  1.0 -0.5292198377
O  O24  1  0.38829000  0.58570000  0.56723000  1.0 -0.5191486495
O  O25  1  0.81164000  0.98925000  0.62905000  1.0 -0.5292198377
O  O26  1  0.33861000  0.88994000  0.29756000  1.0 -0.5292198377
O  O27  1  0.33829000  0.95295000  0.43877000  1.0 -0.5191486495
O  O28  1  0.40307000  0.94211000  0.33333333  1.0 -0.5292198377
O  O29  1  0.39603000  0.98265000  0.41349000  1.0 -0.5191486495
O  O30  1  0.81466000  0.63861000  0.01083000  1.0 -0.5292198377
O  O31  1  0.16606000  0.40892000  0.11026000  1.0 -0.535122401
O  O32  1  0.17000000  0.48763000  0.04728000  1.0 -0.5113065904
O  O33  1  0.10146000  0.39259000  0.05812000  1.0 -0.5292198377
O  O34  1  0.10926000  0.43341000  0.01877000  1.0 -0.5191486495
O  O35  1  0.68303000  0.37241000  0.36146000  1.0 -0.5292198377
O  O36  1  0.15878000  0.70094000  0.59108000  1.0 -0.5292198377
O  O37  1  0.16508000  0.55917000  0.51280000  1.0 -0.5191486495
O  O38  1  0.09458000  0.66499000  0.60733000  1.0 -0.5292198377
O  O39  1  0.10440000  0.58493000  0.56707000  1.0 -0.5191486495
O  O40  1  0.68519000  0.98869000  0.62614000  1.0 -0.5292198377
O  O41  1  0.16667000  0.88994000  0.29838000  1.0 -0.5292198377
O  O42  1  0.17640000  0.95145000  0.43986000  1.0 -0.5191486495
O  O43  1  0.10139000  0.94149000  0.33522000  1.0 -0.5292198377
O  O44  1  0.11262000  0.98042000  0.41535000  1.0 -0.5191486495
O  O45  1  0.68802000  0.63796000  0.01120000  1.0 -0.5292198377
O  O46  1  0.66576000  0.58976000  0.88915000  1.0 -0.5292198377
O  O47  1  0.67000000  0.51215000  0.95289000  1.0 -0.5191486495
O  O48  1  0.60110000  0.60642000  0.94135000  1.0 -0.5292198377
O  O49  1  0.60946000  0.56644000  0.98145000  1.0 -0.5191486495
O  O50  1  0.18325000  0.62671000  0.63844000  1.0 -0.5292198377
O  O51  1  0.65887000  0.29938000  0.40958000  1.0 -0.5292198377
O  O52  1  0.66469000  0.44098000  0.48778000  1.0 -0.5191486495
O  O53  1  0.59437000  0.33543000  0.39361000  1.0 -0.5292198377
O  O54  1  0.60450000  0.41548000  0.43333000  1.0 -0.5292198377
O  O55  1  0.18775000  0.01125000  0.37368000  1.0 -0.5292198377
O  O56  1  0.66374000  0.11028000  0.70055000  1.0 -0.5292198377
O  O57  1  0.67267000  0.04766000  0.55896000  1.0 -0.5191486495
O  O58  1  0.59877000  0.05849000  0.66415000  1.0 -0.5292198377
O  O59  1  0.61009000  0.01911000  0.58417000  1.0 -0.5292198377
O  O60  1  0.18835000  0.36208000  0.98860000  1.0 -0.5292198377
O  O61  1  0.75178000  0.57064000  0.94170000  1.0 -0.9836354916
O  O62  1  0.75515000  0.52364000  0.85810000  1.0 -0.5113065904
O  O63  1  0.75237000  0.48762000  0.88368000  1.0 -0.5191486495
O  O64  1  0.74547000  0.37118000  0.42963000  1.0 -0.9836354916
O  O65  1  0.74287000  0.33451000  0.47667000  1.0 -0.5113065904
O  O66  1  0.74532000  0.39612000  0.51263000  1.0 -0.5191486495
O  O67  1  0.75105000  0.05828000  0.62917000  1.0 -0.9836354916
O  O68  1  0.75066000  0.14185000  0.66566000  1.0 -0.5113065904
O  O69  1  0.75659000  0.11636000  0.60413000  1.0 -0.5191486495
O  O70  1  0.25171000  0.42904000  0.05834000  1.0 -0.9836354916
O  O71  1  0.25342000  0.47580000  0.14194000  1.0 -0.5113065904
O  O72  1  0.25178000  0.51196000  0.11652000  1.0 -0.5191486495
O  O73  1  0.24553000  0.62924000  0.57102000  1.0 -0.9836354916
O  O74  1  0.24209000  0.66559000  0.52371000  1.0 -0.5113065904
O  O75  1  0.24552000  0.60398000  0.48794000  1.0 -0.5191486495
O  O76  1  0.25392000  0.94152000  0.36998000  1.0 -0.9836354916
O  O77  1  0.25357000  0.85782000  0.33274000  1.0 -0.5113065904
O  O78  1  0.25947000  0.88296000  0.39421000  1.0 -0.5191486495
