# DDEC6 charges by PACMAN v1.1 (https://github.com/mtap-research/PACMAN-charge/)
data_HOMZEP_FSR_pacman
_symmetry_space_group_name_H-M   'P 1'
_cell_length_a   14.56650000
_cell_length_b   14.56650000
_cell_length_c   31.68350000
_cell_angle_alpha   90.00000000
_cell_angle_beta   90.00000000
_cell_angle_gamma   120.00000000
_symmetry_Int_Tables_number   1
_chemical_formula_structural   Ga6H9C27O29
_chemical_formula_sum   'Ga24 H36 C108 O116'
_cell_volume   5822.02691838
_cell_formula_units_Z   4
loop_
 _symmetry_equiv_pos_site_id
 _symmetry_equiv_pos_as_xyz
  1  'x, y, z'
loop_
 _atom_site_type_symbol
 _atom_site_label
 _atom_site_symmetry_multiplicity
 _atom_site_fract_x
 _atom_site_fract_y
 _atom_site_fract_z
 _atom_site_occupancy
 _atom_site_charge
Ga  Ga1  1  0.07432000  0.14864000  0.75000000  1.0 1.3685812719
Ga  Ga2  1  0.85136000  0.92568000  0.75000000  1.0 1.3685812719
Ga  Ga3  1  0.07432000  0.92568000  0.75000000  1.0 1.3685812719
Ga  Ga4  1  0.92568000  0.85136000  0.25000000  1.0 1.3685812719
Ga  Ga5  1  0.14864000  0.07432000  0.25000000  1.0 1.3685812719
Ga  Ga6  1  0.92568000  0.07432000  0.25000000  1.0 1.3685812719
Ga  Ga7  1  0.41674000  0.58325000  0.58491000  1.0 1.4256480021
Ga  Ga8  1  0.41675000  0.83349000  0.58491000  1.0 1.4256480021
Ga  Ga9  1  0.16651000  0.58326000  0.58491000  1.0 1.4256480021
Ga  Ga10  1  0.58326000  0.41675000  0.08491000  1.0 1.4217556484
Ga  Ga11  1  0.58325000  0.16651000  0.08491000  1.0 1.4217556484
Ga  Ga12  1  0.83349000  0.41674000  0.08491000  1.0 1.4217556484
Ga  Ga13  1  0.58326000  0.41675000  0.41509000  1.0 1.4256480021
Ga  Ga14  1  0.83349000  0.41674000  0.41509000  1.0 1.4217556484
Ga  Ga15  1  0.58325000  0.16651000  0.41509000  1.0 1.4217556484
Ga  Ga16  1  0.41674000  0.58325000  0.91509000  1.0 1.4256480021
Ga  Ga17  1  0.16651000  0.58326000  0.91509000  1.0 1.4256480021
Ga  Ga18  1  0.41675000  0.83349000  0.91509000  1.0 1.4256480021
Ga  Ga19  1  0.50000000  0.50000000  0.50000000  1.0 1.3967073925
Ga  Ga20  1  0.50000000  0.00000000  0.50000000  1.0 1.3967073925
Ga  Ga21  1  0.00000000  0.50000000  0.50000000  1.0 1.3967073925
Ga  Ga22  1  0.50000000  0.50000000  0.00000000  1.0 1.3967073925
Ga  Ga23  1  0.50000000  0.00000000  0.00000000  1.0 1.3967073925
Ga  Ga24  1  0.00000000  0.50000000  0.00000000  1.0 1.3967073925
H  H1  1  0.27660000  0.27660000  0.64480000  1.0 0.1689796913
H  H2  1  0.72340000  0.00000000  0.64480000  1.0 0.1689796913
H  H3  1  0.00000000  0.72340000  0.64480000  1.0 0.1689796913
H  H4  1  0.72340000  0.72340000  0.14480000  1.0 0.1689796913
H  H5  1  0.27660000  0.00000000  0.14480000  1.0 0.1689796913
H  H6  1  0.00000000  0.27660000  0.14480000  1.0 0.1689796913
H  H7  1  0.27660000  0.27660000  0.35520000  1.0 0.1689796913
H  H8  1  0.00000000  0.72340000  0.35520000  1.0 0.1689796913
H  H9  1  0.72340000  0.00000000  0.35520000  1.0 0.1689796913
H  H10  1  0.72340000  0.72340000  0.85520000  1.0 0.1689796913
H  H11  1  0.00000000  0.27660000  0.85520000  1.0 0.1689796913
H  H12  1  0.27660000  0.00000000  0.85520000  1.0 0.1689796913
H  H13  1  0.72340000  0.72340000  0.35520000  1.0 0.1689796913
H  H14  1  0.27660000  0.00000000  0.35520000  1.0 0.1689796913
H  H15  1  0.00000000  0.27660000  0.35520000  1.0 0.1689796913
H  H16  1  0.27660000  0.27660000  0.85520000  1.0 0.1689796913
H  H17  1  0.72340000  0.00000000  0.85520000  1.0 0.1689796913
H  H18  1  0.00000000  0.72340000  0.85520000  1.0 0.1689796913
H  H19  1  0.72340000  0.72340000  0.64480000  1.0 0.1689796913
H  H20  1  0.00000000  0.27660000  0.64480000  1.0 0.1689796913
H  H21  1  0.27660000  0.00000000  0.64480000  1.0 0.1689796913
H  H22  1  0.27660000  0.27660000  0.14480000  1.0 0.1689796913
H  H23  1  0.00000000  0.72340000  0.14480000  1.0 0.1689796913
H  H24  1  0.72340000  0.00000000  0.14480000  1.0 0.1689796913
H  H25  1  0.42510000  0.21250000  0.55230000  1.0 0.1689796913
H  H26  1  0.78750000  0.21260000  0.55230000  1.0 0.1689796913
H  H27  1  0.78740000  0.57490000  0.55230000  1.0 0.1689796913
H  H28  1  0.57490000  0.78750000  0.05230000  1.0 0.1689796913
H  H29  1  0.21250000  0.78740000  0.05230000  1.0 0.1689796913
H  H30  1  0.21260000  0.42510000  0.05230000  1.0 0.1689796913
H  H31  1  0.21260000  0.42510000  0.44770000  1.0 0.1689796913
H  H32  1  0.21250000  0.78740000  0.44770000  1.0 0.1689796913
H  H33  1  0.57490000  0.78750000  0.44770000  1.0 0.1689796913
H  H34  1  0.78740000  0.57490000  0.94770000  1.0 0.1689796913
H  H35  1  0.78750000  0.21260000  0.94770000  1.0 0.1689796913
H  H36  1  0.42510000  0.21250000  0.94770000  1.0 0.1689796913
C  C1  1  0.20050000  0.10020000  0.69050000  1.0 0.6080050916
C  C2  1  0.89980000  0.10030000  0.69050000  1.0 0.6080050916
C  C3  1  0.89970000  0.79950000  0.69050000  1.0 0.6080050916
C  C4  1  0.79950000  0.89980000  0.19050000  1.0 0.6080050916
C  C5  1  0.10020000  0.89970000  0.19050000  1.0 0.6080050916
C  C6  1  0.10030000  0.20050000  0.19050000  1.0 0.6080050916
C  C7  1  0.10030000  0.20050000  0.30950000  1.0 0.6080050916
C  C8  1  0.10020000  0.89970000  0.30950000  1.0 0.6080050916
C  C9  1  0.79950000  0.89980000  0.30950000  1.0 0.6080050916
C  C10  1  0.89970000  0.79950000  0.80950000  1.0 0.6080050916
C  C11  1  0.89980000  0.10030000  0.80950000  1.0 0.6080050916
C  C12  1  0.20050000  0.10020000  0.80950000  1.0 0.6080050916
C  C13  1  0.26560000  0.13280000  0.65070000  1.0 -0.0278466024
C  C14  1  0.86720000  0.13280000  0.65070000  1.0 -0.0278466024
C  C15  1  0.86720000  0.73440000  0.65070000  1.0 -0.0278466024
C  C16  1  0.73440000  0.86720000  0.15070000  1.0 -0.0278466024
C  C17  1  0.13280000  0.86720000  0.15070000  1.0 -0.0278466024
C  C18  1  0.13280000  0.26560000  0.15070000  1.0 -0.0278466024
C  C19  1  0.13280000  0.26560000  0.34930000  1.0 -0.0278466024
C  C20  1  0.13280000  0.86720000  0.34930000  1.0 -0.0278466024
C  C21  1  0.73440000  0.86720000  0.34930000  1.0 -0.0278466024
C  C22  1  0.86720000  0.73440000  0.84930000  1.0 -0.0278466024
C  C23  1  0.86720000  0.13280000  0.84930000  1.0 -0.0278466024
C  C24  1  0.26560000  0.13280000  0.84930000  1.0 -0.0278466024
C  C25  1  0.29560000  0.23070000  0.63220000  1.0 -0.0585235432
C  C26  1  0.76930000  0.06490000  0.63220000  1.0 -0.0585235432
C  C27  1  0.93510000  0.70440000  0.63220000  1.0 -0.0585235432
C  C28  1  0.70440000  0.76930000  0.13220000  1.0 -0.0585235432
C  C29  1  0.23070000  0.93510000  0.13220000  1.0 -0.0585235432
C  C30  1  0.06490000  0.29560000  0.13220000  1.0 -0.0585235432
C  C31  1  0.23070000  0.29560000  0.36780000  1.0 -0.0585235432
C  C32  1  0.06490000  0.76930000  0.36780000  1.0 -0.0585235432
C  C33  1  0.70440000  0.93510000  0.36780000  1.0 -0.0585235432
C  C34  1  0.76930000  0.70440000  0.86780000  1.0 -0.0585235432
C  C35  1  0.93510000  0.23070000  0.86780000  1.0 -0.0585235432
C  C36  1  0.29560000  0.06490000  0.86780000  1.0 -0.0585235432
C  C37  1  0.70440000  0.76930000  0.36780000  1.0 -0.0585235432
C  C38  1  0.23070000  0.93510000  0.36780000  1.0 -0.0585235432
C  C39  1  0.06490000  0.29560000  0.36780000  1.0 -0.0585235432
C  C40  1  0.29560000  0.23070000  0.86780000  1.0 -0.0585235432
C  C41  1  0.76930000  0.06490000  0.86780000  1.0 -0.0585235432
C  C42  1  0.93510000  0.70440000  0.86780000  1.0 -0.0585235432
C  C43  1  0.76930000  0.70440000  0.63220000  1.0 -0.0585235432
C  C44  1  0.93510000  0.23070000  0.63220000  1.0 -0.0585235432
C  C45  1  0.29560000  0.06490000  0.63220000  1.0 -0.0585235432
C  C46  1  0.23070000  0.29560000  0.13220000  1.0 -0.0585235432
C  C47  1  0.06490000  0.76930000  0.13220000  1.0 -0.0585235432
C  C48  1  0.70440000  0.93510000  0.13220000  1.0 -0.0585235432
C  C49  1  0.35400000  0.25970000  0.59490000  1.0 -0.0278466024
C  C50  1  0.74030000  0.09430000  0.59490000  1.0 -0.0278466024
C  C51  1  0.90570000  0.64600000  0.59490000  1.0 -0.0278466024
C  C52  1  0.64600000  0.74030000  0.09490000  1.0 -0.0278466024
C  C53  1  0.25970000  0.90570000  0.09490000  1.0 -0.0278466024
C  C54  1  0.09430000  0.35400000  0.09490000  1.0 -0.0278466024
C  C55  1  0.25970000  0.35400000  0.40510000  1.0 -0.0278466024
C  C56  1  0.09430000  0.74030000  0.40510000  1.0 -0.0278466024
C  C57  1  0.64600000  0.90570000  0.40510000  1.0 -0.0278466024
C  C58  1  0.74030000  0.64600000  0.90510000  1.0 -0.0278466024
C  C59  1  0.90570000  0.25970000  0.90510000  1.0 -0.0278466024
C  C60  1  0.35400000  0.09430000  0.90510000  1.0 -0.0278466024
C  C61  1  0.64600000  0.74030000  0.40510000  1.0 -0.0278466024
C  C62  1  0.25970000  0.90570000  0.40510000  1.0 -0.0278466024
C  C63  1  0.09430000  0.35400000  0.40510000  1.0 -0.0278466024
C  C64  1  0.35400000  0.25970000  0.90510000  1.0 -0.0278466024
C  C65  1  0.74030000  0.09430000  0.90510000  1.0 -0.0278466024
C  C66  1  0.90570000  0.64600000  0.90510000  1.0 -0.0278466024
C  C67  1  0.74030000  0.64600000  0.59490000  1.0 -0.0278466024
C  C68  1  0.90570000  0.25970000  0.59490000  1.0 -0.0278466024
C  C69  1  0.35400000  0.09430000  0.59490000  1.0 -0.0278466024
C  C70  1  0.25970000  0.35400000  0.09490000  1.0 -0.0278466024
C  C71  1  0.09430000  0.74030000  0.09490000  1.0 -0.0278466024
C  C72  1  0.64600000  0.90570000  0.09490000  1.0 -0.0278466024
C  C73  1  0.38950000  0.36470000  0.57500000  1.0 0.6080050916
C  C74  1  0.63530000  0.02480000  0.57500000  1.0 0.6080050916
C  C75  1  0.97520000  0.61050000  0.57500000  1.0 0.6080050916
C  C76  1  0.61050000  0.63530000  0.07500000  1.0 0.6080050916
C  C77  1  0.36470000  0.97520000  0.07500000  1.0 0.6080050916
C  C78  1  0.02480000  0.38950000  0.07500000  1.0 0.6080050916
C  C79  1  0.36470000  0.38950000  0.42500000  1.0 0.6080050916
C  C80  1  0.02480000  0.63530000  0.42500000  1.0 0.6080050916
C  C81  1  0.61050000  0.97520000  0.42500000  1.0 0.6080050916
C  C82  1  0.63530000  0.61050000  0.92500000  1.0 0.6080050916
C  C83  1  0.97520000  0.36470000  0.92500000  1.0 0.6080050916
C  C84  1  0.38950000  0.02480000  0.92500000  1.0 0.6080050916
C  C85  1  0.61050000  0.63530000  0.42500000  1.0 0.6080050916
C  C86  1  0.36470000  0.97520000  0.42500000  1.0 0.6080050916
C  C87  1  0.02480000  0.38950000  0.42500000  1.0 0.6080050916
C  C88  1  0.38950000  0.36470000  0.92500000  1.0 0.6080050916
C  C89  1  0.63530000  0.02480000  0.92500000  1.0 0.6080050916
C  C90  1  0.97520000  0.61050000  0.92500000  1.0 0.6080050916
C  C91  1  0.63530000  0.61050000  0.57500000  1.0 0.6080050916
C  C92  1  0.97520000  0.36470000  0.57500000  1.0 0.6080050916
C  C93  1  0.38950000  0.02480000  0.57500000  1.0 0.6080050916
C  C94  1  0.36470000  0.38950000  0.07500000  1.0 0.6080050916
C  C95  1  0.02480000  0.63530000  0.07500000  1.0 0.6080050916
C  C96  1  0.61050000  0.97520000  0.07500000  1.0 0.6080050916
C  C97  1  0.38440000  0.19220000  0.57670000  1.0 -0.0278466024
C  C98  1  0.80780000  0.19220000  0.57670000  1.0 -0.0278466024
C  C99  1  0.80780000  0.61560000  0.57670000  1.0 -0.0278466024
C  C100  1  0.61560000  0.80780000  0.07670000  1.0 -0.0278466024
C  C101  1  0.19220000  0.80780000  0.07670000  1.0 -0.0278466024
C  C102  1  0.19220000  0.38440000  0.07670000  1.0 -0.0278466024
C  C103  1  0.19220000  0.38440000  0.42330000  1.0 -0.0278466024
C  C104  1  0.19220000  0.80780000  0.42330000  1.0 -0.0278466024
C  C105  1  0.61560000  0.80780000  0.42330000  1.0 -0.0278466024
C  C106  1  0.80780000  0.61560000  0.92330000  1.0 -0.0278466024
C  C107  1  0.80780000  0.19220000  0.92330000  1.0 -0.0278466024
C  C108  1  0.38440000  0.19220000  0.92330000  1.0 -0.0278466024
O  O1  1  0.15430000  0.30850000  0.75000000  1.0 -0.1541523538
O  O2  1  0.69150000  0.84580000  0.75000000  1.0 -0.1541523538
O  O3  1  0.15420000  0.84570000  0.75000000  1.0 -0.1541523538
O  O4  1  0.84570000  0.69150000  0.25000000  1.0 -0.1541523538
O  O5  1  0.30850000  0.15420000  0.25000000  1.0 -0.1541523538
O  O6  1  0.84580000  0.15430000  0.25000000  1.0 -0.1556728117
O  O7  1  0.00000000  0.00000000  0.75000000  1.0 -0.97384324
O  O8  1  0.00000000  0.00000000  0.25000000  1.0 -0.97384324
O  O9  1  0.17530000  0.16480000  0.70488000  1.0 -0.4825390411
O  O10  1  0.83520000  0.01050000  0.70488000  1.0 -0.4825390411
O  O11  1  0.98950000  0.82470000  0.70488000  1.0 -0.4825390411
O  O12  1  0.82470000  0.83520000  0.20488000  1.0 -0.4825390411
O  O13  1  0.16480000  0.98950000  0.20488000  1.0 -0.4825390411
O  O14  1  0.01050000  0.17530000  0.20488000  1.0 -0.4825390411
O  O15  1  0.16480000  0.17530000  0.29512000  1.0 -0.4825390411
O  O16  1  0.01050000  0.83520000  0.29512000  1.0 -0.4825390411
O  O17  1  0.82470000  0.98950000  0.29512000  1.0 -0.4825390411
O  O18  1  0.83520000  0.82470000  0.79512000  1.0 -0.4825390411
O  O19  1  0.98950000  0.16480000  0.79512000  1.0 -0.4825390411
O  O20  1  0.17530000  0.01050000  0.79512000  1.0 -0.4825390411
O  O21  1  0.82470000  0.83520000  0.29512000  1.0 -0.4825390411
O  O22  1  0.16480000  0.98950000  0.29512000  1.0 -0.4825390411
O  O23  1  0.01050000  0.17530000  0.29512000  1.0 -0.4825390411
O  O24  1  0.17530000  0.16480000  0.79512000  1.0 -0.4825390411
O  O25  1  0.83520000  0.01050000  0.79512000  1.0 -0.4825390411
O  O26  1  0.98950000  0.82470000  0.79512000  1.0 -0.4825390411
O  O27  1  0.83520000  0.82470000  0.70488000  1.0 -0.4825390411
O  O28  1  0.98950000  0.16480000  0.70488000  1.0 -0.4825390411
O  O29  1  0.17530000  0.01050000  0.70488000  1.0 -0.4825390411
O  O30  1  0.16480000  0.17530000  0.20488000  1.0 -0.4825390411
O  O31  1  0.01050000  0.83520000  0.20488000  1.0 -0.4825390411
O  O32  1  0.82470000  0.98950000  0.20488000  1.0 -0.4825390411
O  O33  1  0.37670000  0.43170000  0.59545000  1.0 -0.5499951672
O  O34  1  0.56830000  0.94500000  0.59545000  1.0 -0.5499951672
O  O35  1  0.05500000  0.62330000  0.59545000  1.0 -0.5499951672
O  O36  1  0.62330000  0.56830000  0.09545000  1.0 -0.5499951672
O  O37  1  0.43170000  0.05500000  0.09545000  1.0 -0.5499951672
O  O38  1  0.94500000  0.37670000  0.09545000  1.0 -0.5499951672
O  O39  1  0.43170000  0.37670000  0.40455000  1.0 -0.5499951672
O  O40  1  0.94500000  0.56830000  0.40455000  1.0 -0.5499951672
O  O41  1  0.62330000  0.05500000  0.40455000  1.0 -0.5499951672
O  O42  1  0.56830000  0.62330000  0.90455000  1.0 -0.5499951672
O  O43  1  0.05500000  0.43170000  0.90455000  1.0 -0.5499951672
O  O44  1  0.37670000  0.94500000  0.90455000  1.0 -0.5499951672
O  O45  1  0.62330000  0.56830000  0.40455000  1.0 -0.5499951672
O  O46  1  0.43170000  0.05500000  0.40455000  1.0 -0.5499951672
O  O47  1  0.94500000  0.37670000  0.40455000  1.0 -0.5499951672
O  O48  1  0.37670000  0.43170000  0.90455000  1.0 -0.5499951672
O  O49  1  0.56830000  0.94500000  0.90455000  1.0 -0.5499951672
O  O50  1  0.05500000  0.62330000  0.90455000  1.0 -0.5499951672
O  O51  1  0.56830000  0.62330000  0.59545000  1.0 -0.5499951672
O  O52  1  0.05500000  0.43170000  0.59545000  1.0 -0.5499951672
O  O53  1  0.37670000  0.94500000  0.59545000  1.0 -0.5499951672
O  O54  1  0.43170000  0.37670000  0.09545000  1.0 -0.5499951672
O  O55  1  0.94500000  0.56830000  0.09545000  1.0 -0.5499951672
O  O56  1  0.62330000  0.05500000  0.09545000  1.0 -0.5499951672
O  O57  1  0.42920000  0.37810000  0.53890000  1.0 -0.4876076189
O  O58  1  0.62190000  0.05110000  0.53890000  1.0 -0.4876076189
O  O59  1  0.94890000  0.57080000  0.53890000  1.0 -0.4876076189
O  O60  1  0.57080000  0.62190000  0.03890000  1.0 -0.4876076189
O  O61  1  0.37810000  0.94890000  0.03890000  1.0 -0.4876076189
O  O62  1  0.05110000  0.42920000  0.03890000  1.0 -0.4876076189
O  O63  1  0.37810000  0.42920000  0.46110000  1.0 -0.4876076189
O  O64  1  0.05110000  0.62190000  0.46110000  1.0 -0.4876076189
O  O65  1  0.57080000  0.94890000  0.46110000  1.0 -0.4876076189
O  O66  1  0.62190000  0.57080000  0.96110000  1.0 -0.4876076189
O  O67  1  0.94890000  0.37810000  0.96110000  1.0 -0.4876076189
O  O68  1  0.42920000  0.05110000  0.96110000  1.0 -0.4876076189
O  O69  1  0.57080000  0.62190000  0.46110000  1.0 -0.4876076189
O  O70  1  0.37810000  0.94890000  0.46110000  1.0 -0.4876076189
O  O71  1  0.05110000  0.42920000  0.46110000  1.0 -0.4876076189
O  O72  1  0.42920000  0.37810000  0.96110000  1.0 -0.4876076189
O  O73  1  0.62190000  0.05110000  0.96110000  1.0 -0.4876076189
O  O74  1  0.94890000  0.57080000  0.96110000  1.0 -0.4876076189
O  O75  1  0.62190000  0.57080000  0.53890000  1.0 -0.4876076189
O  O76  1  0.94890000  0.37810000  0.53890000  1.0 -0.4876076189
O  O77  1  0.42920000  0.05110000  0.53890000  1.0 -0.4876076189
O  O78  1  0.37810000  0.42920000  0.03890000  1.0 -0.4876076189
O  O79  1  0.05110000  0.62190000  0.03890000  1.0 -0.4876076189
O  O80  1  0.57080000  0.94890000  0.03890000  1.0 -0.4876076189
O  O81  1  0.46400000  0.73200000  0.58140000  1.0 -0.6410870485
O  O82  1  0.26800000  0.73200000  0.58140000  1.0 -0.6410870485
O  O83  1  0.26800000  0.53600000  0.58140000  1.0 -0.6410870485
O  O84  1  0.53600000  0.26800000  0.08140000  1.0 -0.6410870485
O  O85  1  0.73200000  0.26800000  0.08140000  1.0 -0.6410870485
O  O86  1  0.73200000  0.46400000  0.08140000  1.0 -0.6410870485
O  O87  1  0.73200000  0.46400000  0.41860000  1.0 -0.6410870485
O  O88  1  0.73200000  0.26800000  0.41860000  1.0 -0.6410870485
O  O89  1  0.53600000  0.26800000  0.41860000  1.0 -0.6410870485
O  O90  1  0.26800000  0.53600000  0.91860000  1.0 -0.6410870485
O  O91  1  0.26800000  0.73200000  0.91860000  1.0 -0.6410870485
O  O92  1  0.46400000  0.73200000  0.91860000  1.0 -0.6410870485
O  O93  1  0.43140000  0.56860000  0.52550000  1.0 -0.6410870485
O  O94  1  0.43140000  0.86280000  0.52550000  1.0 -0.6410870485
O  O95  1  0.13720000  0.56860000  0.52550000  1.0 -0.6410870485
O  O96  1  0.56860000  0.43140000  0.02550000  1.0 -0.6410870485
O  O97  1  0.56860000  0.13720000  0.02550000  1.0 -0.6410870485
O  O98  1  0.86280000  0.43140000  0.02550000  1.0 -0.6410870485
O  O99  1  0.56860000  0.43140000  0.47450000  1.0 -0.6410870485
O  O100  1  0.86280000  0.43140000  0.47450000  1.0 -0.6410870485
O  O101  1  0.56860000  0.13720000  0.47450000  1.0 -0.6410870485
O  O102  1  0.43140000  0.56860000  0.97450000  1.0 -0.6410870485
O  O103  1  0.13720000  0.56860000  0.97450000  1.0 -0.6410870485
O  O104  1  0.43140000  0.86280000  0.97450000  1.0 -0.6410870485
O  O105  1  0.41210000  0.58780000  0.64840000  1.0 -0.3475371992
O  O106  1  0.41220000  0.82430000  0.64840000  1.0 -0.3475371992
O  O107  1  0.17570000  0.58790000  0.64840000  1.0 -0.3475371992
O  O108  1  0.58790000  0.41220000  0.14840000  1.0 -0.3475371992
O  O109  1  0.58780000  0.17570000  0.14840000  1.0 -0.3437732093
O  O110  1  0.82430000  0.41210000  0.14840000  1.0 -0.3475371992
O  O111  1  0.58790000  0.41220000  0.35160000  1.0 -0.3475371992
O  O112  1  0.82430000  0.41210000  0.35160000  1.0 -0.3475371992
O  O113  1  0.58780000  0.17570000  0.35160000  1.0 -0.3475371992
O  O114  1  0.41210000  0.58780000  0.85160000  1.0 -0.3475371992
O  O115  1  0.17570000  0.58790000  0.85160000  1.0 -0.3475371992
O  O116  1  0.41220000  0.82430000  0.85160000  1.0 -0.3475371992
