# DDEC6 charges by PACMAN v1.1 (https://github.com/mtap-research/PACMAN-charge/)
data_HOWPUF_FSR_pacman
_symmetry_space_group_name_H-M   'P 1'
_cell_length_a   12.12500000
_cell_length_b   13.83320000
_cell_length_c   21.64360000
_cell_angle_alpha   90.00000000
_cell_angle_beta   90.00000000
_cell_angle_gamma   90.00000000
_symmetry_Int_Tables_number   1
_chemical_formula_structural   Zn2H12C17N4O11
_chemical_formula_sum   'Zn8 H48 C68 N16 O44'
_cell_volume   3630.22800118
_cell_formula_units_Z   4
loop_
 _symmetry_equiv_pos_site_id
 _symmetry_equiv_pos_as_xyz
  1  'x, y, z'
loop_
 _atom_site_type_symbol
 _atom_site_label
 _atom_site_symmetry_multiplicity
 _atom_site_fract_x
 _atom_site_fract_y
 _atom_site_fract_z
 _atom_site_occupancy
 _atom_site_charge
Zn  Zn1  1  0.75154000  0.07486000  0.75594000  1.0 0.8588929677
Zn  Zn2  1  0.75154000  0.92514000  0.24406000  1.0 0.8588929677
Zn  Zn3  1  0.24846000  0.42514000  0.25594000  1.0 0.8588929677
Zn  Zn4  1  0.24846000  0.57486000  0.74406000  1.0 0.8588929677
Zn  Zn5  1  0.76621000  0.56766000  0.87421000  1.0 0.8455356413
Zn  Zn6  1  0.76621000  0.43234000  0.12579000  1.0 0.8455356413
Zn  Zn7  1  0.23379000  0.93234000  0.37421000  1.0 0.8455356413
Zn  Zn8  1  0.23379000  0.06766000  0.62579000  1.0 0.8445799404
H  H1  1  0.76900000  0.28110000  0.78920000  1.0 0.1219673322
H  H2  1  0.76900000  0.71890000  0.21080000  1.0 0.1219673322
H  H3  1  0.23100000  0.21890000  0.28920000  1.0 0.1219673322
H  H4  1  0.23100000  0.78110000  0.71080000  1.0 0.1219673322
H  H5  1  0.05700000  0.28180000  0.65560000  1.0 0.1526657806
H  H6  1  0.05700000  0.71820000  0.34440000  1.0 0.1526657806
H  H7  1  0.94300000  0.21820000  0.15560000  1.0 0.1526657806
H  H8  1  0.94300000  0.78180000  0.84440000  1.0 0.1526657806
H  H9  1  0.95880000  0.14280000  0.67650000  1.0 0.1397467831
H  H10  1  0.95880000  0.85720000  0.32350000  1.0 0.1397467831
H  H11  1  0.04120000  0.35720000  0.17650000  1.0 0.1397467831
H  H12  1  0.04120000  0.64280000  0.82350000  1.0 0.1397467831
H  H13  1  0.74850000  0.87020000  0.80800000  1.0 0.1305351761
H  H14  1  0.74850000  0.12980000  0.19200000  1.0 0.1305351761
H  H15  1  0.25150000  0.62980000  0.30800000  1.0 0.1305351761
H  H16  1  0.25150000  0.37020000  0.69200000  1.0 0.1305351761
H  H17  1  0.39170000  0.88640000  0.74500000  1.0 0.1526657806
H  H18  1  0.39170000  0.11360000  0.25500000  1.0 0.1526657806
H  H19  1  0.60830000  0.61360000  0.24500000  1.0 0.1526657806
H  H20  1  0.60830000  0.38640000  0.75500000  1.0 0.1526657806
H  H21  1  0.50650000  0.01440000  0.73480000  1.0 0.1305351761
H  H22  1  0.50650000  0.98560000  0.26520000  1.0 0.1305351761
H  H23  1  0.49350000  0.48560000  0.23480000  1.0 0.1305351761
H  H24  1  0.49350000  0.51440000  0.76520000  1.0 0.1305351761
H  H25  1  0.62850000  0.39570000  0.91450000  1.0 0.1305351761
H  H26  1  0.62850000  0.60430000  0.08550000  1.0 0.1305351761
H  H27  1  0.37150000  0.10430000  0.41450000  1.0 0.1305351761
H  H28  1  0.37150000  0.89570000  0.58550000  1.0 0.1305351761
H  H29  1  0.53670000  0.46960000  0.89490000  1.0 0.1305351761
H  H30  1  0.53670000  0.53040000  0.10510000  1.0 0.1305351761
H  H31  1  0.46330000  0.03040000  0.39490000  1.0 0.1305351761
H  H32  1  0.46330000  0.96960000  0.60510000  1.0 0.1305351761
H  H33  1  0.39970000  0.48150000  0.03420000  1.0 0.1219673322
H  H34  1  0.39970000  0.51850000  0.96580000  1.0 0.1219673322
H  H35  1  0.60030000  0.01850000  0.53420000  1.0 0.1219673322
H  H36  1  0.60030000  0.98150000  0.46580000  1.0 0.1219673322
H  H37  1  0.62780000  0.66790000  0.98120000  1.0 0.1219673322
H  H38  1  0.62780000  0.33210000  0.01880000  1.0 0.1219673322
H  H39  1  0.37220000  0.83210000  0.48120000  1.0 0.1219673322
H  H40  1  0.37220000  0.16790000  0.51880000  1.0 0.1219673322
H  H41  1  0.53640000  0.63580000  0.93400000  1.0 0.1305351761
H  H42  1  0.53640000  0.36420000  0.06600000  1.0 0.1305351761
H  H43  1  0.46360000  0.86420000  0.43400000  1.0 0.1305351761
H  H44  1  0.46360000  0.13580000  0.56600000  1.0 0.1305351761
H  H45  1  0.76950000  0.44670000  0.98780000  1.0 0.1134382484
H  H46  1  0.76950000  0.55330000  0.01220000  1.0 0.1134382484
H  H47  1  0.23050000  0.05330000  0.48780000  1.0 0.1134382484
H  H48  1  0.23050000  0.94670000  0.51220000  1.0 0.1134382484
C  C1  1  0.82930000  0.28120000  0.76260000  1.0 0.0727769451
C  C2  1  0.82930000  0.71880000  0.23740000  1.0 0.0727769451
C  C3  1  0.17070000  0.21880000  0.26260000  1.0 0.0727769451
C  C4  1  0.17070000  0.78120000  0.73740000  1.0 0.0727769451
C  C5  1  0.88630000  0.36780000  0.75560000  1.0 -0.0894905052
C  C6  1  0.88630000  0.63220000  0.24440000  1.0 -0.0894905052
C  C7  1  0.11370000  0.13220000  0.25560000  1.0 -0.0894905052
C  C8  1  0.11370000  0.86780000  0.74440000  1.0 -0.0894905052
C  C9  1  0.84970000  0.45380000  0.79050000  1.0 0.5688152963
C  C10  1  0.84970000  0.54620000  0.20950000  1.0 0.5688152963
C  C11  1  0.15030000  0.04620000  0.29050000  1.0 0.5688152963
C  C12  1  0.15030000  0.95380000  0.70950000  1.0 0.5688152963
C  C13  1  0.97290000  0.36830000  0.71380000  1.0 0.0442998537
C  C14  1  0.97290000  0.63170000  0.28620000  1.0 0.0442998537
C  C15  1  0.02710000  0.13170000  0.21380000  1.0 0.0442998537
C  C16  1  0.02710000  0.86830000  0.78620000  1.0 0.0442998537
C  C17  1  0.95240000  0.95660000  0.79840000  1.0 0.5592519694
C  C18  1  0.95240000  0.04340000  0.20160000  1.0 0.5592519694
C  C19  1  0.04760000  0.54340000  0.29840000  1.0 0.5592519694
C  C20  1  0.04760000  0.45660000  0.70160000  1.0 0.5592519694
C  C21  1  0.99920000  0.28340000  0.68380000  1.0 -0.1260501875
C  C22  1  0.99920000  0.71660000  0.31620000  1.0 -0.1260501875
C  C23  1  0.00080000  0.21660000  0.18380000  1.0 -0.1260501875
C  C24  1  0.00080000  0.78340000  0.81620000  1.0 -0.1260501875
C  C25  1  0.93860000  0.19990000  0.69620000  1.0 0.1305351761
C  C26  1  0.93860000  0.80010000  0.30380000  1.0 0.1305351761
C  C27  1  0.06140000  0.30010000  0.19620000  1.0 0.1305351761
C  C28  1  0.06140000  0.69990000  0.80380000  1.0 0.1305351761
C  C29  1  0.67520000  0.87350000  0.79540000  1.0 0.0884685551
C  C30  1  0.67520000  0.12650000  0.20460000  1.0 0.0884685551
C  C31  1  0.32480000  0.62650000  0.29540000  1.0 0.0884685551
C  C32  1  0.32480000  0.37350000  0.70460000  1.0 0.0884685551
C  C33  1  0.60950000  0.79080000  0.80250000  1.0 -0.0806929099
C  C34  1  0.60950000  0.20920000  0.19750000  1.0 -0.0806929099
C  C35  1  0.39050000  0.70920000  0.30250000  1.0 -0.0806929099
C  C36  1  0.39050000  0.29080000  0.69750000  1.0 -0.0806929099
C  C37  1  0.66280000  0.70160000  0.82800000  1.0 0.5592519694
C  C38  1  0.66280000  0.29840000  0.17200000  1.0 0.5592519694
C  C39  1  0.33720000  0.79840000  0.32800000  1.0 0.5592519694
C  C40  1  0.33720000  0.20160000  0.67200000  1.0 0.5592519694
C  C41  1  0.50090000  0.79520000  0.78440000  1.0 0.0338820137
C  C42  1  0.50090000  0.20480000  0.21560000  1.0 0.0338820137
C  C43  1  0.49910000  0.70480000  0.28440000  1.0 0.0338820137
C  C44  1  0.49910000  0.29520000  0.71560000  1.0 0.0338820137
C  C45  1  0.57850000  0.21070000  0.70530000  1.0 0.5592519694
C  C46  1  0.57850000  0.78930000  0.29470000  1.0 0.5592519694
C  C47  1  0.42150000  0.28930000  0.20530000  1.0 0.5592519694
C  C48  1  0.42150000  0.71070000  0.79470000  1.0 0.5592519694
C  C49  1  0.46430000  0.88130000  0.75860000  1.0 -0.1612760706
C  C50  1  0.46430000  0.11870000  0.24140000  1.0 -0.1612760706
C  C51  1  0.53570000  0.61870000  0.25860000  1.0 -0.1612760706
C  C52  1  0.53570000  0.38130000  0.74140000  1.0 -0.1612760706
C  C53  1  0.53330000  0.95800000  0.75280000  1.0 0.0801211873
C  C54  1  0.53330000  0.04200000  0.24720000  1.0 0.0801211873
C  C55  1  0.46670000  0.54200000  0.25280000  1.0 0.0801211873
C  C56  1  0.46670000  0.45800000  0.74720000  1.0 0.0801211873
C  C57  1  0.58370000  0.44930000  0.92880000  1.0 -0.0209787937
C  C58  1  0.58370000  0.55070000  0.07120000  1.0 -0.0209787937
C  C59  1  0.41630000  0.05070000  0.42880000  1.0 -0.0209787937
C  C60  1  0.41630000  0.94930000  0.57120000  1.0 -0.0209787937
C  C61  1  0.44690000  0.50000000  0.00000000  1.0 -0.0134647072
C  C62  1  0.55310000  0.00000000  0.50000000  1.0 -0.0134647072
C  C63  1  0.58210000  0.61410000  0.96810000  1.0 -0.0269250285
C  C64  1  0.58210000  0.38590000  0.03190000  1.0 -0.0269250285
C  C65  1  0.41790000  0.88590000  0.46810000  1.0 -0.0269250285
C  C66  1  0.41790000  0.11410000  0.53190000  1.0 -0.0269250285
C  C67  1  0.72240000  0.50000000  0.00000000  1.0 -0.0359656981
C  C68  1  0.27760000  0.00000000  0.50000000  1.0 -0.0359656981
N  N1  1  0.63920000  0.95590000  0.77200000  1.0 -0.2145454333
N  N2  1  0.63920000  0.04410000  0.22800000  1.0 -0.2145454333
N  N3  1  0.36080000  0.54410000  0.27200000  1.0 -0.2145454333
N  N4  1  0.36080000  0.45590000  0.72800000  1.0 -0.2153883672
N  N5  1  0.85390000  0.19840000  0.73450000  1.0 -0.2341609246
N  N6  1  0.85390000  0.80160000  0.26550000  1.0 -0.2341609246
N  N7  1  0.14610000  0.30160000  0.23450000  1.0 -0.2341609246
N  N8  1  0.14610000  0.69840000  0.76550000  1.0 -0.2341609246
N  N9  1  0.65570000  0.52980000  0.94680000  1.0 -0.1803295658
N  N10  1  0.65570000  0.47020000  0.05320000  1.0 -0.1803295658
N  N11  1  0.34430000  0.97020000  0.44680000  1.0 -0.1803295658
N  N12  1  0.34430000  0.02980000  0.55320000  1.0 -0.1803295658
N  N13  1  0.51340000  0.41660000  0.98160000  1.0 -0.1132129899
N  N14  1  0.51340000  0.58340000  0.01840000  1.0 -0.1132129899
N  N15  1  0.48660000  0.08340000  0.48160000  1.0 -0.1132129899
N  N16  1  0.48660000  0.91660000  0.51840000  1.0 -0.1132129899
O  O1  1  0.78790000  0.43650000  0.83760000  1.0 -0.5222127757
O  O2  1  0.78790000  0.56350000  0.16240000  1.0 -0.5222127757
O  O3  1  0.21210000  0.06350000  0.33760000  1.0 -0.5222127757
O  O4  1  0.21210000  0.93650000  0.66240000  1.0 -0.5222127757
O  O5  1  0.87810000  0.53580000  0.77600000  1.0 -0.4535514063
O  O6  1  0.87810000  0.46420000  0.22400000  1.0 -0.4535514063
O  O7  1  0.12190000  0.96420000  0.27600000  1.0 -0.4535514063
O  O8  1  0.12190000  0.03580000  0.72400000  1.0 -0.4535514063
O  O9  1  0.88740000  0.97820000  0.75580000  1.0 -0.5222127757
O  O10  1  0.88740000  0.02180000  0.24420000  1.0 -0.5222127757
O  O11  1  0.11260000  0.52180000  0.25580000  1.0 -0.5222127757
O  O12  1  0.11260000  0.47820000  0.74420000  1.0 -0.5222127757
O  O13  1  0.96090000  0.99360000  0.85000000  1.0 -0.4004256001
O  O14  1  0.96090000  0.00640000  0.15000000  1.0 -0.4004256001
O  O15  1  0.03910000  0.50640000  0.35000000  1.0 -0.4004256001
O  O16  1  0.03910000  0.49360000  0.65000000  1.0 -0.4004256001
O  O17  1  0.74560000  0.71160000  0.86310000  1.0 -0.4935449308
O  O18  1  0.74560000  0.28840000  0.13690000  1.0 -0.4935449308
O  O19  1  0.25440000  0.78840000  0.36310000  1.0 -0.4935449308
O  O20  1  0.25440000  0.21160000  0.63690000  1.0 -0.4935449308
O  O21  1  0.62810000  0.62010000  0.81310000  1.0 -0.5044122583
O  O22  1  0.62810000  0.37990000  0.18690000  1.0 -0.5044122583
O  O23  1  0.37190000  0.87990000  0.31310000  1.0 -0.5044122583
O  O24  1  0.37190000  0.12010000  0.68690000  1.0 -0.5044122583
O  O25  1  0.61700000  0.17200000  0.75339000  1.0 -0.5434120244
O  O26  1  0.61700000  0.82800000  0.24661000  1.0 -0.5434120244
O  O27  1  0.38300000  0.32800000  0.25339000  1.0 -0.5434120244
O  O28  1  0.38300000  0.67200000  0.74661000  1.0 -0.5434120244
O  O29  1  0.59990000  0.19070000  0.65110000  1.0 -0.483750256
O  O30  1  0.59990000  0.80930000  0.34890000  1.0 -0.483750256
O  O31  1  0.40010000  0.30930000  0.15110000  1.0 -0.483750256
O  O32  1  0.40010000  0.69070000  0.84890000  1.0 -0.483750256
O  O33  1  0.73840000  0.04200000  0.65853000  1.0 -0.1416901036
O  O34  1  0.73840000  0.95800000  0.34147000  1.0 -0.1416901036
O  O35  1  0.26160000  0.45800000  0.15853000  1.0 -0.1416901036
O  O36  1  0.26160000  0.54200000  0.84147000  1.0 -0.1416901036
O  O37  1  0.77580000  0.09670000  0.85276000  1.0 -0.1803295658
O  O38  1  0.77580000  0.90330000  0.14724000  1.0 -0.1729599184
O  O39  1  0.22420000  0.40330000  0.35276000  1.0 -0.1729599184
O  O40  1  0.22420000  0.59670000  0.64724000  1.0 -0.1803295658
O  O41  1  0.91070000  0.57270000  0.92100000  1.0 -0.4619516577
O  O42  1  0.91070000  0.42730000  0.07900000  1.0 -0.4619516577
O  O43  1  0.08930000  0.92730000  0.42100000  1.0 -0.46812051
O  O44  1  0.08930000  0.07270000  0.57900000  1.0 -0.4619516577
