# DDEC6 charges by PACMAN v1.1 (https://github.com/mtap-research/PACMAN-charge/)
data_HOWSET_FSR_pacman
_symmetry_space_group_name_H-M   'P 1'
_cell_length_a   12.47360000
_cell_length_b   12.47360000
_cell_length_c   70.28840000
_cell_angle_alpha   90.00000000
_cell_angle_beta   90.00000000
_cell_angle_gamma   90.00000000
_symmetry_Int_Tables_number   1
_chemical_formula_structural   Cu8H40C71(N2O21)2
_chemical_formula_sum   'Cu32 H160 C284 N16 O168'
_cell_volume   10936.22114420
_cell_formula_units_Z   4
loop_
 _symmetry_equiv_pos_site_id
 _symmetry_equiv_pos_as_xyz
  1  'x, y, z'
loop_
 _atom_site_type_symbol
 _atom_site_label
 _atom_site_symmetry_multiplicity
 _atom_site_fract_x
 _atom_site_fract_y
 _atom_site_fract_z
 _atom_site_occupancy
 _atom_site_charge
Cu  Cu1  1  0.31190000  0.42238000  0.11675000  1.0 0.8340727344
Cu  Cu2  1  0.68810000  0.57762000  0.61675000  1.0 0.8340727344
Cu  Cu3  1  0.07762000  0.81190000  0.36675000  1.0 0.8340727344
Cu  Cu4  1  0.92238000  0.18810000  0.86675000  1.0 0.8340727344
Cu  Cu5  1  0.18810000  0.92238000  0.13325000  1.0 0.8340727344
Cu  Cu6  1  0.81190000  0.07762000  0.63325000  1.0 0.8340727344
Cu  Cu7  1  0.42238000  0.31190000  0.88325000  1.0 0.8340727344
Cu  Cu8  1  0.57762000  0.68810000  0.38325000  1.0 0.8340727344
Cu  Cu9  1  0.38252000  0.36155000  0.08271000  1.0 0.8943217352
Cu  Cu10  1  0.61748000  0.63845000  0.58271000  1.0 0.8943217352
Cu  Cu11  1  0.13845000  0.88252000  0.33271000  1.0 0.8960408225
Cu  Cu12  1  0.86155000  0.11748000  0.83271000  1.0 0.8943217352
Cu  Cu13  1  0.11748000  0.86155000  0.16729000  1.0 0.8960408225
Cu  Cu14  1  0.88252000  0.13845000  0.66729000  1.0 0.8943217352
Cu  Cu15  1  0.36155000  0.38252000  0.91729000  1.0 0.8943217352
Cu  Cu16  1  0.63845000  0.61748000  0.41729000  1.0 0.8943217352
Cu  Cu17  1  0.96480000  0.33602000  0.99928000  1.0 0.8384476035
Cu  Cu18  1  0.03520000  0.66398000  0.49928000  1.0 0.8384476035
Cu  Cu19  1  0.16398000  0.46480000  0.24928000  1.0 0.8384476035
Cu  Cu20  1  0.83602000  0.53520000  0.74928000  1.0 0.8384476035
Cu  Cu21  1  0.53520000  0.83602000  0.25072000  1.0 0.8384476035
Cu  Cu22  1  0.46480000  0.16398000  0.75072000  1.0 0.8384476035
Cu  Cu23  1  0.33602000  0.96480000  0.00072000  1.0 0.8384476035
Cu  Cu24  1  0.66398000  0.03520000  0.50072000  1.0 0.8384476035
Cu  Cu25  1  0.76736000  0.38250000  0.00471000  1.0 0.8804249271
Cu  Cu26  1  0.23264000  0.61750000  0.50471000  1.0 0.8804249271
Cu  Cu27  1  0.11750000  0.26736000  0.25471000  1.0 0.8804249271
Cu  Cu28  1  0.88250000  0.73264000  0.75471000  1.0 0.8804249271
Cu  Cu29  1  0.73264000  0.88250000  0.24529000  1.0 0.8804249271
Cu  Cu30  1  0.26736000  0.11750000  0.74529000  1.0 0.8804249271
Cu  Cu31  1  0.38250000  0.76736000  0.99529000  1.0 0.8804249271
Cu  Cu32  1  0.61750000  0.23264000  0.49529000  1.0 0.8804249271
H  H1  1  0.32780000  0.75780000  0.10530000  1.0 0.1418708071
H  H2  1  0.67220000  0.24220000  0.60530000  1.0 0.1418708071
H  H3  1  0.74220000  0.82780000  0.35530000  1.0 0.1418708071
H  H4  1  0.25780000  0.17220000  0.85530000  1.0 0.1418708071
H  H5  1  0.17220000  0.25780000  0.14470000  1.0 0.1418708071
H  H6  1  0.82780000  0.74220000  0.64470000  1.0 0.1418708071
H  H7  1  0.75780000  0.32780000  0.89470000  1.0 0.1418708071
H  H8  1  0.24220000  0.67220000  0.39470000  1.0 0.1418708071
H  H9  1  0.97410000  0.37400000  0.10990000  1.0 0.1308209677
H  H10  1  0.02590000  0.62600000  0.60990000  1.0 0.1308209677
H  H11  1  0.12600000  0.47410000  0.35990000  1.0 0.1308209677
H  H12  1  0.87400000  0.52590000  0.85990000  1.0 0.1308209677
H  H13  1  0.52590000  0.87400000  0.14010000  1.0 0.1308209677
H  H14  1  0.47410000  0.12600000  0.64010000  1.0 0.1308209677
H  H15  1  0.37400000  0.97410000  0.89010000  1.0 0.1308209677
H  H16  1  0.62600000  0.02590000  0.39010000  1.0 0.1308209677
H  H17  1  0.36370000  0.97550000  0.06310000  1.0 0.1418708071
H  H18  1  0.63630000  0.02450000  0.56310000  1.0 0.1418708071
H  H19  1  0.52450000  0.86370000  0.31310000  1.0 0.1418708071
H  H20  1  0.47550000  0.13630000  0.81310000  1.0 0.1418708071
H  H21  1  0.13630000  0.47550000  0.18690000  1.0 0.1418708071
H  H22  1  0.86370000  0.52450000  0.68690000  1.0 0.1418708071
H  H23  1  0.97550000  0.36370000  0.93690000  1.0 0.1418708071
H  H24  1  0.02450000  0.63630000  0.43690000  1.0 0.1418708071
H  H25  1  0.07600000  0.32880000  0.05600000  1.0 0.1496329244
H  H26  1  0.92400000  0.67120000  0.55600000  1.0 0.1496329244
H  H27  1  0.17120000  0.57600000  0.30600000  1.0 0.1496329244
H  H28  1  0.82880000  0.42400000  0.80600000  1.0 0.1496329244
H  H29  1  0.42400000  0.82880000  0.19400000  1.0 0.1496329244
H  H30  1  0.57600000  0.17120000  0.69400000  1.0 0.1496329244
H  H31  1  0.32880000  0.07600000  0.94400000  1.0 0.1496329244
H  H32  1  0.67120000  0.92400000  0.44400000  1.0 0.1496329244
H  H33  1  0.35180000  0.66040000  0.05120000  1.0 0.1496329244
H  H34  1  0.64820000  0.33960000  0.55120000  1.0 0.1496329244
H  H35  1  0.83960000  0.85180000  0.30120000  1.0 0.1496329244
H  H36  1  0.16040000  0.14820000  0.80120000  1.0 0.1496329244
H  H37  1  0.14820000  0.16040000  0.19880000  1.0 0.1496329244
H  H38  1  0.85180000  0.83960000  0.69880000  1.0 0.1496329244
H  H39  1  0.66040000  0.35180000  0.94880000  1.0 0.1496329244
H  H40  1  0.33960000  0.64820000  0.44880000  1.0 0.1496329244
H  H41  1  0.76170000  0.37580000  0.06700000  1.0 0.1308209677
H  H42  1  0.23830000  0.62420000  0.56700000  1.0 0.1308209677
H  H43  1  0.12420000  0.26170000  0.31700000  1.0 0.1308209677
H  H44  1  0.87580000  0.73830000  0.81700000  1.0 0.1308209677
H  H45  1  0.73830000  0.87580000  0.18300000  1.0 0.1308209677
H  H46  1  0.26170000  0.12420000  0.68300000  1.0 0.1308209677
H  H47  1  0.37580000  0.76170000  0.93300000  1.0 0.1308209677
H  H48  1  0.62420000  0.23830000  0.43300000  1.0 0.1308209677
H  H49  1  0.64810000  0.51020000  0.12910000  1.0 0.1090318044
H  H50  1  0.35190000  0.48980000  0.62910000  1.0 0.1090318044
H  H51  1  0.98980000  0.14810000  0.37910000  1.0 0.1090318044
H  H52  1  0.01020000  0.85190000  0.87910000  1.0 0.1090318044
H  H53  1  0.85190000  0.01020000  0.12090000  1.0 0.1090318044
H  H54  1  0.14810000  0.98980000  0.62090000  1.0 0.1090318044
H  H55  1  0.51020000  0.64810000  0.87090000  1.0 0.1090318044
H  H56  1  0.48980000  0.35190000  0.37090000  1.0 0.1090318044
H  H57  1  0.56660000  0.19720000  0.12780000  1.0 0.1308209677
H  H58  1  0.43340000  0.80280000  0.62780000  1.0 0.1308209677
H  H59  1  0.30280000  0.06660000  0.37780000  1.0 0.1308209677
H  H60  1  0.69720000  0.93340000  0.87780000  1.0 0.1308209677
H  H61  1  0.93340000  0.69720000  0.12220000  1.0 0.1308209677
H  H62  1  0.06660000  0.30280000  0.62220000  1.0 0.1308209677
H  H63  1  0.19720000  0.56660000  0.87220000  1.0 0.1308209677
H  H64  1  0.80280000  0.43340000  0.37220000  1.0 0.1308209677
H  H65  1  0.57700000  0.07750000  0.13500000  1.0 0.0866477454
H  H66  1  0.42300000  0.92250000  0.63500000  1.0 0.0866477454
H  H67  1  0.42250000  0.07700000  0.38500000  1.0 0.0866477454
H  H68  1  0.57750000  0.92300000  0.88500000  1.0 0.0866477454
H  H69  1  0.92300000  0.57750000  0.11500000  1.0 0.0866477454
H  H70  1  0.07700000  0.42250000  0.61500000  1.0 0.0866477454
H  H71  1  0.07750000  0.57700000  0.86500000  1.0 0.0866477454
H  H72  1  0.92250000  0.42300000  0.36500000  1.0 0.0866477454
H  H73  1  0.39320000  0.08250000  0.13160000  1.0 0.1208783244
H  H74  1  0.60680000  0.91750000  0.63160000  1.0 0.1208783244
H  H75  1  0.41750000  0.89320000  0.38160000  1.0 0.1208783244
H  H76  1  0.58250000  0.10680000  0.88160000  1.0 0.1208783244
H  H77  1  0.10680000  0.58250000  0.11840000  1.0 0.1208783244
H  H78  1  0.89320000  0.41750000  0.61840000  1.0 0.1208783244
H  H79  1  0.08250000  0.39320000  0.86840000  1.0 0.1208783244
H  H80  1  0.91750000  0.60680000  0.36840000  1.0 0.1208783244
H  H81  1  0.54100000  0.99620000  0.08470000  1.0 0.1090318044
H  H82  1  0.45900000  0.00380000  0.58470000  1.0 0.1090318044
H  H83  1  0.50380000  0.04100000  0.33470000  1.0 0.1090318044
H  H84  1  0.49620000  0.95900000  0.83470000  1.0 0.1090318044
H  H85  1  0.95900000  0.49620000  0.16530000  1.0 0.1090318044
H  H86  1  0.04100000  0.50380000  0.66530000  1.0 0.1090318044
H  H87  1  0.99620000  0.54100000  0.91530000  1.0 0.1090318044
H  H88  1  0.00380000  0.45900000  0.41530000  1.0 0.1090318044
H  H89  1  0.57080000  0.93090000  0.10320000  1.0 0.1090318044
H  H90  1  0.42920000  0.06910000  0.60320000  1.0 0.1090318044
H  H91  1  0.56910000  0.07080000  0.35320000  1.0 0.1090318044
H  H92  1  0.43090000  0.92920000  0.85320000  1.0 0.1090318044
H  H93  1  0.92920000  0.43090000  0.14680000  1.0 0.1090318044
H  H94  1  0.07080000  0.56910000  0.64680000  1.0 0.1090318044
H  H95  1  0.93090000  0.57080000  0.89680000  1.0 0.1090318044
H  H96  1  0.06910000  0.42920000  0.39680000  1.0 0.1090318044
H  H97  1  0.72560000  0.55190000  0.07540000  1.0 0.1090318044
H  H98  1  0.27440000  0.44810000  0.57540000  1.0 0.1090318044
H  H99  1  0.94810000  0.22560000  0.32540000  1.0 0.1090318044
H  H100  1  0.05190000  0.77440000  0.82540000  1.0 0.1090318044
H  H101  1  0.77440000  0.05190000  0.17460000  1.0 0.1090318044
H  H102  1  0.22560000  0.94810000  0.67460000  1.0 0.1090318044
H  H103  1  0.55190000  0.72560000  0.92460000  1.0 0.1090318044
H  H104  1  0.44810000  0.27440000  0.42460000  1.0 0.1090318044
H  H105  1  0.80130000  0.61350000  0.08990000  1.0 0.1090318044
H  H106  1  0.19870000  0.38650000  0.58990000  1.0 0.1090318044
H  H107  1  0.88650000  0.30130000  0.33990000  1.0 0.1090318044
H  H108  1  0.11350000  0.69870000  0.83990000  1.0 0.1090318044
H  H109  1  0.69870000  0.11350000  0.16010000  1.0 0.1090318044
H  H110  1  0.30130000  0.88650000  0.66010000  1.0 0.1090318044
H  H111  1  0.61350000  0.80130000  0.91010000  1.0 0.1090318044
H  H112  1  0.38650000  0.19870000  0.41010000  1.0 0.1090318044
H  H113  1  0.68190000  0.07020000  0.10760000  1.0 0.1090318044
H  H114  1  0.31810000  0.92980000  0.60760000  1.0 0.1090318044
H  H115  1  0.42980000  0.18190000  0.35760000  1.0 0.1090318044
H  H116  1  0.57020000  0.81810000  0.85760000  1.0 0.1090318044
H  H117  1  0.81810000  0.57020000  0.14240000  1.0 0.1090318044
H  H118  1  0.18190000  0.42980000  0.64240000  1.0 0.1090318044
H  H119  1  0.07020000  0.68190000  0.89240000  1.0 0.1090318044
H  H120  1  0.92980000  0.31810000  0.39240000  1.0 0.1090318044
H  H121  1  0.60620000  0.15030000  0.09660000  1.0 0.1308209677
H  H122  1  0.39380000  0.84970000  0.59660000  1.0 0.1308209677
H  H123  1  0.34970000  0.10620000  0.34660000  1.0 0.1308209677
H  H124  1  0.65030000  0.89380000  0.84660000  1.0 0.1308209677
H  H125  1  0.89380000  0.65030000  0.15340000  1.0 0.1308209677
H  H126  1  0.10620000  0.34970000  0.65340000  1.0 0.1308209677
H  H127  1  0.15030000  0.60620000  0.90340000  1.0 0.1308209677
H  H128  1  0.84970000  0.39380000  0.40340000  1.0 0.1308209677
H  H129  1  0.53400000  0.65970000  0.11380000  1.0 0.1308209677
H  H130  1  0.46600000  0.34030000  0.61380000  1.0 0.1308209677
H  H131  1  0.84030000  0.03400000  0.36380000  1.0 0.1308209677
H  H132  1  0.15970000  0.96600000  0.86380000  1.0 0.1308209677
H  H133  1  0.96600000  0.15970000  0.13620000  1.0 0.1308209677
H  H134  1  0.03400000  0.84030000  0.63620000  1.0 0.1308209677
H  H135  1  0.65970000  0.53400000  0.88620000  1.0 0.1308209677
H  H136  1  0.34030000  0.46600000  0.38620000  1.0 0.1308209677
H  H137  1  0.65280000  0.68400000  0.12000000  1.0 0.1308209677
H  H138  1  0.34720000  0.31600000  0.62000000  1.0 0.1308209677
H  H139  1  0.81600000  0.15280000  0.37000000  1.0 0.1308209677
H  H140  1  0.18400000  0.84720000  0.87000000  1.0 0.1308209677
H  H141  1  0.84720000  0.18400000  0.13000000  1.0 0.1308209677
H  H142  1  0.15280000  0.81600000  0.63000000  1.0 0.1308209677
H  H143  1  0.68400000  0.65280000  0.88000000  1.0 0.1308209677
H  H144  1  0.31600000  0.34720000  0.38000000  1.0 0.1308209677
H  H145  1  0.65580000  0.73000000  0.09220000  1.0 0.1208783244
H  H146  1  0.34420000  0.27000000  0.59220000  1.0 0.1208783244
H  H147  1  0.77000000  0.15580000  0.34220000  1.0 0.1208783244
H  H148  1  0.23000000  0.84420000  0.84220000  1.0 0.1208783244
H  H149  1  0.84420000  0.23000000  0.15780000  1.0 0.1208783244
H  H150  1  0.15580000  0.77000000  0.65780000  1.0 0.1208783244
H  H151  1  0.73000000  0.65580000  0.90780000  1.0 0.1208783244
H  H152  1  0.27000000  0.34420000  0.40780000  1.0 0.1208783244
H  H153  1  0.57380000  0.64120000  0.08590000  1.0 0.1208783244
H  H154  1  0.42620000  0.35880000  0.58590000  1.0 0.1208783244
H  H155  1  0.85880000  0.07380000  0.33590000  1.0 0.1208783244
H  H156  1  0.14120000  0.92620000  0.83590000  1.0 0.1208783244
H  H157  1  0.92620000  0.14120000  0.16410000  1.0 0.1208783244
H  H158  1  0.07380000  0.85880000  0.66410000  1.0 0.1208783244
H  H159  1  0.64120000  0.57380000  0.91410000  1.0 0.1208783244
H  H160  1  0.35880000  0.42620000  0.41410000  1.0 0.1208783244
C  C1  1  0.33410000  0.57860000  0.08577000  1.0 0.5593568339
C  C2  1  0.66590000  0.42140000  0.58577000  1.0 0.5593568339
C  C3  1  0.92140000  0.83410000  0.33577000  1.0 0.5593568339
C  C4  1  0.07860000  0.16590000  0.83577000  1.0 0.5593568339
C  C5  1  0.16590000  0.07860000  0.16423000  1.0 0.5593568339
C  C6  1  0.83410000  0.92140000  0.66423000  1.0 0.5593568339
C  C7  1  0.57860000  0.33410000  0.91423000  1.0 0.5593568339
C  C8  1  0.42140000  0.66590000  0.41423000  1.0 0.5593568339
C  C9  1  0.15530000  0.35480000  0.09082000  1.0 0.5698878213
C  C10  1  0.84470000  0.64520000  0.59082000  1.0 0.5698878213
C  C11  1  0.14520000  0.65530000  0.34082000  1.0 0.5698878213
C  C12  1  0.85480000  0.34470000  0.84082000  1.0 0.5698878213
C  C13  1  0.34470000  0.85480000  0.15918000  1.0 0.5698878213
C  C14  1  0.65530000  0.14520000  0.65918000  1.0 0.5698878213
C  C15  1  0.35480000  0.15530000  0.90918000  1.0 0.5698878213
C  C16  1  0.64520000  0.84470000  0.40918000  1.0 0.5698878213
C  C17  1  0.33800000  0.77360000  0.09248000  1.0 -0.1285031744
C  C18  1  0.66200000  0.22640000  0.59248000  1.0 -0.1285031744
C  C19  1  0.72640000  0.83800000  0.34248000  1.0 -0.1285031744
C  C20  1  0.27360000  0.16200000  0.84248000  1.0 -0.1285031744
C  C21  1  0.16200000  0.27360000  0.15752000  1.0 -0.1285031744
C  C22  1  0.83800000  0.72640000  0.65752000  1.0 -0.1285031744
C  C23  1  0.77360000  0.33800000  0.90752000  1.0 -0.1285031744
C  C24  1  0.22640000  0.66200000  0.40752000  1.0 -0.1285031744
C  C25  1  0.95900000  0.36870000  0.09702000  1.0 -0.1400488878
C  C26  1  0.04100000  0.63130000  0.59702000  1.0 -0.1400488878
C  C27  1  0.13130000  0.45900000  0.34702000  1.0 -0.1400488878
C  C28  1  0.86870000  0.54100000  0.84702000  1.0 -0.1400488878
C  C29  1  0.54100000  0.86870000  0.15298000  1.0 -0.1400488878
C  C30  1  0.45900000  0.13130000  0.65298000  1.0 -0.1400488878
C  C31  1  0.36870000  0.95900000  0.90298000  1.0 -0.1400488878
C  C32  1  0.63130000  0.04100000  0.40298000  1.0 -0.1400488878
C  C33  1  0.89290000  0.34910000  0.03759000  1.0 0.5698878213
C  C34  1  0.10710000  0.65090000  0.53759000  1.0 0.5698878213
C  C35  1  0.15090000  0.39290000  0.28759000  1.0 0.5698878213
C  C36  1  0.84910000  0.60710000  0.78759000  1.0 0.5698878213
C  C37  1  0.60710000  0.84910000  0.21241000  1.0 0.5698878213
C  C38  1  0.39290000  0.15090000  0.71241000  1.0 0.5698878213
C  C39  1  0.34910000  0.89290000  0.96241000  1.0 0.5698878213
C  C40  1  0.65090000  0.10710000  0.46241000  1.0 0.5698878213
C  C41  1  0.35070000  0.88050000  0.08661000  1.0 -0.0104804767
C  C42  1  0.64930000  0.11950000  0.58661000  1.0 -0.0104804767
C  C43  1  0.61950000  0.85070000  0.33661000  1.0 -0.0104804767
C  C44  1  0.38050000  0.14930000  0.83661000  1.0 -0.0104804767
C  C45  1  0.14930000  0.38050000  0.16339000  1.0 -0.0104804767
C  C46  1  0.85070000  0.61950000  0.66339000  1.0 -0.0104804767
C  C47  1  0.88050000  0.35070000  0.91339000  1.0 -0.0104804767
C  C48  1  0.11950000  0.64930000  0.41339000  1.0 -0.0104804767
C  C49  1  0.36180000  0.84490000  0.03296000  1.0 0.5698878213
C  C50  1  0.63820000  0.15510000  0.53296000  1.0 0.5698878213
C  C51  1  0.65510000  0.86180000  0.28296000  1.0 0.5698878213
C  C52  1  0.34490000  0.13820000  0.78296000  1.0 0.5698878213
C  C53  1  0.13820000  0.34490000  0.21704000  1.0 0.5698878213
C  C54  1  0.86180000  0.65510000  0.71704000  1.0 0.5698878213
C  C55  1  0.84490000  0.36180000  0.96704000  1.0 0.5698878213
C  C56  1  0.15510000  0.63820000  0.46704000  1.0 0.5698878213
C  C57  1  0.34420000  0.96780000  0.10121000  1.0 0.413354355
C  C58  1  0.65580000  0.03220000  0.60121000  1.0 0.413354355
C  C59  1  0.53220000  0.84420000  0.35121000  1.0 0.413354355
C  C60  1  0.46780000  0.15580000  0.85121000  1.0 0.413354355
C  C61  1  0.15580000  0.46780000  0.14879000  1.0 0.413354355
C  C62  1  0.84420000  0.53220000  0.64879000  1.0 0.413354355
C  C63  1  0.96780000  0.34420000  0.89879000  1.0 0.413354355
C  C64  1  0.03220000  0.65580000  0.39879000  1.0 0.413354355
C  C65  1  0.35780000  0.90490000  0.06719000  1.0 -0.1400488878
C  C66  1  0.64220000  0.09510000  0.56719000  1.0 -0.1400488878
C  C67  1  0.59510000  0.85780000  0.31719000  1.0 -0.1400488878
C  C68  1  0.40490000  0.14220000  0.81719000  1.0 -0.1400488878
C  C69  1  0.14220000  0.40490000  0.18281000  1.0 -0.1400488878
C  C70  1  0.85780000  0.59510000  0.68281000  1.0 -0.1400488878
C  C71  1  0.90490000  0.35780000  0.93281000  1.0 -0.1400488878
C  C72  1  0.09510000  0.64220000  0.43281000  1.0 -0.1400488878
C  C73  1  0.34060000  0.69210000  0.07925000  1.0 -0.0216534245
C  C74  1  0.65940000  0.30790000  0.57925000  1.0 -0.0216534245
C  C75  1  0.80790000  0.84060000  0.32925000  1.0 -0.0216534245
C  C76  1  0.19210000  0.15940000  0.82925000  1.0 -0.0216534245
C  C77  1  0.15940000  0.19210000  0.17075000  1.0 -0.0216534245
C  C78  1  0.84060000  0.80790000  0.67075000  1.0 -0.0216534245
C  C79  1  0.69210000  0.34060000  0.92075000  1.0 -0.0216534245
C  C80  1  0.30790000  0.65940000  0.42075000  1.0 -0.0216534245
C  C81  1  0.52570000  0.45840000  0.11158000  1.0 0.5698878213
C  C82  1  0.47430000  0.54160000  0.61158000  1.0 0.5698878213
C  C83  1  0.04160000  0.02570000  0.36158000  1.0 0.5698878213
C  C84  1  0.95840000  0.97430000  0.86158000  1.0 0.5698878213
C  C85  1  0.97430000  0.95840000  0.13842000  1.0 0.5698878213
C  C86  1  0.02570000  0.04160000  0.63842000  1.0 0.5698878213
C  C87  1  0.45840000  0.52570000  0.88842000  1.0 0.5698878213
C  C88  1  0.54160000  0.47430000  0.38842000  1.0 0.5698878213
C  C89  1  0.85300000  0.37820000  0.09055000  1.0 -0.0104804767
C  C90  1  0.14700000  0.62180000  0.59055000  1.0 -0.0104804767
C  C91  1  0.12180000  0.35300000  0.34055000  1.0 -0.0104804767
C  C92  1  0.87820000  0.64700000  0.84055000  1.0 -0.0104804767
C  C93  1  0.64700000  0.87820000  0.15945000  1.0 -0.0104804767
C  C94  1  0.35300000  0.12180000  0.65945000  1.0 -0.0104804767
C  C95  1  0.37820000  0.85300000  0.90945000  1.0 -0.0104804767
C  C96  1  0.62180000  0.14700000  0.40945000  1.0 -0.0104804767
C  C97  1  0.04080000  0.35150000  0.08415000  1.0 -0.002978848
C  C98  1  0.95920000  0.64850000  0.58415000  1.0 -0.002978848
C  C99  1  0.14850000  0.54080000  0.33415000  1.0 -0.002978848
C  C100  1  0.85150000  0.45920000  0.83415000  1.0 -0.002978848
C  C101  1  0.45920000  0.85150000  0.16585000  1.0 -0.002978848
C  C102  1  0.54080000  0.14850000  0.66585000  1.0 -0.002978848
C  C103  1  0.35150000  0.04080000  0.91585000  1.0 -0.002978848
C  C104  1  0.64850000  0.95920000  0.41585000  1.0 -0.002978848
C  C105  1  0.02050000  0.34100000  0.06456000  1.0 -0.1065070043
C  C106  1  0.97950000  0.65900000  0.56456000  1.0 -0.1065070043
C  C107  1  0.15900000  0.52050000  0.31456000  1.0 -0.1065070043
C  C108  1  0.84100000  0.47950000  0.81456000  1.0 -0.1065070043
C  C109  1  0.47950000  0.84100000  0.18544000  1.0 -0.1065070043
C  C110  1  0.52050000  0.15900000  0.68544000  1.0 -0.1065070043
C  C111  1  0.34100000  0.02050000  0.93544000  1.0 -0.1065070043
C  C112  1  0.65900000  0.97950000  0.43544000  1.0 -0.1065070043
C  C113  1  0.38830000  0.20860000  0.11191000  1.0 0.5698878213
C  C114  1  0.61170000  0.79140000  0.61191000  1.0 0.5698878213
C  C115  1  0.29140000  0.88830000  0.36191000  1.0 0.5698878213
C  C116  1  0.70860000  0.11170000  0.86191000  1.0 0.5698878213
C  C117  1  0.11170000  0.70860000  0.13809000  1.0 0.5698878213
C  C118  1  0.88830000  0.29140000  0.63809000  1.0 0.5698878213
C  C119  1  0.20860000  0.38830000  0.88809000  1.0 0.5698878213
C  C120  1  0.79140000  0.61170000  0.38809000  1.0 0.5698878213
C  C121  1  0.76490000  0.40440000  0.10501000  1.0 0.399340558
C  C122  1  0.23510000  0.59560000  0.60501000  1.0 0.399340558
C  C123  1  0.09560000  0.26490000  0.35501000  1.0 0.399340558
C  C124  1  0.90440000  0.73510000  0.85501000  1.0 0.399340558
C  C125  1  0.73510000  0.90440000  0.14499000  1.0 0.399340558
C  C126  1  0.26490000  0.09560000  0.64499000  1.0 0.399340558
C  C127  1  0.40440000  0.76490000  0.89499000  1.0 0.399340558
C  C128  1  0.59560000  0.23510000  0.39499000  1.0 0.399340558
C  C129  1  0.34980000  0.71540000  0.06006000  1.0 -0.1065070043
C  C130  1  0.65020000  0.28460000  0.56006000  1.0 -0.1065070043
C  C131  1  0.78460000  0.84980000  0.31006000  1.0 -0.1065070043
C  C132  1  0.21540000  0.15020000  0.81006000  1.0 -0.1065070043
C  C133  1  0.15020000  0.21540000  0.18994000  1.0 -0.1065070043
C  C134  1  0.84980000  0.78460000  0.68994000  1.0 -0.1065070043
C  C135  1  0.71540000  0.34980000  0.93994000  1.0 -0.1065070043
C  C136  1  0.28460000  0.65020000  0.43994000  1.0 -0.1065070043
C  C137  1  0.91580000  0.34940000  0.05848000  1.0 -0.0104804767
C  C138  1  0.08420000  0.65060000  0.55848000  1.0 -0.0104804767
C  C139  1  0.15060000  0.41580000  0.30848000  1.0 -0.0104804767
C  C140  1  0.84940000  0.58420000  0.80848000  1.0 -0.0104804767
C  C141  1  0.58420000  0.84940000  0.19152000  1.0 -0.0104804767
C  C142  1  0.41580000  0.15060000  0.69152000  1.0 -0.0104804767
C  C143  1  0.34940000  0.91580000  0.94152000  1.0 -0.0104804767
C  C144  1  0.65060000  0.08420000  0.44152000  1.0 -0.0104804767
C  C145  1  0.83170000  0.36900000  0.07138000  1.0 -0.1400488878
C  C146  1  0.16830000  0.63100000  0.57138000  1.0 -0.1400488878
C  C147  1  0.13100000  0.33170000  0.32138000  1.0 -0.1400488878
C  C148  1  0.86900000  0.66830000  0.82138000  1.0 -0.1400488878
C  C149  1  0.66830000  0.86900000  0.17862000  1.0 -0.1400488878
C  C150  1  0.33170000  0.13100000  0.67862000  1.0 -0.1400488878
C  C151  1  0.36900000  0.83170000  0.92862000  1.0 -0.1400488878
C  C152  1  0.63100000  0.16830000  0.42862000  1.0 -0.1400488878
C  C153  1  0.62590000  0.52100000  0.11589000  1.0 -0.0470657683
C  C154  1  0.37410000  0.47900000  0.61589000  1.0 -0.0470657683
C  C155  1  0.97900000  0.12590000  0.36589000  1.0 -0.0434406364
C  C156  1  0.02100000  0.87410000  0.86589000  1.0 -0.0470657683
C  C157  1  0.87410000  0.02100000  0.13411000  1.0 -0.0470657683
C  C158  1  0.12590000  0.97900000  0.63411000  1.0 -0.0470657683
C  C159  1  0.52100000  0.62590000  0.88411000  1.0 -0.0470657683
C  C160  1  0.47900000  0.37410000  0.38411000  1.0 -0.0470657683
C  C161  1  0.35580000  0.82090000  0.05423000  1.0 -0.002978848
C  C162  1  0.64420000  0.17910000  0.55423000  1.0 -0.002978848
C  C163  1  0.67910000  0.85580000  0.30423000  1.0 -0.002978848
C  C164  1  0.32090000  0.14420000  0.80423000  1.0 -0.002978848
C  C165  1  0.14420000  0.32090000  0.19577000  1.0 -0.002978848
C  C166  1  0.85580000  0.67910000  0.69577000  1.0 -0.002978848
C  C167  1  0.82090000  0.35580000  0.94577000  1.0 -0.002978848
C  C168  1  0.17910000  0.64420000  0.44577000  1.0 -0.002978848
C  C169  1  0.55290000  0.12280000  0.12463000  1.0 -0.1883019403
C  C170  1  0.44710000  0.87720000  0.62463000  1.0 -0.1883019403
C  C171  1  0.37720000  0.05290000  0.37463000  1.0 -0.1883019403
C  C172  1  0.62280000  0.94710000  0.87463000  1.0 -0.1883019403
C  C173  1  0.94710000  0.62280000  0.12537000  1.0 -0.1883019403
C  C174  1  0.05290000  0.37720000  0.62537000  1.0 -0.1883019403
C  C175  1  0.12280000  0.55290000  0.87537000  1.0 -0.1883019403
C  C176  1  0.87720000  0.44710000  0.37537000  1.0 -0.1883019403
C  C177  1  0.43270000  0.10390000  0.12017000  1.0 -0.0263060991
C  C178  1  0.56730000  0.89610000  0.62017000  1.0 -0.0263060991
C  C179  1  0.39610000  0.93270000  0.37017000  1.0 -0.0263060991
C  C180  1  0.60390000  0.06730000  0.87017000  1.0 -0.0263060991
C  C181  1  0.06730000  0.60390000  0.12983000  1.0 -0.0263060991
C  C182  1  0.93270000  0.39610000  0.62983000  1.0 -0.0263060991
C  C183  1  0.10390000  0.43270000  0.87983000  1.0 -0.0263060991
C  C184  1  0.89610000  0.56730000  0.37983000  1.0 -0.0263060991
C  C185  1  0.54200000  0.99810000  0.09851000  1.0 -0.1003017664
C  C186  1  0.45800000  0.00190000  0.59851000  1.0 -0.1003017664
C  C187  1  0.50190000  0.04200000  0.34851000  1.0 -0.1003017664
C  C188  1  0.49810000  0.95800000  0.84851000  1.0 -0.1003017664
C  C189  1  0.95800000  0.49810000  0.15149000  1.0 -0.1003017664
C  C190  1  0.04200000  0.50190000  0.65149000  1.0 -0.1003017664
C  C191  1  0.99810000  0.54200000  0.90149000  1.0 -0.1003017664
C  C192  1  0.00190000  0.45800000  0.40149000  1.0 -0.1003017664
C  C193  1  0.73230000  0.57870000  0.08831000  1.0 -0.0857278489
C  C194  1  0.26770000  0.42130000  0.58831000  1.0 -0.0857278489
C  C195  1  0.92130000  0.23230000  0.33831000  1.0 -0.0857278489
C  C196  1  0.07870000  0.76770000  0.83831000  1.0 -0.0857278489
C  C197  1  0.76770000  0.07870000  0.16169000  1.0 -0.0857278489
C  C198  1  0.23230000  0.92130000  0.66169000  1.0 -0.0857278489
C  C199  1  0.57870000  0.73230000  0.91169000  1.0 -0.0857278489
C  C200  1  0.42130000  0.26770000  0.41169000  1.0 -0.0857278489
C  C201  1  0.60800000  0.09130000  0.10554000  1.0 -0.1582290045
C  C202  1  0.39200000  0.90870000  0.60554000  1.0 -0.1582290045
C  C203  1  0.40870000  0.10800000  0.35554000  1.0 -0.1582290045
C  C204  1  0.59130000  0.89200000  0.85554000  1.0 -0.1582290045
C  C205  1  0.89200000  0.59130000  0.14446000  1.0 -0.1582290045
C  C206  1  0.10800000  0.40870000  0.64446000  1.0 -0.1582290045
C  C207  1  0.09130000  0.60800000  0.89446000  1.0 -0.1582290045
C  C208  1  0.90870000  0.39200000  0.39446000  1.0 -0.1582290045
C  C209  1  0.70480000  0.00670000  0.99900000  1.0 0.0477000919
C  C210  1  0.29520000  0.99330000  0.49900000  1.0 0.0477000919
C  C211  1  0.49330000  0.20480000  0.24900000  1.0 0.0477000919
C  C212  1  0.50670000  0.79520000  0.74900000  1.0 0.0477000919
C  C213  1  0.79520000  0.50670000  0.25100000  1.0 0.0477000919
C  C214  1  0.20480000  0.49330000  0.75100000  1.0 0.0477000919
C  C215  1  0.00670000  0.70480000  0.00100000  1.0 0.0477000919
C  C216  1  0.99330000  0.29520000  0.50100000  1.0 0.0477000919
C  C217  1  0.60840000  0.64050000  0.11170000  1.0 -0.182398294
C  C218  1  0.39160000  0.35950000  0.61170000  1.0 -0.182398294
C  C219  1  0.85950000  0.10840000  0.36170000  1.0 -0.182398294
C  C220  1  0.14050000  0.89160000  0.86170000  1.0 -0.182398294
C  C221  1  0.89160000  0.14050000  0.13830000  1.0 -0.182398294
C  C222  1  0.10840000  0.85950000  0.63830000  1.0 -0.182398294
C  C223  1  0.64050000  0.60840000  0.88830000  1.0 -0.182398294
C  C224  1  0.35950000  0.39160000  0.38830000  1.0 -0.182398294
C  C225  1  0.68290000  0.91560000  0.99850000  1.0 -0.0470657683
C  C226  1  0.31710000  0.08440000  0.49850000  1.0 -0.0434406364
C  C227  1  0.58440000  0.18290000  0.24850000  1.0 -0.0434406364
C  C228  1  0.41560000  0.81710000  0.74850000  1.0 -0.0434406364
C  C229  1  0.81710000  0.41560000  0.25150000  1.0 -0.0434406364
C  C230  1  0.18290000  0.58440000  0.75150000  1.0 -0.0470657683
C  C231  1  0.91560000  0.68290000  0.00150000  1.0 -0.0434406364
C  C232  1  0.08440000  0.31710000  0.50150000  1.0 -0.0470657683
C  C233  1  0.63490000  0.65580000  0.09401000  1.0 -0.1582290045
C  C234  1  0.36510000  0.34420000  0.59401000  1.0 -0.1582290045
C  C235  1  0.84420000  0.13490000  0.34401000  1.0 -0.1582290045
C  C236  1  0.15580000  0.86510000  0.84401000  1.0 -0.1582290045
C  C237  1  0.86510000  0.15580000  0.15599000  1.0 -0.1582290045
C  C238  1  0.13490000  0.84420000  0.65599000  1.0 -0.1582290045
C  C239  1  0.65580000  0.63490000  0.90599000  1.0 -0.1582290045
C  C240  1  0.34420000  0.36510000  0.40599000  1.0 -0.1582290045
C  C241  1  0.54430000  0.89150000  0.99630000  1.0 0.5593568339
C  C242  1  0.45570000  0.10850000  0.49630000  1.0 0.5593568339
C  C243  1  0.60850000  0.04430000  0.24630000  1.0 0.5593568339
C  C244  1  0.39150000  0.95570000  0.74630000  1.0 0.5593568339
C  C245  1  0.95570000  0.39150000  0.25370000  1.0 0.5593568339
C  C246  1  0.04430000  0.60850000  0.75370000  1.0 0.5593568339
C  C247  1  0.89150000  0.54430000  0.00370000  1.0 0.5593568339
C  C248  1  0.10850000  0.45570000  0.50370000  1.0 0.5593568339
C  C249  1  0.81790000  0.04310000  0.99960000  1.0 -0.0216534245
C  C250  1  0.18210000  0.95690000  0.49960000  1.0 -0.0216534245
C  C251  1  0.45690000  0.31790000  0.24960000  1.0 -0.0216534245
C  C252  1  0.54310000  0.68210000  0.74960000  1.0 -0.0216534245
C  C253  1  0.68210000  0.54310000  0.25040000  1.0 -0.0216534245
C  C254  1  0.31790000  0.45690000  0.75040000  1.0 -0.0216534245
C  C255  1  0.04310000  0.81790000  0.00040000  1.0 -0.0216534245
C  C256  1  0.95690000  0.18210000  0.50040000  1.0 -0.0216534245
C  C257  1  0.84200000  0.16410000  0.00149000  1.0 0.5815237417
C  C258  1  0.15800000  0.83590000  0.50149000  1.0 0.5815237417
C  C259  1  0.33590000  0.34200000  0.25149000  1.0 0.5815237417
C  C260  1  0.66410000  0.65800000  0.75149000  1.0 0.5815237417
C  C261  1  0.65800000  0.66410000  0.24851000  1.0 0.5815237417
C  C262  1  0.34200000  0.33590000  0.74851000  1.0 0.5815237417
C  C263  1  0.16410000  0.84200000  0.99851000  1.0 0.5815237417
C  C264  1  0.83590000  0.15800000  0.49851000  1.0 0.5815237417
C  C265  1  0.86540000  0.86540000  0.00000000  1.0 0.0264378996
C  C266  1  0.13460000  0.13460000  0.50000000  1.0 0.0246141917
C  C267  1  0.63460000  0.36540000  0.25000000  1.0 0.0264378996
C  C268  1  0.36540000  0.63460000  0.75000000  1.0 0.0264378996
C  C269  1  0.88710000  0.95760000  0.99882000  1.0 -0.0470657683
C  C270  1  0.11290000  0.04240000  0.49882000  1.0 -0.0470657683
C  C271  1  0.54240000  0.38710000  0.24882000  1.0 -0.0470657683
C  C272  1  0.45760000  0.61290000  0.74882000  1.0 -0.0470657683
C  C273  1  0.61290000  0.45760000  0.25118000  1.0 -0.0470657683
C  C274  1  0.38710000  0.54240000  0.75118000  1.0 -0.0470657683
C  C275  1  0.95760000  0.88710000  0.00118000  1.0 -0.0470657683
C  C276  1  0.04240000  0.11290000  0.50118000  1.0 -0.0470657683
C  C277  1  0.76180000  0.83440000  0.99626000  1.0 0.0075008005
C  C278  1  0.23820000  0.16560000  0.49626000  1.0 0.0075008005
C  C279  1  0.66560000  0.26180000  0.24626000  1.0 0.0075008005
C  C280  1  0.33440000  0.73820000  0.74626000  1.0 0.0075008005
C  C281  1  0.73820000  0.33440000  0.25374000  1.0 0.0075008005
C  C282  1  0.26180000  0.66560000  0.75374000  1.0 0.0075008005
C  C283  1  0.83440000  0.76180000  0.00374000  1.0 0.0075008005
C  C284  1  0.16560000  0.23820000  0.50374000  1.0 0.0075008005
N  N1  1  0.43470000  0.01680000  0.10603000  1.0 -0.1003017664
N  N2  1  0.56530000  0.98320000  0.60603000  1.0 -0.1003017664
N  N3  1  0.48320000  0.93470000  0.35603000  1.0 -0.1003017664
N  N4  1  0.51680000  0.06530000  0.85603000  1.0 -0.1065070043
N  N5  1  0.06530000  0.51680000  0.14397000  1.0 -0.1003017664
N  N6  1  0.93470000  0.48320000  0.64397000  1.0 -0.1003017664
N  N7  1  0.01680000  0.43470000  0.89397000  1.0 -0.1003017664
N  N8  1  0.98320000  0.56530000  0.39397000  1.0 -0.1003017664
N  N9  1  0.71490000  0.49360000  0.10259000  1.0 -0.1065070043
N  N10  1  0.28510000  0.50640000  0.60259000  1.0 -0.1065070043
N  N11  1  0.00640000  0.21490000  0.35259000  1.0 -0.1065070043
N  N12  1  0.99360000  0.78510000  0.85259000  1.0 -0.1065070043
N  N13  1  0.78510000  0.99360000  0.14741000  1.0 -0.1065070043
N  N14  1  0.21490000  0.00640000  0.64741000  1.0 -0.1065070043
N  N15  1  0.49360000  0.71490000  0.89741000  1.0 -0.1065070043
N  N16  1  0.50640000  0.28510000  0.39741000  1.0 -0.1065070043
O  O1  1  0.22790000  0.33710000  0.07828000  1.0 -0.5095063717
O  O2  1  0.77210000  0.66290000  0.57828000  1.0 -0.5095063717
O  O3  1  0.16290000  0.72790000  0.32828000  1.0 -0.5095063717
O  O4  1  0.83710000  0.27210000  0.82828000  1.0 -0.5095063717
O  O5  1  0.27210000  0.83710000  0.17172000  1.0 -0.5095063717
O  O6  1  0.72790000  0.16290000  0.67172000  1.0 -0.5095063717
O  O7  1  0.33710000  0.22790000  0.92172000  1.0 -0.5095063717
O  O8  1  0.66290000  0.77210000  0.42172000  1.0 -0.5095063717
O  O9  1  0.39800000  0.22180000  0.09453000  1.0 -0.4882278637
O  O10  1  0.60200000  0.77820000  0.59453000  1.0 -0.4882278637
O  O11  1  0.27820000  0.89800000  0.34453000  1.0 -0.4882278637
O  O12  1  0.72180000  0.10200000  0.84453000  1.0 -0.4882278637
O  O13  1  0.10200000  0.72180000  0.15547000  1.0 -0.4882278637
O  O14  1  0.89800000  0.27820000  0.65547000  1.0 -0.4882278637
O  O15  1  0.22180000  0.39800000  0.90547000  1.0 -0.4882278637
O  O16  1  0.77820000  0.60200000  0.40547000  1.0 -0.4882278637
O  O17  1  0.30140000  0.56070000  0.10222000  1.0 -0.5095063717
O  O18  1  0.69860000  0.43930000  0.60222000  1.0 -0.5095063717
O  O19  1  0.93930000  0.80140000  0.35222000  1.0 -0.5095063717
O  O20  1  0.06070000  0.19860000  0.85222000  1.0 -0.5095063717
O  O21  1  0.19860000  0.06070000  0.14778000  1.0 -0.5095063717
O  O22  1  0.80140000  0.93930000  0.64778000  1.0 -0.5095063717
O  O23  1  0.56070000  0.30140000  0.89778000  1.0 -0.5095063717
O  O24  1  0.43930000  0.69860000  0.39778000  1.0 -0.5095063717
O  O25  1  0.45390000  0.46490000  0.12404000  1.0 -0.4793741264
O  O26  1  0.54610000  0.53510000  0.62404000  1.0 -0.4793741264
O  O27  1  0.03510000  0.95390000  0.37404000  1.0 -0.4793741264
O  O28  1  0.96490000  0.04610000  0.87404000  1.0 -0.4793741264
O  O29  1  0.04610000  0.96490000  0.12596000  1.0 -0.4793741264
O  O30  1  0.95390000  0.03510000  0.62596000  1.0 -0.4793741264
O  O31  1  0.46490000  0.45390000  0.87596000  1.0 -0.4793741264
O  O32  1  0.53510000  0.54610000  0.37596000  1.0 -0.4793741264
O  O33  1  0.17090000  0.37980000  0.10762000  1.0 -0.5095063717
O  O34  1  0.82910000  0.62020000  0.60762000  1.0 -0.5095063717
O  O35  1  0.12020000  0.67090000  0.35762000  1.0 -0.5095063717
O  O36  1  0.87980000  0.32910000  0.85762000  1.0 -0.5095063717
O  O37  1  0.32910000  0.87980000  0.14238000  1.0 -0.5095063717
O  O38  1  0.67090000  0.12020000  0.64238000  1.0 -0.5095063717
O  O39  1  0.37980000  0.17090000  0.89238000  1.0 -0.5095063717
O  O40  1  0.62020000  0.82910000  0.39238000  1.0 -0.5095063717
O  O41  1  0.34950000  0.27400000  0.12381000  1.0 -0.5095063717
O  O42  1  0.65050000  0.72600000  0.62381000  1.0 -0.5095063717
O  O43  1  0.22600000  0.84950000  0.37381000  1.0 -0.5095063717
O  O44  1  0.77400000  0.15050000  0.87381000  1.0 -0.5095063717
O  O45  1  0.15050000  0.77400000  0.12619000  1.0 -0.5095063717
O  O46  1  0.84950000  0.22600000  0.62619000  1.0 -0.5095063717
O  O47  1  0.27400000  0.34950000  0.87619000  1.0 -0.5095063717
O  O48  1  0.72600000  0.65050000  0.37619000  1.0 -0.5095063717
O  O49  1  0.36360000  0.50690000  0.07366000  1.0 -0.5095063717
O  O50  1  0.63640000  0.49310000  0.57366000  1.0 -0.5095063717
O  O51  1  0.99310000  0.86360000  0.32366000  1.0 -0.5095063717
O  O52  1  0.00690000  0.13640000  0.82366000  1.0 -0.5095063717
O  O53  1  0.13640000  0.00690000  0.17634000  1.0 -0.5095063717
O  O54  1  0.86360000  0.99310000  0.67634000  1.0 -0.5095063717
O  O55  1  0.50690000  0.36360000  0.92634000  1.0 -0.5095063717
O  O56  1  0.49310000  0.63640000  0.42634000  1.0 -0.5095063717
O  O57  1  0.25530000  0.99300000  0.10818000  1.0 -0.4701618895
O  O58  1  0.74470000  0.00700000  0.60818000  1.0 -0.4701618895
O  O59  1  0.50700000  0.75530000  0.35818000  1.0 -0.4701618895
O  O60  1  0.49300000  0.24470000  0.85818000  1.0 -0.4701618895
O  O61  1  0.24470000  0.49300000  0.14182000  1.0 -0.4701618895
O  O62  1  0.75530000  0.50700000  0.64182000  1.0 -0.4701618895
O  O63  1  0.99300000  0.25530000  0.89182000  1.0 -0.4701618895
O  O64  1  0.00700000  0.74470000  0.39182000  1.0 -0.4701618895
O  O65  1  0.51770000  0.41160000  0.09542000  1.0 -0.5441961036
O  O66  1  0.48230000  0.58840000  0.59542000  1.0 -0.5441961036
O  O67  1  0.08840000  0.01770000  0.34542000  1.0 -0.5441961036
O  O68  1  0.91160000  0.98230000  0.84542000  1.0 -0.5441961036
O  O69  1  0.98230000  0.91160000  0.15458000  1.0 -0.5441961036
O  O70  1  0.01770000  0.08840000  0.65458000  1.0 -0.5441961036
O  O71  1  0.41160000  0.51770000  0.90458000  1.0 -0.5441961036
O  O72  1  0.58840000  0.48230000  0.40458000  1.0 -0.5441961036
O  O73  1  0.79930000  0.36600000  0.03210000  1.0 -0.5219466352
O  O74  1  0.20070000  0.63400000  0.53210000  1.0 -0.5219466352
O  O75  1  0.13400000  0.29930000  0.28210000  1.0 -0.5219466352
O  O76  1  0.86600000  0.70070000  0.78210000  1.0 -0.5219466352
O  O77  1  0.70070000  0.86600000  0.21790000  1.0 -0.5219466352
O  O78  1  0.29930000  0.13400000  0.71790000  1.0 -0.5219466352
O  O79  1  0.36600000  0.79930000  0.96790000  1.0 -0.5219466352
O  O80  1  0.63400000  0.20070000  0.46790000  1.0 -0.5219466352
O  O81  1  0.96830000  0.33000000  0.02682000  1.0 -0.5095063717
O  O82  1  0.03170000  0.67000000  0.52682000  1.0 -0.5095063717
O  O83  1  0.17000000  0.46830000  0.27682000  1.0 -0.5095063717
O  O84  1  0.83000000  0.53170000  0.77682000  1.0 -0.5095063717
O  O85  1  0.53170000  0.83000000  0.22318000  1.0 -0.5095063717
O  O86  1  0.46830000  0.17000000  0.72318000  1.0 -0.5095063717
O  O87  1  0.33000000  0.96830000  0.97318000  1.0 -0.5095063717
O  O88  1  0.67000000  0.03170000  0.47318000  1.0 -0.5095063717
O  O89  1  0.44840000  0.30700000  0.05637000  1.0 -0.4001727708
O  O90  1  0.55160000  0.69300000  0.55637000  1.0 -0.4001727708
O  O91  1  0.19300000  0.94840000  0.30637000  1.0 -0.4001727708
O  O92  1  0.80700000  0.05160000  0.80637000  1.0 -0.4001727708
O  O93  1  0.05160000  0.80700000  0.19363000  1.0 -0.4001727708
O  O94  1  0.94840000  0.19300000  0.69363000  1.0 -0.4001727708
O  O95  1  0.30700000  0.44840000  0.94363000  1.0 -0.4001727708
O  O96  1  0.69300000  0.55160000  0.44363000  1.0 -0.4001727708
O  O97  1  0.75000000  0.34260000  0.11838000  1.0 -0.4882278637
O  O98  1  0.25000000  0.65740000  0.61838000  1.0 -0.4882278637
O  O99  1  0.15740000  0.25000000  0.36838000  1.0 -0.4882278637
O  O100  1  0.84260000  0.75000000  0.86838000  1.0 -0.4882278637
O  O101  1  0.75000000  0.84260000  0.13162000  1.0 -0.4882278637
O  O102  1  0.25000000  0.15740000  0.63162000  1.0 -0.4882278637
O  O103  1  0.34260000  0.75000000  0.88162000  1.0 -0.4882278637
O  O104  1  0.65740000  0.25000000  0.38162000  1.0 -0.4882278637
O  O105  1  0.75520000  0.21730000  0.00502000  1.0 -0.5557134196
O  O106  1  0.24480000  0.78270000  0.50502000  1.0 -0.5557134196
O  O107  1  0.28270000  0.25520000  0.25502000  1.0 -0.5557134196
O  O108  1  0.71730000  0.74480000  0.75502000  1.0 -0.5557134196
O  O109  1  0.74480000  0.71730000  0.24498000  1.0 -0.5557134196
O  O110  1  0.25520000  0.28270000  0.74498000  1.0 -0.5557134196
O  O111  1  0.21730000  0.75520000  0.99498000  1.0 -0.5557134196
O  O112  1  0.78270000  0.24480000  0.49498000  1.0 -0.5557134196
O  O113  1  0.37790000  0.76640000  0.02259000  1.0 -0.5219466352
O  O114  1  0.62210000  0.23360000  0.52259000  1.0 -0.5219466352
O  O115  1  0.73360000  0.87790000  0.27259000  1.0 -0.5219466352
O  O116  1  0.26640000  0.12210000  0.77259000  1.0 -0.5219466352
O  O117  1  0.12210000  0.26640000  0.22741000  1.0 -0.5219466352
O  O118  1  0.87790000  0.73360000  0.72741000  1.0 -0.5219466352
O  O119  1  0.76640000  0.37790000  0.97741000  1.0 -0.5219466352
O  O120  1  0.23360000  0.62210000  0.47741000  1.0 -0.5219466352
O  O121  1  0.35390000  0.93920000  0.02813000  1.0 -0.4960396447
O  O122  1  0.64610000  0.06080000  0.52813000  1.0 -0.4960396447
O  O123  1  0.56080000  0.85390000  0.27813000  1.0 -0.4960396447
O  O124  1  0.43920000  0.14610000  0.77813000  1.0 -0.4960396447
O  O125  1  0.14610000  0.43920000  0.22187000  1.0 -0.4960396447
O  O126  1  0.85390000  0.56080000  0.72187000  1.0 -0.4960396447
O  O127  1  0.93920000  0.35390000  0.97187000  1.0 -0.4960396447
O  O128  1  0.06080000  0.64610000  0.47187000  1.0 -0.4960396447
O  O129  1  0.93990000  0.18540000  0.99802000  1.0 -0.5219466352
O  O130  1  0.06010000  0.81460000  0.49802000  1.0 -0.5219466352
O  O131  1  0.31460000  0.43990000  0.24802000  1.0 -0.5250183091
O  O132  1  0.68540000  0.56010000  0.74802000  1.0 -0.5219466352
O  O133  1  0.56010000  0.68540000  0.25198000  1.0 -0.5219466352
O  O134  1  0.43990000  0.31460000  0.75198000  1.0 -0.5219466352
O  O135  1  0.18540000  0.93990000  0.00198000  1.0 -0.5250183091
O  O136  1  0.81460000  0.06010000  0.50198000  1.0 -0.5219466352
O  O137  1  0.49930000  0.96420000  0.99877000  1.0 -0.4231812361
O  O138  1  0.50070000  0.03580000  0.49877000  1.0 -0.4231812361
O  O139  1  0.53580000  0.99930000  0.24877000  1.0 -0.4231812361
O  O140  1  0.46420000  0.00070000  0.74877000  1.0 -0.4251888142
O  O141  1  0.00070000  0.46420000  0.25123000  1.0 -0.4231812361
O  O142  1  0.99930000  0.53580000  0.75123000  1.0 -0.4231812361
O  O143  1  0.96420000  0.49930000  0.00123000  1.0 -0.4231812361
O  O144  1  0.03580000  0.50070000  0.50123000  1.0 -0.4231812361
O  O145  1  0.14340000  0.33110000  0.99626000  1.0 0.0866477454
O  O146  1  0.85660000  0.66890000  0.49626000  1.0 0.0866477454
O  O147  1  0.16890000  0.64340000  0.24626000  1.0 0.0866477454
O  O148  1  0.83110000  0.35660000  0.74626000  1.0 0.0866477454
O  O149  1  0.35660000  0.83110000  0.25374000  1.0 0.0866477454
O  O150  1  0.64340000  0.16890000  0.75374000  1.0 0.0866477454
O  O151  1  0.33110000  0.14340000  0.00374000  1.0 0.0866477454
O  O152  1  0.66890000  0.85660000  0.50374000  1.0 0.0866477454
O  O153  1  0.53160000  0.78720000  0.99487000  1.0 -0.4882278637
O  O154  1  0.46840000  0.21280000  0.49487000  1.0 -0.4882278637
O  O155  1  0.71280000  0.03160000  0.24487000  1.0 -0.4882278637
O  O156  1  0.28720000  0.96840000  0.74487000  1.0 -0.4882278637
O  O157  1  0.96840000  0.28720000  0.25513000  1.0 -0.4882278637
O  O158  1  0.03160000  0.71280000  0.75513000  1.0 -0.4882278637
O  O159  1  0.78720000  0.53160000  0.00513000  1.0 -0.4882278637
O  O160  1  0.21280000  0.46840000  0.50513000  1.0 -0.4882278637
O  O161  1  0.58940000  0.40010000  0.00780000  1.0 0.1090318044
O  O162  1  0.41060000  0.59990000  0.50780000  1.0 0.1090318044
O  O163  1  0.09990000  0.08940000  0.25780000  1.0 0.1090318044
O  O164  1  0.90010000  0.91060000  0.75780000  1.0 0.1090318044
O  O165  1  0.91060000  0.90010000  0.24220000  1.0 0.1090318044
O  O166  1  0.08940000  0.09990000  0.74220000  1.0 0.1090318044
O  O167  1  0.40010000  0.58940000  0.99220000  1.0 0.1090318044
O  O168  1  0.59990000  0.41060000  0.49220000  1.0 0.1090318044
