# DDEC6 charges by PACMAN v1.1 (https://github.com/mtap-research/PACMAN-charge/)
data_HOXDUW_ASR_pacman
_symmetry_space_group_name_H-M   'P 1'
_cell_length_a   15.73560000
_cell_length_b   24.33800000
_cell_length_c   19.02260000
_cell_angle_alpha   90.00000000
_cell_angle_beta   107.61000000
_cell_angle_gamma   90.00000000
_symmetry_Int_Tables_number   1
_chemical_formula_structural   K3H143C84O71
_chemical_formula_sum   'K6 H286 C168 O142'
_cell_volume   6943.74557534
_cell_formula_units_Z   2
loop_
 _symmetry_equiv_pos_site_id
 _symmetry_equiv_pos_as_xyz
  1  'x, y, z'
loop_
 _atom_site_type_symbol
 _atom_site_label
 _atom_site_symmetry_multiplicity
 _atom_site_fract_x
 _atom_site_fract_y
 _atom_site_fract_z
 _atom_site_occupancy
 _atom_site_charge
K  K1  1  0.94272000  0.21263000  0.38522000  1.0 0.6879892249
K  K2  1  0.93970000  0.38130000  0.80810000  1.0 0.5626318056
K  K3  1  0.53755000  0.88089000  0.16116000  1.0 0.628261735
K  K4  1  0.05728000  0.71263000  0.61478000  1.0 0.6845357318
K  K5  1  0.06030000  0.88130000  0.19190000  1.0 0.5626318056
K  K6  1  0.46245000  0.38089000  0.83884000  1.0 0.628261735
H  H1  1  0.48640000  0.93870000  0.01380000  1.0 0.3384122078
H  H2  1  0.39940000  0.91350000  0.90780000  1.0 0.0815111289
H  H3  1  0.52380000  0.01480000  0.11740000  1.0 0.3290632156
H  H4  1  0.39970000  0.04310000  0.12790000  1.0 0.0889013271
H  H5  1  0.38270000  0.33660000  0.71710000  1.0 0.2789102395
H  H6  1  0.26920000  0.31900000  0.63290000  1.0 0.0889013271
H  H7  1  0.39740000  0.29280000  0.83800000  1.0 0.2996321072
H  H8  1  0.36960000  0.19430000  0.87380000  1.0 0.0889013271
H  H9  1  0.01550000  0.22930000  0.49180000  1.0 0.2506288339
H  H10  1  0.14260000  0.08110000  0.50760000  1.0 0.0889013271
H  H11  1  0.18040000  0.25280000  0.54010000  1.0 0.0815111289
H  H12  1  0.15780000  0.21290000  0.44110000  1.0 0.0706123329
H  H13  1  0.01590000  0.19080000  0.61870000  1.0 0.0983516834
H  H14  1  0.04820000  0.16090000  0.55630000  1.0 0.0815111289
H  H15  1  0.21930000  0.83830000  0.46480000  1.0 0.0706123329
H  H16  1  0.22630000  0.78240000  0.54680000  1.0 0.0815111289
H  H17  1  0.20230000  0.87340000  0.68360000  1.0 0.0889013271
H  H18  1  0.12270000  0.76840000  0.79390000  1.0 0.3204887074
H  H19  1  0.06080000  0.83810000  0.68790000  1.0 0.1080077216
H  H20  1  0.12480000  0.85220000  0.76920000  1.0 0.0889013271
H  H21  1  0.09000000  0.32360000  0.79810000  1.0 0.2935510178
H  H22  1  0.06010000  0.23230000  0.84890000  1.0 0.0983516834
H  H23  1  0.08510000  0.24180000  0.77430000  1.0 0.0815111289
H  H24  1  0.27340000  0.77440000  0.76180000  1.0 0.0889013271
H  H25  1  0.29810000  0.77870000  0.87100000  1.0 0.0706123329
H  H26  1  0.21940000  0.91530000  0.87460000  1.0 0.0815111289
H  H27  1  0.05890000  0.79900000  0.43000000  1.0 0.3204887074
H  H28  1  0.00470000  0.89420000  0.45900000  1.0 0.0889013271
H  H29  1  0.06710000  0.85190000  0.51620000  1.0 0.0889013271
H  H30  1  0.17390000  0.97790000  0.34040000  1.0 0.0815111289
H  H31  1  0.14290000  0.93580000  0.50910000  1.0 0.0815111289
H  H32  1  0.16370000  0.06140000  0.36360000  1.0 0.0889013271
H  H33  1  0.39260000  0.27300000  0.60170000  1.0 0.3204887074
H  H34  1  0.32400000  0.20510000  0.65780000  1.0 0.0983516834
H  H35  1  0.32190000  0.89580000  0.02610000  1.0 0.0815111289
H  H36  1  0.22800000  0.05750000  0.94380000  1.0 0.0889013271
H  H37  1  0.31880000  0.96230000  0.08450000  1.0 0.0706123329
H  H38  1  0.26400000  0.29220000  0.84520000  1.0 0.0815111289
H  H39  1  0.17220000  0.18170000  0.65930000  1.0 0.0815111289
H  H40  1  0.21720000  0.31340000  0.73530000  1.0 0.0706123329
H  H41  1  0.46560000  0.82210000  0.79310000  1.0 0.3204887074
H  H42  1  0.36720000  0.85820000  0.70840000  1.0 0.0815111289
H  H43  1  0.50550000  0.83520000  0.92610000  1.0 0.3112818116
H  H44  1  0.39250000  0.81280000  0.98480000  1.0 0.0815111289
H  H45  1  0.32120000  0.98750000  0.36250000  1.0 0.3290632156
H  H46  1  0.26210000  0.89670000  0.37060000  1.0 0.0889013271
H  H47  1  0.42310000  0.88820000  0.52530000  1.0 0.3204887074
H  H48  1  0.31660000  0.93830000  0.51890000  1.0 0.0815111289
H  H49  1  0.40360000  0.82590000  0.59780000  1.0 0.3112818116
H  H50  1  0.32850000  0.74750000  0.65510000  1.0 0.0889013271
H  H51  1  0.31700000  0.12710000  0.06630000  1.0 0.0815111289
H  H52  1  0.30310000  0.20810000  0.03750000  1.0 0.0815111289
H  H53  1  0.19280000  0.18400000  0.84920000  1.0 0.0815111289
H  H54  1  0.17360000  0.89760000  0.05420000  1.0 0.2996321072
H  H55  1  0.09610000  0.88770000  0.91510000  1.0 0.0983516834
H  H56  1  0.14220000  0.94180000  0.95800000  1.0 0.0815111289
H  H57  1  0.37530000  0.09870000  0.41180000  1.0 0.3290632156
H  H58  1  0.29980000  0.09340000  0.49550000  1.0 0.0983516834
H  H59  1  0.48410000  0.24550000  0.03330000  1.0 0.3384122078
H  H60  1  0.36450000  0.27840000  0.97900000  1.0 0.0815111289
H  H61  1  0.30960000  0.22230000  0.42330000  1.0 0.3204887074
H  H62  1  0.22040000  0.15980000  0.36700000  1.0 0.0815111289
H  H63  1  0.46700000  0.14080000  0.03970000  1.0 0.3384122078
H  H64  1  0.40010000  0.06310000  0.97840000  1.0 0.0889013271
H  H65  1  0.94750000  0.06780000  0.34070000  1.0 0.2935510178
H  H66  1  0.98700000  0.06990000  0.44970000  1.0 0.0815111289
H  H67  1  0.04080000  0.01420000  0.44970000  1.0 0.0983516834
H  H68  1  0.15280000  0.14970000  0.07300000  1.0 0.3112818116
H  H69  1  0.09730000  0.07280000  0.97540000  1.0 0.0983516834
H  H70  1  0.13750000  0.13100000  0.96180000  1.0 0.0815111289
H  H71  1  0.42800000  0.83250000  0.20940000  1.0 0.2789102395
H  H72  1  0.32480000  0.82060000  0.10730000  1.0 0.0706123329
H  H73  1  0.34840000  0.47960000  0.90340000  1.0 0.3290632156
H  H74  1  0.25110000  0.38880000  0.88080000  1.0 0.0889013271
H  H75  1  0.21700000  0.64520000  0.59920000  1.0 0.2996321072
H  H76  1  0.12160000  0.61110000  0.48990000  1.0 0.0815111289
H  H77  1  0.16360000  0.65980000  0.45480000  1.0 0.1080077216
H  H78  1  0.17960000  0.55840000  0.85080000  1.0 0.0815111289
H  H79  1  0.17360000  0.47230000  0.84120000  1.0 0.0889013271
H  H80  1  0.14590000  0.45320000  0.01580000  1.0 0.0815111289
H  H81  1  0.15540000  0.82040000  0.35190000  1.0 0.3204887074
H  H82  1  0.09620000  0.73660000  0.31640000  1.0 0.0983516834
H  H83  1  0.12570000  0.74690000  0.24410000  1.0 0.0983516834
H  H84  1  0.01190000  0.35260000  0.90070000  1.0 0.2706759174
H  H85  1  0.00060000  0.41720000  0.97490000  1.0 0.0815111289
H  H86  1  0.06020000  0.38110000  0.04210000  1.0 0.1080077216
H  H87  1  0.15830000  0.59380000  0.98930000  1.0 0.0889013271
H  H88  1  0.19680000  0.71670000  0.91330000  1.0 0.0706123329
H  H89  1  0.23140000  0.76210000  0.00960000  1.0 0.0889013271
H  H90  1  0.27180000  0.82340000  0.21070000  1.0 0.0706123329
H  H91  1  0.30400000  0.79920000  0.31760000  1.0 0.0815111289
H  H92  1  0.18160000  0.69890000  0.11920000  1.0 0.0815111289
H  H93  1  0.33710000  0.72990000  0.51140000  1.0 0.0815111289
H  H94  1  0.34490000  0.65460000  0.55760000  1.0 0.0815111289
H  H95  1  0.23140000  0.69120000  0.32690000  1.0 0.0815111289
H  H96  1  0.20370000  0.34590000  0.98170000  1.0 0.0889013271
H  H97  1  0.19570000  0.39480000  0.19990000  1.0 0.0815111289
H  H98  1  0.20200000  0.29580000  0.06440000  1.0 0.0889013271
H  H99  1  0.43830000  0.76360000  0.07990000  1.0 0.3290632156
H  H100  1  0.34910000  0.70460000  0.13550000  1.0 0.0983516834
H  H101  1  0.46070000  0.34230000  0.41150000  1.0 0.3204887074
H  H102  1  0.36820000  0.32940000  0.50440000  1.0 0.0815111289
H  H103  1  0.36920000  0.58640000  0.87040000  1.0 0.3384122078
H  H104  1  0.31770000  0.59080000  0.98350000  1.0 0.0983516834
H  H105  1  0.46980000  0.79680000  0.35110000  1.0 0.3204887074
H  H106  1  0.40110000  0.69680000  0.34960000  1.0 0.0983516834
H  H107  1  0.53180000  0.74690000  0.47730000  1.0 0.3290632156
H  H108  1  0.40440000  0.78960000  0.44530000  1.0 0.0815111289
H  H109  1  0.47350000  0.44790000  0.54660000  1.0 0.3290632156
H  H110  1  0.39330000  0.42550000  0.42500000  1.0 0.0815111289
H  H111  1  0.24960000  0.29500000  0.28070000  1.0 0.0889013271
H  H112  1  0.26940000  0.29960000  0.39000000  1.0 0.0706123329
H  H113  1  0.21910000  0.44250000  0.39090000  1.0 0.0815111289
H  H114  1  0.40310000  0.37750000  0.98400000  1.0 0.3204887074
H  H115  1  0.31500000  0.44190000  0.02150000  1.0 0.0889013271
H  H116  1  0.33410000  0.49360000  0.60340000  1.0 0.0889013271
H  H117  1  0.24170000  0.57860000  0.44760000  1.0 0.0889013271
H  H118  1  0.31490000  0.41910000  0.54310000  1.0 0.0815111289
H  H119  1  0.35160000  0.70730000  0.95540000  1.0 0.3204887074
H  H120  1  0.25660000  0.65180000  0.84760000  1.0 0.0815111289
H  H121  1  0.49370000  0.65040000  0.58110000  1.0 0.3463198443
H  H122  1  0.41980000  0.57340000  0.48220000  1.0 0.0983516834
H  H123  1  0.07090000  0.81130000  0.02170000  1.0 0.3112818116
H  H124  1  0.03820000  0.73330000  0.06930000  1.0 0.0889013271
H  H125  1  0.06670000  0.70210000  0.00580000  1.0 0.0889013271
H  H126  1  0.52810000  0.52520000  0.58010000  1.0 0.3290632156
H  H127  1  0.42190000  0.57360000  0.63330000  1.0 0.0889013271
H  H128  1  0.46180000  0.31450000  0.27450000  1.0 0.3204887074
H  H129  1  0.35660000  0.36860000  0.22310000  1.0 0.0815111289
H  H130  1  0.38750000  0.32750000  0.11460000  1.0 0.3112818116
H  H131  1  0.29980000  0.25880000  0.17440000  1.0 0.0889013271
H  H132  1  0.99960000  0.59710000  0.81690000  1.0 0.3112818116
H  H133  1  0.00330000  0.59000000  0.93070000  1.0 0.0815111289
H  H134  1  0.04650000  0.53040000  0.93120000  1.0 0.0983516834
H  H135  1  0.04570000  0.28680000  0.22210000  1.0 0.3112818116
H  H136  1  0.04860000  0.37080000  0.19990000  1.0 0.0815111289
H  H137  1  0.11120000  0.38080000  0.28270000  1.0 0.0983516834
H  H138  1  0.09080000  0.43000000  0.42780000  1.0 0.0983516834
H  H139  1  0.15070000  0.47680000  0.47820000  1.0 0.0983516834
H  H140  1  0.10730000  0.38370000  0.52220000  1.0 0.1914112894
H  H141  1  0.84620000  0.97590000  0.51720000  1.0 0.0983516834
H  H142  1  0.85010000  0.91380000  0.49030000  1.0 0.0983516834
H  H143  1  0.95710000  0.96000000  0.60770000  1.0 0.1652472515
H  H144  1  0.51360000  0.43870000  0.98620000  1.0 0.3384122078
H  H145  1  0.60060000  0.41350000  0.09220000  1.0 0.0815111289
H  H146  1  0.47620000  0.51480000  0.88260000  1.0 0.3290632156
H  H147  1  0.60030000  0.54310000  0.87210000  1.0 0.0889013271
H  H148  1  0.61730000  0.83660000  0.28290000  1.0 0.2789102395
H  H149  1  0.73080000  0.81900000  0.36710000  1.0 0.0889013271
H  H150  1  0.60260000  0.79280000  0.16200000  1.0 0.2996321072
H  H151  1  0.63040000  0.69430000  0.12620000  1.0 0.0983516834
H  H152  1  0.98450000  0.72930000  0.50820000  1.0 0.2506288339
H  H153  1  0.85740000  0.58110000  0.49240000  1.0 0.0889013271
H  H154  1  0.81960000  0.75280000  0.45990000  1.0 0.0815111289
H  H155  1  0.84220000  0.71290000  0.55890000  1.0 0.0706123329
H  H156  1  0.98410000  0.69080000  0.38130000  1.0 0.0983516834
H  H157  1  0.95180000  0.66090000  0.44370000  1.0 0.0815111289
H  H158  1  0.78070000  0.33830000  0.53520000  1.0 0.0706123329
H  H159  1  0.77370000  0.28240000  0.45320000  1.0 0.0815111289
H  H160  1  0.79770000  0.37340000  0.31640000  1.0 0.0889013271
H  H161  1  0.87730000  0.26840000  0.20610000  1.0 0.3204887074
H  H162  1  0.93920000  0.33810000  0.31210000  1.0 0.1080077216
H  H163  1  0.87520000  0.35220000  0.23080000  1.0 0.0889013271
H  H164  1  0.91000000  0.82360000  0.20190000  1.0 0.2935510178
H  H165  1  0.93990000  0.73230000  0.15110000  1.0 0.0983516834
H  H166  1  0.91490000  0.74180000  0.22570000  1.0 0.0815111289
H  H167  1  0.72660000  0.27440000  0.23820000  1.0 0.0889013271
H  H168  1  0.70190000  0.27870000  0.12900000  1.0 0.0706123329
H  H169  1  0.78060000  0.41530000  0.12540000  1.0 0.0815111289
H  H170  1  0.94110000  0.29900000  0.57000000  1.0 0.3204887074
H  H171  1  0.99530000  0.39420000  0.54100000  1.0 0.0889013271
H  H172  1  0.93290000  0.35190000  0.48380000  1.0 0.0889013271
H  H173  1  0.82610000  0.47790000  0.65960000  1.0 0.0815111289
H  H174  1  0.85710000  0.43580000  0.49090000  1.0 0.0815111289
H  H175  1  0.83630000  0.56140000  0.63640000  1.0 0.0889013271
H  H176  1  0.60740000  0.77300000  0.39830000  1.0 0.3204887074
H  H177  1  0.67600000  0.70510000  0.34220000  1.0 0.0983516834
H  H178  1  0.67810000  0.39580000  0.97390000  1.0 0.0815111289
H  H179  1  0.77200000  0.55750000  0.05620000  1.0 0.0889013271
H  H180  1  0.68120000  0.46230000  0.91550000  1.0 0.0706123329
H  H181  1  0.73600000  0.79220000  0.15480000  1.0 0.0815111289
H  H182  1  0.82780000  0.68170000  0.34070000  1.0 0.0815111289
H  H183  1  0.78280000  0.81340000  0.26470000  1.0 0.0706123329
H  H184  1  0.53440000  0.32210000  0.20690000  1.0 0.3204887074
H  H185  1  0.63280000  0.35820000  0.29160000  1.0 0.0815111289
H  H186  1  0.49450000  0.33520000  0.07390000  1.0 0.3112818116
H  H187  1  0.60750000  0.31280000  0.01520000  1.0 0.0815111289
H  H188  1  0.67880000  0.48750000  0.63750000  1.0 0.3290632156
H  H189  1  0.73790000  0.39670000  0.62940000  1.0 0.0889013271
H  H190  1  0.57690000  0.38820000  0.47470000  1.0 0.3204887074
H  H191  1  0.68340000  0.43830000  0.48110000  1.0 0.0815111289
H  H192  1  0.59640000  0.32590000  0.40220000  1.0 0.3112818116
H  H193  1  0.67150000  0.24750000  0.34490000  1.0 0.0889013271
H  H194  1  0.68300000  0.62710000  0.93370000  1.0 0.0815111289
H  H195  1  0.69690000  0.70810000  0.96250000  1.0 0.0815111289
H  H196  1  0.80720000  0.68400000  0.15080000  1.0 0.0815111289
H  H197  1  0.82640000  0.39760000  0.94580000  1.0 0.2996321072
H  H198  1  0.90390000  0.38770000  0.08490000  1.0 0.0983516834
H  H199  1  0.85780000  0.44180000  0.04200000  1.0 0.0815111289
H  H200  1  0.62470000  0.59870000  0.58820000  1.0 0.3290632156
H  H201  1  0.70020000  0.59340000  0.50450000  1.0 0.0983516834
H  H202  1  0.51590000  0.74550000  0.96670000  1.0 0.3384122078
H  H203  1  0.63550000  0.77840000  0.02100000  1.0 0.0815111289
H  H204  1  0.69040000  0.72230000  0.57670000  1.0 0.3204887074
H  H205  1  0.77960000  0.65980000  0.63300000  1.0 0.0815111289
H  H206  1  0.53300000  0.64080000  0.96030000  1.0 0.3384122078
H  H207  1  0.59990000  0.56310000  0.02160000  1.0 0.0889013271
H  H208  1  0.05250000  0.56780000  0.65930000  1.0 0.2935510178
H  H209  1  0.01300000  0.56990000  0.55030000  1.0 0.0815111289
H  H210  1  0.95920000  0.51420000  0.55030000  1.0 0.0983516834
H  H211  1  0.84720000  0.64970000  0.92700000  1.0 0.3112818116
H  H212  1  0.90270000  0.57280000  0.02460000  1.0 0.0983516834
H  H213  1  0.86250000  0.63100000  0.03820000  1.0 0.0889013271
H  H214  1  0.57200000  0.33250000  0.79060000  1.0 0.2789102395
H  H215  1  0.67520000  0.32060000  0.89270000  1.0 0.0706123329
H  H216  1  0.65160000  0.97960000  0.09660000  1.0 0.3290632156
H  H217  1  0.74890000  0.88880000  0.11920000  1.0 0.0815111289
H  H218  1  0.78300000  0.14520000  0.40080000  1.0 0.2996321072
H  H219  1  0.87840000  0.11110000  0.51010000  1.0 0.0815111289
H  H220  1  0.83640000  0.15980000  0.54520000  1.0 0.1080077216
H  H221  1  0.82040000  0.05840000  0.14920000  1.0 0.0815111289
H  H222  1  0.82640000  0.97230000  0.15880000  1.0 0.0889013271
H  H223  1  0.85410000  0.95320000  0.98420000  1.0 0.0815111289
H  H224  1  0.84460000  0.32040000  0.64810000  1.0 0.3204887074
H  H225  1  0.90380000  0.23660000  0.68360000  1.0 0.0983516834
H  H226  1  0.87430000  0.24690000  0.75590000  1.0 0.0983516834
H  H227  1  0.98810000  0.85260000  0.09930000  1.0 0.2706759174
H  H228  1  0.99940000  0.91720000  0.02510000  1.0 0.0815111289
H  H229  1  0.93980000  0.88110000  0.95790000  1.0 0.1080077216
H  H230  1  0.84170000  0.09380000  0.01070000  1.0 0.0889013271
H  H231  1  0.80320000  0.21670000  0.08670000  1.0 0.0706123329
H  H232  1  0.76860000  0.26210000  0.99040000  1.0 0.0889013271
H  H233  1  0.72820000  0.32340000  0.78930000  1.0 0.0706123329
H  H234  1  0.69600000  0.29920000  0.68240000  1.0 0.0815111289
H  H235  1  0.81840000  0.19890000  0.88080000  1.0 0.0815111289
H  H236  1  0.66290000  0.22990000  0.48860000  1.0 0.0815111289
H  H237  1  0.65510000  0.15460000  0.44240000  1.0 0.0815111289
H  H238  1  0.76860000  0.19120000  0.67310000  1.0 0.0815111289
H  H239  1  0.79630000  0.84590000  0.01830000  1.0 0.0889013271
H  H240  1  0.80430000  0.89480000  0.80010000  1.0 0.0815111289
H  H241  1  0.79800000  0.79580000  0.93560000  1.0 0.0889013271
H  H242  1  0.56170000  0.26360000  0.92010000  1.0 0.3290632156
H  H243  1  0.65090000  0.20460000  0.86450000  1.0 0.0983516834
H  H244  1  0.53930000  0.84230000  0.58850000  1.0 0.3204887074
H  H245  1  0.63180000  0.82940000  0.49560000  1.0 0.0815111289
H  H246  1  0.63080000  0.08640000  0.12960000  1.0 0.3384122078
H  H247  1  0.68230000  0.09080000  0.01650000  1.0 0.0983516834
H  H248  1  0.53020000  0.29680000  0.64890000  1.0 0.3204887074
H  H249  1  0.59890000  0.19680000  0.65040000  1.0 0.0983516834
H  H250  1  0.46820000  0.24690000  0.52270000  1.0 0.3290632156
H  H251  1  0.59560000  0.28960000  0.55470000  1.0 0.0815111289
H  H252  1  0.52650000  0.94790000  0.45340000  1.0 0.3290632156
H  H253  1  0.60670000  0.92550000  0.57500000  1.0 0.0815111289
H  H254  1  0.75040000  0.79500000  0.71930000  1.0 0.0889013271
H  H255  1  0.73060000  0.79960000  0.61000000  1.0 0.0706123329
H  H256  1  0.78090000  0.94250000  0.60910000  1.0 0.0815111289
H  H257  1  0.59690000  0.87750000  0.01600000  1.0 0.3204887074
H  H258  1  0.68500000  0.94190000  0.97850000  1.0 0.0889013271
H  H259  1  0.66590000  0.99360000  0.39660000  1.0 0.0889013271
H  H260  1  0.75830000  0.07860000  0.55240000  1.0 0.0889013271
H  H261  1  0.68510000  0.91910000  0.45690000  1.0 0.0815111289
H  H262  1  0.64840000  0.20730000  0.04460000  1.0 0.3204887074
H  H263  1  0.74340000  0.15180000  0.15240000  1.0 0.0815111289
H  H264  1  0.50630000  0.15040000  0.41890000  1.0 0.3463198443
H  H265  1  0.58020000  0.07340000  0.51780000  1.0 0.0983516834
H  H266  1  0.92910000  0.31130000  0.97830000  1.0 0.3112818116
H  H267  1  0.96180000  0.23330000  0.93070000  1.0 0.0889013271
H  H268  1  0.93330000  0.20210000  0.99420000  1.0 0.0889013271
H  H269  1  0.47190000  0.02520000  0.41990000  1.0 0.3290632156
H  H270  1  0.57810000  0.07360000  0.36670000  1.0 0.0889013271
H  H271  1  0.53820000  0.81450000  0.72550000  1.0 0.3204887074
H  H272  1  0.64340000  0.86860000  0.77690000  1.0 0.0815111289
H  H273  1  0.61250000  0.82750000  0.88540000  1.0 0.3112818116
H  H274  1  0.70020000  0.75880000  0.82560000  1.0 0.0889013271
H  H275  1  0.00040000  0.09710000  0.18310000  1.0 0.3112818116
H  H276  1  0.99670000  0.09000000  0.06930000  1.0 0.0815111289
H  H277  1  0.95350000  0.03040000  0.06880000  1.0 0.0983516834
H  H278  1  0.95430000  0.78680000  0.77790000  1.0 0.3112818116
H  H279  1  0.95140000  0.87080000  0.80010000  1.0 0.0815111289
H  H280  1  0.88880000  0.88080000  0.71730000  1.0 0.0983516834
H  H281  1  0.90920000  0.93000000  0.57220000  1.0 0.0983516834
H  H282  1  0.84930000  0.97680000  0.52180000  1.0 0.0983516834
H  H283  1  0.89270000  0.88370000  0.47780000  1.0 0.2004385763
H  H284  1  0.15380000  0.47590000  0.48280000  1.0 0.0983516834
H  H285  1  0.14990000  0.41380000  0.50970000  1.0 0.0983516834
H  H286  1  0.04290000  0.46000000  0.39230000  1.0 0.1643528093
C  C1  1  0.39850000  0.89340000  0.95340000  1.0 0.0889013271
C  C2  1  0.40060000  0.02800000  0.07920000  1.0 0.0381243632
C  C3  1  0.29100000  0.28790000  0.66790000  1.0 0.0301649042
C  C4  1  0.35990000  0.23340000  0.88560000  1.0 0.0983516834
C  C5  1  0.11780000  0.08360000  0.45270000  1.0 0.0706123329
C  C6  1  0.20510000  0.22180000  0.57480000  1.0 0.0214114178
C  C7  1  0.17650000  0.17450000  0.45700000  1.0 0.1914112894
C  C8  1  0.04890000  0.19610000  0.58240000  1.0 -0.0444897756
C  C9  1  0.22660000  0.87310000  0.49400000  1.0 0.0139258441
C  C10  1  0.24270000  0.80600000  0.59190000  1.0 0.2004385763
C  C11  1  0.19550000  0.83400000  0.69550000  1.0 0.0706123329
C  C12  1  0.11690000  0.82770000  0.72600000  1.0 -0.0850621636
C  C13  1  0.10410000  0.24950000  0.82790000  1.0 -0.060460842
C  C14  1  0.28070000  0.81370000  0.74950000  1.0 0.0301649042
C  C15  1  0.30230000  0.81920000  0.88010000  1.0 0.2004385763
C  C16  1  0.22960000  0.89410000  0.92150000  1.0 0.0706123329
C  C17  1  0.05800000  0.87050000  0.46820000  1.0 -0.0705649528
C  C18  1  0.19120000  0.96290000  0.39170000  1.0 0.2004385763
C  C19  1  0.13870000  0.90590000  0.47210000  1.0 0.0706123329
C  C20  1  0.18880000  0.06120000  0.41860000  1.0 0.0381243632
C  C21  1  0.29950000  0.23620000  0.62320000  1.0 0.0889013271
C  C22  1  0.31740000  0.91180000  0.97670000  1.0 0.0214114178
C  C23  1  0.23430000  0.07050000  0.99490000  1.0 0.0706123329
C  C24  1  0.31760000  0.99280000  0.04910000  1.0 0.210876204
C  C25  1  0.26900000  0.25150000  0.84040000  1.0 0.0139258441
C  C26  1  0.14520000  0.21150000  0.62320000  1.0 0.0706123329
C  C27  1  0.22470000  0.27830000  0.71040000  1.0 0.2004385763
C  C28  1  0.35740000  0.81860000  0.71750000  1.0 0.0889013271
C  C29  1  0.39130000  0.83210000  0.93810000  1.0 0.0301649042
C  C30  1  0.27590000  0.92880000  0.40510000  1.0 0.0301649042
C  C31  1  0.30310000  0.90700000  0.48320000  1.0 0.0889013271
C  C32  1  0.33333333  0.78740000  0.64420000  1.0 0.0381243632
C  C33  1  0.31470000  0.10950000  0.01830000  1.0 0.0214114178
C  C34  1  0.29640000  0.20600000  0.98360000  1.0 0.1914112894
C  C35  1  0.19520000  0.22370000  0.86330000  1.0 0.0706123329
C  C36  1  0.15090000  0.90200000  0.95130000  1.0 -0.0705649528
C  C37  1  0.27150000  0.09650000  0.44100000  1.0 0.0889013271
C  C38  1  0.37030000  0.23880000  0.96700000  1.0 0.0381243632
C  C39  1  0.24630000  0.15660000  0.42180000  1.0 0.0214114178
C  C40  1  0.39940000  0.07710000  0.02760000  1.0 0.0889013271
C  C41  1  0.03020000  0.05180000  0.42870000  1.0 -0.0705649528
C  C42  1  0.14790000  0.09840000  0.99440000  1.0 -0.080132925
C  C43  1  0.34090000  0.78990000  0.14390000  1.0 0.0301649042
C  C44  1  0.27020000  0.42310000  0.91030000  1.0 0.0301649042
C  C45  1  0.17550000  0.63410000  0.49700000  1.0 -0.080132925
C  C46  1  0.20250000  0.56170000  0.90570000  1.0 0.0301649042
C  C47  1  0.19080000  0.46140000  0.89440000  1.0 0.2004385763
C  C48  1  0.13450000  0.41960000  0.98400000  1.0 0.0706123329
C  C49  1  0.14090000  0.75510000  0.29740000  1.0 -0.060460842
C  C50  1  0.05140000  0.39130000  0.99000000  1.0 -0.0705649528
C  C51  1  0.13600000  0.59330000  0.93420000  1.0 0.0593709041
C  C52  1  0.20750000  0.67820000  0.93230000  1.0 0.2004385763
C  C53  1  0.24280000  0.73170000  0.04650000  1.0 0.0214114178
C  C54  1  0.27020000  0.78790000  0.18380000  1.0 0.210876204
C  C55  1  0.30640000  0.75850000  0.31200000  1.0 0.0214114178
C  C56  1  0.17380000  0.73250000  0.08780000  1.0 0.0706123329
C  C57  1  0.33080000  0.72130000  0.45870000  1.0 0.210876204
C  C58  1  0.33940000  0.63070000  0.51370000  1.0 0.0214114178
C  C59  1  0.23190000  0.73160000  0.33630000  1.0 0.0706123329
C  C60  1  0.21760000  0.38200000  0.00770000  1.0 0.0301649042
C  C61  1  0.18270000  0.35630000  0.21200000  1.0 0.0706123329
C  C62  1  0.22360000  0.32040000  0.10830000  1.0 0.2004385763
C  C63  1  0.33690000  0.73650000  0.10080000  1.0 0.0889013271
C  C64  1  0.37180000  0.34680000  0.45780000  1.0 0.0301649042
C  C65  1  0.29240000  0.59160000  0.92860000  1.0 0.0889013271
C  C66  1  0.39740000  0.73730000  0.35720000  1.0 0.0815111289
C  C67  1  0.40690000  0.74900000  0.43790000  1.0 0.0214114178
C  C68  1  0.38980000  0.40780000  0.47150000  1.0 0.0706123329
C  C69  1  0.26350000  0.33310000  0.26810000  1.0 0.05124635
C  C70  1  0.28260000  0.33970000  0.39890000  1.0 0.1914112894
C  C71  1  0.22440000  0.42210000  0.43760000  1.0 0.0301649042
C  C72  1  0.29690000  0.40800000  0.99100000  1.0 0.0815111289
C  C73  1  0.33420000  0.52060000  0.56390000  1.0 0.2004385763
C  C74  1  0.25360000  0.59710000  0.49660000  1.0 0.0593709041
C  C75  1  0.31450000  0.43350000  0.49370000  1.0 0.0214114178
C  C76  1  0.27810000  0.65110000  0.90280000  1.0 0.0214114178
C  C77  1  0.42130000  0.59350000  0.52840000  1.0 0.0706123329
C  C78  1  0.07880000  0.73470000  0.03850000  1.0 -0.060460842
C  C79  1  0.41960000  0.55290000  0.58750000  1.0 0.0214114178
C  C80  1  0.34010000  0.33050000  0.23370000  1.0 0.0815111289
C  C81  1  0.31150000  0.29740000  0.16170000  1.0 0.0381243632
C  C82  1  0.04330000  0.56790000  0.91040000  1.0 -0.060460842
C  C83  1  0.10060000  0.35640000  0.23920000  1.0 -0.0705649528
C  C84  1  0.14780000  0.43710000  0.46650000  1.0 -0.0444897756
C  C85  1  0.60150000  0.39340000  0.04660000  1.0 0.0889013271
C  C86  1  0.59940000  0.52800000  0.92080000  1.0 0.0381243632
C  C87  1  0.70900000  0.78790000  0.33210000  1.0 0.0301649042
C  C88  1  0.64010000  0.73340000  0.11440000  1.0 0.0983516834
C  C89  1  0.88220000  0.58360000  0.54730000  1.0 0.0706123329
C  C90  1  0.79490000  0.72180000  0.42520000  1.0 0.0214114178
C  C91  1  0.82350000  0.67450000  0.54300000  1.0 0.1914112894
C  C92  1  0.95110000  0.69610000  0.41760000  1.0 -0.0444897756
C  C93  1  0.77340000  0.37310000  0.50600000  1.0 0.0139258441
C  C94  1  0.75730000  0.30600000  0.40810000  1.0 0.2004385763
C  C95  1  0.80450000  0.33400000  0.30450000  1.0 0.0706123329
C  C96  1  0.88310000  0.32770000  0.27400000  1.0 -0.080132925
C  C97  1  0.89590000  0.74950000  0.17210000  1.0 -0.060460842
C  C98  1  0.71930000  0.31370000  0.25050000  1.0 0.0301649042
C  C99  1  0.69770000  0.31920000  0.11990000  1.0 0.2004385763
C  C100  1  0.77040000  0.39410000  0.07850000  1.0 0.0706123329
C  C101  1  0.94200000  0.37050000  0.53180000  1.0 -0.0705649528
C  C102  1  0.80880000  0.46290000  0.60830000  1.0 0.2004385763
C  C103  1  0.86130000  0.40590000  0.52790000  1.0 0.0706123329
C  C104  1  0.81120000  0.56120000  0.58140000  1.0 0.0381243632
C  C105  1  0.70050000  0.73620000  0.37680000  1.0 0.0889013271
C  C106  1  0.68260000  0.41180000  0.02330000  1.0 0.0214114178
C  C107  1  0.76570000  0.57050000  0.00510000  1.0 0.0706123329
C  C108  1  0.68240000  0.49280000  0.95090000  1.0 0.210876204
C  C109  1  0.73100000  0.75150000  0.15960000  1.0 0.0139258441
C  C110  1  0.85480000  0.71150000  0.37680000  1.0 0.0706123329
C  C111  1  0.77530000  0.77830000  0.28960000  1.0 0.2004385763
C  C112  1  0.64260000  0.31860000  0.28250000  1.0 0.0889013271
C  C113  1  0.60870000  0.33210000  0.06190000  1.0 0.0301649042
C  C114  1  0.72410000  0.42880000  0.59490000  1.0 0.0301649042
C  C115  1  0.69690000  0.40700000  0.51680000  1.0 0.0889013271
C  C116  1  0.66666667  0.28740000  0.35580000  1.0 0.0381243632
C  C117  1  0.68530000  0.60950000  0.98170000  1.0 0.0214114178
C  C118  1  0.70360000  0.70600000  0.01640000  1.0 0.1914112894
C  C119  1  0.80480000  0.72370000  0.13670000  1.0 0.0706123329
C  C120  1  0.84910000  0.40200000  0.04870000  1.0 -0.0705649528
C  C121  1  0.72850000  0.59650000  0.55900000  1.0 0.0889013271
C  C122  1  0.62970000  0.73880000  0.03300000  1.0 0.0381243632
C  C123  1  0.75370000  0.65660000  0.57820000  1.0 0.0214114178
C  C124  1  0.60060000  0.57710000  0.97240000  1.0 0.0889013271
C  C125  1  0.96980000  0.55180000  0.57130000  1.0 -0.0705649528
C  C126  1  0.85210000  0.59840000  0.00560000  1.0 -0.080132925
C  C127  1  0.65910000  0.28990000  0.85610000  1.0 0.0301649042
C  C128  1  0.72980000  0.92310000  0.08970000  1.0 0.0301649042
C  C129  1  0.82450000  0.13410000  0.50300000  1.0 -0.080132925
C  C130  1  0.79750000  0.06170000  0.09430000  1.0 0.0301649042
C  C131  1  0.80920000  0.96140000  0.10560000  1.0 0.2004385763
C  C132  1  0.86550000  0.91960000  0.01600000  1.0 0.0706123329
C  C133  1  0.85910000  0.25510000  0.70260000  1.0 -0.060460842
C  C134  1  0.94860000  0.89130000  0.01000000  1.0 -0.0705649528
C  C135  1  0.86400000  0.09330000  0.06580000  1.0 0.0593709041
C  C136  1  0.79250000  0.17820000  0.06770000  1.0 0.2004385763
C  C137  1  0.75720000  0.23170000  0.95350000  1.0 0.0214114178
C  C138  1  0.72980000  0.28790000  0.81620000  1.0 0.210876204
C  C139  1  0.69360000  0.25850000  0.68800000  1.0 0.0214114178
C  C140  1  0.82620000  0.23250000  0.91220000  1.0 0.0706123329
C  C141  1  0.66920000  0.22130000  0.54130000  1.0 0.210876204
C  C142  1  0.66060000  0.13070000  0.48630000  1.0 0.0214114178
C  C143  1  0.76810000  0.23160000  0.66370000  1.0 0.0593709041
C  C144  1  0.78240000  0.88200000  0.99230000  1.0 0.0301649042
C  C145  1  0.81730000  0.85630000  0.78800000  1.0 0.0706123329
C  C146  1  0.77640000  0.82040000  0.89170000  1.0 0.2004385763
C  C147  1  0.66310000  0.23650000  0.89920000  1.0 0.0889013271
C  C148  1  0.62820000  0.84680000  0.54220000  1.0 0.0301649042
C  C149  1  0.70760000  0.09160000  0.07140000  1.0 0.0889013271
C  C150  1  0.60260000  0.23730000  0.64280000  1.0 0.0815111289
C  C151  1  0.59310000  0.24900000  0.56210000  1.0 0.0214114178
C  C152  1  0.61020000  0.90780000  0.52850000  1.0 0.0706123329
C  C153  1  0.73650000  0.83310000  0.73190000  1.0 0.05124635
C  C154  1  0.71740000  0.83970000  0.60110000  1.0 0.1914112894
C  C155  1  0.77560000  0.92210000  0.56240000  1.0 0.0214114178
C  C156  1  0.70310000  0.90800000  0.00900000  1.0 0.0815111289
C  C157  1  0.66580000  0.02060000  0.43610000  1.0 0.2004385763
C  C158  1  0.74640000  0.09710000  0.50340000  1.0 0.0593709041
C  C159  1  0.68550000  0.93350000  0.50630000  1.0 0.0214114178
C  C160  1  0.72190000  0.15110000  0.09720000  1.0 0.0214114178
C  C161  1  0.57870000  0.09350000  0.47160000  1.0 0.0706123329
C  C162  1  0.92120000  0.23470000  0.96150000  1.0 -0.060460842
C  C163  1  0.58040000  0.05290000  0.41250000  1.0 0.0214114178
C  C164  1  0.65990000  0.83050000  0.76630000  1.0 0.0815111289
C  C165  1  0.68850000  0.79740000  0.83830000  1.0 0.0381243632
C  C166  1  0.95670000  0.06790000  0.08960000  1.0 -0.060460842
C  C167  1  0.89940000  0.85640000  0.76080000  1.0 -0.0705649528
C  C168  1  0.85220000  0.93710000  0.53350000  1.0 -0.0444897756
O  O1  1  0.47740000  0.90460000  0.01080000  1.0 -0.5239598255
O  O2  1  0.48020000  0.99660000  0.09150000  1.0 -0.510186106
O  O3  1  0.37560000  0.30240000  0.71810000  1.0 -0.4917845911
O  O4  1  0.42410000  0.26810000  0.86710000  1.0 -0.4990949068
O  O5  1  0.21230000  0.17350000  0.53380000  1.0 -0.2580506305
O  O6  1  0.09940000  0.13920000  0.43390000  1.0 -0.3558555047
O  O7  1  0.00630000  0.23530000  0.53240000  1.0 -0.4513163964
O  O8  1  0.25050000  0.86090000  0.57150000  1.0 -0.2810637987
O  O9  1  0.17740000  0.80090000  0.62820000  1.0 -0.3409463267
O  O10  1  0.11260000  0.77010000  0.74800000  1.0 -0.4917845911
O  O11  1  0.10400000  0.30750000  0.83910000  1.0 -0.4677581972
O  O12  1  0.23140000  0.83580000  0.90650000  1.0 -0.3002330562
O  O13  1  0.30200000  0.84600000  0.81550000  1.0 -0.2674462523
O  O14  1  0.04290000  0.83000000  0.41110000  1.0 -0.4513163964
O  O15  1  0.21120000  0.00710000  0.44260000  1.0 -0.2888136184
O  O16  1  0.12110000  0.93010000  0.40030000  1.0 -0.2810637987
O  O17  1  0.35750000  0.24770000  0.58140000  1.0 -0.4917845911
O  O18  1  0.32080000  0.97040000  0.98200000  1.0 -0.2810637987
O  O19  1  0.24060000  0.02420000  0.04030000  1.0 -0.2810637987
O  O20  1  0.25910000  0.23820000  0.76450000  1.0 -0.2674462523
O  O21  1  0.14010000  0.26140000  0.66370000  1.0 -0.2888136184
O  O22  1  0.43600000  0.79670000  0.76690000  1.0 -0.4677581972
O  O23  1  0.46390000  0.81210000  0.91520000  1.0 -0.4809468041
O  O24  1  0.34430000  0.96060000  0.38910000  1.0 -0.4809468041
O  O25  1  0.37850000  0.87230000  0.49670000  1.0 -0.4917845911
O  O26  1  0.39950000  0.79280000  0.60880000  1.0 -0.4809468041
O  O27  1  0.30500000  0.15080000  0.96360000  1.0 -0.2810637987
O  O28  1  0.21190000  0.22790000  0.94230000  1.0 -0.2888136184
O  O29  1  0.16480000  0.87430000  0.02010000  1.0 -0.4513163964
O  O30  1  0.33240000  0.07670000  0.40480000  1.0 -0.510186106
O  O31  1  0.45350000  0.21920000  0.01010000  1.0 -0.4614241471
O  O32  1  0.32170000  0.19200000  0.44510000  1.0 -0.4614241471
O  O33  1  0.47530000  0.10910000  0.05800000  1.0 -0.4990949068
O  O34  1  0.99310000  0.04790000  0.35410000  1.0 -0.409305441
O  O35  1  0.15440000  0.11530000  0.07070000  1.0 -0.4431968133
O  O36  1  0.42680000  0.80080000  0.19160000  1.0 -0.4917845911
O  O37  1  0.34190000  0.44660000  0.88990000  1.0 -0.5314952235
O  O38  1  0.19030000  0.66490000  0.56300000  1.0 -0.4917845911
O  O39  1  0.21770000  0.50870000  0.93830000  1.0 -0.3002330562
O  O40  1  0.11720000  0.43570000  0.90840000  1.0 -0.3267430763
O  O41  1  0.13510000  0.81260000  0.30690000  1.0 -0.4990949068
O  O42  1  0.03040000  0.34340000  0.94530000  1.0 -0.4234857659
O  O43  1  0.24000000  0.67920000  0.01040000  1.0 -0.2810637987
O  O44  1  0.12750000  0.64840000  0.90850000  1.0 -0.3086247544
O  O45  1  0.18470000  0.78080000  0.13500000  1.0 -0.3002330562
O  O46  1  0.29410000  0.74510000  0.23600000  1.0 -0.2674462523
O  O47  1  0.33730000  0.66410000  0.45120000  1.0 -0.2580506305
O  O48  1  0.24740000  0.74120000  0.41430000  1.0 -0.3086247544
O  O49  1  0.24210000  0.37360000  0.08590000  1.0 -0.2810637987
O  O50  1  0.15780000  0.32420000  0.14570000  1.0 -0.2888136184
O  O51  1  0.40180000  0.73830000  0.06250000  1.0 -0.4917845911
O  O52  1  0.43950000  0.32030000  0.43590000  1.0 -0.4677581972
O  O53  1  0.35160000  0.56430000  0.89710000  1.0 -0.4917845911
O  O54  1  0.46440000  0.76450000  0.33500000  1.0 -0.4677581972
O  O55  1  0.48980000  0.72830000  0.48380000  1.0 -0.4677581972
O  O56  1  0.47290000  0.41630000  0.52880000  1.0 -0.4990949068
O  O57  1  0.21400000  0.36490000  0.42320000  1.0 -0.2888136184
O  O58  1  0.28850000  0.36470000  0.33280000  1.0 -0.2674462523
O  O59  1  0.36850000  0.37020000  0.00880000  1.0 -0.510186106
O  O60  1  0.26000000  0.55690000  0.55350000  1.0 -0.3191231589
O  O61  1  0.32930000  0.49180000  0.49840000  1.0 -0.2888136184
O  O62  1  0.35790000  0.68200000  0.92730000  1.0 -0.4917845911
O  O63  1  0.50030000  0.62580000  0.55220000  1.0 -0.4809468041
O  O64  1  0.06070000  0.78360000  0.99420000  1.0 -0.4614241471
O  O65  1  0.49320000  0.51600000  0.60380000  1.0 -0.4677581972
O  O66  1  0.41520000  0.30470000  0.28390000  1.0 -0.4917845911
O  O67  1  0.37450000  0.29540000  0.12390000  1.0 -0.4917845911
O  O68  1  0.00750000  0.56520000  0.83430000  1.0 -0.4305442969
O  O69  1  0.08190000  0.30190000  0.25870000  1.0 -0.4677581972
O  O70  1  0.15000000  0.40600000  0.53210000  1.0 -0.409305441
O  O71  1  0.06310000  0.42900000  0.41000000  1.0 -0.4019175272
O  O72  1  0.52260000  0.40460000  0.98920000  1.0 -0.5239598255
O  O73  1  0.51980000  0.49660000  0.90850000  1.0 -0.510186106
O  O74  1  0.62440000  0.80240000  0.28190000  1.0 -0.4917845911
O  O75  1  0.57590000  0.76810000  0.13290000  1.0 -0.4990949068
O  O76  1  0.78770000  0.67350000  0.46620000  1.0 -0.2580506305
O  O77  1  0.90060000  0.63920000  0.56610000  1.0 -0.354704092
O  O78  1  0.99370000  0.73530000  0.46760000  1.0 -0.4513163964
O  O79  1  0.74950000  0.36090000  0.42850000  1.0 -0.2810637987
O  O80  1  0.82260000  0.30090000  0.37180000  1.0 -0.3409463267
O  O81  1  0.88740000  0.27010000  0.25200000  1.0 -0.4917845911
O  O82  1  0.89600000  0.80750000  0.16090000  1.0 -0.4677581972
O  O83  1  0.76860000  0.33580000  0.09350000  1.0 -0.3002330562
O  O84  1  0.69800000  0.34600000  0.18450000  1.0 -0.2674462523
O  O85  1  0.95710000  0.33000000  0.58890000  1.0 -0.4513163964
O  O86  1  0.78880000  0.50710000  0.55740000  1.0 -0.2888136184
O  O87  1  0.87890000  0.43010000  0.59970000  1.0 -0.2810637987
O  O88  1  0.64250000  0.74770000  0.41860000  1.0 -0.4917845911
O  O89  1  0.67920000  0.47040000  0.01800000  1.0 -0.2810637987
O  O90  1  0.75940000  0.52420000  0.95970000  1.0 -0.2810637987
O  O91  1  0.74090000  0.73820000  0.23550000  1.0 -0.2674462523
O  O92  1  0.85990000  0.76140000  0.33630000  1.0 -0.2888136184
O  O93  1  0.56400000  0.29670000  0.23310000  1.0 -0.4677581972
O  O94  1  0.53610000  0.31210000  0.08480000  1.0 -0.4809468041
O  O95  1  0.65570000  0.46060000  0.61090000  1.0 -0.4809468041
O  O96  1  0.62150000  0.37230000  0.50330000  1.0 -0.4917845911
O  O97  1  0.60050000  0.29280000  0.39120000  1.0 -0.4809468041
O  O98  1  0.69500000  0.65080000  0.03640000  1.0 -0.2810637987
O  O99  1  0.78810000  0.72790000  0.05770000  1.0 -0.2888136184
O  O100  1  0.83520000  0.37430000  0.97990000  1.0 -0.4513163964
O  O101  1  0.66760000  0.57670000  0.59520000  1.0 -0.510186106
O  O102  1  0.54650000  0.71920000  0.98990000  1.0 -0.4614241471
O  O103  1  0.67830000  0.69200000  0.55490000  1.0 -0.4614241471
O  O104  1  0.52470000  0.60910000  0.94200000  1.0 -0.4990949068
O  O105  1  0.00690000  0.54790000  0.64590000  1.0 -0.409305441
O  O106  1  0.84560000  0.61530000  0.92930000  1.0 -0.4431968133
O  O107  1  0.57320000  0.30080000  0.80840000  1.0 -0.4917845911
O  O108  1  0.65810000  0.94660000  0.11010000  1.0 -0.5314952235
O  O109  1  0.80970000  0.16490000  0.43700000  1.0 -0.4990949068
O  O110  1  0.78230000  0.00870000  0.06170000  1.0 -0.3002330562
O  O111  1  0.88280000  0.93570000  0.09160000  1.0 -0.3267430763
O  O112  1  0.86490000  0.31260000  0.69310000  1.0 -0.4990949068
O  O113  1  0.96960000  0.84340000  0.05470000  1.0 -0.4234857659
O  O114  1  0.76000000  0.17920000  0.98960000  1.0 -0.2810637987
O  O115  1  0.87250000  0.14840000  0.09150000  1.0 -0.3086247544
O  O116  1  0.81530000  0.28080000  0.86500000  1.0 -0.3002330562
O  O117  1  0.70590000  0.24510000  0.76400000  1.0 -0.2674462523
O  O118  1  0.66270000  0.16410000  0.54880000  1.0 -0.2580506305
O  O119  1  0.75260000  0.24120000  0.58570000  1.0 -0.3086247544
O  O120  1  0.75790000  0.87360000  0.91410000  1.0 -0.2810637987
O  O121  1  0.84220000  0.82420000  0.85430000  1.0 -0.2888136184
O  O122  1  0.59820000  0.23830000  0.93750000  1.0 -0.4917845911
O  O123  1  0.56050000  0.82030000  0.56410000  1.0 -0.4677581972
O  O124  1  0.64840000  0.06430000  0.10290000  1.0 -0.4917845911
O  O125  1  0.53560000  0.26450000  0.66500000  1.0 -0.4677581972
O  O126  1  0.51020000  0.22830000  0.51620000  1.0 -0.4677581972
O  O127  1  0.52710000  0.91630000  0.47120000  1.0 -0.4990949068
O  O128  1  0.78600000  0.86490000  0.57680000  1.0 -0.2888136184
O  O129  1  0.71150000  0.86470000  0.66720000  1.0 -0.2674462523
O  O130  1  0.63150000  0.87020000  0.99120000  1.0 -0.510186106
O  O131  1  0.74000000  0.05690000  0.44650000  1.0 -0.3191231589
O  O132  1  0.67070000  0.99180000  0.50160000  1.0 -0.2888136184
O  O133  1  0.64210000  0.18200000  0.07270000  1.0 -0.4917845911
O  O134  1  0.49970000  0.12580000  0.44780000  1.0 -0.4809468041
O  O135  1  0.93930000  0.28360000  0.00580000  1.0 -0.4614241471
O  O136  1  0.50680000  0.01600000  0.39620000  1.0 -0.4677581972
O  O137  1  0.58480000  0.80470000  0.71610000  1.0 -0.4917845911
O  O138  1  0.62550000  0.79540000  0.87610000  1.0 -0.4917845911
O  O139  1  0.99250000  0.06520000  0.16570000  1.0 -0.4305442969
O  O140  1  0.91810000  0.80190000  0.74130000  1.0 -0.4677581972
O  O141  1  0.85000000  0.90600000  0.46790000  1.0 -0.409305441
O  O142  1  0.93690000  0.92900000  0.59000000  1.0 -0.4019175272
