# DDEC6 charges by PACMAN v1.1 (https://github.com/mtap-research/PACMAN-charge/)
data_HOXDOQ_ASR_pacman
_symmetry_space_group_name_H-M   'P 1'
_cell_length_a   15.24380000
_cell_length_b   15.27420000
_cell_length_c   29.76860000
_cell_angle_alpha   101.31400000
_cell_angle_beta   94.84500000
_cell_angle_gamma   95.07100000
_symmetry_Int_Tables_number   1
_chemical_formula_structural   K9H280C168O143
_chemical_formula_sum   'K9 H280 C168 O143'
_cell_volume   6733.05663003
_cell_formula_units_Z   1
loop_
 _symmetry_equiv_pos_site_id
 _symmetry_equiv_pos_as_xyz
  1  'x, y, z'
loop_
 _atom_site_type_symbol
 _atom_site_label
 _atom_site_symmetry_multiplicity
 _atom_site_fract_x
 _atom_site_fract_y
 _atom_site_fract_z
 _atom_site_occupancy
 _atom_site_charge
K  K1  1  0.20100000  0.24262000  0.51184000  1.0 0.77901071
K  K2  1  0.70350000  0.70040000  0.42715000  1.0 0.7953507571
K  K3  1  0.15360000  0.75750000  0.83437000  1.0 0.7428878813
K  K4  1  0.84470000  0.95390000  0.00069000  1.0 0.7307729392
K  K5  1  0.53990000  0.00550000  0.19534000  1.0 0.7307729392
K  K6  1  0.69900000  0.21940000  0.19174000  1.0 0.8059277503
K  K7  1  0.76992000  0.49166000  0.04255000  1.0 0.7886644273
K  K8  1  0.70006000  0.79490000  0.59760000  1.0 0.77901071
K  K9  1  0.36955000  0.91846000  0.83173000  1.0 0.8059277503
H  H1  1  0.31790000  0.77080000  0.70400000  1.0 0.2998217336
H  H2  1  0.75150000  0.16760000  0.88480000  1.0 0.3292439339
H  H3  1  0.70000000  0.67090000  0.86420000  1.0 0.3292439339
H  H4  1  0.57210000  0.22600000  0.48240000  1.0 0.3396467585
H  H5  1  0.69160000  0.71890000  0.76890000  1.0 0.3212430563
H  H6  1  0.64500000  0.75920000  0.70090000  1.0 0.3292439339
H  H7  1  0.61130000  0.40970000  0.51990000  1.0 0.3212430563
H  H8  1  0.74400000  0.53710000  0.94820000  1.0 0.3292439339
H  H9  1  0.76600000  0.03970000  0.84750000  1.0 0.3103062738
H  H10  1  0.31580000  0.07320000  0.56530000  1.0 0.290743938
H  H11  1  0.66920000  0.06230000  0.54930000  1.0 0.3212430563
H  H12  1  0.58950000  0.56750000  0.56570000  1.0 0.3292439339
H  H13  1  0.70220000  0.38660000  0.96160000  1.0 0.3103062738
H  H14  1  0.35340000  0.05280000  0.76010000  1.0 0.2998217336
H  H15  1  0.20850000  0.35770000  0.57200000  1.0 0.263971728
H  H16  1  0.75830000  0.97110000  0.73460000  1.0 0.3292439339
H  H17  1  0.65370000  0.72770000  0.92650000  1.0 0.3103062738
H  H18  1  0.29980000  0.76300000  0.88670000  1.0 0.2794270187
H  H19  1  0.69960000  0.94960000  0.58940000  1.0 0.2998217336
H  H20  1  0.41910000  0.56150000  0.68000000  1.0 0.0805605935
H  H21  1  0.49990000  0.08170000  0.75700000  1.0 0.0805605935
H  H22  1  0.40910000  0.43080000  0.55070000  1.0 0.089298287
H  H23  1  0.66750000  0.26760000  0.88290000  1.0 0.0805605935
H  H24  1  0.40720000  0.97820000  0.69540000  1.0 0.1084135051
H  H25  1  0.41720000  0.90160000  0.72470000  1.0 0.0988303355
H  H26  1  0.56810000  0.36400000  0.58580000  1.0 0.0988303355
H  H27  1  0.49800000  0.71280000  0.93870000  1.0 0.0805605935
H  H28  1  0.46940000  0.75070000  0.68760000  1.0 0.0805605935
H  H29  1  0.46000000  0.07280000  0.55880000  1.0 0.0714172323
H  H30  1  0.59080000  0.61730000  0.67350000  1.0 0.0805605935
H  H31  1  0.43880000  0.56830000  0.56540000  1.0 0.0805605935
H  H32  1  0.61030000  0.83700000  0.82310000  1.0 0.0805605935
H  H33  1  0.52850000  0.69910000  0.60120000  1.0 0.089298287
H  H34  1  0.27470000  0.59600000  0.68230000  1.0 0.0988303355
H  H35  1  0.33333333  0.65210000  0.72770000  1.0 0.089298287
H  H36  1  0.46720000  0.30200000  0.49650000  1.0 0.0805605935
H  H37  1  0.48360000  0.13740000  0.65740000  1.0 0.0805605935
H  H38  1  0.62460000  0.23070000  0.96970000  1.0 0.089298287
H  H39  1  0.58810000  0.93210000  0.71420000  1.0 0.089298287
H  H40  1  0.59680000  0.01080000  0.85120000  1.0 0.0714172323
H  H41  1  0.66590000  0.11030000  0.75560000  1.0 0.0988303355
H  H42  1  0.60110000  0.64620000  0.81030000  1.0 0.0805605935
H  H43  1  0.27880000  0.33440000  0.63010000  1.0 0.0805605935
H  H44  1  0.32340000  0.43630000  0.64030000  1.0 0.0988303355
H  H45  1  0.62180000  0.13720000  0.61960000  1.0 0.0988303355
H  H46  1  0.44210000  0.63530000  0.79960000  1.0 0.089298287
H  H47  1  0.53650000  0.47910000  0.97620000  1.0 0.0714172323
H  H48  1  0.37260000  0.11300000  0.90810000  1.0 0.3212430563
H  H49  1  0.68470000  0.95490000  0.79430000  1.0 0.0714172323
H  H50  1  0.51670000  0.81690000  0.75440000  1.0 0.0714172323
H  H51  1  0.32830000  0.10810000  0.65660000  1.0 0.0988303355
H  H52  1  0.34770000  0.18080000  0.62550000  1.0 0.0805605935
H  H53  1  0.53680000  0.34590000  0.97870000  1.0 0.0805605935
H  H54  1  0.43250000  0.33420000  0.62420000  1.0 0.0805605935
H  H55  1  0.63060000  0.53350000  0.90290000  1.0 0.0805605935
H  H56  1  0.52130000  0.76700000  0.87920000  1.0 0.0805605935
H  H57  1  0.49880000  0.26510000  0.86040000  1.0 0.0805605935
H  H58  1  0.59200000  0.64520000  0.98670000  1.0 0.0988303355
H  H59  1  0.53420000  0.91960000  0.64290000  1.0 0.0714172323
H  H60  1  0.42290000  0.17030000  0.52400000  1.0 0.0604386012
H  H61  1  0.55470000  0.11370000  0.89600000  1.0 0.0805605935
H  H62  1  0.46820000  0.49060000  0.88380000  1.0 0.089298287
H  H63  1  0.56580000  0.95580000  0.57310000  1.0 0.0714172323
H  H64  1  0.30460000  0.66800000  0.81730000  1.0 0.089298287
H  H65  1  0.35330000  0.64390000  0.86230000  1.0 0.1084135051
H  H66  1  0.40030000  0.47410000  0.98250000  1.0 0.3103062738
H  H67  1  0.32410000  0.45800000  0.90220000  1.0 0.089298287
H  H68  1  0.37990000  0.37440000  0.90420000  1.0 0.089298287
H  H69  1  0.35190000  0.19630000  0.85880000  1.0 0.0988303355
H  H70  1  0.40620000  0.13130000  0.82540000  1.0 0.089298287
H  H71  1  0.99620000  0.78180000  0.47410000  1.0 0.3292439339
H  H72  1  0.21280000  0.85150000  0.54040000  1.0 0.3396467585
H  H73  1  0.87360000  0.84720000  0.45340000  1.0 0.3212430563
H  H74  1  0.77010000  0.64780000  0.18360000  1.0 0.3292439339
H  H75  1  0.45300000  0.10220000  0.39140000  1.0 0.3103062738
H  H76  1  0.04190000  0.20100000  0.44650000  1.0 0.2998217336
H  H77  1  0.71940000  0.75540000  0.34330000  1.0 0.3103062738
H  H78  1  0.48310000  0.66910000  0.39980000  1.0 0.3212430563
H  H79  1  0.34600000  0.59650000  0.20880000  1.0 0.3396467585
H  H80  1  0.33340000  0.64990000  0.13180000  1.0 0.3103062738
H  H81  1  0.42050000  0.65140000  0.31520000  1.0 0.3292439339
H  H82  1  0.92860000  0.62930000  0.03390000  1.0 0.3212430563
H  H83  1  0.77260000  0.68060000  0.10990000  1.0 0.3212430563
H  H84  1  0.14730000  0.65250000  0.01470000  1.0 0.3103062738
H  H85  1  0.64620000  0.72520000  0.27830000  1.0 0.3212430563
H  H86  1  0.74000000  0.08930000  0.32520000  1.0 0.3103062738
H  H87  1  0.02180000  0.00490000  0.47760000  1.0 0.0805605935
H  H88  1  0.02800000  0.92760000  0.03010000  1.0 0.2998217336
H  H89  1  0.46680000  0.09080000  0.28640000  1.0 0.290743938
H  H90  1  0.33800000  0.70560000  0.45650000  1.0 0.3212430563
H  H91  1  0.34070000  0.71470000  0.26890000  1.0 0.089298287
H  H92  1  0.08700000  0.83840000  0.43690000  1.0 0.0805605935
H  H93  1  0.75370000  0.83460000  0.08780000  1.0 0.0714172323
H  H94  1  0.13130000  0.94980000  0.52810000  1.0 0.0805605935
H  H95  1  0.84390000  0.82880000  0.35980000  1.0 0.089298287
H  H96  1  0.53010000  0.83000000  0.37270000  1.0 0.0805605935
H  H97  1  0.27220000  0.98580000  0.50380000  1.0 0.0497256454
H  H98  1  0.94110000  0.72350000  0.11880000  1.0 0.089298287
H  H99  1  0.99620000  0.79930000  0.04350000  1.0 0.0714172323
H  H100  1  0.33970000  0.06920000  0.45020000  1.0 0.089298287
H  H101  1  0.44360000  0.06420000  0.46000000  1.0 0.0988303355
H  H102  1  0.51290000  0.80600000  0.30130000  1.0 0.089298287
H  H103  1  0.37210000  0.91830000  0.47390000  1.0 0.0805605935
H  H104  1  0.75310000  0.94150000  0.42480000  1.0 0.0988303355
H  H105  1  0.48130000  0.79460000  0.44070000  1.0 0.0805605935
H  H106  1  0.39110000  0.03180000  0.14260000  1.0 0.290743938
H  H107  1  0.36040000  0.88320000  0.26650000  1.0 0.089298287
H  H108  1  0.73060000  0.96200000  0.34220000  1.0 0.089298287
H  H109  1  0.44340000  0.77200000  0.16780000  1.0 0.0805605935
H  H110  1  0.65560000  0.88920000  0.28240000  1.0 0.0714172323
H  H111  1  0.89190000  0.01530000  0.45810000  1.0 0.0714172323
H  H112  1  0.13090000  0.97190000  0.40370000  1.0 0.0805605935
H  H113  1  0.34300000  0.94980000  0.38110000  1.0 0.089298287
H  H114  1  0.83290000  0.94060000  0.22230000  1.0 0.089298287
H  H115  1  0.92190000  0.97460000  0.34140000  1.0 0.0805605935
H  H116  1  0.70240000  0.83780000  0.15150000  1.0 0.0714172323
H  H117  1  0.82980000  0.73190000  0.03670000  1.0 0.089298287
H  H118  1  0.30350000  0.77920000  0.39620000  1.0 0.089298287
H  H119  1  0.14310000  0.12800000  0.40680000  1.0 0.0805605935
H  H120  1  0.04340000  0.08360000  0.39020000  1.0 0.089298287
H  H121  1  0.66510000  0.97000000  0.15060000  1.0 0.263971728
H  H122  1  0.96990000  0.89510000  0.13290000  1.0 0.089298287
H  H123  1  0.18860000  0.69920000  0.13360000  1.0 0.089298287
H  H124  1  0.62910000  0.77610000  0.21490000  1.0 0.0805605935
H  H125  1  0.48860000  0.68700000  0.21850000  1.0 0.0805605935
H  H126  1  0.25790000  0.73630000  0.05320000  1.0 0.0805605935
H  H127  1  0.45170000  0.98710000  0.32660000  1.0 0.089298287
H  H128  1  0.53420000  0.97380000  0.29700000  1.0 0.0988303355
H  H129  1  0.81770000  0.77680000  0.21830000  1.0 0.0805605935
H  H130  1  0.13660000  0.81790000  0.04200000  1.0 0.0497256454
H  H131  1  0.19200000  0.87330000  0.16230000  1.0 0.0805605935
H  H132  1  0.34710000  0.80920000  0.12490000  1.0 0.089298287
H  H133  1  0.79300000  0.07000000  0.20150000  1.0 0.0988303355
H  H134  1  0.81750000  0.00690000  0.15580000  1.0 0.1084135051
H  H135  1  0.99110000  0.02940000  0.10830000  1.0 0.1084135051
H  H136  1  0.07900000  0.97910000  0.10520000  1.0 0.1084135051
H  H137  1  0.91440000  0.12240000  0.33170000  1.0 0.1084135051
H  H138  1  0.85790000  0.05400000  0.28950000  1.0 0.089298287
H  H139  1  0.26080000  0.01820000  0.16200000  1.0 0.089298287
H  H140  1  0.30970000  0.97140000  0.19930000  1.0 0.1084135051
H  H141  1  0.17150000  0.61940000  0.52890000  1.0 0.3292439339
H  H142  1  0.91180000  0.61650000  0.20420000  1.0 0.3396467585
H  H143  1  0.42710000  0.61360000  0.46890000  1.0 0.3212430563
H  H144  1  0.35030000  0.21490000  0.43520000  1.0 0.2998217336
H  H145  1  0.61610000  0.57210000  0.32530000  1.0 0.3212430563
H  H146  1  0.09090000  0.46330000  0.06230000  1.0 0.3212430563
H  H147  1  0.56290000  0.62070000  0.46440000  1.0 0.2998217336
H  H148  1  0.88520000  0.53310000  0.13880000  1.0 0.3103062738
H  H149  1  0.53430000  0.57610000  0.26570000  1.0 0.3103062738
H  H150  1  0.62660000  0.26940000  0.33170000  1.0 0.3103062738
H  H151  1  0.50960000  0.56200000  0.17500000  1.0 0.3396467585
H  H152  1  0.25930000  0.47770000  0.04390000  1.0 0.3396467585
H  H153  1  0.08540000  0.68440000  0.46690000  1.0 0.3292439339
H  H154  1  0.42830000  0.46980000  0.10750000  1.0 0.3212430563
H  H155  1  0.81390000  0.66830000  0.28460000  1.0 0.3292439339
H  H156  1  0.96840000  0.34290000  0.45510000  1.0 0.290743938
H  H157  1  0.88470000  0.66150000  0.38150000  1.0 0.3212430563
H  H158  1  0.23190000  0.41190000  0.40240000  1.0 0.0805605935
H  H159  1  0.22490000  0.25560000  0.39580000  1.0 0.089298287
H  H160  1  0.32140000  0.29190000  0.38530000  1.0 0.089298287
H  H161  1  0.61470000  0.51630000  0.42500000  1.0 0.0805605935
H  H162  1  0.84340000  0.19570000  0.11060000  1.0 0.3212430563
H  H163  1  0.50290000  0.44870000  0.46010000  1.0 0.0714172323
H  H164  1  0.12980000  0.46270000  0.50220000  1.0 0.0604386012
H  H165  1  0.76040000  0.55640000  0.22750000  1.0 0.089298287
H  H166  1  0.43510000  0.31170000  0.22690000  1.0 0.089298287
H  H167  1  0.37320000  0.43180000  0.47500000  1.0 0.089298287
H  H168  1  0.77980000  0.43210000  0.17270000  1.0 0.0714172323
H  H169  1  0.01080000  0.48340000  0.46700000  1.0 0.0714172323
H  H170  1  0.51720000  0.11290000  0.14750000  1.0 0.2456745773
H  H171  1  0.03960000  0.60280000  0.40350000  1.0 0.0805605935
H  H172  1  0.02000000  0.47780000  0.13950000  1.0 0.089298287
H  H173  1  0.78250000  0.50760000  0.30910000  1.0 0.089298287
H  H174  1  0.90840000  0.39330000  0.26590000  1.0 0.089298287
H  H175  1  0.64130000  0.41870000  0.27230000  1.0 0.0714172323
H  H176  1  0.04180000  0.28690000  0.04600000  1.0 0.0714172323
H  H177  1  0.61240000  0.40610000  0.33840000  1.0 0.0805605935
H  H178  1  0.51790000  0.34810000  0.14870000  1.0 0.089298287
H  H179  1  0.11180000  0.07550000  0.04500000  1.0 0.2998217336
H  H180  1  0.28840000  0.56930000  0.44010000  1.0 0.0805605935
H  H181  1  0.43530000  0.46570000  0.21680000  1.0 0.089298287
H  H182  1  0.48780000  0.53760000  0.35350000  1.0 0.0805605935
H  H183  1  0.45860000  0.21580000  0.34040000  1.0 0.089298287
H  H184  1  0.49140000  0.25050000  0.29660000  1.0 0.089298287
H  H185  1  0.27070000  0.43260000  0.12060000  1.0 0.0988303355
H  H186  1  0.92960000  0.38360000  0.05430000  1.0 0.0805605935
H  H187  1  0.61860000  0.47270000  0.20380000  1.0 0.0805605935
H  H188  1  0.84820000  0.33640000  0.32810000  1.0 0.0988303355
H  H189  1  0.75050000  0.33270000  0.30260000  1.0 0.089298287
H  H190  1  0.96120000  0.17790000  0.16550000  1.0 0.0988303355
H  H191  1  0.91350000  0.25040000  0.19890000  1.0 0.1084135051
H  H192  1  0.17710000  0.29650000  0.04830000  1.0 0.0714172323
H  H193  1  0.42610000  0.36370000  0.34570000  1.0 0.0805605935
H  H194  1  0.27810000  0.52420000  0.52980000  1.0 0.089298287
H  H195  1  0.93750000  0.56070000  0.26800000  1.0 0.089298287
H  H196  1  0.78880000  0.20490000  0.27870000  1.0 0.290743938
H  H197  1  0.43500000  0.28460000  0.08910000  1.0 0.0805605935
H  H198  1  0.85660000  0.35900000  0.12750000  1.0 0.0805605935
H  H199  1  0.80750000  0.49990000  0.37830000  1.0 0.0714172323
H  H200  1  0.88340000  0.57430000  0.44960000  1.0 0.089298287
H  H201  1  0.02690000  0.32380000  0.16590000  1.0 0.089298287
H  H202  1  0.01750000  0.43950000  0.36910000  1.0 0.089298287
H  H203  1  0.33750000  0.34770000  0.03900000  1.0 0.089298287
H  H204  1  0.19980000  0.11680000  0.10950000  1.0 0.089298287
H  H205  1  0.11490000  0.17120000  0.11340000  1.0 0.089298287
H  H206  1  0.98260000  0.28790000  0.36940000  1.0 0.1084135051
H  H207  1  0.07560000  0.32230000  0.39960000  1.0 0.089298287
H  H208  1  0.23700000  0.27330000  0.13990000  1.0 0.0805605935
H  H209  1  0.46940000  0.16650000  0.21070000  1.0 0.089298287
H  H210  1  0.40910000  0.18340000  0.16740000  1.0 0.1084135051
H  H211  1  0.17720000  0.47980000  0.60980000  1.0 0.2998217336
H  H212  1  0.83710000  0.01480000  0.52220000  1.0 0.3103062738
H  H213  1  0.73510000  0.59320000  0.70810000  1.0 0.3212430563
H  H214  1  0.82800000  0.91100000  0.84580000  1.0 0.3292439339
H  H215  1  0.81410000  0.57410000  0.88830000  1.0 0.3212430563
H  H216  1  0.85370000  0.89600000  0.54660000  1.0 0.3212430563
H  H217  1  0.74650000  0.55770000  0.82040000  1.0 0.3292439339
H  H218  1  0.86080000  0.39800000  0.95770000  1.0 0.3292439339
H  H219  1  0.83780000  0.84270000  0.68550000  1.0 0.3212430563
H  H220  1  0.18590000  0.09910000  0.57520000  1.0 0.2998217336
H  H221  1  0.87400000  0.04980000  0.91270000  1.0 0.3292439339
H  H222  1  0.75450000  0.21690000  0.53000000  1.0 0.3292439339
H  H223  1  0.23920000  0.94040000  0.70860000  1.0 0.2998217336
H  H224  1  0.14890000  0.56220000  0.74770000  1.0 0.3103062738
H  H225  1  0.69360000  0.58490000  0.63080000  1.0 0.3212430563
H  H226  1  0.82700000  0.22710000  0.95340000  1.0 0.3212430563
H  H227  1  0.15510000  0.91090000  0.86850000  1.0 0.2794270187
H  H228  1  0.79640000  0.84090000  0.77050000  1.0 0.3103062738
H  H229  1  0.19560000  0.61240000  0.90270000  1.0 0.2998217336
H  H230  1  0.93720000  0.68300000  0.85790000  1.0 0.0805605935
H  H231  1  0.19700000  0.28100000  0.97850000  1.0 0.2998217336
H  H232  1  0.99430000  0.82060000  0.73570000  1.0 0.0805605935
H  H233  1  0.94710000  0.31130000  0.51890000  1.0 0.0604386012
H  H234  1  0.98530000  0.45480000  0.64310000  1.0 0.089298287
H  H235  1  0.81730000  0.52250000  0.75700000  1.0 0.089298287
H  H236  1  0.99010000  0.13520000  0.98260000  1.0 0.0988303355
H  H237  1  0.91480000  0.19850000  0.90350000  1.0 0.0714172323
H  H238  1  0.05290000  0.43800000  0.97710000  1.0 0.089298287
H  H239  1  0.06230000  0.41230000  0.57360000  1.0 0.0714172323
H  H240  1  0.05030000  0.51050000  0.56450000  1.0 0.089298287
H  H241  1  0.98740000  0.54210000  0.75990000  1.0 0.0805605935
H  H242  1  0.99980000  0.95540000  0.56030000  1.0 0.0714172323
H  H243  1  0.99180000  0.22670000  0.61800000  1.0 0.0805605935
H  H244  1  0.97980000  0.07800000  0.54270000  1.0 0.0805605935
H  H245  1  0.05730000  0.59660000  0.69940000  1.0 0.0988303355
H  H246  1  0.06480000  0.69640000  0.73010000  1.0 0.1084135051
H  H247  1  0.02900000  0.05270000  0.67740000  1.0 0.0805605935
H  H248  1  0.86790000  0.64490000  0.65210000  1.0 0.0805605935
H  H249  1  0.83750000  0.16410000  0.58480000  1.0 0.0988303355
H  H250  1  0.02610000  0.86310000  0.67520000  1.0 0.0988303355
H  H251  1  0.73870000  0.39050000  0.54600000  1.0 0.3212430563
H  H252  1  0.04470000  0.30050000  0.97420000  1.0 0.0805605935
H  H253  1  0.06330000  0.03510000  0.92950000  1.0 0.0714172323
H  H254  1  0.96430000  0.55280000  0.97240000  1.0 0.0805605935
H  H255  1  0.89150000  0.67420000  0.72390000  1.0 0.089298287
H  H256  1  0.87820000  0.45160000  0.88700000  1.0 0.0805605935
H  H257  1  0.89330000  0.15950000  0.49460000  1.0 0.089298287
H  H258  1  0.90910000  0.01430000  0.80100000  1.0 0.089298287
H  H259  1  0.89250000  0.43060000  0.55140000  1.0 0.0805605935
H  H260  1  0.18670000  0.05860000  0.68620000  1.0 0.089298287
H  H261  1  0.14530000  0.03240000  0.73000000  1.0 0.089298287
H  H262  1  0.07170000  0.03440000  0.79600000  1.0 0.089298287
H  H263  1  0.82500000  0.70300000  0.80650000  1.0 0.089298287
H  H264  1  0.94810000  0.83700000  0.59250000  1.0 0.0988303355
H  H265  1  0.01850000  0.94340000  0.86660000  1.0 0.0805605935
H  H266  1  0.92470000  0.82830000  0.80290000  1.0 0.0714172323
H  H267  1  0.02840000  0.42670000  0.85750000  1.0 0.0805605935
H  H268  1  0.14530000  0.23800000  0.61670000  1.0 0.0805605935
H  H269  1  0.11070000  0.14560000  0.63070000  1.0 0.089298287
H  H270  1  0.87610000  0.96120000  0.66060000  1.0 0.0988303355
H  H271  1  0.00300000  0.60950000  0.89930000  1.0 0.089298287
H  H272  1  0.78820000  0.55330000  0.58580000  1.0 0.0805605935
H  H273  1  0.21550000  0.01460000  0.81490000  1.0 0.0988303355
H  H274  1  0.17920000  0.06490000  0.86080000  1.0 0.1084135051
H  H275  1  0.17940000  0.48800000  0.85670000  1.0 0.089298287
H  H276  1  0.11390000  0.52780000  0.82300000  1.0 0.0988303355
H  H277  1  0.07240000  0.22310000  0.88180000  1.0 0.089298287
H  H278  1  0.81000000  0.40680000  0.63210000  1.0 0.0988303355
H  H279  1  0.22180000  0.26730000  0.89810000  1.0 0.089298287
H  H280  1  0.17200000  0.35530000  0.91120000  1.0 0.0988303355
C  C1  1  0.40510000  0.62040000  0.67300000  1.0 0.0714172323
C  C2  1  0.50480000  0.01560000  0.75040000  1.0 0.0497256454
C  C3  1  0.44660000  0.41550000  0.57670000  1.0 0.0298818876
C  C4  1  0.65090000  0.22380000  0.90250000  1.0 0.089298287
C  C5  1  0.41640000  0.96700000  0.72700000  1.0 -0.0875031755
C  C6  1  0.53030000  0.37700000  0.55930000  1.0 0.089298287
C  C7  1  0.51280000  0.65010000  0.92810000  1.0 0.1998203813
C  C8  1  0.48530000  0.68940000  0.68990000  1.0 0.0127940152
C  C9  1  0.49240000  0.11260000  0.58710000  1.0 0.0203239333
C  C10  1  0.56370000  0.66810000  0.66300000  1.0 0.0714172323
C  C11  1  0.45680000  0.57780000  0.59920000  1.0 0.1998203813
C  C12  1  0.60410000  0.77640000  0.80230000  1.0 0.0203239333
C  C13  1  0.54110000  0.64290000  0.61190000  1.0 0.0386311364
C  C14  1  0.32290000  0.64520000  0.69380000  1.0 -0.0517676578
C  C15  1  0.50160000  0.28940000  0.52420000  1.0 0.0127940152
C  C16  1  0.44930000  0.09890000  0.62920000  1.0 0.0714172323
C  C17  1  0.63260000  0.27540000  0.94950000  1.0 0.0298818876
C  C18  1  0.58400000  0.99810000  0.72310000  1.0 0.0127940152
C  C19  1  0.59190000  0.03400000  0.82210000  1.0 0.1829681167
C  C20  1  0.66710000  0.04390000  0.75160000  1.0 0.089298287
C  C21  1  0.60310000  0.70650000  0.83110000  1.0 0.0805605935
C  C22  1  0.30890000  0.38100000  0.61610000  1.0 -0.0603330711
C  C23  1  0.58970000  0.09320000  0.59260000  1.0 0.089298287
C  C24  1  0.43960000  0.69310000  0.82190000  1.0 0.0714172323
C  C25  1  0.54350000  0.47530000  0.94280000  1.0 0.0298818876
C  C26  1  0.67610000  0.02010000  0.79870000  1.0 0.0298818876
C  C27  1  0.51700000  0.76520000  0.77030000  1.0 0.1913619619
C  C28  1  0.35190000  0.11740000  0.62770000  1.0 -0.0517676578
C  C29  1  0.54940000  0.31890000  0.94680000  1.0 0.1913619619
C  C30  1  0.39420000  0.34890000  0.59830000  1.0 0.0714172323
C  C31  1  0.62200000  0.54230000  0.93630000  1.0 0.089298287
C  C32  1  0.52020000  0.70870000  0.85680000  1.0 0.0298818876
C  C33  1  0.48780000  0.21740000  0.87860000  1.0 0.0604386012
C  C34  1  0.59970000  0.63740000  0.95320000  1.0 0.0203239333
C  C35  1  0.53680000  0.98430000  0.64080000  1.0 0.2109340845
C  C36  1  0.44390000  0.22690000  0.54700000  1.0 0.1998203813
C  C37  1  0.56680000  0.16340000  0.87920000  1.0 0.0298818876
C  C38  1  0.45830000  0.49550000  0.91700000  1.0 0.0497256454
C  C39  1  0.59180000  0.99930000  0.60170000  1.0 0.0203239333
C  C40  1  0.35320000  0.68870000  0.84240000  1.0 -0.0696556996
C  C41  1  0.37440000  0.43730000  0.91900000  1.0 -0.0696556996
C  C42  1  0.40110000  0.15810000  0.85800000  1.0 -0.0603330711
C  C43  1  0.03880000  0.96420000  0.44990000  1.0 0.0386311364
C  C44  1  0.40630000  0.71690000  0.26830000  1.0 0.0714172323
C  C45  1  0.07000000  0.88040000  0.46420000  1.0 0.0805605935
C  C46  1  0.81690000  0.82660000  0.09630000  1.0 0.1913619619
C  C47  1  0.15010000  0.91010000  0.50050000  1.0 0.0298818876
C  C48  1  0.79300000  0.86400000  0.36750000  1.0 0.0805605935
C  C49  1  0.46870000  0.84100000  0.37990000  1.0 0.1913619619
C  C50  1  0.22070000  0.96400000  0.47990000  1.0 0.1913619619
C  C51  1  0.93420000  0.72570000  0.08540000  1.0 0.0714172323
C  C52  1  0.99460000  0.80320000  0.07740000  1.0 0.0298818876
C  C53  1  0.39400000  0.05550000  0.43530000  1.0 -0.0982069851
C  C54  1  0.44720000  0.80640000  0.29600000  1.0 0.0203239333
C  C55  1  0.34140000  0.89950000  0.44200000  1.0 0.0386311364
C  C56  1  0.80690000  0.91090000  0.41720000  1.0 0.0386311364
C  C57  1  0.43910000  0.78190000  0.41210000  1.0 0.0298818876
C  C58  1  0.42600000  0.88190000  0.27060000  1.0 0.0714172323
C  C59  1  0.78610000  0.93250000  0.33770000  1.0 0.0203239333
C  C60  1  0.41570000  0.78160000  0.19740000  1.0 0.1913619619
C  C61  1  0.70470000  0.87980000  0.26230000  1.0 0.1829681167
C  C62  1  0.88630000  0.98220000  0.42530000  1.0 0.1913619619
C  C63  1  0.11220000  0.01320000  0.43070000  1.0 0.0805605935
C  C64  1  0.38220000  0.95740000  0.41060000  1.0 0.0714172323
C  C65  1  0.77470000  0.93540000  0.20330000  1.0 0.0497256454
C  C66  1  0.86750000  0.00420000  0.34880000  1.0 0.0714172323
C  C67  1  0.75960000  0.84390000  0.17150000  1.0 0.0203239333
C  C68  1  0.83790000  0.73460000  0.07070000  1.0 0.0298818876
C  C69  1  0.34640000  0.80020000  0.42440000  1.0 0.089298287
C  C70  1  0.09000000  0.09760000  0.41650000  1.0 -0.0603330711
C  C71  1  0.96560000  0.89230000  0.09890000  1.0 0.0497256454
C  C72  1  0.23930000  0.71320000  0.11600000  1.0 0.0805605935
C  C73  1  0.68880000  0.78470000  0.23280000  1.0 0.0127940152
C  C74  1  0.42520000  0.69900000  0.21880000  1.0 0.0298818876
C  C75  1  0.20550000  0.72630000  0.07040000  1.0 0.0203239333
C  C76  1  0.46900000  0.97360000  0.29490000  1.0 -0.0696556996
C  C77  1  0.75870000  0.77120000  0.19990000  1.0 0.089298287
C  C78  1  0.15600000  0.80900000  0.07350000  1.0 0.1998203813
C  C79  1  0.24390000  0.88150000  0.14460000  1.0 0.0805605935
C  C80  1  0.29410000  0.79940000  0.14170000  1.0 0.0203239333
C  C81  1  0.77380000  0.01360000  0.17870000  1.0 -0.0310152483
C  C82  1  0.01670000  0.97620000  0.09210000  1.0 -0.0875031755
C  C83  1  0.86030000  0.07930000  0.32290000  1.0 -0.0603330711
C  C84  1  0.29600000  0.96830000  0.16590000  1.0 -0.0696556996
C  C85  1  0.26210000  0.38880000  0.42820000  1.0 0.0805605935
C  C86  1  0.28080000  0.29270000  0.40960000  1.0 -0.0603330711
C  C87  1  0.55230000  0.52390000  0.41450000  1.0 0.0386311364
C  C88  1  0.49170000  0.44760000  0.42640000  1.0 0.1998203813
C  C89  1  0.17230000  0.46980000  0.47900000  1.0 0.1829681167
C  C90  1  0.82290000  0.54340000  0.22400000  1.0 -0.0066057601
C  C91  1  0.48050000  0.29850000  0.20490000  1.0 0.0714172323
C  C92  1  0.34280000  0.45370000  0.44890000  1.0 0.0203239333
C  C93  1  0.82080000  0.44520000  0.20190000  1.0 0.1829681167
C  C94  1  0.03420000  0.49580000  0.43820000  1.0 0.0298818876
C  C95  1  0.01060000  0.58720000  0.43020000  1.0 0.089298287
C  C96  1  0.96410000  0.44980000  0.12010000  1.0 0.0805605935
C  C97  1  0.84390000  0.49870000  0.30100000  1.0 0.0127940152
C  C98  1  0.84620000  0.40150000  0.27290000  1.0 0.0805605935
C  C99  1  0.57990000  0.40820000  0.25610000  1.0 0.1829681167
C  C100  1  0.03350000  0.31980000  0.07760000  1.0 0.1913619619
C  C101  1  0.55010000  0.42180000  0.33620000  1.0 0.0203239333
C  C102  1  0.47210000  0.35850000  0.17080000  1.0 0.0203239333
C  C103  1  0.31670000  0.54690000  0.46660000  1.0 0.0805605935
C  C104  1  0.48310000  0.45670000  0.19580000  1.0 0.089298287
C  C105  1  0.54570000  0.51740000  0.36340000  1.0 0.0714172323
C  C106  1  0.50230000  0.25810000  0.33050000  1.0 -0.0603330711
C  C107  1  0.26090000  0.40360000  0.08710000  1.0 0.0714172323
C  C108  1  0.98660000  0.40410000  0.07430000  1.0 0.0298818876
C  C109  1  0.57040000  0.47720000  0.22460000  1.0 -0.0066057601
C  C110  1  0.81350000  0.32840000  0.29760000  1.0 -0.0696556996
C  C111  1  0.92350000  0.22760000  0.16650000  1.0 -0.0696556996
C  C112  1  0.19400000  0.32250000  0.08180000  1.0 0.0298818876
C  C113  1  0.48910000  0.35310000  0.35280000  1.0 0.0805605935
C  C114  1  0.24910000  0.54220000  0.50210000  1.0 0.0386311364
C  C115  1  0.87310000  0.56410000  0.27140000  1.0 0.0805605935
C  C116  1  0.37680000  0.30320000  0.09850000  1.0 0.2109340845
C  C117  1  0.91650000  0.38100000  0.14430000  1.0 0.0203239333
C  C118  1  0.87360000  0.50430000  0.38190000  1.0 0.1998203813
C  C119  1  0.91010000  0.58310000  0.42100000  1.0 0.0386311364
C  C120  1  0.96860000  0.30170000  0.14730000  1.0 0.0604386012
C  C121  1  0.99520000  0.42390000  0.39750000  1.0 0.0497256454
C  C122  1  0.34690000  0.37530000  0.07270000  1.0 0.0127940152
C  C123  1  0.16810000  0.16190000  0.09680000  1.0 -0.0696556996
C  C124  1  0.01110000  0.32740000  0.39830000  1.0 -0.0603330711
C  C125  1  0.22740000  0.24910000  0.10600000  1.0 0.0805605935
C  C126  1  0.46850000  0.19880000  0.18490000  1.0 -0.0517676578
C  C127  1  0.92820000  0.63910000  0.82780000  1.0 0.1829681167
C  C128  1  0.99430000  0.88070000  0.75630000  1.0 0.1913619619
C  C129  1  0.93930000  0.27370000  0.54260000  1.0 0.1998203813
C  C130  1  0.97420000  0.47650000  0.61370000  1.0 0.0805605935
C  C131  1  0.82010000  0.58820000  0.75700000  1.0 0.0714172323
C  C132  1  0.96870000  0.12320000  0.94900000  1.0 0.0386311364
C  C133  1  0.94180000  0.21190000  0.93630000  1.0 0.0805605935
C  C134  1  0.02450000  0.44080000  0.94600000  1.0 0.1998203813
C  C135  1  0.05680000  0.47500000  0.58890000  1.0 -0.0875031755
C  C136  1  0.98470000  0.60510000  0.75540000  1.0 0.0604386012
C  C137  1  0.98780000  0.96860000  0.59330000  1.0 0.1913619619
C  C138  1  0.01720000  0.19250000  0.59080000  1.0 0.0805605935
C  C139  1  0.95600000  0.11030000  0.57090000  1.0 0.0127940152
C  C140  1  0.06300000  0.63200000  0.73140000  1.0 -0.0696556996
C  C141  1  0.05780000  0.99600000  0.67030000  1.0 0.0805605935
C  C142  1  0.87550000  0.57940000  0.64530000  1.0 0.1913619619
C  C143  1  0.86280000  0.13230000  0.55700000  1.0 0.0714172323
C  C144  1  0.99720000  0.91990000  0.68070000  1.0 0.0203239333
C  C145  1  0.02260000  0.27930000  0.94090000  1.0 0.0203239333
C  C146  1  0.04400000  0.09120000  0.92110000  1.0 0.1913619619
C  C147  1  0.94380000  0.49310000  0.95200000  1.0 0.0298818876
C  C148  1  0.89430000  0.61200000  0.72940000  1.0 0.0127940152
C  C149  1  0.90610000  0.50990000  0.90650000  1.0 0.0714172323
C  C150  1  0.87190000  0.19400000  0.52300000  1.0 0.0203239333
C  C151  1  0.91810000  0.96640000  0.81890000  1.0 0.0805605935
C  C152  1  0.89570000  0.41790000  0.58320000  1.0 0.0203239333
C  C153  1  0.15030000  0.01120000  0.69680000  1.0 -0.0517676578
C  C154  1  0.08160000  0.98790000  0.81480000  1.0 0.0497256454
C  C155  1  0.83460000  0.63920000  0.80660000  1.0 0.0298818876
C  C156  1  0.92240000  0.89510000  0.60160000  1.0 0.0386311364
C  C157  1  0.00970000  0.98820000  0.84680000  1.0 0.0203239333
C  C158  1  0.91750000  0.87640000  0.78490000  1.0 0.0127940152
C  C159  1  0.05160000  0.48750000  0.87610000  1.0 0.0604386012
C  C160  1  0.10970000  0.17910000  0.60540000  1.0 -0.0696556996
C  C161  1  0.90720000  0.90640000  0.65170000  1.0 0.089298287
C  C162  1  0.97850000  0.54810000  0.88190000  1.0 0.0298818876
C  C163  1  0.79500000  0.52950000  0.61470000  1.0 0.0386311364
C  C164  1  0.17420000  0.00740000  0.83820000  1.0 -0.0603330711
C  C165  1  0.13140000  0.52740000  0.85570000  1.0 -0.0426877023
C  C166  1  0.09490000  0.23890000  0.91520000  1.0 0.0386311364
C  C167  1  0.80750000  0.42960000  0.60280000  1.0 0.089298287
C  C168  1  0.18270000  0.29740000  0.91970000  1.0 -0.0517676578
O  O1  1  0.47660000  0.49490000  0.61060000  1.0 -0.2706726394
O  O2  1  0.51210000  0.68710000  0.73770000  1.0 -0.2621300698
O  O3  1  0.38560000  0.60990000  0.62400000  1.0 -0.2621300698
O  O4  1  0.29550000  0.72720000  0.68320000  1.0 -0.4121963512
O  O5  1  0.72260000  0.17070000  0.90770000  1.0 -0.4999454052
O  O6  1  0.68140000  0.72060000  0.86280000  1.0 -0.4999454052
O  O7  1  0.45020000  0.00590000  0.63130000  1.0 -0.289014879
O  O8  1  0.57820000  0.24620000  0.51100000  1.0 -0.4618084163
O  O9  1  0.37030000  0.26790000  0.56270000  1.0 -0.3760584922
O  O10  1  0.67720000  0.77150000  0.77390000  1.0 -0.5276998908
O  O11  1  0.62900000  0.74530000  0.67240000  1.0 -0.5516087146
O  O12  1  0.52150000  0.63400000  0.88020000  1.0 -0.3274086943
O  O13  1  0.57990000  0.43800000  0.53840000  1.0 -0.4824071806
O  O14  1  0.69930000  0.52290000  0.96100000  1.0 -0.5425500603
O  O15  1  0.49800000  0.20650000  0.58280000  1.0 -0.2497727753
O  O16  1  0.74950000  0.06920000  0.82790000  1.0 -0.4618084163
O  O17  1  0.57910000  0.03740000  0.68240000  1.0 -0.2621300698
O  O18  1  0.30030000  0.06070000  0.58990000  1.0 -0.4328751992
O  O19  1  0.63210000  0.10000000  0.55300000  1.0 -0.4999454052
O  O20  1  0.51640000  0.98690000  0.79310000  1.0 -0.3597678126
O  O21  1  0.58370000  0.12670000  0.83300000  1.0 -0.2802888558
O  O22  1  0.61040000  0.60900000  0.58800000  1.0 -0.4403140874
O  O23  1  0.70650000  0.33770000  0.97010000  1.0 -0.5276998908
O  O24  1  0.34610000  0.99660000  0.75180000  1.0 -0.4618084163
O  O25  1  0.56500000  0.38900000  0.92200000  1.0 -0.3009231767
O  O26  1  0.25050000  0.39890000  0.57930000  1.0 -0.4700846256
O  O27  1  0.44390000  0.58810000  0.93560000  1.0 -0.3101921283
O  O28  1  0.74250000  0.01860000  0.72780000  1.0 -0.4824071806
O  O29  1  0.66960000  0.70230000  0.94800000  1.0 -0.4915722878
O  O30  1  0.44400000  0.76580000  0.79690000  1.0 -0.3400997997
O  O31  1  0.33710000  0.77150000  0.86840000  1.0 -0.4824071806
O  O32  1  0.47740000  0.25820000  0.92530000  1.0 -0.3101921283
O  O33  1  0.68110000  0.97870000  0.61300000  1.0 -0.4915722878
O  O34  1  0.38120000  0.09070000  0.88090000  1.0 -0.4618084163
O  O35  1  0.35850000  0.44180000  0.96510000  1.0 -0.4328751992
O  O36  1  0.83120000  0.83090000  0.14380000  1.0 -0.3009231767
O  O37  1  0.18710000  0.03930000  0.46600000  1.0 -0.3274086943
O  O38  1  0.99920000  0.83760000  0.48340000  1.0 -0.5099867145
O  O39  1  0.24930000  0.90710000  0.44280000  1.0 -0.2621300698
O  O40  1  0.96320000  0.93760000  0.41750000  1.0 -0.2802888558
O  O41  1  0.18500000  0.83530000  0.51400000  1.0 -0.4618084163
O  O42  1  0.81920000  0.85000000  0.44740000  1.0 -0.5276998908
O  O43  1  0.74340000  0.68400000  0.17110000  1.0 -0.4999454052
O  O44  1  0.46780000  0.93270000  0.40120000  1.0 -0.3009231767
O  O45  1  0.87420000  0.89700000  0.08440000  1.0 -0.3597678126
O  O46  1  0.45790000  0.86080000  0.22580000  1.0 -0.3400997997
O  O47  1  0.78490000  0.88760000  0.29040000  1.0 -0.2706726394
O  O48  1  0.41100000  0.11710000  0.40670000  1.0 -0.4328751992
O  O49  1  0.05940000  0.15560000  0.45500000  1.0 -0.4999454052
O  O50  1  0.71230000  0.80390000  0.36080000  1.0 -0.5276998908
O  O51  1  0.87590000  0.04350000  0.39660000  1.0 -0.2621300698
O  O52  1  0.70550000  0.94470000  0.23370000  1.0 -0.3199906082
O  O53  1  0.41060000  0.81830000  0.33880000  1.0 -0.2802888558
O  O54  1  0.43890000  0.69050000  0.38900000  1.0 -0.4915722878
O  O55  1  0.37470000  0.62370000  0.19180000  1.0 -0.4475199015
O  O56  1  0.29230000  0.64050000  0.11020000  1.0 -0.4915722878
O  O57  1  0.43580000  0.64600000  0.28840000  1.0 -0.5099867145
O  O58  1  0.32440000  0.79000000  0.18730000  1.0 -0.289014879
O  O59  1  0.96110000  0.64470000  0.05900000  1.0 -0.4824071806
O  O60  1  0.77960000  0.66740000  0.08180000  1.0 -0.5276998908
O  O61  1  0.08060000  0.79540000  0.09790000  1.0 -0.2802888558
O  O62  1  0.14850000  0.64980000  0.04270000  1.0 -0.4824071806
O  O63  1  0.21210000  0.88780000  0.09930000  1.0 -0.3101921283
O  O64  1  0.69110000  0.72260000  0.26380000  1.0 -0.4999454052
O  O65  1  0.78600000  0.12580000  0.33100000  1.0 -0.4121963512
O  O66  1  0.01310000  0.97630000  0.04420000  1.0 -0.4618084163
O  O67  1  0.44390000  0.04030000  0.27160000  1.0 -0.4618084163
O  O68  1  0.31860000  0.75600000  0.45970000  1.0 -0.4824071806
O  O69  1  0.37930000  0.97800000  0.14450000  1.0 -0.4915722878
O  O70  1  0.69480000  0.02060000  0.15720000  1.0 -0.4475199015
O  O71  1  0.40260000  0.46200000  0.41620000  1.0 -0.2706726394
O  O72  1  0.12880000  0.50310000  0.44330000  1.0 -0.2802888558
O  O73  1  0.20220000  0.38610000  0.46280000  1.0 -0.3519371481
O  O74  1  0.21730000  0.62590000  0.51550000  1.0 -0.4475199015
O  O75  1  0.50840000  0.36210000  0.40130000  1.0 -0.2706726394
O  O76  1  0.85830000  0.59900000  0.19490000  1.0 -0.4475199015
O  O77  1  0.90080000  0.42570000  0.39370000  1.0 -0.289014879
O  O78  1  0.79150000  0.38980000  0.23090000  1.0 -0.3274086943
O  O79  1  0.90550000  0.52030000  0.34220000  1.0 -0.2621300698
O  O80  1  0.90720000  0.42730000  0.19100000  1.0 -0.3009231767
O  O81  1  0.39040000  0.60910000  0.48800000  1.0 -0.4618084163
O  O82  1  0.38440000  0.34110000  0.14580000  1.0 -0.3101921283
O  O83  1  0.32010000  0.25590000  0.44620000  1.0 -0.5099867145
O  O84  1  0.51990000  0.42250000  0.28930000  1.0 -0.2706726394
O  O85  1  0.56620000  0.31990000  0.23050000  1.0 -0.3199906082
O  O86  1  0.61540000  0.57800000  0.35400000  1.0 -0.5550554724
O  O87  1  0.03720000  0.46080000  0.05250000  1.0 -0.4618084163
O  O88  1  0.53310000  0.60770000  0.43850000  1.0 -0.4700846256
O  O89  1  0.90970000  0.51780000  0.11470000  1.0 -0.5276998908
O  O90  1  0.58160000  0.56590000  0.25390000  1.0 -0.5212970109
O  O91  1  0.11730000  0.35120000  0.10280000  1.0 -0.289014879
O  O92  1  0.58960000  0.23680000  0.34230000  1.0 -0.420755459
O  O93  1  0.47520000  0.51480000  0.16500000  1.0 -0.4618084163
O  O94  1  0.22510000  0.46600000  0.06310000  1.0 -0.4700846256
O  O95  1  0.98420000  0.26200000  0.10050000  1.0 -0.3101921283
O  O96  1  0.03940000  0.65370000  0.47100000  1.0 -0.4999454052
O  O97  1  0.41420000  0.45000000  0.07920000  1.0 -0.4999454052
O  O98  1  0.31170000  0.22800000  0.08930000  1.0 -0.2802888558
O  O99  1  0.86200000  0.65330000  0.29490000  1.0 -0.5099867145
O  O100  1  0.97820000  0.29840000  0.43550000  1.0 -0.420755459
O  O101  1  0.88430000  0.66420000  0.40990000  1.0 -0.5212970109
O  O102  1  0.83780000  0.19500000  0.13840000  1.0 -0.5099867145
O  O103  1  0.52890000  0.16850000  0.15720000  1.0 -0.4403140874
O  O104  1  0.14010000  0.12650000  0.04820000  1.0 -0.4618084163
O  O105  1  0.82300000  0.24420000  0.27100000  1.0 -0.4700846256
O  O106  1  0.13580000  0.50980000  0.61830000  1.0 -0.4475199015
O  O107  1  0.90530000  0.32480000  0.58150000  1.0 -0.2802888558
O  O108  1  0.06870000  0.97630000  0.62160000  1.0 -0.2802888558
O  O109  1  0.80710000  0.05220000  0.53680000  1.0 -0.4915722878
O  O110  1  0.88090000  0.54910000  0.68690000  1.0 -0.2802888558
O  O111  1  0.94030000  0.55250000  0.83620000  1.0 -0.3009231767
O  O112  1  0.94870000  0.05040000  0.60250000  1.0 -0.2706726394
O  O113  1  0.73680000  0.60600000  0.73700000  1.0 -0.4999454052
O  O114  1  0.08740000  0.48150000  0.92230000  1.0 -0.3101921283
O  O115  1  0.07580000  0.90120000  0.78360000  1.0 -0.2802888558
O  O116  1  0.85030000  0.96420000  0.84840000  1.0 -0.4915722878
O  O117  1  0.99210000  0.35340000  0.92260000  1.0 -0.2802888558
O  O118  1  0.83970000  0.57020000  0.91380000  1.0 -0.4999454052
O  O119  1  0.95390000  0.56750000  0.62350000  1.0 -0.2802888558
O  O120  1  0.99210000  0.66450000  0.79930000  1.0 -0.3519371481
O  O121  1  0.84240000  0.89010000  0.57300000  1.0 -0.5099867145
O  O122  1  0.77340000  0.60700000  0.83460000  1.0 -0.4475199015
O  O123  1  0.00970000  0.07430000  0.87440000  1.0 -0.3009231767
O  O124  1  0.88010000  0.44800000  0.97450000  1.0 -0.5276998908
O  O125  1  0.98030000  0.94380000  0.72860000  1.0 -0.2706726394
O  O126  1  0.85370000  0.83180000  0.65880000  1.0 -0.5276998908
O  O127  1  0.02040000  0.24700000  0.55620000  1.0 -0.3101921283
O  O128  1  0.14680000  0.12880000  0.56600000  1.0 -0.5099867145
O  O129  1  0.89570000  0.05650000  0.94020000  1.0 -0.5212970109
O  O130  1  0.78950000  0.22340000  0.51020000  1.0 -0.4700846256
O  O131  1  0.19250000  0.93240000  0.69050000  1.0 -0.420755459
O  O132  1  0.14090000  0.61660000  0.75520000  1.0 -0.4618084163
O  O133  1  0.11590000  0.15850000  0.92870000  1.0 -0.289014879
O  O134  1  0.71850000  0.54240000  0.63850000  1.0 -0.4700846256
O  O135  1  0.87820000  0.24930000  0.96510000  1.0 -0.4999454052
O  O136  1  0.20030000  0.93850000  0.86130000  1.0 -0.4915722878
O  O137  1  0.83810000  0.85290000  0.75530000  1.0 -0.4999454052
O  O138  1  0.16420000  0.61440000  0.87850000  1.0 -0.4915722878
O  O139  1  0.22370000  0.31330000  0.96300000  1.0 -0.4121963512
O  O140  1  0.73970000  0.37500000  0.57160000  1.0 -0.4915722878
O  O141  1  0.64080000  0.13170000  0.26230000  1.0 -0.7006998391
O  O142  1  0.63210000  0.66270000  0.51480000  1.0 -0.8820287318
O  O143  1  0.23680000  0.81760000  0.76300000  1.0 -0.5729890795
