# DDEC6 charges by PACMAN v1.1 (https://github.com/mtap-research/PACMAN-charge/)
data_HOXJIO_FSR_pacman
_symmetry_space_group_name_H-M   'P 1'
_cell_length_a   13.04790000
_cell_length_b   19.14770000
_cell_length_c   19.93550000
_cell_angle_alpha   73.21600000
_cell_angle_beta   84.32000000
_cell_angle_gamma   73.01200000
_symmetry_Int_Tables_number   1
_chemical_formula_structural   Ag3H50C62S8O7F6
_chemical_formula_sum   'Ag6 H100 C124 S16 O14 F12'
_cell_volume   4559.80989368
_cell_formula_units_Z   2
loop_
 _symmetry_equiv_pos_site_id
 _symmetry_equiv_pos_as_xyz
  1  'x, y, z'
loop_
 _atom_site_type_symbol
 _atom_site_label
 _atom_site_symmetry_multiplicity
 _atom_site_fract_x
 _atom_site_fract_y
 _atom_site_fract_z
 _atom_site_occupancy
 _atom_site_charge
Ag  Ag1  1  0.30363000  0.48574000  0.21046000  1.0 0.1593333964
Ag  Ag2  1  0.69637000  0.51426000  0.78954000  1.0 0.1593333964
Ag  Ag3  1  0.27339000  0.82785000  0.52047000  1.0 0.270317235
Ag  Ag4  1  0.72661000  0.17215000  0.47953000  1.0 0.270317235
Ag  Ag5  1  0.01943000  0.98058000  0.47613000  1.0 0.0977623323
Ag  Ag6  1  0.98057000  0.01942000  0.52387000  1.0 0.0977623323
H  H1  1  0.45170000  0.19690000  0.87680000  1.0 0.1120758637
H  H2  1  0.54830000  0.80310000  0.12320000  1.0 0.1120758637
H  H3  1  0.43870000  0.14160000  0.80480000  1.0 0.1120758637
H  H4  1  0.56130000  0.85840000  0.19520000  1.0 0.1120758637
H  H5  1  0.29610000  0.93650000  0.87700000  1.0 0.1120758637
H  H6  1  0.70390000  0.06350000  0.12300000  1.0 0.1120758637
H  H7  1  0.29400000  0.88100000  0.98000000  1.0 0.1120758637
H  H8  1  0.70600000  0.11900000  0.02000000  1.0 0.1120758637
H  H9  1  0.33240000  0.00320000  0.14180000  1.0 0.1120758637
H  H10  1  0.66760000  0.99680000  0.85820000  1.0 0.1120758637
H  H11  1  0.36660000  0.10080000  0.10990000  1.0 0.1120758637
H  H12  1  0.63340000  0.89920000  0.89010000  1.0 0.1120758637
H  H13  1  0.29640000  0.33130000  0.03700000  1.0 0.1187999921
H  H14  1  0.70360000  0.66870000  0.96300000  1.0 0.1120758637
H  H15  1  0.24910000  0.39370000  0.12450000  1.0 0.1187999921
H  H16  1  0.75090000  0.60630000  0.87550000  1.0 0.1187999921
H  H17  1  0.42650000  0.20720000  0.26250000  1.0 0.1187999921
H  H18  1  0.57350000  0.79280000  0.73750000  1.0 0.1187999921
H  H19  1  0.47170000  0.14480000  0.17370000  1.0 0.1120758637
H  H20  1  0.52830000  0.85520000  0.82630000  1.0 0.1120758637
H  H21  1  0.39700000  0.25260000  0.34560000  1.0 0.1425553133
H  H22  1  0.60300000  0.74740000  0.65440000  1.0 0.1425553133
H  H23  1  0.35320000  0.32310000  0.37830000  1.0 0.1687451365
H  H24  1  0.64680000  0.67690000  0.62170000  1.0 0.1687451365
H  H25  1  0.44790000  0.32270000  0.32080000  1.0 0.1687451365
H  H26  1  0.55210000  0.67730000  0.67920000  1.0 0.1687451365
H  H27  1  0.57840000  0.26070000  0.02780000  1.0 0.1120758637
H  H28  1  0.42160000  0.73930000  0.97220000  1.0 0.1120758637
H  H29  1  0.62200000  0.37570000  0.99620000  1.0 0.1187999921
H  H30  1  0.37800000  0.62430000  0.00380000  1.0 0.1187999921
H  H31  1  0.43440000  0.45090000  0.82700000  1.0 0.1288797492
H  H32  1  0.56560000  0.54910000  0.17300000  1.0 0.1288797492
H  H33  1  0.38320000  0.33810000  0.86100000  1.0 0.1187999921
H  H34  1  0.61680000  0.66190000  0.13900000  1.0 0.1187999921
H  H35  1  0.44030000  0.58320000  0.80460000  1.0 0.1593333964
H  H36  1  0.55970000  0.41680000  0.19540000  1.0 0.1593333964
H  H37  1  0.45160000  0.63510000  0.85200000  1.0 0.1593333964
H  H38  1  0.54840000  0.36490000  0.14800000  1.0 0.1593333964
H  H39  1  0.38150000  0.57620000  0.87960000  1.0 0.1593333964
H  H40  1  0.61850000  0.42380000  0.12040000  1.0 0.1593333964
H  H41  1  0.36300000  0.21080000  0.68690000  1.0 0.1187999921
H  H42  1  0.63700000  0.78920000  0.31310000  1.0 0.1187999921
H  H43  1  0.41550000  0.25390000  0.57310000  1.0 0.1187999921
H  H44  1  0.58450000  0.74610000  0.42690000  1.0 0.1187999921
H  H45  1  0.54440000  0.03640000  0.56600000  1.0 0.1288797492
H  H46  1  0.45560000  0.96360000  0.43400000  1.0 0.1288797492
H  H47  1  0.48360000  0.99590000  0.67860000  1.0 0.1187999921
H  H48  1  0.51640000  0.00410000  0.32140000  1.0 0.1187999921
H  H49  1  0.58800000  0.06480000  0.45200000  1.0 0.1593333964
H  H50  1  0.41200000  0.93520000  0.54800000  1.0 0.1593333964
H  H51  1  0.55340000  0.12870000  0.37980000  1.0 0.1504350041
H  H52  1  0.44660000  0.87130000  0.62020000  1.0 0.1504350041
H  H53  1  0.46370000  0.10330000  0.43440000  1.0 0.1687451365
H  H54  1  0.53630000  0.89670000  0.56560000  1.0 0.1593333964
H  H55  1  0.21430000  0.08750000  0.68110000  1.0 0.1187999921
H  H56  1  0.78570000  0.91250000  0.31890000  1.0 0.1187999921
H  H57  1  0.12890000  0.04570000  0.60800000  1.0 0.1187999921
H  H58  1  0.87110000  0.95430000  0.39200000  1.0 0.1187999921
H  H59  1  0.27100000  0.82760000  0.71200000  1.0 0.1425553133
H  H60  1  0.72900000  0.17240000  0.28800000  1.0 0.1425553133
H  H61  1  0.34880000  0.86960000  0.78880000  1.0 0.1120758637
H  H62  1  0.65120000  0.13040000  0.21120000  1.0 0.1120758637
H  H63  1  0.12570000  0.79460000  0.68750000  1.0 0.1593333964
H  H64  1  0.87430000  0.20540000  0.31250000  1.0 0.1593333964
H  H65  1  0.03460000  0.81200000  0.63210000  1.0 0.1593333964
H  H66  1  0.96540000  0.18800000  0.36790000  1.0 0.1593333964
H  H67  1  0.01730000  0.86100000  0.68720000  1.0 0.1504350041
H  H68  1  0.98270000  0.13900000  0.31280000  1.0 0.1504350041
H  H69  1  0.13790000  0.83260000  0.02790000  1.0 0.1187999921
H  H70  1  0.86210000  0.16740000  0.97210000  1.0 0.1187999921
H  H71  1  0.08050000  0.72240000  0.06800000  1.0 0.1187999921
H  H72  1  0.91950000  0.27760000  0.93200000  1.0 0.1187999921
H  H73  1  0.29570000  0.64000000  0.22240000  1.0 0.1120758637
H  H74  1  0.70430000  0.36000000  0.77760000  1.0 0.1120758637
H  H75  1  0.35010000  0.75100000  0.18590000  1.0 0.1187999921
H  H76  1  0.64990000  0.24900000  0.81410000  1.0 0.1187999921
H  H77  1  0.11970000  0.59430000  0.29440000  1.0 0.1425553133
H  H78  1  0.88030000  0.40570000  0.70560000  1.0 0.1425553133
H  H79  1  0.02800000  0.56190000  0.27760000  1.0 0.1504350041
H  H80  1  0.97200000  0.43810000  0.72240000  1.0 0.1504350041
H  H81  1  0.01610000  0.65110000  0.25200000  1.0 0.1504350041
H  H82  1  0.98390000  0.34890000  0.74800000  1.0 0.1504350041
H  H83  1  0.10810000  0.87810000  0.19070000  1.0 0.1120758637
H  H84  1  0.89190000  0.12190000  0.80930000  1.0 0.1120758637
H  H85  1  0.04870000  0.85610000  0.30540000  1.0 0.1187999921
H  H86  1  0.95130000  0.14390000  0.69460000  1.0 0.1187999921
H  H87  1  0.31920000  0.88520000  0.36340000  1.0 0.1187999921
H  H88  1  0.68080000  0.11480000  0.63660000  1.0 0.1187999921
H  H89  1  0.37830000  0.90730000  0.24710000  1.0 0.1120758637
H  H90  1  0.62170000  0.09270000  0.75290000  1.0 0.1120758637
H  H91  1  0.01460000  0.80270000  0.41250000  1.0 0.1425553133
H  H92  1  0.98540000  0.19730000  0.58750000  1.0 0.1504350041
H  H93  1  0.03060000  0.78560000  0.49490000  1.0 0.182166704
H  H94  1  0.96940000  0.21440000  0.50510000  1.0 0.182166704
H  H95  1  0.12080000  0.74230000  0.44900000  1.0 0.1687451365
H  H96  1  0.87920000  0.25770000  0.55100000  1.0 0.1687451365
H  H97  1  0.35200000  0.52400000  0.32600000  1.0 0.2495948905
H  H98  1  0.64800000  0.47600000  0.67400000  1.0 0.2495948905
H  H99  1  0.45400000  0.49500000  0.32400000  1.0 0.336029985
H  H100  1  0.54600000  0.50500000  0.67600000  1.0 0.336029985
C  C1  1  0.40790000  0.18890000  0.04250000  1.0 0.0320985784
C  C2  1  0.59210000  0.81110000  0.95750000  1.0 0.0320985784
C  C3  1  0.43860000  0.21700000  0.97200000  1.0 0.0320985784
C  C4  1  0.56140000  0.78300000  0.02800000  1.0 0.0320985784
C  C5  1  0.43370000  0.17720000  0.92450000  1.0 -0.192266134
C  C6  1  0.56630000  0.82280000  0.07550000  1.0 -0.192266134
C  C7  1  0.40390000  0.10990000  0.94350000  1.0 0.0363442944
C  C8  1  0.59610000  0.89010000  0.05650000  1.0 0.0363442944
C  C9  1  0.38990000  0.07220000  0.89190000  1.0 0.0363442944
C  C10  1  0.61010000  0.92780000  0.10810000  1.0 0.0363442944
C  C11  1  0.40830000  0.10010000  0.82000000  1.0 -0.1967684419
C  C12  1  0.59170000  0.89990000  0.18000000  1.0 -0.1967684419
C  C13  1  0.38460000  0.07040000  0.77010000  1.0 0.0320985784
C  C14  1  0.61540000  0.92960000  0.22990000  1.0 0.0320985784
C  C15  1  0.33690000  0.00970000  0.79180000  1.0 0.0320985784
C  C16  1  0.66310000  0.99030000  0.20820000  1.0 0.0320985784
C  C17  1  0.32430000  0.97900000  0.86240000  1.0 -0.1967684419
C  C18  1  0.67570000  0.02100000  0.13760000  1.0 -0.1967684419
C  C19  1  0.35070000  0.00690000  0.91410000  1.0 0.0363442944
C  C20  1  0.64930000  0.99310000  0.08590000  1.0 0.0363442944
C  C21  1  0.33120000  0.97390000  0.98870000  1.0 0.0363442944
C  C22  1  0.66880000  0.02610000  0.01130000  1.0 0.0363442944
C  C23  1  0.29980000  0.90680000  0.01290000  1.0 -0.192266134
C  C24  1  0.70020000  0.09320000  0.98710000  1.0 -0.192266134
C  C25  1  0.27690000  0.87660000  0.08260000  1.0 0.0320985784
C  C26  1  0.72310000  0.12340000  0.91740000  1.0 0.0320985784
C  C27  1  0.28620000  0.91470000  0.13200000  1.0 0.0363442944
C  C28  1  0.71380000  0.08530000  0.86800000  1.0 0.0320985784
C  C29  1  0.32280000  0.97900000  0.10840000  1.0 -0.1967684419
C  C30  1  0.67720000  0.02100000  0.89160000  1.0 -0.1967684419
C  C31  1  0.34640000  0.01000000  0.03760000  1.0 0.0320985784
C  C32  1  0.65360000  0.99000000  0.96240000  1.0 0.0320985784
C  C33  1  0.38060000  0.07900000  0.01520000  1.0 0.0320985784
C  C34  1  0.61940000  0.92100000  0.98480000  1.0 0.0320985784
C  C35  1  0.38310000  0.12080000  0.06190000  1.0 -0.192266134
C  C36  1  0.61690000  0.87920000  0.93810000  1.0 -0.192266134
C  C37  1  0.38790000  0.23100000  0.09670000  1.0 0.0605466598
C  C38  1  0.61210000  0.76900000  0.90330000  1.0 0.0605466598
C  C39  1  0.32220000  0.30560000  0.08300000  1.0 -0.1206572432
C  C40  1  0.67780000  0.69440000  0.91700000  1.0 -0.1206572432
C  C41  1  0.29390000  0.34300000  0.13480000  1.0 -0.1632529563
C  C42  1  0.70610000  0.65700000  0.86520000  1.0 -0.1632529563
C  C43  1  0.33200000  0.30510000  0.20210000  1.0 0.0605466598
C  C44  1  0.66800000  0.69490000  0.79790000  1.0 0.0605466598
C  C45  1  0.39900000  0.23220000  0.21670000  1.0 -0.1297254963
C  C46  1  0.60100000  0.76780000  0.78330000  1.0 -0.1297254963
C  C47  1  0.42620000  0.19520000  0.16350000  1.0 -0.1482353723
C  C48  1  0.57380000  0.80480000  0.83650000  1.0 -0.1482353723
C  C49  1  0.38170000  0.30780000  0.33580000  1.0 -0.4422309017
C  C50  1  0.61830000  0.69220000  0.66420000  1.0 -0.4422309017
C  C51  1  0.47160000  0.28940000  0.94850000  1.0 0.0605466598
C  C52  1  0.52840000  0.71060000  0.05150000  1.0 0.0605466598
C  C53  1  0.54640000  0.30000000  0.98820000  1.0 -0.1297254963
C  C54  1  0.45360000  0.70000000  0.01180000  1.0 -0.1297254963
C  C55  1  0.57270000  0.36800000  0.96900000  1.0 -0.1482353723
C  C56  1  0.42730000  0.63200000  0.03100000  1.0 -0.1482353723
C  C57  1  0.52820000  0.42470000  0.91070000  1.0 0.0672630466
C  C58  1  0.47180000  0.57530000  0.08930000  1.0 0.0672630466
C  C59  1  0.46090000  0.41330000  0.86900000  1.0 -0.1297254963
C  C60  1  0.53910000  0.58670000  0.13100000  1.0 -0.1297254963
C  C61  1  0.43170000  0.34560000  0.88900000  1.0 -0.1297254963
C  C62  1  0.56830000  0.65440000  0.11100000  1.0 -0.1297254963
C  C63  1  0.44570000  0.58510000  0.85270000  1.0 -0.4285162902
C  C64  1  0.55430000  0.41490000  0.14730000  1.0 -0.4285162902
C  C65  1  0.41770000  0.09970000  0.69560000  1.0 0.0605466598
C  C66  1  0.58230000  0.90030000  0.30440000  1.0 0.0605466598
C  C67  1  0.39940000  0.17490000  0.66200000  1.0 -0.1297254963
C  C68  1  0.60060000  0.82510000  0.33800000  1.0 -0.1297254963
C  C69  1  0.43070000  0.20090000  0.59480000  1.0 -0.1400574307
C  C70  1  0.56930000  0.79910000  0.40520000  1.0 -0.1400574307
C  C71  1  0.48620000  0.14840000  0.55740000  1.0 0.0672630466
C  C72  1  0.51380000  0.85160000  0.44260000  1.0 0.0672630466
C  C73  1  0.50610000  0.07250000  0.59010000  1.0 -0.1100412897
C  C74  1  0.49390000  0.92750000  0.40990000  1.0 -0.1100412897
C  C75  1  0.47120000  0.04880000  0.65720000  1.0 -0.1297254963
C  C76  1  0.52880000  0.95120000  0.34280000  1.0 -0.1297254963
C  C77  1  0.53480000  0.11200000  0.42960000  1.0 -0.4514732575
C  C78  1  0.46520000  0.88800000  0.57040000  1.0 -0.4514732575
C  C79  1  0.28980000  0.98310000  0.74160000  1.0 0.0605466598
C  C80  1  0.71020000  0.01690000  0.25840000  1.0 0.0605466598
C  C81  1  0.22490000  0.03470000  0.68800000  1.0 -0.1206572432
C  C82  1  0.77510000  0.96530000  0.31200000  1.0 -0.1206572432
C  C83  1  0.17460000  0.01020000  0.64410000  1.0 -0.1400574307
C  C84  1  0.82540000  0.98980000  0.35590000  1.0 -0.1400574307
C  C85  1  0.19290000  0.93340000  0.65420000  1.0 0.0824770609
C  C86  1  0.80710000  0.06660000  0.34580000  1.0 0.0824770609
C  C87  1  0.25840000  0.88030000  0.70660000  1.0 -0.1206572432
C  C88  1  0.74160000  0.11970000  0.29340000  1.0 -0.1206572432
C  C89  1  0.30570000  0.90530000  0.75150000  1.0 -0.1400574307
C  C90  1  0.69430000  0.09470000  0.24850000  1.0 -0.1400574307
C  C91  1  0.07020000  0.83460000  0.65780000  1.0 -0.4095834857
C  C92  1  0.92980000  0.16540000  0.34220000  1.0 -0.4095834857
C  C93  1  0.24660000  0.80440000  0.10440000  1.0 0.0605466598
C  C94  1  0.75340000  0.19560000  0.89560000  1.0 0.0605466598
C  C95  1  0.16870000  0.79440000  0.06850000  1.0 -0.1400574307
C  C96  1  0.83130000  0.20560000  0.93150000  1.0 -0.1400574307
C  C97  1  0.13550000  0.72840000  0.09190000  1.0 -0.1482353723
C  C98  1  0.86450000  0.27160000  0.90810000  1.0 -0.1482353723
C  C99  1  0.18150000  0.67250000  0.14860000  1.0 0.0487855626
C  C100  1  0.81850000  0.32750000  0.85140000  1.0 0.0487855626
C  C101  1  0.26250000  0.67990000  0.18360000  1.0 -0.1482353723
C  C102  1  0.73750000  0.32010000  0.81640000  1.0 -0.1482353723
C  C103  1  0.29480000  0.74560000  0.16170000  1.0 -0.1100412897
C  C104  1  0.70520000  0.25440000  0.83830000  1.0 -0.1100412897
C  C105  1  0.06680000  0.60050000  0.25990000  1.0 -0.4095834857
C  C106  1  0.93320000  0.39950000  0.74010000  1.0 -0.4095834857
C  C107  1  0.25050000  0.89470000  0.20710000  1.0 0.0605466598
C  C108  1  0.74950000  0.10530000  0.79290000  1.0 0.0605466598
C  C109  1  0.15110000  0.87960000  0.22570000  1.0 -0.1297254963
C  C110  1  0.84890000  0.12040000  0.77430000  1.0 -0.1297254963
C  C111  1  0.11570000  0.86720000  0.29350000  1.0 -0.1297254963
C  C112  1  0.88430000  0.13280000  0.70650000  1.0 -0.1297254963
C  C113  1  0.17640000  0.87050000  0.34590000  1.0 0.0672630466
C  C114  1  0.82360000  0.12950000  0.65410000  1.0 0.0672630466
C  C115  1  0.27580000  0.88440000  0.32830000  1.0 -0.1297254963
C  C116  1  0.72420000  0.11560000  0.67170000  1.0 -0.1297254963
C  C117  1  0.31100000  0.89690000  0.25910000  1.0 -0.1297254963
C  C118  1  0.68900000  0.10310000  0.74090000  1.0 -0.1297254963
C  C119  1  0.06710000  0.79040000  0.44910000  1.0 -0.4039574331
C  C120  1  0.93290000  0.20960000  0.55090000  1.0 -0.4039574331
C  C121  1  0.21940000  0.60860000  0.69510000  1.0 0.4484883034
C  C122  1  0.78060000  0.39140000  0.30490000  1.0 0.4484883034
C  C123  1  0.77360000  0.89740000  0.64200000  1.0 0.4818524355
C  C124  1  0.22640000  0.10260000  0.35800000  1.0 0.4818524355
S  S1  1  0.78723000  0.92841000  0.55067000  1.0 0.9806211376
S  S2  1  0.21277000  0.07159000  0.44933000  1.0 0.9806211376
S  S3  1  0.28522000  0.35328000  0.26781000  1.0 0.0824770609
S  S4  1  0.71478000  0.64672000  0.73219000  1.0 0.0824770609
S  S5  1  0.56449000  0.51169000  0.89347000  1.0 0.0144212795
S  S6  1  0.43551000  0.48831000  0.10653000  1.0 0.0182802984
S  S7  1  0.53353000  0.18477000  0.47158000  1.0 0.1120758637
S  S8  1  0.46647000  0.81523000  0.52842000  1.0 0.1120758637
S  S9  1  0.13116000  0.90185000  0.59618000  1.0 0.085597449
S  S10  1  0.86884000  0.09815000  0.40382000  1.0 0.085597449
S  S11  1  0.13408000  0.58988000  0.17886000  1.0 0.0487855626
S  S12  1  0.86592000  0.41012000  0.82114000  1.0 0.0487855626
S  S13  1  0.12887000  0.86102000  0.43294000  1.0 0.0824770609
S  S14  1  0.87113000  0.13898000  0.56706000  1.0 0.085597449
S  S15  1  0.30820000  0.65899000  0.65305000  1.0 0.9927094066
S  S16  1  0.69180000  0.34101000  0.34695000  1.0 0.9927094066
O  O1  1  0.89840000  0.90120000  0.53300000  1.0 -0.5191523945
O  O2  1  0.10160000  0.09880000  0.46700000  1.0 -0.5191523945
O  O3  1  0.74000000  0.00780000  0.53010000  1.0 -0.5674770987
O  O4  1  0.26000000  0.99220000  0.46990000  1.0 -0.5674770987
O  O5  1  0.72070000  0.88650000  0.52870000  1.0 -0.5585297114
O  O6  1  0.27930000  0.11350000  0.47130000  1.0 -0.5585297114
O  O7  1  0.25080000  0.70230000  0.58530000  1.0 -0.5773759699
O  O8  1  0.74920000  0.29770000  0.41470000  1.0 -0.5773759699
O  O9  1  0.40300000  0.60090000  0.64620000  1.0 -0.5542283869
O  O10  1  0.59700000  0.39910000  0.35380000  1.0 -0.5585297114
O  O11  1  0.32120000  0.70500000  0.69300000  1.0 -0.5585297114
O  O12  1  0.67880000  0.29500000  0.30700000  1.0 -0.5542283869
O  O13  1  0.39790000  0.49960000  0.30150000  1.0 -0.6239364362
O  O14  1  0.60210000  0.50040000  0.69850000  1.0 -0.6254165387
F  F1  1  0.12150000  0.65330000  0.71080000  1.0 -0.1819596679
F  F2  1  0.87850000  0.34670000  0.28920000  1.0 -0.1819596679
F  F3  1  0.25930000  0.55920000  0.75930000  1.0 -0.192266134
F  F4  1  0.74070000  0.44080000  0.24070000  1.0 -0.192266134
F  F5  1  0.19580000  0.56350000  0.66090000  1.0 -0.1819596679
F  F6  1  0.80420000  0.43650000  0.33910000  1.0 -0.1819596679
F  F7  1  0.82870000  0.93480000  0.66950000  1.0 -0.192266134
F  F8  1  0.17130000  0.06520000  0.33050000  1.0 -0.192266134
F  F9  1  0.67280000  0.91120000  0.66330000  1.0 -0.1819596679
F  F10  1  0.32720000  0.08880000  0.33670000  1.0 -0.1819596679
F  F11  1  0.82180000  0.82440000  0.67000000  1.0 -0.1742876461
F  F12  1  0.17820000  0.17560000  0.33000000  1.0 -0.1742876461
