# DDEC6 charges by PACMAN v1.1 (https://github.com/mtap-research/PACMAN-charge/)
data_HOXRUJ_ASR_pacman
_symmetry_space_group_name_H-M   'P 1'
_cell_length_a   6.72600000
_cell_length_b   14.24100000
_cell_length_c   15.38500000
_cell_angle_alpha   90.00000000
_cell_angle_beta   90.00000000
_cell_angle_gamma   90.00000000
_symmetry_Int_Tables_number   1
_chemical_formula_structural   KEuH4C8(NO6)2
_chemical_formula_sum   'K4 Eu4 H16 C32 N8 O48'
_cell_volume   1473.65170191
_cell_formula_units_Z   4
loop_
 _symmetry_equiv_pos_site_id
 _symmetry_equiv_pos_as_xyz
  1  'x, y, z'
loop_
 _atom_site_type_symbol
 _atom_site_label
 _atom_site_symmetry_multiplicity
 _atom_site_fract_x
 _atom_site_fract_y
 _atom_site_fract_z
 _atom_site_occupancy
 _atom_site_charge
K  K1  1  0.25000000  0.31010000  0.26830000  1.0 0.8740040501
K  K2  1  0.75000000  0.81010000  0.23170000  1.0 0.8740040501
K  K3  1  0.75000000  0.68990000  0.73170000  1.0 0.8753487905
K  K4  1  0.25000000  0.18990000  0.76830000  1.0 0.8753487905
Eu  Eu1  1  0.25000000  0.62385000  0.19677000  1.0 1.8996480544
Eu  Eu2  1  0.75000000  0.12385000  0.30323000  1.0 1.8996480544
Eu  Eu3  1  0.75000000  0.37615000  0.80323000  1.0 1.8996480544
Eu  Eu4  1  0.25000000  0.87615000  0.69677000  1.0 1.8996480544
H  H1  1  0.95630000  0.59090000  0.31530000  1.0 0.2475706307
H  H2  1  0.04370000  0.09090000  0.18470000  1.0 0.2475706307
H  H3  1  0.45630000  0.40910000  0.68470000  1.0 0.2475706307
H  H4  1  0.54370000  0.90910000  0.81530000  1.0 0.2475706307
H  H5  1  0.04370000  0.40910000  0.68470000  1.0 0.2475706307
H  H6  1  0.95630000  0.90910000  0.81530000  1.0 0.2475706307
H  H7  1  0.54370000  0.59090000  0.31530000  1.0 0.2475706307
H  H8  1  0.45630000  0.09090000  0.18470000  1.0 0.2475706307
H  H9  1  0.90190000  0.56030000  0.29040000  1.0 0.2475706307
H  H10  1  0.09810000  0.06030000  0.20960000  1.0 0.2475706307
H  H11  1  0.40190000  0.43970000  0.70960000  1.0 0.2475706307
H  H12  1  0.59810000  0.93970000  0.79040000  1.0 0.2448416193
H  H13  1  0.09810000  0.43970000  0.70960000  1.0 0.2475706307
H  H14  1  0.90190000  0.93970000  0.79040000  1.0 0.2448416193
H  H15  1  0.59810000  0.56030000  0.29040000  1.0 0.2475706307
H  H16  1  0.40190000  0.06030000  0.20960000  1.0 0.2475706307
C  C1  1  0.75000000  0.56770000  0.92780000  1.0 0.5612979968
C  C2  1  0.25000000  0.06770000  0.57220000  1.0 0.5612979968
C  C3  1  0.25000000  0.43230000  0.07220000  1.0 0.5612979968
C  C4  1  0.75000000  0.93230000  0.42780000  1.0 0.5612979968
C  C5  1  0.75000000  0.49310000  0.99750000  1.0 0.0498679279
C  C6  1  0.25000000  0.99310000  0.50250000  1.0 0.0498679279
C  C7  1  0.25000000  0.50690000  0.00250000  1.0 0.0498679279
C  C8  1  0.75000000  0.00690000  0.49750000  1.0 0.0498679279
C  C9  1  0.75000000  0.50850000  0.08550000  1.0 0.0419203452
C  C10  1  0.25000000  0.00850000  0.41450000  1.0 0.0419203452
C  C11  1  0.25000000  0.49150000  0.91450000  1.0 0.0419203452
C  C12  1  0.75000000  0.99150000  0.58550000  1.0 0.0419203452
C  C13  1  0.75000000  0.60450000  0.12850000  1.0 0.5873171975
C  C14  1  0.25000000  0.10450000  0.37150000  1.0 0.5873171975
C  C15  1  0.25000000  0.39550000  0.87150000  1.0 0.5873171975
C  C16  1  0.75000000  0.89550000  0.62850000  1.0 0.5873171975
C  C17  1  0.75000000  0.27340000  0.17640000  1.0 0.5664509227
C  C18  1  0.25000000  0.77340000  0.32360000  1.0 0.5664509227
C  C19  1  0.25000000  0.72660000  0.82360000  1.0 0.5664509227
C  C20  1  0.75000000  0.22660000  0.67640000  1.0 0.5664509227
C  C21  1  0.75000000  0.34770000  0.10880000  1.0 0.0498679279
C  C22  1  0.25000000  0.84770000  0.39120000  1.0 0.0498679279
C  C23  1  0.25000000  0.65230000  0.89120000  1.0 0.0498679279
C  C24  1  0.75000000  0.15230000  0.60880000  1.0 0.0498679279
C  C25  1  0.75000000  0.33300000  0.02110000  1.0 0.1180700948
C  C26  1  0.25000000  0.83300000  0.47890000  1.0 0.1180700948
C  C27  1  0.25000000  0.66700000  0.97890000  1.0 0.1180700948
C  C28  1  0.75000000  0.16700000  0.52110000  1.0 0.1180700948
C  C29  1  0.75000000  0.23730000  0.97470000  1.0 0.5758886178
C  C30  1  0.25000000  0.73730000  0.52530000  1.0 0.5758886178
C  C31  1  0.25000000  0.76270000  0.02530000  1.0 0.5758886178
C  C32  1  0.75000000  0.26270000  0.47470000  1.0 0.5758886178
N  N1  1  0.75000000  0.40450000  0.96670000  1.0 -0.3588143746
N  N2  1  0.25000000  0.90450000  0.53330000  1.0 -0.3588143746
N  N3  1  0.25000000  0.59550000  0.03330000  1.0 -0.3588143746
N  N4  1  0.75000000  0.09550000  0.46670000  1.0 -0.3588143746
N  N5  1  0.75000000  0.43740000  0.14220000  1.0 -0.2793021511
N  N6  1  0.25000000  0.93740000  0.35780000  1.0 -0.2793021511
N  N7  1  0.25000000  0.56260000  0.85780000  1.0 -0.2793021511
N  N8  1  0.75000000  0.06260000  0.64220000  1.0 -0.2793021511
O  O1  1  0.75000000  0.53590000  0.84860000  1.0 -0.7236943702
O  O2  1  0.25000000  0.03590000  0.65140000  1.0 -0.7236943702
O  O3  1  0.25000000  0.46410000  0.15140000  1.0 -0.7236943702
O  O4  1  0.75000000  0.96410000  0.34860000  1.0 -0.7236943702
O  O5  1  0.75000000  0.65050000  0.95020000  1.0 -0.4895495634
O  O6  1  0.25000000  0.15050000  0.54980000  1.0 -0.4895495634
O  O7  1  0.25000000  0.34950000  0.04980000  1.0 -0.4895495634
O  O8  1  0.75000000  0.84950000  0.45020000  1.0 -0.4895495634
O  O9  1  0.58580000  0.64020000  0.14660000  1.0 -0.6688296284
O  O10  1  0.41420000  0.14020000  0.35340000  1.0 -0.6688296284
O  O11  1  0.08580000  0.35980000  0.85340000  1.0 -0.6688296284
O  O12  1  0.91420000  0.85980000  0.64660000  1.0 -0.6688296284
O  O13  1  0.41420000  0.35980000  0.85340000  1.0 -0.6688296284
O  O14  1  0.58580000  0.85980000  0.64660000  1.0 -0.6688296284
O  O15  1  0.91420000  0.64020000  0.14660000  1.0 -0.6688296284
O  O16  1  0.08580000  0.14020000  0.35340000  1.0 -0.6688296284
O  O17  1  0.59010000  0.25000000  0.21030000  1.0 -0.6450140636
O  O18  1  0.40990000  0.75000000  0.28970000  1.0 -0.6450140636
O  O19  1  0.09010000  0.75000000  0.78970000  1.0 -0.6441707174
O  O20  1  0.90990000  0.25000000  0.71030000  1.0 -0.6450140636
O  O21  1  0.40990000  0.75000000  0.78970000  1.0 -0.6450140636
O  O22  1  0.59010000  0.25000000  0.71030000  1.0 -0.6450140636
O  O23  1  0.90990000  0.25000000  0.21030000  1.0 -0.6450140636
O  O24  1  0.09010000  0.75000000  0.28970000  1.0 -0.6450140636
O  O25  1  0.75000000  0.16580000  0.02140000  1.0 -0.5345672826
O  O26  1  0.25000000  0.66580000  0.47860000  1.0 -0.5345672826
O  O27  1  0.25000000  0.83420000  0.97860000  1.0 -0.5345672826
O  O28  1  0.75000000  0.33420000  0.52140000  1.0 -0.5345672826
O  O29  1  0.75000000  0.23840000  0.89330000  1.0 -0.6329367767
O  O30  1  0.25000000  0.73840000  0.60670000  1.0 -0.6329367767
O  O31  1  0.25000000  0.76160000  0.10670000  1.0 -0.6329367767
O  O32  1  0.75000000  0.26160000  0.39330000  1.0 -0.6329367767
O  O33  1  0.06900000  0.56910000  0.31680000  1.0 -0.1958338647
O  O34  1  0.93100000  0.06910000  0.18320000  1.0 -0.1958338647
O  O35  1  0.56900000  0.43090000  0.68320000  1.0 -0.1958338647
O  O36  1  0.43100000  0.93090000  0.81680000  1.0 -0.1958338647
O  O37  1  0.93100000  0.43090000  0.68320000  1.0 -0.1958338647
O  O38  1  0.06900000  0.93090000  0.81680000  1.0 -0.1958338647
O  O39  1  0.43100000  0.56910000  0.31680000  1.0 -0.1958338647
O  O40  1  0.56900000  0.06910000  0.18320000  1.0 -0.1958338647
O  O41  1  0.01100000  0.53500000  0.29220000  1.0 -0.1379573635
O  O42  1  0.98900000  0.03500000  0.20780000  1.0 -0.1379573635
O  O43  1  0.51100000  0.46500000  0.70780000  1.0 -0.1379573635
O  O44  1  0.48900000  0.96500000  0.79220000  1.0 -0.1379573635
O  O45  1  0.98900000  0.46500000  0.70780000  1.0 -0.1379573635
O  O46  1  0.01100000  0.96500000  0.79220000  1.0 -0.1379573635
O  O47  1  0.48900000  0.53500000  0.29220000  1.0 -0.1379573635
O  O48  1  0.51100000  0.03500000  0.20780000  1.0 -0.1379573635
