# DDEC6 charges by PACMAN v1.1 (https://github.com/mtap-research/PACMAN-charge/)
data_HOZFIN_FSR_pacman
_symmetry_space_group_name_H-M   'P 1'
_cell_length_a   18.61080000
_cell_length_b   18.61080000
_cell_length_c   19.37340000
_cell_angle_alpha   90.00000000
_cell_angle_beta   90.00000000
_cell_angle_gamma   120.00000000
_symmetry_Int_Tables_number   1
_chemical_formula_structural   Li13H24(C9O7)6
_chemical_formula_sum   'Li26 H48 C108 O84'
_cell_volume   5811.20988331
_cell_formula_units_Z   2
loop_
 _symmetry_equiv_pos_site_id
 _symmetry_equiv_pos_as_xyz
  1  'x, y, z'
loop_
 _atom_site_type_symbol
 _atom_site_label
 _atom_site_symmetry_multiplicity
 _atom_site_fract_x
 _atom_site_fract_y
 _atom_site_fract_z
 _atom_site_occupancy
 _atom_site_charge
Li  Li1  1  0.16760000  0.50670000  0.14122000  1.0 0.8192643328
Li  Li2  1  0.49330000  0.66090000  0.14122000  1.0 0.8192643328
Li  Li3  1  0.33910000  0.83240000  0.14122000  1.0 0.8192643328
Li  Li4  1  0.49330000  0.83240000  0.35878000  1.0 0.8192643328
Li  Li5  1  0.33910000  0.50670000  0.35878000  1.0 0.8192643328
Li  Li6  1  0.16760000  0.66090000  0.35878000  1.0 0.8192643328
Li  Li7  1  0.83240000  0.49330000  0.85878000  1.0 0.8192643328
Li  Li8  1  0.50670000  0.33910000  0.85878000  1.0 0.8192643328
Li  Li9  1  0.66090000  0.16760000  0.85878000  1.0 0.8192643328
Li  Li10  1  0.50670000  0.16760000  0.64122000  1.0 0.8192643328
Li  Li11  1  0.66090000  0.49330000  0.64122000  1.0 0.8192643328
Li  Li12  1  0.83240000  0.33910000  0.64122000  1.0 0.8192643328
Li  Li13  1  0.21785000  0.43570000  0.25000000  1.0 0.8483296041
Li  Li14  1  0.56430000  0.78215000  0.25000000  1.0 0.8483296041
Li  Li15  1  0.21785000  0.78215000  0.25000000  1.0 0.8483296041
Li  Li16  1  0.78215000  0.56430000  0.75000000  1.0 0.8483296041
Li  Li17  1  0.43570000  0.21785000  0.75000000  1.0 0.8483296041
Li  Li18  1  0.78215000  0.21785000  0.75000000  1.0 0.8483296041
Li  Li19  1  0.33333333  0.66666667  0.34640000  1.0 0.6076420086
Li  Li20  1  0.33333333  0.66666667  0.15360000  1.0 0.6076420086
Li  Li21  1  0.66666667  0.33333333  0.65360000  1.0 0.6043225559
Li  Li22  1  0.66666667  0.33333333  0.84640000  1.0 0.6043225559
Li  Li23  1  0.33333333  0.66666667  0.39200000  1.0 0.6076420086
Li  Li24  1  0.33333333  0.66666667  0.10800000  1.0 0.6076420086
Li  Li25  1  0.66666667  0.33333333  0.60800000  1.0 0.6076420086
Li  Li26  1  0.66666667  0.33333333  0.89200000  1.0 0.6076420086
H  H1  1  0.02810000  0.43200000  0.63620000  1.0 0.3888348817
H  H2  1  0.56800000  0.59610000  0.63620000  1.0 0.3888348817
H  H3  1  0.40390000  0.97190000  0.63620000  1.0 0.3888348817
H  H4  1  0.56800000  0.97190000  0.86380000  1.0 0.3888348817
H  H5  1  0.40390000  0.43200000  0.86380000  1.0 0.3888348817
H  H6  1  0.02810000  0.59610000  0.86380000  1.0 0.3888348817
H  H7  1  0.97190000  0.56800000  0.36380000  1.0 0.3888348817
H  H8  1  0.43200000  0.40390000  0.36380000  1.0 0.3888348817
H  H9  1  0.59610000  0.02810000  0.36380000  1.0 0.3888348817
H  H10  1  0.43200000  0.02810000  0.13620000  1.0 0.3888348817
H  H11  1  0.59610000  0.56800000  0.13620000  1.0 0.3888348817
H  H12  1  0.97190000  0.40390000  0.13620000  1.0 0.3888348817
H  H13  1  0.87540000  0.32300000  0.43510000  1.0 0.1287891807
H  H14  1  0.67700000  0.55240000  0.43510000  1.0 0.1287891807
H  H15  1  0.44760000  0.12460000  0.43510000  1.0 0.1287891807
H  H16  1  0.67700000  0.12460000  0.06490000  1.0 0.1287891807
H  H17  1  0.44760000  0.32300000  0.06490000  1.0 0.1287891807
H  H18  1  0.87540000  0.55240000  0.06490000  1.0 0.1287891807
H  H19  1  0.12460000  0.67700000  0.56490000  1.0 0.1287891807
H  H20  1  0.32300000  0.44760000  0.56490000  1.0 0.1287891807
H  H21  1  0.55240000  0.87540000  0.56490000  1.0 0.1287891807
H  H22  1  0.32300000  0.87540000  0.93510000  1.0 0.1287891807
H  H23  1  0.55240000  0.67700000  0.93510000  1.0 0.1287891807
H  H24  1  0.12460000  0.44760000  0.93510000  1.0 0.1287891807
H  H25  1  0.90780000  0.34150000  0.31790000  1.0 0.1229713526
H  H26  1  0.65850000  0.56630000  0.31790000  1.0 0.1229713526
H  H27  1  0.43370000  0.09220000  0.31790000  1.0 0.1229713526
H  H28  1  0.65850000  0.09220000  0.18210000  1.0 0.1229713526
H  H29  1  0.43370000  0.34150000  0.18210000  1.0 0.1229713526
H  H30  1  0.90780000  0.56630000  0.18210000  1.0 0.1229713526
H  H31  1  0.09220000  0.65850000  0.68210000  1.0 0.1229713526
H  H32  1  0.34150000  0.43370000  0.68210000  1.0 0.1229713526
H  H33  1  0.56630000  0.90780000  0.68210000  1.0 0.1229713526
H  H34  1  0.34150000  0.90780000  0.81790000  1.0 0.1229713526
H  H35  1  0.56630000  0.65850000  0.81790000  1.0 0.1229713526
H  H36  1  0.09220000  0.43370000  0.81790000  1.0 0.1229713526
H  H37  1  0.11680000  0.47950000  0.48120000  1.0 0.1364719437
H  H38  1  0.52050000  0.63730000  0.48120000  1.0 0.1364719437
H  H39  1  0.36270000  0.88320000  0.48120000  1.0 0.1364719437
H  H40  1  0.52050000  0.88320000  0.01880000  1.0 0.1364719437
H  H41  1  0.36270000  0.47950000  0.01880000  1.0 0.1364719437
H  H42  1  0.11680000  0.63730000  0.01880000  1.0 0.1364719437
H  H43  1  0.88320000  0.52050000  0.51880000  1.0 0.1364719437
H  H44  1  0.47950000  0.36270000  0.51880000  1.0 0.1364719437
H  H45  1  0.63730000  0.11680000  0.51880000  1.0 0.1364719437
H  H46  1  0.47950000  0.11680000  0.98120000  1.0 0.1364719437
H  H47  1  0.63730000  0.52050000  0.98120000  1.0 0.1364719437
H  H48  1  0.88320000  0.36270000  0.98120000  1.0 0.1364719437
C  C1  1  0.97028000  0.38985000  0.54400000  1.0 0.6043225559
C  C2  1  0.61015000  0.58043000  0.54400000  1.0 0.6043225559
C  C3  1  0.41957000  0.02972000  0.54400000  1.0 0.6043225559
C  C4  1  0.61015000  0.02972000  0.95600000  1.0 0.6043225559
C  C5  1  0.41957000  0.38985000  0.95600000  1.0 0.6043225559
C  C6  1  0.97028000  0.58043000  0.95600000  1.0 0.6043225559
C  C7  1  0.02972000  0.61015000  0.45600000  1.0 0.6043225559
C  C8  1  0.38985000  0.41957000  0.45600000  1.0 0.6043225559
C  C9  1  0.58043000  0.97028000  0.45600000  1.0 0.6043225559
C  C10  1  0.38985000  0.97028000  0.04400000  1.0 0.6043225559
C  C11  1  0.58043000  0.61015000  0.04400000  1.0 0.6043225559
C  C12  1  0.02972000  0.41957000  0.04400000  1.0 0.6043225559
C  C13  1  0.99288000  0.40023000  0.46915000  1.0 -0.0304905374
C  C14  1  0.59977000  0.59265000  0.46915000  1.0 -0.0304905374
C  C15  1  0.40735000  0.00712000  0.46915000  1.0 -0.0304905374
C  C16  1  0.59977000  0.00712000  0.03085000  1.0 -0.0304905374
C  C17  1  0.40735000  0.40023000  0.03085000  1.0 -0.0304905374
C  C18  1  0.99288000  0.59265000  0.03085000  1.0 -0.0304905374
C  C19  1  0.00712000  0.59977000  0.53085000  1.0 -0.0304905374
C  C20  1  0.40023000  0.40735000  0.53085000  1.0 -0.0304905374
C  C21  1  0.59265000  0.99288000  0.53085000  1.0 -0.0304905374
C  C22  1  0.40023000  0.99288000  0.96915000  1.0 -0.0304905374
C  C23  1  0.59265000  0.59977000  0.96915000  1.0 -0.0304905374
C  C24  1  0.00712000  0.40735000  0.96915000  1.0 -0.0304905374
C  C25  1  0.93101000  0.35869000  0.42070000  1.0 -0.0869433901
C  C26  1  0.64131000  0.57232000  0.42070000  1.0 -0.0869433901
C  C27  1  0.42768000  0.06899000  0.42070000  1.0 -0.0869433901
C  C28  1  0.64131000  0.06899000  0.07930000  1.0 -0.0869433901
C  C29  1  0.42768000  0.35869000  0.07930000  1.0 -0.0869433901
C  C30  1  0.93101000  0.57232000  0.07930000  1.0 -0.0869433901
C  C31  1  0.06899000  0.64131000  0.57930000  1.0 -0.0869433901
C  C32  1  0.35869000  0.42768000  0.57930000  1.0 -0.0869433901
C  C33  1  0.57232000  0.93101000  0.57930000  1.0 -0.0869433901
C  C34  1  0.35869000  0.93101000  0.92070000  1.0 -0.0869433901
C  C35  1  0.57232000  0.64131000  0.92070000  1.0 -0.0869433901
C  C36  1  0.06899000  0.42768000  0.92070000  1.0 -0.0869433901
C  C37  1  0.95061000  0.36939000  0.35100000  1.0 -0.0845365577
C  C38  1  0.63061000  0.58122000  0.35100000  1.0 -0.0845365577
C  C39  1  0.41878000  0.04939000  0.35100000  1.0 -0.0845365577
C  C40  1  0.63061000  0.04939000  0.14900000  1.0 -0.0845365577
C  C41  1  0.41878000  0.36939000  0.14900000  1.0 -0.0845365577
C  C42  1  0.95061000  0.58122000  0.14900000  1.0 -0.0845365577
C  C43  1  0.04939000  0.63061000  0.64900000  1.0 -0.0845365577
C  C44  1  0.36939000  0.41878000  0.64900000  1.0 -0.0845365577
C  C45  1  0.58122000  0.95061000  0.64900000  1.0 -0.0845365577
C  C46  1  0.36939000  0.95061000  0.85100000  1.0 -0.0845365577
C  C47  1  0.58122000  0.63061000  0.85100000  1.0 -0.0845365577
C  C48  1  0.04939000  0.41878000  0.85100000  1.0 -0.0845365577
C  C49  1  0.03220000  0.42042000  0.32865000  1.0 -0.0387076756
C  C50  1  0.57958000  0.61178000  0.32865000  1.0 -0.0387076756
C  C51  1  0.38822000  0.96780000  0.32865000  1.0 -0.0387076756
C  C52  1  0.57958000  0.96780000  0.17135000  1.0 -0.0387076756
C  C53  1  0.38822000  0.42042000  0.17135000  1.0 -0.0387076756
C  C54  1  0.03220000  0.61178000  0.17135000  1.0 -0.0387076756
C  C55  1  0.96780000  0.57958000  0.67135000  1.0 -0.0387076756
C  C56  1  0.42042000  0.38822000  0.67135000  1.0 -0.0387076756
C  C57  1  0.61178000  0.03220000  0.67135000  1.0 -0.0387076756
C  C58  1  0.42042000  0.03220000  0.82865000  1.0 -0.0387076756
C  C59  1  0.61178000  0.57958000  0.82865000  1.0 -0.0387076756
C  C60  1  0.96780000  0.38822000  0.82865000  1.0 -0.0387076756
C  C61  1  0.09463000  0.46098000  0.37775000  1.0 -0.0304905374
C  C62  1  0.53902000  0.63365000  0.37775000  1.0 -0.0304905374
C  C63  1  0.36635000  0.90537000  0.37775000  1.0 -0.0304905374
C  C64  1  0.53902000  0.90537000  0.12225000  1.0 -0.0304905374
C  C65  1  0.36635000  0.46098000  0.12225000  1.0 -0.0304905374
C  C66  1  0.09463000  0.63365000  0.12225000  1.0 -0.0304905374
C  C67  1  0.90537000  0.53902000  0.62225000  1.0 -0.0304905374
C  C68  1  0.46098000  0.36635000  0.62225000  1.0 -0.0304905374
C  C69  1  0.63365000  0.09463000  0.62225000  1.0 -0.0304905374
C  C70  1  0.46098000  0.09463000  0.87775000  1.0 -0.0304905374
C  C71  1  0.63365000  0.53902000  0.87775000  1.0 -0.0304905374
C  C72  1  0.90537000  0.36635000  0.87775000  1.0 -0.0304905374
C  C73  1  0.07450000  0.45119000  0.44784000  1.0 -0.1100415627
C  C74  1  0.54881000  0.62331000  0.44784000  1.0 -0.1100415627
C  C75  1  0.37669000  0.92550000  0.44784000  1.0 -0.1100415627
C  C76  1  0.54881000  0.92550000  0.05216000  1.0 -0.1100415627
C  C77  1  0.37669000  0.45119000  0.05216000  1.0 -0.1100415627
C  C78  1  0.07450000  0.62331000  0.05216000  1.0 -0.1100415627
C  C79  1  0.92550000  0.54881000  0.55216000  1.0 -0.1100415627
C  C80  1  0.45119000  0.37669000  0.55216000  1.0 -0.1100415627
C  C81  1  0.62331000  0.07450000  0.55216000  1.0 -0.1100415627
C  C82  1  0.45119000  0.07450000  0.94784000  1.0 -0.1100415627
C  C83  1  0.62331000  0.54881000  0.94784000  1.0 -0.1100415627
C  C84  1  0.92550000  0.37669000  0.94784000  1.0 -0.1100415627
C  C85  1  0.04913000  0.43189000  0.25189000  1.0 0.6076420086
C  C86  1  0.56811000  0.61724000  0.25189000  1.0 0.6076420086
C  C87  1  0.38276000  0.95087000  0.25189000  1.0 0.6076420086
C  C88  1  0.56811000  0.95087000  0.24811000  1.0 0.6076420086
C  C89  1  0.38276000  0.43189000  0.24811000  1.0 0.6076420086
C  C90  1  0.04913000  0.61724000  0.24811000  1.0 0.6076420086
C  C91  1  0.95087000  0.56811000  0.74811000  1.0 0.6076420086
C  C92  1  0.43189000  0.38276000  0.74811000  1.0 0.6076420086
C  C93  1  0.61724000  0.04913000  0.74811000  1.0 0.6076420086
C  C94  1  0.43189000  0.04913000  0.75189000  1.0 0.6076420086
C  C95  1  0.61724000  0.56811000  0.75189000  1.0 0.6076420086
C  C96  1  0.95087000  0.38276000  0.75189000  1.0 0.6076420086
C  C97  1  0.18580000  0.51524000  0.36142000  1.0 0.6609766835
C  C98  1  0.48476000  0.67056000  0.36142000  1.0 0.6609766835
C  C99  1  0.32944000  0.81420000  0.36142000  1.0 0.6609766835
C  C100  1  0.48476000  0.81420000  0.13858000  1.0 0.6609766835
C  C101  1  0.32944000  0.51524000  0.13858000  1.0 0.6609766835
C  C102  1  0.18580000  0.67056000  0.13858000  1.0 0.6609766835
C  C103  1  0.81420000  0.48476000  0.63858000  1.0 0.6609766835
C  C104  1  0.51524000  0.32944000  0.63858000  1.0 0.6609766835
C  C105  1  0.67056000  0.18580000  0.63858000  1.0 0.6609766835
C  C106  1  0.51524000  0.18580000  0.86142000  1.0 0.6609766835
C  C107  1  0.67056000  0.48476000  0.86142000  1.0 0.6609766835
C  C108  1  0.81420000  0.32944000  0.86142000  1.0 0.6609766835
O  O1  1  0.33333333  0.66666667  0.48170000  1.0 -0.3387402466
O  O2  1  0.33333333  0.66666667  0.01830000  1.0 -0.3387402466
O  O3  1  0.66666667  0.33333333  0.51830000  1.0 -0.3387402466
O  O4  1  0.66666667  0.33333333  0.98170000  1.0 -0.3387402466
O  O5  1  0.89797000  0.34892000  0.56221000  1.0 -0.5656795419
O  O6  1  0.65108000  0.54905000  0.56221000  1.0 -0.5656795419
O  O7  1  0.45095000  0.10203000  0.56221000  1.0 -0.5646786487
O  O8  1  0.65108000  0.10203000  0.93779000  1.0 -0.5656795419
O  O9  1  0.45095000  0.34892000  0.93779000  1.0 -0.5656795419
O  O10  1  0.89797000  0.54905000  0.93779000  1.0 -0.5656795419
O  O11  1  0.10203000  0.65108000  0.43779000  1.0 -0.5646786487
O  O12  1  0.34892000  0.45095000  0.43779000  1.0 -0.5656795419
O  O13  1  0.54905000  0.89797000  0.43779000  1.0 -0.5656795419
O  O14  1  0.34892000  0.89797000  0.06221000  1.0 -0.5656795419
O  O15  1  0.54905000  0.65108000  0.06221000  1.0 -0.5656795419
O  O16  1  0.10203000  0.45095000  0.06221000  1.0 -0.5656795419
O  O17  1  0.03250000  0.42767000  0.58573000  1.0 -0.4731438504
O  O18  1  0.57233000  0.60483000  0.58573000  1.0 -0.4731438504
O  O19  1  0.39517000  0.96750000  0.58573000  1.0 -0.4731438504
O  O20  1  0.57233000  0.96750000  0.91427000  1.0 -0.4731438504
O  O21  1  0.39517000  0.42767000  0.91427000  1.0 -0.4731438504
O  O22  1  0.03250000  0.60483000  0.91427000  1.0 -0.4731438504
O  O23  1  0.96750000  0.57233000  0.41427000  1.0 -0.4731438504
O  O24  1  0.42767000  0.39517000  0.41427000  1.0 -0.4731438504
O  O25  1  0.60483000  0.03250000  0.41427000  1.0 -0.4731438504
O  O26  1  0.42767000  0.03250000  0.08573000  1.0 -0.4731438504
O  O27  1  0.60483000  0.57233000  0.08573000  1.0 -0.4731438504
O  O28  1  0.96750000  0.39517000  0.08573000  1.0 -0.4731438504
O  O29  1  0.98692000  0.40551000  0.21347000  1.0 -0.5187645352
O  O30  1  0.59449000  0.58141000  0.21347000  1.0 -0.5187645352
O  O31  1  0.41859000  0.01308000  0.21347000  1.0 -0.5187645352
O  O32  1  0.59449000  0.01308000  0.28653000  1.0 -0.5187645352
O  O33  1  0.41859000  0.40551000  0.28653000  1.0 -0.5187645352
O  O34  1  0.98692000  0.58141000  0.28653000  1.0 -0.5187645352
O  O35  1  0.01308000  0.59449000  0.78653000  1.0 -0.5187645352
O  O36  1  0.40551000  0.41859000  0.78653000  1.0 -0.5187645352
O  O37  1  0.58141000  0.98692000  0.78653000  1.0 -0.5187645352
O  O38  1  0.40551000  0.98692000  0.71347000  1.0 -0.5187645352
O  O39  1  0.58141000  0.59449000  0.71347000  1.0 -0.5187645352
O  O40  1  0.01308000  0.41859000  0.71347000  1.0 -0.5187645352
O  O41  1  0.12232000  0.46648000  0.23151000  1.0 -0.6287809266
O  O42  1  0.53352000  0.65584000  0.23151000  1.0 -0.6287809266
O  O43  1  0.34416000  0.87768000  0.23151000  1.0 -0.6287809266
O  O44  1  0.53352000  0.87768000  0.26849000  1.0 -0.6287809266
O  O45  1  0.34416000  0.46648000  0.26849000  1.0 -0.6287809266
O  O46  1  0.12232000  0.65584000  0.26849000  1.0 -0.6287809266
O  O47  1  0.87768000  0.53352000  0.76849000  1.0 -0.6238765911
O  O48  1  0.46648000  0.34416000  0.76849000  1.0 -0.6238765911
O  O49  1  0.65584000  0.12232000  0.76849000  1.0 -0.6287809266
O  O50  1  0.46648000  0.12232000  0.73151000  1.0 -0.6287809266
O  O51  1  0.65584000  0.53352000  0.73151000  1.0 -0.6238765911
O  O52  1  0.87768000  0.34416000  0.73151000  1.0 -0.6287809266
O  O53  1  0.21701000  0.59195000  0.36965000  1.0 -0.6588100489
O  O54  1  0.40805000  0.62506000  0.36965000  1.0 -0.6588100489
O  O55  1  0.37494000  0.78299000  0.36965000  1.0 -0.6588100489
O  O56  1  0.40805000  0.78299000  0.13035000  1.0 -0.6588100489
O  O57  1  0.37494000  0.59195000  0.13035000  1.0 -0.6588100489
O  O58  1  0.21701000  0.62506000  0.13035000  1.0 -0.6588100489
O  O59  1  0.78299000  0.40805000  0.63035000  1.0 -0.6588100489
O  O60  1  0.59195000  0.37494000  0.63035000  1.0 -0.6588100489
O  O61  1  0.62506000  0.21701000  0.63035000  1.0 -0.6588100489
O  O62  1  0.59195000  0.21701000  0.86965000  1.0 -0.6588100489
O  O63  1  0.62506000  0.40805000  0.86965000  1.0 -0.6588100489
O  O64  1  0.78299000  0.37494000  0.86965000  1.0 -0.6588100489
O  O65  1  0.22604000  0.47975000  0.34665000  1.0 -0.6287809266
O  O66  1  0.52025000  0.74629000  0.34665000  1.0 -0.6287809266
O  O67  1  0.25371000  0.77396000  0.34665000  1.0 -0.6287809266
O  O68  1  0.52025000  0.77396000  0.15335000  1.0 -0.6287809266
O  O69  1  0.25371000  0.47975000  0.15335000  1.0 -0.6287809266
O  O70  1  0.22604000  0.74629000  0.15335000  1.0 -0.6287809266
O  O71  1  0.77396000  0.52025000  0.65335000  1.0 -0.6287809266
O  O72  1  0.47975000  0.25371000  0.65335000  1.0 -0.6287809266
O  O73  1  0.74629000  0.22604000  0.65335000  1.0 -0.6287809266
O  O74  1  0.47975000  0.22604000  0.84665000  1.0 -0.6287809266
O  O75  1  0.74629000  0.52025000  0.84665000  1.0 -0.6287809266
O  O76  1  0.77396000  0.25371000  0.84665000  1.0 -0.6287809266
O  O77  1  0.15830000  0.31660000  0.25000000  1.0 -0.5187645352
O  O78  1  0.68340000  0.84170000  0.25000000  1.0 -0.5187645352
O  O79  1  0.15830000  0.84170000  0.25000000  1.0 -0.5187645352
O  O80  1  0.84170000  0.68340000  0.75000000  1.0 -0.5282199776
O  O81  1  0.31660000  0.15830000  0.75000000  1.0 -0.5282199776
O  O82  1  0.84170000  0.15830000  0.75000000  1.0 -0.5187645352
O  O83  1  0.33333333  0.66666667  0.25000000  1.0 -0.4219823426
O  O84  1  0.66666667  0.33333333  0.75000000  1.0 -0.4219823426
