# DDEC6 charges by PACMAN v1.1 (https://github.com/mtap-research/PACMAN-charge/)
data_HOZHOW_ASR_pacman
_symmetry_space_group_name_H-M   'P 1'
_cell_length_a   19.05370000
_cell_length_b   19.05370000
_cell_length_c   19.05370000
_cell_angle_alpha   112.44000000
_cell_angle_beta   112.44000000
_cell_angle_gamma   112.44000000
_symmetry_Int_Tables_number   1
_chemical_formula_structural   Cu7H18C28(S2O13)2
_chemical_formula_sum   'Cu21 H54 C84 S12 O78'
_cell_volume   4648.73888381
_cell_formula_units_Z   3
loop_
 _symmetry_equiv_pos_site_id
 _symmetry_equiv_pos_as_xyz
  1  'x, y, z'
loop_
 _atom_site_type_symbol
 _atom_site_label
 _atom_site_symmetry_multiplicity
 _atom_site_fract_x
 _atom_site_fract_y
 _atom_site_fract_z
 _atom_site_occupancy
 _atom_site_charge
Cu  Cu1  1  0.42760000  0.34010000  0.79154000  1.0 0.7366341073
Cu  Cu2  1  0.42135000  0.29693000  0.93108000  1.0 0.8960700948
Cu  Cu3  1  0.50277000  0.55568000  0.86136000  1.0 0.8266593257
Cu  Cu4  1  0.34010000  0.79154000  0.42760000  1.0 0.7366341073
Cu  Cu5  1  0.29693000  0.93108000  0.42135000  1.0 0.8960700948
Cu  Cu6  1  0.55568000  0.86136000  0.50277000  1.0 0.8266593257
Cu  Cu7  1  0.79154000  0.42760000  0.34010000  1.0 0.7366341073
Cu  Cu8  1  0.93108000  0.42135000  0.29693000  1.0 0.8960700948
Cu  Cu9  1  0.86136000  0.50277000  0.55568000  1.0 0.823592178
Cu  Cu10  1  0.57240000  0.65990000  0.20846000  1.0 0.7366341073
Cu  Cu11  1  0.57865000  0.70307000  0.06892000  1.0 0.8960700948
Cu  Cu12  1  0.49723000  0.44432000  0.13864000  1.0 0.8266593257
Cu  Cu13  1  0.65990000  0.20846000  0.57240000  1.0 0.7366341073
Cu  Cu14  1  0.70307000  0.06892000  0.57865000  1.0 0.8960700948
Cu  Cu15  1  0.44432000  0.13864000  0.49723000  1.0 0.8266593257
Cu  Cu16  1  0.20846000  0.57240000  0.65990000  1.0 0.7366341073
Cu  Cu17  1  0.06892000  0.57865000  0.70307000  1.0 0.8960700948
Cu  Cu18  1  0.13864000  0.49723000  0.44432000  1.0 0.8266593257
Cu  Cu19  1  0.50000000  0.50000000  0.00000000  1.0 0.936878395
Cu  Cu20  1  0.50000000  0.00000000  0.50000000  1.0 0.936878395
Cu  Cu21  1  0.00000000  0.50000000  0.50000000  1.0 0.936878395
H  H1  1  0.42703000  0.55538000  0.93545000  1.0 0.3798536628
H  H2  1  0.57077000  0.48250000  0.88562000  1.0 0.3798536628
H  H3  1  0.34793000  0.35019000  0.86451000  1.0 0.3798536628
H  H4  1  0.08300000  0.09180000  0.56820000  1.0 0.1152785564
H  H5  1  0.07000000  0.18300000  0.52000000  1.0 0.137763373
H  H6  1  0.23800000  0.18730000  0.45570000  1.0 0.137763373
H  H7  1  0.27060000  0.99120000  0.72420000  1.0 0.1285967076
H  H8  1  0.03550000  0.76870000  0.42880000  1.0 0.1285967076
H  H9  1  0.05400000  0.88670000  0.42130000  1.0 0.1285967076
H  H10  1  0.55538000  0.93545000  0.42703000  1.0 0.3798536628
H  H11  1  0.48250000  0.88562000  0.57077000  1.0 0.3798536628
H  H12  1  0.35019000  0.86451000  0.34793000  1.0 0.3798536628
H  H13  1  0.09180000  0.56820000  0.08300000  1.0 0.1152785564
H  H14  1  0.18300000  0.52000000  0.07000000  1.0 0.137763373
H  H15  1  0.18730000  0.45570000  0.23800000  1.0 0.137763373
H  H16  1  0.99120000  0.72420000  0.27060000  1.0 0.1285967076
H  H17  1  0.76870000  0.42880000  0.03550000  1.0 0.1285967076
H  H18  1  0.88670000  0.42130000  0.05400000  1.0 0.1285967076
H  H19  1  0.93545000  0.42703000  0.55538000  1.0 0.3798536628
H  H20  1  0.88562000  0.57077000  0.48250000  1.0 0.3798536628
H  H21  1  0.86451000  0.34793000  0.35019000  1.0 0.3798536628
H  H22  1  0.56820000  0.08300000  0.09180000  1.0 0.1152785564
H  H23  1  0.52000000  0.07000000  0.18300000  1.0 0.137763373
H  H24  1  0.45570000  0.23800000  0.18730000  1.0 0.137763373
H  H25  1  0.72420000  0.27060000  0.99120000  1.0 0.1285967076
H  H26  1  0.42880000  0.03550000  0.76870000  1.0 0.1285967076
H  H27  1  0.42130000  0.05400000  0.88670000  1.0 0.1285967076
H  H28  1  0.57297000  0.44462000  0.06455000  1.0 0.3798536628
H  H29  1  0.42923000  0.51750000  0.11438000  1.0 0.3798536628
H  H30  1  0.65207000  0.64981000  0.13549000  1.0 0.3798536628
H  H31  1  0.91700000  0.90820000  0.43180000  1.0 0.1152785564
H  H32  1  0.93000000  0.81700000  0.48000000  1.0 0.137763373
H  H33  1  0.76200000  0.81270000  0.54430000  1.0 0.137763373
H  H34  1  0.72940000  0.00880000  0.27580000  1.0 0.1285967076
H  H35  1  0.96450000  0.23130000  0.57120000  1.0 0.1285967076
H  H36  1  0.94600000  0.11330000  0.57870000  1.0 0.1285967076
H  H37  1  0.44462000  0.06455000  0.57297000  1.0 0.3798536628
H  H38  1  0.51750000  0.11438000  0.42923000  1.0 0.3798536628
H  H39  1  0.64981000  0.13549000  0.65207000  1.0 0.3798536628
H  H40  1  0.90820000  0.43180000  0.91700000  1.0 0.1152785564
H  H41  1  0.81700000  0.48000000  0.93000000  1.0 0.137763373
H  H42  1  0.81270000  0.54430000  0.76200000  1.0 0.137763373
H  H43  1  0.00880000  0.27580000  0.72940000  1.0 0.1285967076
H  H44  1  0.23130000  0.57120000  0.96450000  1.0 0.1285967076
H  H45  1  0.11330000  0.57870000  0.94600000  1.0 0.1285967076
H  H46  1  0.06455000  0.57297000  0.44462000  1.0 0.3798536628
H  H47  1  0.11438000  0.42923000  0.51750000  1.0 0.3798536628
H  H48  1  0.13549000  0.65207000  0.64981000  1.0 0.3798536628
H  H49  1  0.43180000  0.91700000  0.90820000  1.0 0.1152785564
H  H50  1  0.48000000  0.93000000  0.81700000  1.0 0.137763373
H  H51  1  0.54430000  0.76200000  0.81270000  1.0 0.137763373
H  H52  1  0.27580000  0.72940000  0.00880000  1.0 0.1285967076
H  H53  1  0.57120000  0.96450000  0.23130000  1.0 0.1285967076
H  H54  1  0.57870000  0.94600000  0.11330000  1.0 0.1285967076
C  C1  1  0.10838000  0.10720000  0.54002000  1.0 -0.1477506241
C  C2  1  0.10760000  0.17060000  0.52150000  1.0 -0.0524481895
C  C3  1  0.15669000  0.20045000  0.48876000  1.0 -0.0846691621
C  C4  1  0.20960000  0.16997000  0.47803000  1.0 -0.0612646024
C  C5  1  0.21051000  0.10631000  0.49578000  1.0 -0.0612646024
C  C6  1  0.15813000  0.07306000  0.52651000  1.0 0.0591450663
C  C7  1  0.15971000  0.00611000  0.54898000  1.0 0.0591450663
C  C8  1  0.22435000  0.03782000  0.64223000  1.0 -0.0420476157
C  C9  1  0.22120000  0.97160000  0.65730000  1.0 -0.1014098214
C  C10  1  0.15731000  0.87418000  0.58191000  1.0 -0.0420476157
C  C11  1  0.09110000  0.84069000  0.48871000  1.0 -0.0865747115
C  C12  1  0.09296000  0.90690000  0.47434000  1.0 -0.1014098214
C  C13  1  0.27190000  0.07882000  0.48678000  1.0 0.5915287951
C  C14  1  0.29852000  0.14409000  0.72639000  1.0 0.5915287951
C  C15  1  0.10720000  0.54002000  0.10838000  1.0 -0.1477506241
C  C16  1  0.17060000  0.52150000  0.10760000  1.0 -0.0524481895
C  C17  1  0.20045000  0.48876000  0.15669000  1.0 -0.0846691621
C  C18  1  0.16997000  0.47803000  0.20960000  1.0 -0.0612646024
C  C19  1  0.10631000  0.49578000  0.21051000  1.0 -0.0612646024
C  C20  1  0.07306000  0.52651000  0.15813000  1.0 0.0591450663
C  C21  1  0.00611000  0.54898000  0.15971000  1.0 0.0591450663
C  C22  1  0.03782000  0.64223000  0.22435000  1.0 -0.0420476157
C  C23  1  0.97160000  0.65730000  0.22120000  1.0 -0.1014098214
C  C24  1  0.87418000  0.58191000  0.15731000  1.0 -0.0420476157
C  C25  1  0.84069000  0.48871000  0.09110000  1.0 -0.0865747115
C  C26  1  0.90690000  0.47434000  0.09296000  1.0 -0.1014098214
C  C27  1  0.07882000  0.48678000  0.27190000  1.0 0.5915287951
C  C28  1  0.14409000  0.72639000  0.29852000  1.0 0.5915287951
C  C29  1  0.54002000  0.10838000  0.10720000  1.0 -0.1477506241
C  C30  1  0.52150000  0.10760000  0.17060000  1.0 -0.0524481895
C  C31  1  0.48876000  0.15669000  0.20045000  1.0 -0.0865747115
C  C32  1  0.47803000  0.20960000  0.16997000  1.0 -0.0612646024
C  C33  1  0.49578000  0.21051000  0.10631000  1.0 -0.0612646024
C  C34  1  0.52651000  0.15813000  0.07306000  1.0 0.0591450663
C  C35  1  0.54898000  0.15971000  0.00611000  1.0 0.0591450663
C  C36  1  0.64223000  0.22435000  0.03782000  1.0 -0.0420476157
C  C37  1  0.65730000  0.22120000  0.97160000  1.0 -0.1014098214
C  C38  1  0.58191000  0.15731000  0.87418000  1.0 -0.0420476157
C  C39  1  0.48871000  0.09110000  0.84069000  1.0 -0.0865747115
C  C40  1  0.47434000  0.09296000  0.90690000  1.0 -0.1014098214
C  C41  1  0.48678000  0.27190000  0.07882000  1.0 0.5915287951
C  C42  1  0.72639000  0.29852000  0.14409000  1.0 0.5915287951
C  C43  1  0.89162000  0.89280000  0.45998000  1.0 -0.1477506241
C  C44  1  0.89240000  0.82940000  0.47850000  1.0 -0.0524481895
C  C45  1  0.84331000  0.79955000  0.51124000  1.0 -0.0865747115
C  C46  1  0.79040000  0.83003000  0.52197000  1.0 -0.0612646024
C  C47  1  0.78949000  0.89369000  0.50422000  1.0 -0.0612646024
C  C48  1  0.84187000  0.92694000  0.47349000  1.0 0.0591450663
C  C49  1  0.84029000  0.99389000  0.45102000  1.0 0.0591450663
C  C50  1  0.77565000  0.96218000  0.35777000  1.0 -0.0420476157
C  C51  1  0.77880000  0.02840000  0.34270000  1.0 -0.1014098214
C  C52  1  0.84269000  0.12582000  0.41809000  1.0 -0.0420476157
C  C53  1  0.90890000  0.15931000  0.51129000  1.0 -0.0865747115
C  C54  1  0.90704000  0.09310000  0.52566000  1.0 -0.1014098214
C  C55  1  0.72810000  0.92118000  0.51322000  1.0 0.5915287951
C  C56  1  0.70148000  0.85591000  0.27361000  1.0 0.5915287951
C  C57  1  0.89280000  0.45998000  0.89162000  1.0 -0.1477506241
C  C58  1  0.82940000  0.47850000  0.89240000  1.0 -0.0524481895
C  C59  1  0.79955000  0.51124000  0.84331000  1.0 -0.0846691621
C  C60  1  0.83003000  0.52197000  0.79040000  1.0 -0.0612646024
C  C61  1  0.89369000  0.50422000  0.78949000  1.0 -0.0612646024
C  C62  1  0.92694000  0.47349000  0.84187000  1.0 0.0591450663
C  C63  1  0.99389000  0.45102000  0.84029000  1.0 0.0591450663
C  C64  1  0.96218000  0.35777000  0.77565000  1.0 -0.0420476157
C  C65  1  0.02840000  0.34270000  0.77880000  1.0 -0.1014098214
C  C66  1  0.12582000  0.41809000  0.84269000  1.0 -0.0420476157
C  C67  1  0.15931000  0.51129000  0.90890000  1.0 -0.0865747115
C  C68  1  0.09310000  0.52566000  0.90704000  1.0 -0.1014098214
C  C69  1  0.92118000  0.51322000  0.72810000  1.0 0.5915287951
C  C70  1  0.85591000  0.27361000  0.70148000  1.0 0.5915287951
C  C71  1  0.45998000  0.89162000  0.89280000  1.0 -0.1477506241
C  C72  1  0.47850000  0.89240000  0.82940000  1.0 -0.0524481895
C  C73  1  0.51124000  0.84331000  0.79955000  1.0 -0.0846691621
C  C74  1  0.52197000  0.79040000  0.83003000  1.0 -0.0612646024
C  C75  1  0.50422000  0.78949000  0.89369000  1.0 -0.0612646024
C  C76  1  0.47349000  0.84187000  0.92694000  1.0 0.0591450663
C  C77  1  0.45102000  0.84029000  0.99389000  1.0 0.0591450663
C  C78  1  0.35777000  0.77565000  0.96218000  1.0 -0.0420476157
C  C79  1  0.34270000  0.77880000  0.02840000  1.0 -0.1014098214
C  C80  1  0.41809000  0.84269000  0.12582000  1.0 -0.0420476157
C  C81  1  0.51129000  0.90890000  0.15931000  1.0 -0.0865747115
C  C82  1  0.52566000  0.90704000  0.09310000  1.0 -0.1014098214
C  C83  1  0.51322000  0.72810000  0.92118000  1.0 0.5915287951
C  C84  1  0.27361000  0.70148000  0.85591000  1.0 0.5915287951
S  S1  1  0.16008000  0.28485000  0.46886000  1.0 1.1425683617
S  S2  1  0.16318000  0.78913000  0.59644000  1.0 1.1282912413
S  S3  1  0.28485000  0.46886000  0.16008000  1.0 1.1425683617
S  S4  1  0.78913000  0.59644000  0.16318000  1.0 1.1282912413
S  S5  1  0.46886000  0.16008000  0.28485000  1.0 1.1425683617
S  S6  1  0.59644000  0.16318000  0.78913000  1.0 1.1282912413
S  S7  1  0.83992000  0.71515000  0.53114000  1.0 1.1425683617
S  S8  1  0.83682000  0.21087000  0.40356000  1.0 1.1282912413
S  S9  1  0.71515000  0.53114000  0.83992000  1.0 1.1425683617
S  S10  1  0.21087000  0.40356000  0.83682000  1.0 1.1282912413
S  S11  1  0.53114000  0.83992000  0.71515000  1.0 1.1425683617
S  S12  1  0.40356000  0.83682000  0.21087000  1.0 1.1282912413
O  O1  1  0.33105000  0.20088000  0.70874000  1.0 -0.5282475532
O  O2  1  0.32377000  0.16772000  0.80831000  1.0 -0.5087563873
O  O3  1  0.24042000  0.99345000  0.44913000  1.0 -0.517422406
O  O4  1  0.35519000  0.14773000  0.51998000  1.0 -0.5405857345
O  O5  1  0.25652000  0.37583000  0.54985000  1.0 -0.5696080197
O  O6  1  0.08651000  0.29038000  0.46781000  1.0 -0.5570742071
O  O7  1  0.14750000  0.25151000  0.38029000  1.0 -0.5282475532
O  O8  1  0.16347000  0.80180000  0.67483000  1.0 -0.5696080197
O  O9  1  0.25131000  0.80971000  0.61328000  1.0 -0.5914135755
O  O10  1  0.07920000  0.69569000  0.50491000  1.0 -0.5696080197
O  O11  1  0.47281000  0.56794000  0.95166000  1.0 -0.7188665947
O  O12  1  0.53155000  0.47562000  0.88054000  1.0 -0.7356272301
O  O13  1  0.39290000  0.36319000  0.87947000  1.0 -0.6984005054
O  O14  1  0.20088000  0.70874000  0.33105000  1.0 -0.5282475532
O  O15  1  0.16772000  0.80831000  0.32377000  1.0 -0.5087563873
O  O16  1  0.99345000  0.44913000  0.24042000  1.0 -0.517422406
O  O17  1  0.14773000  0.51998000  0.35519000  1.0 -0.5405857345
O  O18  1  0.37583000  0.54985000  0.25652000  1.0 -0.5756091556
O  O19  1  0.29038000  0.46781000  0.08651000  1.0 -0.5570742071
O  O20  1  0.25151000  0.38029000  0.14750000  1.0 -0.5282475532
O  O21  1  0.80180000  0.67483000  0.16347000  1.0 -0.5696080197
O  O22  1  0.80971000  0.61328000  0.25131000  1.0 -0.5914135755
O  O23  1  0.69569000  0.50491000  0.07920000  1.0 -0.5696080197
O  O24  1  0.56794000  0.95166000  0.47281000  1.0 -0.7188665947
O  O25  1  0.47562000  0.88054000  0.53155000  1.0 -0.7356272301
O  O26  1  0.36319000  0.87947000  0.39290000  1.0 -0.6984005054
O  O27  1  0.70874000  0.33105000  0.20088000  1.0 -0.5282475532
O  O28  1  0.80831000  0.32377000  0.16772000  1.0 -0.5087563873
O  O29  1  0.44913000  0.24042000  0.99345000  1.0 -0.517422406
O  O30  1  0.51998000  0.35519000  0.14773000  1.0 -0.5405857345
O  O31  1  0.54985000  0.25652000  0.37583000  1.0 -0.5696080197
O  O32  1  0.46781000  0.08651000  0.29038000  1.0 -0.5570742071
O  O33  1  0.38029000  0.14750000  0.25151000  1.0 -0.5282475532
O  O34  1  0.67483000  0.16347000  0.80180000  1.0 -0.5696080197
O  O35  1  0.61328000  0.25131000  0.80971000  1.0 -0.5914135755
O  O36  1  0.50491000  0.07920000  0.69569000  1.0 -0.5696080197
O  O37  1  0.95166000  0.47281000  0.56794000  1.0 -0.7188665947
O  O38  1  0.88054000  0.53155000  0.47562000  1.0 -0.7336312017
O  O39  1  0.87947000  0.39290000  0.36319000  1.0 -0.6984005054
O  O40  1  0.66895000  0.79912000  0.29126000  1.0 -0.5282475532
O  O41  1  0.67623000  0.83228000  0.19169000  1.0 -0.5087563873
O  O42  1  0.75958000  0.00655000  0.55087000  1.0 -0.517422406
O  O43  1  0.64481000  0.85227000  0.48002000  1.0 -0.5405857345
O  O44  1  0.74348000  0.62417000  0.45015000  1.0 -0.5696080197
O  O45  1  0.91349000  0.70962000  0.53219000  1.0 -0.5570742071
O  O46  1  0.85250000  0.74849000  0.61971000  1.0 -0.5282475532
O  O47  1  0.83653000  0.19820000  0.32517000  1.0 -0.5696080197
O  O48  1  0.74869000  0.19029000  0.38672000  1.0 -0.5914135755
O  O49  1  0.92080000  0.30431000  0.49509000  1.0 -0.5696080197
O  O50  1  0.52719000  0.43206000  0.04834000  1.0 -0.7188665947
O  O51  1  0.46845000  0.52438000  0.11946000  1.0 -0.7356272301
O  O52  1  0.60710000  0.63681000  0.12053000  1.0 -0.6984005054
O  O53  1  0.79912000  0.29126000  0.66895000  1.0 -0.5282475532
O  O54  1  0.83228000  0.19169000  0.67623000  1.0 -0.5087563873
O  O55  1  0.00655000  0.55087000  0.75958000  1.0 -0.517422406
O  O56  1  0.85227000  0.48002000  0.64481000  1.0 -0.5405857345
O  O57  1  0.62417000  0.45015000  0.74348000  1.0 -0.5696080197
O  O58  1  0.70962000  0.53219000  0.91349000  1.0 -0.5570742071
O  O59  1  0.74849000  0.61971000  0.85250000  1.0 -0.5282475532
O  O60  1  0.19820000  0.32517000  0.83653000  1.0 -0.5696080197
O  O61  1  0.19029000  0.38672000  0.74869000  1.0 -0.5914135755
O  O62  1  0.30431000  0.49509000  0.92080000  1.0 -0.5696080197
O  O63  1  0.43206000  0.04834000  0.52719000  1.0 -0.7188665947
O  O64  1  0.52438000  0.11946000  0.46845000  1.0 -0.7356272301
O  O65  1  0.63681000  0.12053000  0.60710000  1.0 -0.6984005054
O  O66  1  0.29126000  0.66895000  0.79912000  1.0 -0.5282475532
O  O67  1  0.19169000  0.67623000  0.83228000  1.0 -0.5087563873
O  O68  1  0.55087000  0.75958000  0.00655000  1.0 -0.517422406
O  O69  1  0.48002000  0.64481000  0.85227000  1.0 -0.5405857345
O  O70  1  0.45015000  0.74348000  0.62417000  1.0 -0.5696080197
O  O71  1  0.53219000  0.91349000  0.70962000  1.0 -0.5570742071
O  O72  1  0.61971000  0.85250000  0.74849000  1.0 -0.5282475532
O  O73  1  0.32517000  0.83653000  0.19820000  1.0 -0.5696080197
O  O74  1  0.38672000  0.74869000  0.19029000  1.0 -0.5914135755
O  O75  1  0.49509000  0.92080000  0.30431000  1.0 -0.5696080197
O  O76  1  0.04834000  0.52719000  0.43206000  1.0 -0.7188665947
O  O77  1  0.11946000  0.46845000  0.52438000  1.0 -0.7356272301
O  O78  1  0.12053000  0.60710000  0.63681000  1.0 -0.6984005054
