# DDEC6 charges by PACMAN v1.1 (https://github.com/mtap-research/PACMAN-charge/)
data_HOZTOG_ASR_pacman
_symmetry_space_group_name_H-M   'P 1'
_cell_length_a   26.29340000
_cell_length_b   26.29340000
_cell_length_c   26.29340000
_cell_angle_alpha   109.47100000
_cell_angle_beta   109.47100000
_cell_angle_gamma   109.47100000
_symmetry_Int_Tables_number   1
_chemical_formula_structural   Cu6H24WC32S4(IN6)4
_chemical_formula_sum   'Cu36 H144 W6 C192 S24 I24 N144'
_cell_volume   13993.35661030
_cell_formula_units_Z   6
loop_
 _symmetry_equiv_pos_site_id
 _symmetry_equiv_pos_as_xyz
  1  'x, y, z'
loop_
 _atom_site_type_symbol
 _atom_site_label
 _atom_site_symmetry_multiplicity
 _atom_site_fract_x
 _atom_site_fract_y
 _atom_site_fract_z
 _atom_site_occupancy
 _atom_site_charge
Cu  Cu1  1  0.73320000  0.93618000  0.06036000  1.0 0.3737144891
Cu  Cu2  1  0.37582000  0.67284000  0.43964000  1.0 0.3737144891
Cu  Cu3  1  0.12418000  0.56382000  0.29702000  1.0 0.3737144891
Cu  Cu4  1  0.76680000  0.82716000  0.20298000  1.0 0.3737144891
Cu  Cu5  1  0.06036000  0.73320000  0.93618000  1.0 0.3737144891
Cu  Cu6  1  0.43964000  0.37582000  0.67284000  1.0 0.3737144891
Cu  Cu7  1  0.29702000  0.12418000  0.56382000  1.0 0.3737144891
Cu  Cu8  1  0.20298000  0.76680000  0.82716000  1.0 0.3737144891
Cu  Cu9  1  0.93618000  0.06036000  0.73320000  1.0 0.3737144891
Cu  Cu10  1  0.67284000  0.43964000  0.37582000  1.0 0.3737144891
Cu  Cu11  1  0.56382000  0.29702000  0.12418000  1.0 0.3737144891
Cu  Cu12  1  0.82716000  0.20298000  0.76680000  1.0 0.3812772714
Cu  Cu13  1  0.43618000  0.23320000  0.56036000  1.0 0.3737144891
Cu  Cu14  1  0.17284000  0.87582000  0.93964000  1.0 0.3737144891
Cu  Cu15  1  0.06382000  0.62418000  0.79702000  1.0 0.3737144891
Cu  Cu16  1  0.32716000  0.26680000  0.70298000  1.0 0.3737144891
Cu  Cu17  1  0.23320000  0.56036000  0.43618000  1.0 0.3737144891
Cu  Cu18  1  0.87582000  0.93964000  0.17284000  1.0 0.3737144891
Cu  Cu19  1  0.62418000  0.79702000  0.06382000  1.0 0.3737144891
Cu  Cu20  1  0.26680000  0.70298000  0.32716000  1.0 0.3737144891
Cu  Cu21  1  0.56036000  0.43618000  0.23320000  1.0 0.3737144891
Cu  Cu22  1  0.93964000  0.17284000  0.87582000  1.0 0.3737144891
Cu  Cu23  1  0.79702000  0.06382000  0.62418000  1.0 0.3737144891
Cu  Cu24  1  0.70298000  0.32716000  0.26680000  1.0 0.3737144891
Cu  Cu25  1  0.75000000  0.78628000  0.03628000  1.0 0.3812772714
Cu  Cu26  1  0.25000000  0.71372000  0.46372000  1.0 0.3812772714
Cu  Cu27  1  0.03628000  0.75000000  0.78628000  1.0 0.3812772714
Cu  Cu28  1  0.46372000  0.25000000  0.71372000  1.0 0.3812772714
Cu  Cu29  1  0.78628000  0.03628000  0.75000000  1.0 0.3812772714
Cu  Cu30  1  0.71372000  0.46372000  0.25000000  1.0 0.3812772714
Cu  Cu31  1  0.28628000  0.25000000  0.53628000  1.0 0.3812772714
Cu  Cu32  1  0.21372000  0.75000000  0.96372000  1.0 0.3812772714
Cu  Cu33  1  0.25000000  0.53628000  0.28628000  1.0 0.3812772714
Cu  Cu34  1  0.75000000  0.96372000  0.21372000  1.0 0.3812772714
Cu  Cu35  1  0.53628000  0.28628000  0.25000000  1.0 0.3812772714
Cu  Cu36  1  0.96372000  0.21372000  0.75000000  1.0 0.3812772714
H  H1  1  0.58700000  0.91320000  0.01000000  1.0 0.1327052818
H  H2  1  0.40320000  0.57700000  0.49000000  1.0 0.1327052818
H  H3  1  0.09680000  0.58680000  0.17380000  1.0 0.1327052818
H  H4  1  0.91300000  0.92300000  0.32620000  1.0 0.1327052818
H  H5  1  0.01000000  0.58700000  0.91320000  1.0 0.1327052818
H  H6  1  0.49000000  0.40320000  0.57700000  1.0 0.1327052818
H  H7  1  0.17380000  0.09680000  0.58680000  1.0 0.1327052818
H  H8  1  0.32620000  0.91300000  0.92300000  1.0 0.1327052818
H  H9  1  0.91320000  0.01000000  0.58700000  1.0 0.1327052818
H  H10  1  0.57700000  0.49000000  0.40320000  1.0 0.1327052818
H  H11  1  0.58680000  0.17380000  0.09680000  1.0 0.1327052818
H  H12  1  0.92300000  0.32620000  0.91300000  1.0 0.1327052818
H  H13  1  0.41320000  0.08700000  0.51000000  1.0 0.1327052818
H  H14  1  0.07700000  0.90320000  0.99000000  1.0 0.1327052818
H  H15  1  0.08680000  0.59680000  0.67380000  1.0 0.1327052818
H  H16  1  0.42300000  0.41300000  0.82620000  1.0 0.1327052818
H  H17  1  0.08700000  0.51000000  0.41320000  1.0 0.1327052818
H  H18  1  0.90320000  0.99000000  0.07700000  1.0 0.1327052818
H  H19  1  0.59680000  0.67380000  0.08680000  1.0 0.1327052818
H  H20  1  0.41300000  0.82620000  0.42300000  1.0 0.1327052818
H  H21  1  0.51000000  0.41320000  0.08700000  1.0 0.1327052818
H  H22  1  0.99000000  0.07700000  0.90320000  1.0 0.1327052818
H  H23  1  0.67380000  0.08680000  0.59680000  1.0 0.1327052818
H  H24  1  0.82620000  0.42300000  0.41300000  1.0 0.1327052818
H  H25  1  0.75640000  0.07060000  0.12280000  1.0 0.1327052818
H  H26  1  0.44780000  0.63360000  0.37720000  1.0 0.1327052818
H  H27  1  0.05220000  0.42940000  0.18580000  1.0 0.1327052818
H  H28  1  0.74360000  0.86640000  0.31420000  1.0 0.1327052818
H  H29  1  0.12280000  0.75640000  0.07060000  1.0 0.1327052818
H  H30  1  0.37720000  0.44780000  0.63360000  1.0 0.1327052818
H  H31  1  0.18580000  0.05220000  0.42940000  1.0 0.1327052818
H  H32  1  0.31420000  0.74360000  0.86640000  1.0 0.1327052818
H  H33  1  0.07060000  0.12280000  0.75640000  1.0 0.1327052818
H  H34  1  0.63360000  0.37720000  0.44780000  1.0 0.1327052818
H  H35  1  0.42940000  0.18580000  0.05220000  1.0 0.1327052818
H  H36  1  0.86640000  0.31420000  0.74360000  1.0 0.1327052818
H  H37  1  0.57060000  0.25640000  0.62280000  1.0 0.1327052818
H  H38  1  0.13360000  0.94780000  0.87720000  1.0 0.1327052818
H  H39  1  0.92940000  0.55220000  0.68580000  1.0 0.1327052818
H  H40  1  0.36640000  0.24360000  0.81420000  1.0 0.1327052818
H  H41  1  0.25640000  0.62280000  0.57060000  1.0 0.1327052818
H  H42  1  0.94780000  0.87720000  0.13360000  1.0 0.1327052818
H  H43  1  0.55220000  0.68580000  0.92940000  1.0 0.1327052818
H  H44  1  0.24360000  0.81420000  0.36640000  1.0 0.1327052818
H  H45  1  0.62280000  0.57060000  0.25640000  1.0 0.1327052818
H  H46  1  0.87720000  0.13360000  0.94780000  1.0 0.1327052818
H  H47  1  0.68580000  0.92940000  0.55220000  1.0 0.1327052818
H  H48  1  0.81420000  0.36640000  0.24360000  1.0 0.1327052818
H  H49  1  0.67560000  0.10220000  0.10920000  1.0 0.139257184
H  H50  1  0.49300000  0.56640000  0.39080000  1.0 0.139257184
H  H51  1  0.00700000  0.39780000  0.07340000  1.0 0.139257184
H  H52  1  0.82440000  0.93360000  0.42660000  1.0 0.139257184
H  H53  1  0.10920000  0.67560000  0.10220000  1.0 0.139257184
H  H54  1  0.39080000  0.49300000  0.56640000  1.0 0.139257184
H  H55  1  0.07340000  0.00700000  0.39780000  1.0 0.139257184
H  H56  1  0.42660000  0.82440000  0.93360000  1.0 0.139257184
H  H57  1  0.10220000  0.10920000  0.67560000  1.0 0.139257184
H  H58  1  0.56640000  0.39080000  0.49300000  1.0 0.139257184
H  H59  1  0.39780000  0.07340000  0.00700000  1.0 0.139257184
H  H60  1  0.93360000  0.42660000  0.82440000  1.0 0.139257184
H  H61  1  0.60220000  0.17560000  0.60920000  1.0 0.139257184
H  H62  1  0.06640000  0.99300000  0.89080000  1.0 0.139257184
H  H63  1  0.89780000  0.50700000  0.57340000  1.0 0.139257184
H  H64  1  0.43360000  0.32440000  0.92660000  1.0 0.139257184
H  H65  1  0.17560000  0.60920000  0.60220000  1.0 0.139257184
H  H66  1  0.99300000  0.89080000  0.06640000  1.0 0.139257184
H  H67  1  0.50700000  0.57340000  0.89780000  1.0 0.139257184
H  H68  1  0.32440000  0.92660000  0.43360000  1.0 0.139257184
H  H69  1  0.60920000  0.60220000  0.17560000  1.0 0.139257184
H  H70  1  0.89080000  0.06640000  0.99300000  1.0 0.139257184
H  H71  1  0.57340000  0.89780000  0.50700000  1.0 0.139257184
H  H72  1  0.92660000  0.43360000  0.32440000  1.0 0.139257184
H  H73  1  0.72943000  0.67423000  0.07040000  1.0 0.139257184
H  H74  1  0.10383000  0.65903000  0.42960000  1.0 0.139257184
H  H75  1  0.39617000  0.82577000  0.55520000  1.0 0.139257184
H  H76  1  0.77057000  0.84097000  0.94480000  1.0 0.139257184
H  H77  1  0.07040000  0.72943000  0.67423000  1.0 0.139257184
H  H78  1  0.42960000  0.10383000  0.65903000  1.0 0.139257184
H  H79  1  0.55520000  0.39617000  0.82577000  1.0 0.139257184
H  H80  1  0.94480000  0.77057000  0.84097000  1.0 0.139257184
H  H81  1  0.67423000  0.07040000  0.72943000  1.0 0.139257184
H  H82  1  0.65903000  0.42960000  0.10383000  1.0 0.139257184
H  H83  1  0.82577000  0.55520000  0.39617000  1.0 0.139257184
H  H84  1  0.84097000  0.94480000  0.77057000  1.0 0.139257184
H  H85  1  0.17423000  0.22943000  0.57040000  1.0 0.139257184
H  H86  1  0.15903000  0.60383000  0.92960000  1.0 0.139257184
H  H87  1  0.32577000  0.89617000  0.05520000  1.0 0.139257184
H  H88  1  0.34097000  0.27057000  0.44480000  1.0 0.139257184
H  H89  1  0.22943000  0.57040000  0.17423000  1.0 0.139257184
H  H90  1  0.60383000  0.92960000  0.15903000  1.0 0.139257184
H  H91  1  0.89617000  0.05520000  0.32577000  1.0 0.139257184
H  H92  1  0.27057000  0.44480000  0.34097000  1.0 0.139257184
H  H93  1  0.57040000  0.17423000  0.22943000  1.0 0.139257184
H  H94  1  0.92960000  0.15903000  0.60383000  1.0 0.139257184
H  H95  1  0.05520000  0.32577000  0.89617000  1.0 0.139257184
H  H96  1  0.44480000  0.34097000  0.27057000  1.0 0.139257184
H  H97  1  0.67270000  0.66560000  0.90270000  1.0 0.1327052818
H  H98  1  0.26290000  0.77000000  0.59730000  1.0 0.1327052818
H  H99  1  0.23710000  0.83440000  0.50710000  1.0 0.1327052818
H  H100  1  0.82730000  0.73000000  0.99290000  1.0 0.1327052818
H  H101  1  0.90270000  0.67270000  0.66560000  1.0 0.1327052818
H  H102  1  0.59730000  0.26290000  0.77000000  1.0 0.1327052818
H  H103  1  0.50710000  0.23710000  0.83440000  1.0 0.1327052818
H  H104  1  0.99290000  0.82730000  0.73000000  1.0 0.1327052818
H  H105  1  0.66560000  0.90270000  0.67270000  1.0 0.1327052818
H  H106  1  0.77000000  0.59730000  0.26290000  1.0 0.1327052818
H  H107  1  0.83440000  0.50710000  0.23710000  1.0 0.1327052818
H  H108  1  0.73000000  0.99290000  0.82730000  1.0 0.1327052818
H  H109  1  0.16560000  0.17270000  0.40270000  1.0 0.1327052818
H  H110  1  0.27000000  0.76290000  0.09730000  1.0 0.1327052818
H  H111  1  0.33440000  0.73710000  0.00710000  1.0 0.1327052818
H  H112  1  0.23000000  0.32730000  0.49290000  1.0 0.1327052818
H  H113  1  0.17270000  0.40270000  0.16560000  1.0 0.1327052818
H  H114  1  0.76290000  0.09730000  0.27000000  1.0 0.1327052818
H  H115  1  0.73710000  0.00710000  0.33440000  1.0 0.1327052818
H  H116  1  0.32730000  0.49290000  0.23000000  1.0 0.1327052818
H  H117  1  0.40270000  0.16560000  0.17270000  1.0 0.1327052818
H  H118  1  0.09730000  0.27000000  0.76290000  1.0 0.1327052818
H  H119  1  0.00710000  0.33440000  0.73710000  1.0 0.1327052818
H  H120  1  0.49290000  0.23000000  0.32730000  1.0 0.1327052818
H  H121  1  0.63450000  0.55600000  0.88290000  1.0 0.139257184
H  H122  1  0.17310000  0.75160000  0.61710000  1.0 0.139257184
H  H123  1  0.32690000  0.94400000  0.57850000  1.0 0.139257184
H  H124  1  0.86550000  0.74840000  0.92150000  1.0 0.139257184
H  H125  1  0.88290000  0.63450000  0.55600000  1.0 0.139257184
H  H126  1  0.61710000  0.17310000  0.75160000  1.0 0.139257184
H  H127  1  0.57850000  0.32690000  0.94400000  1.0 0.139257184
H  H128  1  0.92150000  0.86550000  0.74840000  1.0 0.139257184
H  H129  1  0.55600000  0.88290000  0.63450000  1.0 0.139257184
H  H130  1  0.75160000  0.61710000  0.17310000  1.0 0.139257184
H  H131  1  0.94400000  0.57850000  0.32690000  1.0 0.139257184
H  H132  1  0.74840000  0.92150000  0.86550000  1.0 0.139257184
H  H133  1  0.05600000  0.13450000  0.38290000  1.0 0.139257184
H  H134  1  0.25160000  0.67310000  0.11710000  1.0 0.139257184
H  H135  1  0.44400000  0.82690000  0.07850000  1.0 0.139257184
H  H136  1  0.24840000  0.36550000  0.42150000  1.0 0.139257184
H  H137  1  0.13450000  0.38290000  0.05600000  1.0 0.139257184
H  H138  1  0.67310000  0.11710000  0.25160000  1.0 0.139257184
H  H139  1  0.82690000  0.07850000  0.44400000  1.0 0.139257184
H  H140  1  0.36550000  0.42150000  0.24840000  1.0 0.139257184
H  H141  1  0.38290000  0.05600000  0.13450000  1.0 0.139257184
H  H142  1  0.11710000  0.25160000  0.67310000  1.0 0.139257184
H  H143  1  0.07850000  0.44400000  0.82690000  1.0 0.139257184
H  H144  1  0.42150000  0.24840000  0.36550000  1.0 0.139257184
W  W1  1  0.75000000  0.87500000  0.12500000  1.0 0.6298205431
W  W2  1  0.25000000  0.62500000  0.37500000  1.0 0.6298205431
W  W3  1  0.12500000  0.75000000  0.87500000  1.0 0.6298205431
W  W4  1  0.37500000  0.25000000  0.62500000  1.0 0.6298205431
W  W5  1  0.87500000  0.12500000  0.75000000  1.0 0.6298205431
W  W6  1  0.62500000  0.37500000  0.25000000  1.0 0.6298205431
C  C1  1  0.61790000  0.95490000  0.03540000  1.0 0.1172190123
C  C2  1  0.41950000  0.58250000  0.46460000  1.0 0.1172190123
C  C3  1  0.08050000  0.54510000  0.16300000  1.0 0.1172190123
C  C4  1  0.88210000  0.91750000  0.33700000  1.0 0.1172190123
C  C5  1  0.03540000  0.61790000  0.95490000  1.0 0.1172190123
C  C6  1  0.46460000  0.41950000  0.58250000  1.0 0.1172190123
C  C7  1  0.16300000  0.08050000  0.54510000  1.0 0.1172190123
C  C8  1  0.33700000  0.88210000  0.91750000  1.0 0.1172190123
C  C9  1  0.95490000  0.03540000  0.61790000  1.0 0.1172190123
C  C10  1  0.58250000  0.46460000  0.41950000  1.0 0.1172190123
C  C11  1  0.54510000  0.16300000  0.08050000  1.0 0.1172190123
C  C12  1  0.91750000  0.33700000  0.88210000  1.0 0.1172190123
C  C13  1  0.45490000  0.11790000  0.53540000  1.0 0.1172190123
C  C14  1  0.08250000  0.91950000  0.96460000  1.0 0.1172190123
C  C15  1  0.04510000  0.58050000  0.66300000  1.0 0.1172190123
C  C16  1  0.41750000  0.38210000  0.83700000  1.0 0.1172190123
C  C17  1  0.11790000  0.53540000  0.45490000  1.0 0.1172190123
C  C18  1  0.91950000  0.96460000  0.08250000  1.0 0.1172190123
C  C19  1  0.58050000  0.66300000  0.04510000  1.0 0.1172190123
C  C20  1  0.38210000  0.83700000  0.41750000  1.0 0.1172190123
C  C21  1  0.53540000  0.45490000  0.11790000  1.0 0.1172190123
C  C22  1  0.96460000  0.08250000  0.91950000  1.0 0.1172190123
C  C23  1  0.66300000  0.04510000  0.58050000  1.0 0.1172190123
C  C24  1  0.83700000  0.41750000  0.38210000  1.0 0.1172190123
C  C25  1  0.71370000  0.04370000  0.09920000  1.0 0.0127975971
C  C26  1  0.44450000  0.61450000  0.40080000  1.0 0.0127975971
C  C27  1  0.05550000  0.45630000  0.17000000  1.0 0.0127975971
C  C28  1  0.78630000  0.88550000  0.33000000  1.0 0.0127975971
C  C29  1  0.09920000  0.71370000  0.04370000  1.0 0.0127975971
C  C30  1  0.40080000  0.44450000  0.61450000  1.0 0.0127975971
C  C31  1  0.17000000  0.05550000  0.45630000  1.0 0.0127975971
C  C32  1  0.33000000  0.78630000  0.88550000  1.0 0.0127975971
C  C33  1  0.04370000  0.09920000  0.71370000  1.0 0.0127975971
C  C34  1  0.61450000  0.40080000  0.44450000  1.0 0.0127975971
C  C35  1  0.45630000  0.17000000  0.05550000  1.0 0.0127975971
C  C36  1  0.88550000  0.33000000  0.78630000  1.0 0.0127975971
C  C37  1  0.54370000  0.21370000  0.59920000  1.0 0.0127975971
C  C38  1  0.11450000  0.94450000  0.90080000  1.0 0.0127975971
C  C39  1  0.95630000  0.55550000  0.67000000  1.0 0.0127975971
C  C40  1  0.38550000  0.28630000  0.83000000  1.0 0.0127975971
C  C41  1  0.21370000  0.59920000  0.54370000  1.0 0.0127975971
C  C42  1  0.94450000  0.90080000  0.11450000  1.0 0.0127975971
C  C43  1  0.55550000  0.67000000  0.95630000  1.0 0.0127975971
C  C44  1  0.28630000  0.83000000  0.38550000  1.0 0.0127975971
C  C45  1  0.59920000  0.54370000  0.21370000  1.0 0.0127975971
C  C46  1  0.90080000  0.11450000  0.94450000  1.0 0.0127975971
C  C47  1  0.67000000  0.95630000  0.55550000  1.0 0.0127975971
C  C48  1  0.83000000  0.38550000  0.28630000  1.0 0.0127975971
C  C49  1  0.66810000  0.06150000  0.09140000  1.0 -0.0320984163
C  C50  1  0.47010000  0.57670000  0.40860000  1.0 -0.0377689304
C  C51  1  0.02990000  0.43850000  0.10660000  1.0 -0.0320984163
C  C52  1  0.83190000  0.92330000  0.39340000  1.0 -0.0377689304
C  C53  1  0.09140000  0.66810000  0.06150000  1.0 -0.0377689304
C  C54  1  0.40860000  0.47010000  0.57670000  1.0 -0.0320984163
C  C55  1  0.10660000  0.02990000  0.43850000  1.0 -0.0320984163
C  C56  1  0.39340000  0.83190000  0.92330000  1.0 -0.0377689304
C  C57  1  0.06150000  0.09140000  0.66810000  1.0 -0.0320984163
C  C58  1  0.57670000  0.40860000  0.47010000  1.0 -0.0320984163
C  C59  1  0.43850000  0.10660000  0.02990000  1.0 -0.0320984163
C  C60  1  0.92330000  0.39340000  0.83190000  1.0 -0.0320984163
C  C61  1  0.56150000  0.16810000  0.59140000  1.0 -0.0320984163
C  C62  1  0.07670000  0.97010000  0.90860000  1.0 -0.0377689304
C  C63  1  0.93850000  0.52990000  0.60660000  1.0 -0.0320984163
C  C64  1  0.42330000  0.33190000  0.89340000  1.0 -0.0320984163
C  C65  1  0.16810000  0.59140000  0.56150000  1.0 -0.0377689304
C  C66  1  0.97010000  0.90860000  0.07670000  1.0 -0.0377689304
C  C67  1  0.52990000  0.60660000  0.93850000  1.0 -0.0320984163
C  C68  1  0.33190000  0.89340000  0.42330000  1.0 -0.0377689304
C  C69  1  0.59140000  0.56150000  0.16810000  1.0 -0.0320984163
C  C70  1  0.90860000  0.07670000  0.97010000  1.0 -0.0320984163
C  C71  1  0.60660000  0.93850000  0.52990000  1.0 -0.0377689304
C  C72  1  0.89340000  0.42330000  0.33190000  1.0 -0.0377689304
C  C73  1  0.55180000  0.00220000  0.03000000  1.0 0.4439955528
C  C74  1  0.47220000  0.52180000  0.47000000  1.0 0.4439955528
C  C75  1  0.02780000  0.49780000  0.04960000  1.0 0.4439955528
C  C76  1  0.94820000  0.97820000  0.45040000  1.0 0.4439955528
C  C77  1  0.03000000  0.55180000  0.00220000  1.0 0.4439955528
C  C78  1  0.47000000  0.47220000  0.52180000  1.0 0.4439955528
C  C79  1  0.04960000  0.02780000  0.49780000  1.0 0.4439955528
C  C80  1  0.45040000  0.94820000  0.97820000  1.0 0.4439955528
C  C81  1  0.00220000  0.03000000  0.55180000  1.0 0.4439955528
C  C82  1  0.52180000  0.47000000  0.47220000  1.0 0.4439955528
C  C83  1  0.49780000  0.04960000  0.02780000  1.0 0.4439955528
C  C84  1  0.97820000  0.45040000  0.94820000  1.0 0.4439955528
C  C85  1  0.50220000  0.05180000  0.53000000  1.0 0.4439955528
C  C86  1  0.02180000  0.97220000  0.97000000  1.0 0.4439955528
C  C87  1  0.99780000  0.52780000  0.54960000  1.0 0.4439955528
C  C88  1  0.47820000  0.44820000  0.95040000  1.0 0.4439955528
C  C89  1  0.05180000  0.53000000  0.50220000  1.0 0.4439955528
C  C90  1  0.97220000  0.97000000  0.02180000  1.0 0.4439955528
C  C91  1  0.52780000  0.54960000  0.99780000  1.0 0.4439955528
C  C92  1  0.44820000  0.95040000  0.47820000  1.0 0.4439955528
C  C93  1  0.53000000  0.50220000  0.05180000  1.0 0.4439955528
C  C94  1  0.97000000  0.02180000  0.97220000  1.0 0.4439955528
C  C95  1  0.54960000  0.99780000  0.52780000  1.0 0.4439955528
C  C96  1  0.95040000  0.47820000  0.44820000  1.0 0.4439955528
C  C97  1  0.71110000  0.65900000  0.02770000  1.0 0.1011817397
C  C98  1  0.13130000  0.68340000  0.47230000  1.0 0.1011817397
C  C99  1  0.36870000  0.84100000  0.55210000  1.0 0.1011817397
C  C100  1  0.78890000  0.81660000  0.94790000  1.0 0.1011817397
C  C101  1  0.02770000  0.71110000  0.65900000  1.0 0.1011817397
C  C102  1  0.47230000  0.13130000  0.68340000  1.0 0.1011817397
C  C103  1  0.55210000  0.36870000  0.84100000  1.0 0.1011817397
C  C104  1  0.94790000  0.78890000  0.81660000  1.0 0.1011817397
C  C105  1  0.65900000  0.02770000  0.71110000  1.0 0.1011817397
C  C106  1  0.68340000  0.47230000  0.13130000  1.0 0.1011817397
C  C107  1  0.84100000  0.55210000  0.36870000  1.0 0.1011817397
C  C108  1  0.81660000  0.94790000  0.78890000  1.0 0.1011817397
C  C109  1  0.15900000  0.21110000  0.52770000  1.0 0.1011817397
C  C110  1  0.18340000  0.63130000  0.97230000  1.0 0.1011817397
C  C111  1  0.34100000  0.86870000  0.05210000  1.0 0.1011817397
C  C112  1  0.31660000  0.28890000  0.44790000  1.0 0.1011817397
C  C113  1  0.21110000  0.52770000  0.15900000  1.0 0.1011817397
C  C114  1  0.63130000  0.97230000  0.18340000  1.0 0.1011817397
C  C115  1  0.86870000  0.05210000  0.34100000  1.0 0.1011817397
C  C116  1  0.28890000  0.44790000  0.31660000  1.0 0.1011817397
C  C117  1  0.52770000  0.15900000  0.21110000  1.0 0.1011817397
C  C118  1  0.97230000  0.18340000  0.63130000  1.0 0.1011817397
C  C119  1  0.05210000  0.34100000  0.86870000  1.0 0.1011817397
C  C120  1  0.44790000  0.31660000  0.28890000  1.0 0.1011817397
C  C121  1  0.67880000  0.65381000  0.93281000  1.0 -0.0110854152
C  C122  1  0.22100000  0.74599000  0.56719000  1.0 -0.0110854152
C  C123  1  0.27900000  0.84619000  0.52499000  1.0 -0.0110854152
C  C124  1  0.82120000  0.75401000  0.97501000  1.0 -0.0110854152
C  C125  1  0.93281000  0.67880000  0.65381000  1.0 -0.0110854152
C  C126  1  0.56719000  0.22100000  0.74599000  1.0 -0.0110854152
C  C127  1  0.52499000  0.27900000  0.84619000  1.0 -0.0110854152
C  C128  1  0.97501000  0.82120000  0.75401000  1.0 -0.0110854152
C  C129  1  0.65381000  0.93281000  0.67880000  1.0 -0.0110854152
C  C130  1  0.74599000  0.56719000  0.22100000  1.0 -0.0110854152
C  C131  1  0.84619000  0.52499000  0.27900000  1.0 -0.0110854152
C  C132  1  0.75401000  0.97501000  0.82120000  1.0 -0.0110854152
C  C133  1  0.15381000  0.17880000  0.43281000  1.0 -0.0110854152
C  C134  1  0.24599000  0.72100000  0.06719000  1.0 -0.0110854152
C  C135  1  0.34619000  0.77900000  0.02499000  1.0 -0.0110854152
C  C136  1  0.25401000  0.32120000  0.47501000  1.0 -0.0110854152
C  C137  1  0.17880000  0.43281000  0.15381000  1.0 -0.0110854152
C  C138  1  0.72100000  0.06719000  0.24599000  1.0 -0.0110854152
C  C139  1  0.77900000  0.02499000  0.34619000  1.0 -0.0110854152
C  C140  1  0.32120000  0.47501000  0.25401000  1.0 -0.0110854152
C  C141  1  0.43281000  0.15381000  0.17880000  1.0 -0.0110854152
C  C142  1  0.06719000  0.24599000  0.72100000  1.0 -0.0110854152
C  C143  1  0.02499000  0.34619000  0.77900000  1.0 -0.0110854152
C  C144  1  0.47501000  0.25401000  0.32120000  1.0 -0.0110854152
C  C145  1  0.65760000  0.59200000  0.92160000  1.0 -0.0320984163
C  C146  1  0.17040000  0.73600000  0.57840000  1.0 -0.0320984163
C  C147  1  0.32960000  0.90800000  0.56560000  1.0 -0.0320984163
C  C148  1  0.84240000  0.76400000  0.93440000  1.0 -0.0320984163
C  C149  1  0.92160000  0.65760000  0.59200000  1.0 -0.0320984163
C  C150  1  0.57840000  0.17040000  0.73600000  1.0 -0.0320984163
C  C151  1  0.56560000  0.32960000  0.90800000  1.0 -0.0320984163
C  C152  1  0.93440000  0.84240000  0.76400000  1.0 -0.0320984163
C  C153  1  0.59200000  0.92160000  0.65760000  1.0 -0.0320984163
C  C154  1  0.73600000  0.57840000  0.17040000  1.0 -0.0320984163
C  C155  1  0.90800000  0.56560000  0.32960000  1.0 -0.0320984163
C  C156  1  0.76400000  0.93440000  0.84240000  1.0 -0.0320984163
C  C157  1  0.09200000  0.15760000  0.42160000  1.0 -0.0320984163
C  C158  1  0.23600000  0.67040000  0.07840000  1.0 -0.0320984163
C  C159  1  0.40800000  0.82960000  0.06560000  1.0 -0.0320984163
C  C160  1  0.26400000  0.34240000  0.43440000  1.0 -0.0320984163
C  C161  1  0.15760000  0.42160000  0.09200000  1.0 -0.0320984163
C  C162  1  0.67040000  0.07840000  0.23600000  1.0 -0.0320984163
C  C163  1  0.82960000  0.06560000  0.40800000  1.0 -0.0320984163
C  C164  1  0.34240000  0.43440000  0.26400000  1.0 -0.0320984163
C  C165  1  0.42160000  0.09200000  0.15760000  1.0 -0.0320984163
C  C166  1  0.07840000  0.23600000  0.67040000  1.0 -0.0320984163
C  C167  1  0.06560000  0.40800000  0.82960000  1.0 -0.0320984163
C  C168  1  0.43440000  0.26400000  0.34240000  1.0 -0.0320984163
C  C169  1  0.66340000  0.54820000  0.99320000  1.0 0.4824710314
C  C170  1  0.05500000  0.67020000  0.50680000  1.0 0.4824710314
C  C171  1  0.44500000  0.95180000  0.61520000  1.0 0.4824710314
C  C172  1  0.83660000  0.82980000  0.88480000  1.0 0.4824710314
C  C173  1  0.99320000  0.66340000  0.54820000  1.0 0.4824710314
C  C174  1  0.50680000  0.05500000  0.67020000  1.0 0.4824710314
C  C175  1  0.61520000  0.44500000  0.95180000  1.0 0.4824710314
C  C176  1  0.88480000  0.83660000  0.82980000  1.0 0.4824710314
C  C177  1  0.54820000  0.99320000  0.66340000  1.0 0.4824710314
C  C178  1  0.67020000  0.50680000  0.05500000  1.0 0.4824710314
C  C179  1  0.95180000  0.61520000  0.44500000  1.0 0.4824710314
C  C180  1  0.82980000  0.88480000  0.83660000  1.0 0.4824710314
C  C181  1  0.04820000  0.16340000  0.49320000  1.0 0.4824710314
C  C182  1  0.17020000  0.55500000  0.00680000  1.0 0.4824710314
C  C183  1  0.45180000  0.94500000  0.11520000  1.0 0.4824710314
C  C184  1  0.32980000  0.33660000  0.38480000  1.0 0.4824710314
C  C185  1  0.16340000  0.49320000  0.04820000  1.0 0.4824710314
C  C186  1  0.55500000  0.00680000  0.17020000  1.0 0.4824710314
C  C187  1  0.94500000  0.11520000  0.45180000  1.0 0.4824710314
C  C188  1  0.33660000  0.38480000  0.32980000  1.0 0.4824710314
C  C189  1  0.49320000  0.04820000  0.16340000  1.0 0.4824710314
C  C190  1  0.00680000  0.17020000  0.55500000  1.0 0.4824710314
C  C191  1  0.11520000  0.45180000  0.94500000  1.0 0.4824710314
C  C192  1  0.38480000  0.32980000  0.33660000  1.0 0.4824710314
S  S1  1  0.68529000  0.82850000  0.02153000  1.0 -0.4995208171
S  S2  1  0.30697000  0.66376000  0.47847000  1.0 -0.4995208171
S  S3  1  0.19303000  0.67150000  0.35679000  1.0 -0.4995208171
S  S4  1  0.81471000  0.83624000  0.14321000  1.0 -0.4995208171
S  S5  1  0.02153000  0.68529000  0.82850000  1.0 -0.4995208171
S  S6  1  0.47847000  0.30697000  0.66376000  1.0 -0.4995208171
S  S7  1  0.35679000  0.19303000  0.67150000  1.0 -0.4995208171
S  S8  1  0.14321000  0.81471000  0.83624000  1.0 -0.4995208171
S  S9  1  0.82850000  0.02153000  0.68529000  1.0 -0.4995208171
S  S10  1  0.66376000  0.47847000  0.30697000  1.0 -0.4995208171
S  S11  1  0.67150000  0.35679000  0.19303000  1.0 -0.4995208171
S  S12  1  0.83624000  0.14321000  0.81471000  1.0 -0.4995208171
S  S13  1  0.32850000  0.18529000  0.52153000  1.0 -0.4995208171
S  S14  1  0.16376000  0.80697000  0.97847000  1.0 -0.4995208171
S  S15  1  0.17150000  0.69303000  0.85679000  1.0 -0.4995208171
S  S16  1  0.33624000  0.31471000  0.64321000  1.0 -0.4995208171
S  S17  1  0.18529000  0.52153000  0.32850000  1.0 -0.4995208171
S  S18  1  0.80697000  0.97847000  0.16376000  1.0 -0.4995208171
S  S19  1  0.69303000  0.85679000  0.17150000  1.0 -0.4995208171
S  S20  1  0.31471000  0.64321000  0.33624000  1.0 -0.4995208171
S  S21  1  0.52153000  0.32850000  0.18529000  1.0 -0.4995208171
S  S22  1  0.97847000  0.16376000  0.80697000  1.0 -0.4995208171
S  S23  1  0.85679000  0.17150000  0.69303000  1.0 -0.4995208171
S  S24  1  0.64321000  0.33624000  0.31471000  1.0 -0.4995208171
I  I1  1  0.78087000  0.97390000  0.00071000  1.0 -0.5107487887
I  I2  1  0.47319000  0.78016000  0.49929000  1.0 -0.5107487887
I  I3  1  0.02681000  0.52610000  0.30697000  1.0 -0.5107487887
I  I4  1  0.71913000  0.71984000  0.19303000  1.0 -0.5107487887
I  I5  1  0.00071000  0.78087000  0.97390000  1.0 -0.5107487887
I  I6  1  0.49929000  0.47319000  0.78016000  1.0 -0.5107487887
I  I7  1  0.30697000  0.02681000  0.52610000  1.0 -0.5107487887
I  I8  1  0.19303000  0.71913000  0.71984000  1.0 -0.5107487887
I  I9  1  0.97390000  0.00071000  0.78087000  1.0 -0.5107487887
I  I10  1  0.78016000  0.49929000  0.47319000  1.0 -0.5107487887
I  I11  1  0.52610000  0.30697000  0.02681000  1.0 -0.5107487887
I  I12  1  0.71984000  0.19303000  0.71913000  1.0 -0.5107487887
I  I13  1  0.47390000  0.28087000  0.50071000  1.0 -0.5107487887
I  I14  1  0.28016000  0.97319000  0.99929000  1.0 -0.5107487887
I  I15  1  0.02610000  0.52681000  0.80697000  1.0 -0.5107487887
I  I16  1  0.21984000  0.21913000  0.69303000  1.0 -0.5107487887
I  I17  1  0.28087000  0.50071000  0.47390000  1.0 -0.5107487887
I  I18  1  0.97319000  0.99929000  0.28016000  1.0 -0.5107487887
I  I19  1  0.52681000  0.80697000  0.02610000  1.0 -0.5107487887
I  I20  1  0.21913000  0.69303000  0.21984000  1.0 -0.5107487887
I  I21  1  0.50071000  0.47390000  0.28087000  1.0 -0.5107487887
I  I22  1  0.99929000  0.28016000  0.97319000  1.0 -0.5107487887
I  I23  1  0.80697000  0.02610000  0.52681000  1.0 -0.5107487887
I  I24  1  0.69303000  0.21984000  0.21913000  1.0 -0.5107487887
N  N1  1  0.68379000  0.97832000  0.06545000  1.0 -0.246903869
N  N2  1  0.41287000  0.61834000  0.43455000  1.0 -0.246903869
N  N3  1  0.08713000  0.52168000  0.20547000  1.0 -0.246903869
N  N4  1  0.81621000  0.88166000  0.29453000  1.0 -0.246903869
N  N5  1  0.06545000  0.68379000  0.97832000  1.0 -0.246903869
N  N6  1  0.43455000  0.41287000  0.61834000  1.0 -0.246903869
N  N7  1  0.20547000  0.08713000  0.52168000  1.0 -0.246903869
N  N8  1  0.29453000  0.81621000  0.88166000  1.0 -0.246903869
N  N9  1  0.97832000  0.06545000  0.68379000  1.0 -0.246903869
N  N10  1  0.61834000  0.43455000  0.41287000  1.0 -0.246903869
N  N11  1  0.52168000  0.20547000  0.08713000  1.0 -0.246903869
N  N12  1  0.88166000  0.29453000  0.81621000  1.0 -0.246903869
N  N13  1  0.47832000  0.18379000  0.56545000  1.0 -0.246903869
N  N14  1  0.11834000  0.91287000  0.93455000  1.0 -0.246903869
N  N15  1  0.02168000  0.58713000  0.70547000  1.0 -0.246903869
N  N16  1  0.38166000  0.31621000  0.79453000  1.0 -0.246903869
N  N17  1  0.18379000  0.56545000  0.47832000  1.0 -0.246903869
N  N18  1  0.91287000  0.93455000  0.11834000  1.0 -0.246903869
N  N19  1  0.58713000  0.70547000  0.02168000  1.0 -0.246903869
N  N20  1  0.31621000  0.79453000  0.38166000  1.0 -0.246903869
N  N21  1  0.56545000  0.47832000  0.18379000  1.0 -0.246903869
N  N22  1  0.93455000  0.11834000  0.91287000  1.0 -0.246903869
N  N23  1  0.70547000  0.02168000  0.58713000  1.0 -0.246903869
N  N24  1  0.79453000  0.38166000  0.31621000  1.0 -0.246903869
N  N25  1  0.60827000  0.00664000  0.05135000  1.0 -0.045565351
N  N26  1  0.45529000  0.55692000  0.44865000  1.0 -0.045565351
N  N27  1  0.04471000  0.49336000  0.10163000  1.0 -0.045565351
N  N28  1  0.89173000  0.94308000  0.39837000  1.0 -0.045565351
N  N29  1  0.05135000  0.60827000  0.00664000  1.0 -0.045565351
N  N30  1  0.44865000  0.45529000  0.55692000  1.0 -0.045565351
N  N31  1  0.10163000  0.04471000  0.49336000  1.0 -0.045565351
N  N32  1  0.39837000  0.89173000  0.94308000  1.0 -0.045565351
N  N33  1  0.00664000  0.05135000  0.60827000  1.0 -0.045565351
N  N34  1  0.55692000  0.44865000  0.45529000  1.0 -0.045565351
N  N35  1  0.49336000  0.10163000  0.04471000  1.0 -0.045565351
N  N36  1  0.94308000  0.39837000  0.89173000  1.0 -0.045565351
N  N37  1  0.50664000  0.10827000  0.55135000  1.0 -0.045565351
N  N38  1  0.05692000  0.95529000  0.94865000  1.0 -0.045565351
N  N39  1  0.99336000  0.54471000  0.60163000  1.0 -0.045565351
N  N40  1  0.44308000  0.39173000  0.89837000  1.0 -0.045565351
N  N41  1  0.10827000  0.55135000  0.50664000  1.0 -0.045565351
N  N42  1  0.95529000  0.94865000  0.05692000  1.0 -0.045565351
N  N43  1  0.54471000  0.60163000  0.99336000  1.0 -0.045565351
N  N44  1  0.39173000  0.89837000  0.44308000  1.0 -0.045565351
N  N45  1  0.55135000  0.50664000  0.10827000  1.0 -0.045565351
N  N46  1  0.94865000  0.05692000  0.95529000  1.0 -0.045565351
N  N47  1  0.60163000  0.99336000  0.54471000  1.0 -0.045565351
N  N48  1  0.89837000  0.44308000  0.39173000  1.0 -0.045565351
N  N49  1  0.50502000  0.94346000  0.99676000  1.0 -0.5107487887
N  N50  1  0.44670000  0.50826000  0.50324000  1.0 -0.5107487887
N  N51  1  0.05330000  0.55654000  0.06156000  1.0 -0.5107487887
N  N52  1  0.99498000  0.99174000  0.43844000  1.0 -0.5107487887
N  N53  1  0.99676000  0.50502000  0.94346000  1.0 -0.5107487887
N  N54  1  0.50324000  0.44670000  0.50826000  1.0 -0.5107487887
N  N55  1  0.06156000  0.05330000  0.55654000  1.0 -0.5107487887
N  N56  1  0.43844000  0.99498000  0.99174000  1.0 -0.5107487887
N  N57  1  0.94346000  0.99676000  0.50502000  1.0 -0.5107487887
N  N58  1  0.50826000  0.50324000  0.44670000  1.0 -0.5107487887
N  N59  1  0.55654000  0.06156000  0.05330000  1.0 -0.5107487887
N  N60  1  0.99174000  0.43844000  0.99498000  1.0 -0.5107487887
N  N61  1  0.44346000  0.00502000  0.49676000  1.0 -0.5107487887
N  N62  1  0.00826000  0.94670000  0.00324000  1.0 -0.5107487887
N  N63  1  0.05654000  0.55330000  0.56156000  1.0 -0.5107487887
N  N64  1  0.49174000  0.49498000  0.93844000  1.0 -0.5107487887
N  N65  1  0.00502000  0.49676000  0.44346000  1.0 -0.5107487887
N  N66  1  0.94670000  0.00324000  0.00826000  1.0 -0.5107487887
N  N67  1  0.55330000  0.56156000  0.05654000  1.0 -0.5107487887
N  N68  1  0.49498000  0.93844000  0.49174000  1.0 -0.5107487887
N  N69  1  0.49676000  0.44346000  0.00502000  1.0 -0.5107487887
N  N70  1  0.00324000  0.00826000  0.94670000  1.0 -0.5107487887
N  N71  1  0.56156000  0.05654000  0.55330000  1.0 -0.5107487887
N  N72  1  0.93844000  0.49174000  0.49498000  1.0 -0.5107487887
N  N73  1  0.71091000  0.69447000  0.99794000  1.0 -0.260756366
N  N74  1  0.19653000  0.71297000  0.50206000  1.0 -0.260756366
N  N75  1  0.30347000  0.80553000  0.51644000  1.0 -0.260756366
N  N76  1  0.78909000  0.78703000  0.98356000  1.0 -0.260756366
N  N77  1  0.99794000  0.71091000  0.69447000  1.0 -0.260756366
N  N78  1  0.50206000  0.19653000  0.71297000  1.0 -0.260756366
N  N79  1  0.51644000  0.30347000  0.80553000  1.0 -0.260756366
N  N80  1  0.98356000  0.78909000  0.78703000  1.0 -0.260756366
N  N81  1  0.69447000  0.99794000  0.71091000  1.0 -0.260756366
N  N82  1  0.71297000  0.50206000  0.19653000  1.0 -0.260756366
N  N83  1  0.80553000  0.51644000  0.30347000  1.0 -0.260756366
N  N84  1  0.78703000  0.98356000  0.78909000  1.0 -0.260756366
N  N85  1  0.19447000  0.21091000  0.49794000  1.0 -0.260756366
N  N86  1  0.21297000  0.69653000  0.00206000  1.0 -0.260756366
N  N87  1  0.30553000  0.80347000  0.01644000  1.0 -0.260756366
N  N88  1  0.28703000  0.28909000  0.48356000  1.0 -0.260756366
N  N89  1  0.21091000  0.49794000  0.19447000  1.0 -0.260756366
N  N90  1  0.69653000  0.00206000  0.21297000  1.0 -0.260756366
N  N91  1  0.80347000  0.01644000  0.30553000  1.0 -0.260756366
N  N92  1  0.28909000  0.48356000  0.28703000  1.0 -0.260756366
N  N93  1  0.49794000  0.19447000  0.21091000  1.0 -0.260756366
N  N94  1  0.00206000  0.21297000  0.69653000  1.0 -0.260756366
N  N95  1  0.01644000  0.30553000  0.80347000  1.0 -0.260756366
N  N96  1  0.48356000  0.28703000  0.28909000  1.0 -0.260756366
N  N97  1  0.67806000  0.59519000  0.98019000  1.0 -0.045565351
N  N98  1  0.11500000  0.69787000  0.51981000  1.0 -0.0377689304
N  N99  1  0.38500000  0.90481000  0.58287000  1.0 -0.0377689304
N  N100  1  0.82194000  0.80213000  0.91713000  1.0 -0.045565351
N  N101  1  0.98019000  0.67806000  0.59519000  1.0 -0.045565351
N  N102  1  0.51981000  0.11500000  0.69787000  1.0 -0.045565351
N  N103  1  0.58287000  0.38500000  0.90481000  1.0 -0.045565351
N  N104  1  0.91713000  0.82194000  0.80213000  1.0 -0.045565351
N  N105  1  0.59519000  0.98019000  0.67806000  1.0 -0.045565351
N  N106  1  0.69787000  0.51981000  0.11500000  1.0 -0.045565351
N  N107  1  0.90481000  0.58287000  0.38500000  1.0 -0.045565351
N  N108  1  0.80213000  0.91713000  0.82194000  1.0 -0.045565351
N  N109  1  0.09519000  0.17806000  0.48019000  1.0 -0.045565351
N  N110  1  0.19787000  0.61500000  0.01981000  1.0 -0.0377689304
N  N111  1  0.40481000  0.88500000  0.08287000  1.0 -0.045565351
N  N112  1  0.30213000  0.32194000  0.41713000  1.0 -0.045565351
N  N113  1  0.17806000  0.48019000  0.09519000  1.0 -0.045565351
N  N114  1  0.61500000  0.01981000  0.19787000  1.0 -0.0377689304
N  N115  1  0.88500000  0.08287000  0.40481000  1.0 -0.045565351
N  N116  1  0.32194000  0.41713000  0.30213000  1.0 -0.045565351
N  N117  1  0.48019000  0.09519000  0.17806000  1.0 -0.045565351
N  N118  1  0.01981000  0.19787000  0.61500000  1.0 -0.045565351
N  N119  1  0.08287000  0.40481000  0.88500000  1.0 -0.045565351
N  N120  1  0.41713000  0.30213000  0.32194000  1.0 -0.045565351
N  N121  1  0.68570000  0.56000000  0.05330000  1.0 -0.4995208171
N  N122  1  0.00670000  0.63240000  0.44670000  1.0 -0.4995208171
N  N123  1  0.49330000  0.94000000  0.62570000  1.0 -0.4995208171
N  N124  1  0.81430000  0.86760000  0.87430000  1.0 -0.4995208171
N  N125  1  0.05330000  0.68570000  0.56000000  1.0 -0.4995208171
N  N126  1  0.44670000  0.00670000  0.63240000  1.0 -0.4995208171
N  N127  1  0.62570000  0.49330000  0.94000000  1.0 -0.4995208171
N  N128  1  0.87430000  0.81430000  0.86760000  1.0 -0.4995208171
N  N129  1  0.56000000  0.05330000  0.68570000  1.0 -0.4995208171
N  N130  1  0.63240000  0.44670000  0.00670000  1.0 -0.4995208171
N  N131  1  0.94000000  0.62570000  0.49330000  1.0 -0.4995208171
N  N132  1  0.86760000  0.87430000  0.81430000  1.0 -0.4995208171
N  N133  1  0.06000000  0.18570000  0.55330000  1.0 -0.4995208171
N  N134  1  0.13240000  0.50670000  0.94670000  1.0 -0.4995208171
N  N135  1  0.44000000  0.99330000  0.12570000  1.0 -0.4995208171
N  N136  1  0.36760000  0.31430000  0.37430000  1.0 -0.4995208171
N  N137  1  0.18570000  0.55330000  0.06000000  1.0 -0.4995208171
N  N138  1  0.50670000  0.94670000  0.13240000  1.0 -0.4995208171
N  N139  1  0.99330000  0.12570000  0.44000000  1.0 -0.4995208171
N  N140  1  0.31430000  0.37430000  0.36760000  1.0 -0.4995208171
N  N141  1  0.55330000  0.06000000  0.18570000  1.0 -0.4995208171
N  N142  1  0.94670000  0.13240000  0.50670000  1.0 -0.4995208171
N  N143  1  0.12570000  0.44000000  0.99330000  1.0 -0.4995208171
N  N144  1  0.37430000  0.36760000  0.31430000  1.0 -0.4995208171
