# DDEC6 charges by PACMAN v1.1 (https://github.com/mtap-research/PACMAN-charge/)
data_HUBQEC_ion_pacman
_symmetry_space_group_name_H-M   'P 1'
_cell_length_a   22.28070000
_cell_length_b   22.28070000
_cell_length_c   12.60440000
_cell_angle_alpha   90.00000000
_cell_angle_beta   90.00000000
_cell_angle_gamma   120.00000000
_symmetry_Int_Tables_number   1
_chemical_formula_structural   Cu6Mo48P3H144C108(N12O35)4
_chemical_formula_sum   'Cu6 Mo48 P3 H144 C108 N48 O140'
_cell_volume   5418.89169322
_cell_formula_units_Z   1
loop_
 _symmetry_equiv_pos_site_id
 _symmetry_equiv_pos_as_xyz
  1  'x, y, z'
loop_
 _atom_site_type_symbol
 _atom_site_label
 _atom_site_symmetry_multiplicity
 _atom_site_fract_x
 _atom_site_fract_y
 _atom_site_fract_z
 _atom_site_occupancy
 _atom_site_charge
Cu  Cu1  1  0.20851000  0.36943000  0.83003000  1.0 0.7067860464
Cu  Cu2  1  0.63057000  0.83908000  0.83003000  1.0 0.7067860464
Cu  Cu3  1  0.16092000  0.79149000  0.83003000  1.0 0.7067860464
Cu  Cu4  1  0.79149000  0.63057000  0.16997000  1.0 0.7067860464
Cu  Cu5  1  0.36943000  0.16092000  0.16997000  1.0 0.7067860464
Cu  Cu6  1  0.83908000  0.20851000  0.16997000  1.0 0.7067860464
Mo  Mo1  1  0.13950000  0.16130000  0.91480000  1.0 1.0066307484
Mo  Mo2  1  0.83870000  0.97820000  0.91480000  1.0 1.0034437477
Mo  Mo3  1  0.02180000  0.86050000  0.91480000  1.0 1.0066307484
Mo  Mo4  1  0.86050000  0.83870000  0.08520000  1.0 1.0034437477
Mo  Mo5  1  0.16130000  0.02180000  0.08520000  1.0 1.0034437477
Mo  Mo6  1  0.97820000  0.13950000  0.08520000  1.0 1.0034437477
Mo  Mo7  1  0.97398000  0.10071000  0.80720000  1.0 1.119335999
Mo  Mo8  1  0.89929000  0.87327000  0.80720000  1.0 1.119335999
Mo  Mo9  1  0.12673000  0.02602000  0.80720000  1.0 1.119335999
Mo  Mo10  1  0.02602000  0.89929000  0.19280000  1.0 1.119335999
Mo  Mo11  1  0.10071000  0.12673000  0.19280000  1.0 1.119335999
Mo  Mo12  1  0.87327000  0.97398000  0.19280000  1.0 1.119335999
Mo  Mo13  1  0.11650000  0.17170000  0.92930000  1.0 1.0624897181
Mo  Mo14  1  0.82830000  0.94480000  0.92930000  1.0 1.0624897181
Mo  Mo15  1  0.05520000  0.88350000  0.92930000  1.0 1.0624897181
Mo  Mo16  1  0.88350000  0.82830000  0.07070000  1.0 1.0624897181
Mo  Mo17  1  0.17170000  0.05520000  0.07070000  1.0 1.0624897181
Mo  Mo18  1  0.94480000  0.11650000  0.07070000  1.0 1.0624897181
Mo  Mo19  1  0.98150000  0.05150000  0.74210000  1.0 0.5257142484
Mo  Mo20  1  0.94850000  0.93000000  0.74210000  1.0 0.5220449507
Mo  Mo21  1  0.07000000  0.01850000  0.74210000  1.0 0.5220449507
Mo  Mo22  1  0.01850000  0.94850000  0.25790000  1.0 0.5220449507
Mo  Mo23  1  0.05150000  0.07000000  0.25790000  1.0 0.5220449507
Mo  Mo24  1  0.93000000  0.98150000  0.25790000  1.0 0.5220449507
Mo  Mo25  1  0.71045000  0.43621000  0.30045000  1.0 2.252310127
Mo  Mo26  1  0.56379000  0.27424000  0.30045000  1.0 2.252310127
Mo  Mo27  1  0.72576000  0.28955000  0.30045000  1.0 2.252310127
Mo  Mo28  1  0.50846000  0.33662000  0.53567000  1.0 2.1838686168
Mo  Mo29  1  0.66338000  0.17184000  0.53567000  1.0 2.1838686168
Mo  Mo30  1  0.82816000  0.49154000  0.53567000  1.0 2.1838686168
Mo  Mo31  1  0.65946000  0.48966000  0.54945000  1.0 2.1735456883
Mo  Mo32  1  0.51034000  0.16980000  0.54945000  1.0 2.1735456883
Mo  Mo33  1  0.83020000  0.34054000  0.54945000  1.0 2.1735456883
Mo  Mo34  1  0.60554000  0.38002000  0.75981000  1.0 2.2061760127
Mo  Mo35  1  0.61998000  0.22552000  0.75981000  1.0 2.2061760127
Mo  Mo36  1  0.77448000  0.39446000  0.75981000  1.0 2.2061760127
Mo  Mo37  1  0.28955000  0.56379000  0.69955000  1.0 2.252310127
Mo  Mo38  1  0.43621000  0.72576000  0.69955000  1.0 2.252310127
Mo  Mo39  1  0.27424000  0.71045000  0.69955000  1.0 2.252310127
Mo  Mo40  1  0.49154000  0.66338000  0.46433000  1.0 2.1838686168
Mo  Mo41  1  0.33662000  0.82816000  0.46433000  1.0 2.1838686168
Mo  Mo42  1  0.17184000  0.50846000  0.46433000  1.0 2.1838686168
Mo  Mo43  1  0.34054000  0.51034000  0.45055000  1.0 2.1735456883
Mo  Mo44  1  0.48966000  0.83020000  0.45055000  1.0 2.1735456883
Mo  Mo45  1  0.16980000  0.65946000  0.45055000  1.0 2.1735456883
Mo  Mo46  1  0.39446000  0.61998000  0.24019000  1.0 2.2061760127
Mo  Mo47  1  0.38002000  0.77448000  0.24019000  1.0 2.2061760127
Mo  Mo48  1  0.22552000  0.60554000  0.24019000  1.0 2.2061760127
P  P1  1  0.00000000  0.00000000  0.00000000  1.0 0.5875457227
P  P2  1  0.66666667  0.33333333  0.53270000  1.0 1.5081600248
P  P3  1  0.33333333  0.66666667  0.46730000  1.0 1.5081600248
H  H1  1  0.08150000  0.30600000  0.43580000  1.0 0.1111893433
H  H2  1  0.69400000  0.77550000  0.43580000  1.0 0.1111893433
H  H3  1  0.22450000  0.91850000  0.43580000  1.0 0.1111893433
H  H4  1  0.91850000  0.69400000  0.56420000  1.0 0.1111893433
H  H5  1  0.30600000  0.22450000  0.56420000  1.0 0.1111893433
H  H6  1  0.77550000  0.08150000  0.56420000  1.0 0.1111893433
H  H7  1  0.08690000  0.24060000  0.40470000  1.0 0.1111893433
H  H8  1  0.75940000  0.84630000  0.40470000  1.0 0.1111893433
H  H9  1  0.15370000  0.91310000  0.40470000  1.0 0.1111893433
H  H10  1  0.91310000  0.75940000  0.59530000  1.0 0.1111893433
H  H11  1  0.24060000  0.15370000  0.59530000  1.0 0.1111893433
H  H12  1  0.84630000  0.08690000  0.59530000  1.0 0.1111893433
H  H13  1  0.19680000  0.37610000  0.36000000  1.0 0.0995787928
H  H14  1  0.62390000  0.82070000  0.36000000  1.0 0.0995787928
H  H15  1  0.17930000  0.80320000  0.36000000  1.0 0.0995787928
H  H16  1  0.80320000  0.62390000  0.64000000  1.0 0.0995787928
H  H17  1  0.37610000  0.17930000  0.64000000  1.0 0.0995787928
H  H18  1  0.82070000  0.19680000  0.64000000  1.0 0.0995787928
H  H19  1  0.18850000  0.30710000  0.31280000  1.0 0.1111893433
H  H20  1  0.69290000  0.88140000  0.31280000  1.0 0.1111893433
H  H21  1  0.11860000  0.81150000  0.31280000  1.0 0.1111893433
H  H22  1  0.81150000  0.69290000  0.68720000  1.0 0.1111893433
H  H23  1  0.30710000  0.11860000  0.68720000  1.0 0.1111893433
H  H24  1  0.88140000  0.18850000  0.68720000  1.0 0.1111893433
H  H25  1  0.08880000  0.29080000  0.22030000  1.0 0.1111893433
H  H26  1  0.70920000  0.79800000  0.22030000  1.0 0.1111893433
H  H27  1  0.20200000  0.91120000  0.22030000  1.0 0.1111893433
H  H28  1  0.91120000  0.70920000  0.77970000  1.0 0.1111893433
H  H29  1  0.29080000  0.20200000  0.77970000  1.0 0.1111893433
H  H30  1  0.79800000  0.08880000  0.77970000  1.0 0.1111893433
H  H31  1  0.10370000  0.36340000  0.26150000  1.0 0.1111893433
H  H32  1  0.63660000  0.74030000  0.26150000  1.0 0.1111893433
H  H33  1  0.25970000  0.89630000  0.26150000  1.0 0.1111893433
H  H34  1  0.89630000  0.63660000  0.73850000  1.0 0.1111893433
H  H35  1  0.36340000  0.25970000  0.73850000  1.0 0.1111893433
H  H36  1  0.74030000  0.10370000  0.73850000  1.0 0.1111893433
H  H37  1  0.13810000  0.36570000  0.60720000  1.0 0.1111893433
H  H38  1  0.63430000  0.77240000  0.60720000  1.0 0.1111893433
H  H39  1  0.22760000  0.86190000  0.60720000  1.0 0.1111893433
H  H40  1  0.86190000  0.63430000  0.39280000  1.0 0.1111893433
H  H41  1  0.36570000  0.22760000  0.39280000  1.0 0.1111893433
H  H42  1  0.77240000  0.13810000  0.39280000  1.0 0.1111893433
H  H43  1  0.23290000  0.26450000  0.68580000  1.0 0.1111893433
H  H44  1  0.73550000  0.96840000  0.68580000  1.0 0.1111893433
H  H45  1  0.03160000  0.76710000  0.68580000  1.0 0.1111893433
H  H46  1  0.76710000  0.73550000  0.31420000  1.0 0.1111893433
H  H47  1  0.26450000  0.03160000  0.31420000  1.0 0.1111893433
H  H48  1  0.96840000  0.23290000  0.31420000  1.0 0.1111893433
H  H49  1  0.19120000  0.23210000  0.50290000  1.0 0.1297155593
H  H50  1  0.76790000  0.95910000  0.50290000  1.0 0.1297155593
H  H51  1  0.04090000  0.80880000  0.50290000  1.0 0.1297155593
H  H52  1  0.80880000  0.76790000  0.49710000  1.0 0.1297155593
H  H53  1  0.23210000  0.04090000  0.49710000  1.0 0.1297155593
H  H54  1  0.95910000  0.19120000  0.49710000  1.0 0.1297155593
H  H55  1  0.12340000  0.30120000  0.02950000  1.0 0.0885032676
H  H56  1  0.69880000  0.82220000  0.02950000  1.0 0.0885032676
H  H57  1  0.17780000  0.87660000  0.02950000  1.0 0.0885032676
H  H58  1  0.87660000  0.69880000  0.97050000  1.0 0.0885032676
H  H59  1  0.30120000  0.17780000  0.97050000  1.0 0.0885032676
H  H60  1  0.82220000  0.12340000  0.97050000  1.0 0.0885032676
H  H61  1  0.29500000  0.47980000  0.01760000  1.0 0.1356600224
H  H62  1  0.52020000  0.81520000  0.01760000  1.0 0.1356600224
H  H63  1  0.18480000  0.70500000  0.01760000  1.0 0.1356600224
H  H64  1  0.70500000  0.52020000  0.98240000  1.0 0.1356600224
H  H65  1  0.47980000  0.18480000  0.98240000  1.0 0.1356600224
H  H66  1  0.81520000  0.29500000  0.98240000  1.0 0.1356600224
H  H67  1  0.25230000  0.46190000  0.20370000  1.0 0.1459219157
H  H68  1  0.53810000  0.79040000  0.20370000  1.0 0.1459219157
H  H69  1  0.20960000  0.74770000  0.20370000  1.0 0.1459219157
H  H70  1  0.74770000  0.53810000  0.79630000  1.0 0.1459219157
H  H71  1  0.46190000  0.20960000  0.79630000  1.0 0.1459219157
H  H72  1  0.79040000  0.25230000  0.79630000  1.0 0.1459219157
H  H73  1  0.02360000  0.47580000  0.86540000  1.0 0.0995787928
H  H74  1  0.52420000  0.54780000  0.86540000  1.0 0.0995787928
H  H75  1  0.45220000  0.97640000  0.86540000  1.0 0.0995787928
H  H76  1  0.97640000  0.52420000  0.13460000  1.0 0.0995787928
H  H77  1  0.47580000  0.45220000  0.13460000  1.0 0.0995787928
H  H78  1  0.54780000  0.02360000  0.13460000  1.0 0.0995787928
H  H79  1  0.95790000  0.41630000  0.80880000  1.0 0.1205524346
H  H80  1  0.58370000  0.54160000  0.80880000  1.0 0.1205524346
H  H81  1  0.45840000  0.04210000  0.80880000  1.0 0.1205524346
H  H82  1  0.04210000  0.58370000  0.19120000  1.0 0.1205524346
H  H83  1  0.41630000  0.45840000  0.19120000  1.0 0.1205524346
H  H84  1  0.54160000  0.95790000  0.19120000  1.0 0.1205524346
H  H85  1  0.01600000  0.45180000  0.64590000  1.0 0.1297155593
H  H86  1  0.54820000  0.56420000  0.64590000  1.0 0.1297155593
H  H87  1  0.43580000  0.98400000  0.64590000  1.0 0.1297155593
H  H88  1  0.98400000  0.54820000  0.35410000  1.0 0.1297155593
H  H89  1  0.45180000  0.43580000  0.35410000  1.0 0.1297155593
H  H90  1  0.56420000  0.01600000  0.35410000  1.0 0.1297155593
H  H91  1  0.07920000  0.51310000  0.70400000  1.0 0.1205524346
H  H92  1  0.48690000  0.56610000  0.70400000  1.0 0.1205524346
H  H93  1  0.43390000  0.92080000  0.70400000  1.0 0.1205524346
H  H94  1  0.92080000  0.48690000  0.29600000  1.0 0.1205524346
H  H95  1  0.51310000  0.43390000  0.29600000  1.0 0.1205524346
H  H96  1  0.56610000  0.07920000  0.29600000  1.0 0.1205524346
H  H97  1  0.00300000  0.54620000  0.62060000  1.0 0.1297155593
H  H98  1  0.45380000  0.45680000  0.62060000  1.0 0.1297155593
H  H99  1  0.54320000  0.99700000  0.62060000  1.0 0.1297155593
H  H100  1  0.99700000  0.45380000  0.37940000  1.0 0.1297155593
H  H101  1  0.54620000  0.54320000  0.37940000  1.0 0.1297155593
H  H102  1  0.45680000  0.00300000  0.37940000  1.0 0.1297155593
H  H103  1  0.94570000  0.49920000  0.70220000  1.0 0.1205524346
H  H104  1  0.50080000  0.44650000  0.70220000  1.0 0.1205524346
H  H105  1  0.55350000  0.05430000  0.70220000  1.0 0.1205524346
H  H106  1  0.05430000  0.50080000  0.29780000  1.0 0.1205524346
H  H107  1  0.49920000  0.55350000  0.29780000  1.0 0.1205524346
H  H108  1  0.44650000  0.94570000  0.29780000  1.0 0.1205524346
H  H109  1  0.13770000  0.46040000  0.84660000  1.0 0.1205524346
H  H110  1  0.53960000  0.67730000  0.84660000  1.0 0.1205524346
H  H111  1  0.32270000  0.86230000  0.84660000  1.0 0.1205524346
H  H112  1  0.86230000  0.53960000  0.15340000  1.0 0.1205524346
H  H113  1  0.46040000  0.32270000  0.15340000  1.0 0.1205524346
H  H114  1  0.67730000  0.13770000  0.15340000  1.0 0.1205524346
H  H115  1  0.04250000  0.26260000  0.79690000  1.0 0.1111893433
H  H116  1  0.73740000  0.77990000  0.79690000  1.0 0.1111893433
H  H117  1  0.22010000  0.95750000  0.79690000  1.0 0.1111893433
H  H118  1  0.95750000  0.73740000  0.20310000  1.0 0.1111893433
H  H119  1  0.26260000  0.22010000  0.20310000  1.0 0.1111893433
H  H120  1  0.77990000  0.04250000  0.20310000  1.0 0.1111893433
H  H121  1  0.95940000  0.30410000  0.77840000  1.0 0.1297155593
H  H122  1  0.69590000  0.65530000  0.77840000  1.0 0.1297155593
H  H123  1  0.34470000  0.04060000  0.77840000  1.0 0.1297155593
H  H124  1  0.04060000  0.69590000  0.22160000  1.0 0.1297155593
H  H125  1  0.30410000  0.34470000  0.22160000  1.0 0.1297155593
H  H126  1  0.65530000  0.95940000  0.22160000  1.0 0.1297155593
H  H127  1  0.10300000  0.66240000  0.68830000  1.0 0.1205524346
H  H128  1  0.33760000  0.44060000  0.68830000  1.0 0.1205524346
H  H129  1  0.55940000  0.89700000  0.68830000  1.0 0.1205524346
H  H130  1  0.89700000  0.33760000  0.31170000  1.0 0.1205524346
H  H131  1  0.66240000  0.55940000  0.31170000  1.0 0.1205524346
H  H132  1  0.44060000  0.10300000  0.31170000  1.0 0.1205524346
H  H133  1  0.02140000  0.66970000  0.95920000  1.0 0.1111893433
H  H134  1  0.33030000  0.35170000  0.95920000  1.0 0.1111893433
H  H135  1  0.64830000  0.97860000  0.95920000  1.0 0.1111893433
H  H136  1  0.97860000  0.33030000  0.04080000  1.0 0.1111893433
H  H137  1  0.66970000  0.64830000  0.04080000  1.0 0.1111893433
H  H138  1  0.35170000  0.02140000  0.04080000  1.0 0.1111893433
H  H139  1  0.95090000  0.55420000  0.88770000  1.0 0.1297155593
H  H140  1  0.44580000  0.39670000  0.88770000  1.0 0.1297155593
H  H141  1  0.60330000  0.04910000  0.88770000  1.0 0.1297155593
H  H142  1  0.04910000  0.44580000  0.11230000  1.0 0.1297155593
H  H143  1  0.55420000  0.60330000  0.11230000  1.0 0.1297155593
H  H144  1  0.39670000  0.95090000  0.11230000  1.0 0.1297155593
C  C1  1  0.11350000  0.28920000  0.42420000  1.0 -0.1006506328
C  C2  1  0.71080000  0.82430000  0.42420000  1.0 -0.1006506328
C  C3  1  0.17570000  0.88650000  0.42420000  1.0 -0.1006506328
C  C4  1  0.88650000  0.71080000  0.57580000  1.0 -0.1006506328
C  C5  1  0.28920000  0.17570000  0.57580000  1.0 -0.1006506328
C  C6  1  0.82430000  0.11350000  0.57580000  1.0 -0.1006506328
C  C7  1  0.16340000  0.33020000  0.33460000  1.0 -0.2079223553
C  C8  1  0.66980000  0.83320000  0.33460000  1.0 -0.2079223553
C  C9  1  0.16680000  0.83660000  0.33460000  1.0 -0.2079223553
C  C10  1  0.83660000  0.66980000  0.66540000  1.0 -0.2079223553
C  C11  1  0.33020000  0.16680000  0.66540000  1.0 -0.2079223553
C  C12  1  0.83320000  0.16340000  0.66540000  1.0 -0.2079223553
C  C13  1  0.12520000  0.33650000  0.24110000  1.0 -0.111986138
C  C14  1  0.66350000  0.78870000  0.24110000  1.0 -0.111986138
C  C15  1  0.21130000  0.87480000  0.24110000  1.0 -0.111986138
C  C16  1  0.87480000  0.66350000  0.75890000  1.0 -0.111986138
C  C17  1  0.33650000  0.21130000  0.75890000  1.0 -0.111986138
C  C18  1  0.78870000  0.12520000  0.75890000  1.0 -0.111986138
C  C19  1  0.15760000  0.33740000  0.60480000  1.0 0.0885032676
C  C20  1  0.66260000  0.82020000  0.60480000  1.0 0.0885032676
C  C21  1  0.17980000  0.84240000  0.60480000  1.0 0.0885032676
C  C22  1  0.84240000  0.66260000  0.39520000  1.0 0.0885032676
C  C23  1  0.33740000  0.17980000  0.39520000  1.0 0.0885032676
C  C24  1  0.82020000  0.15760000  0.39520000  1.0 0.0885032676
C  C25  1  0.20970000  0.28210000  0.64700000  1.0 -0.040004422
C  C26  1  0.71790000  0.92760000  0.64700000  1.0 -0.040004422
C  C27  1  0.07240000  0.79030000  0.64700000  1.0 -0.040004422
C  C28  1  0.79030000  0.71790000  0.35300000  1.0 -0.040004422
C  C29  1  0.28210000  0.07240000  0.35300000  1.0 -0.040004422
C  C30  1  0.92760000  0.20970000  0.35300000  1.0 -0.040004422
C  C31  1  0.18560000  0.26280000  0.54600000  1.0 -0.0679262207
C  C32  1  0.73720000  0.92280000  0.54600000  1.0 -0.0679262207
C  C33  1  0.07720000  0.81440000  0.54600000  1.0 -0.0679262207
C  C34  1  0.81440000  0.73720000  0.45400000  1.0 -0.0679262207
C  C35  1  0.26280000  0.07720000  0.45400000  1.0 -0.0679262207
C  C36  1  0.92280000  0.18560000  0.45400000  1.0 -0.0679262207
C  C37  1  0.16090000  0.34350000  0.04970000  1.0 0.0771022736
C  C38  1  0.65650000  0.81740000  0.04970000  1.0 0.0771022736
C  C39  1  0.18260000  0.83910000  0.04970000  1.0 0.0771022736
C  C40  1  0.83910000  0.65650000  0.95030000  1.0 0.0771022736
C  C41  1  0.34350000  0.18260000  0.95030000  1.0 0.0771022736
C  C42  1  0.81740000  0.16090000  0.95030000  1.0 0.0771022736
C  C43  1  0.25510000  0.44140000  0.04300000  1.0 -0.028941686
C  C44  1  0.55860000  0.81370000  0.04300000  1.0 -0.028941686
C  C45  1  0.18630000  0.74490000  0.04300000  1.0 -0.028941686
C  C46  1  0.74490000  0.55860000  0.95700000  1.0 -0.028941686
C  C47  1  0.44140000  0.18630000  0.95700000  1.0 -0.028941686
C  C48  1  0.81370000  0.25510000  0.95700000  1.0 -0.028941686
C  C49  1  0.23120000  0.43170000  0.14720000  1.0 -0.0775100962
C  C50  1  0.56830000  0.79950000  0.14720000  1.0 -0.0775100962
C  C51  1  0.20050000  0.76880000  0.14720000  1.0 -0.0775100962
C  C52  1  0.76880000  0.56830000  0.85280000  1.0 -0.0775100962
C  C53  1  0.43170000  0.20050000  0.85280000  1.0 -0.0775100962
C  C54  1  0.79950000  0.23120000  0.85280000  1.0 -0.0775100962
C  C55  1  0.00810000  0.44400000  0.80570000  1.0 -0.117249844
C  C56  1  0.55600000  0.56410000  0.80570000  1.0 -0.117249844
C  C57  1  0.43590000  0.99190000  0.80570000  1.0 -0.117249844
C  C58  1  0.99190000  0.55600000  0.19430000  1.0 -0.117249844
C  C59  1  0.44400000  0.43590000  0.19430000  1.0 -0.117249844
C  C60  1  0.56410000  0.00810000  0.19430000  1.0 -0.117249844
C  C61  1  0.02920000  0.48370000  0.70510000  1.0 -0.2079223553
C  C62  1  0.51630000  0.54550000  0.70510000  1.0 -0.2079223553
C  C63  1  0.45450000  0.97080000  0.70510000  1.0 -0.2079223553
C  C64  1  0.97080000  0.51630000  0.29490000  1.0 -0.2079223553
C  C65  1  0.48370000  0.45450000  0.29490000  1.0 -0.2079223553
C  C66  1  0.54550000  0.02920000  0.29490000  1.0 -0.2079223553
C  C67  1  0.99530000  0.52870000  0.69270000  1.0 -0.1006506328
C  C68  1  0.47130000  0.46660000  0.69270000  1.0 -0.1006506328
C  C69  1  0.53340000  0.00470000  0.69270000  1.0 -0.1006506328
C  C70  1  0.00470000  0.47130000  0.30730000  1.0 -0.1006506328
C  C71  1  0.52870000  0.53340000  0.30730000  1.0 -0.1006506328
C  C72  1  0.46660000  0.99530000  0.30730000  1.0 -0.1006506328
C  C73  1  0.10330000  0.41550000  0.82990000  1.0 0.1205524346
C  C74  1  0.58450000  0.68780000  0.82990000  1.0 0.1205524346
C  C75  1  0.31220000  0.89670000  0.82990000  1.0 0.1205524346
C  C76  1  0.89670000  0.58450000  0.17010000  1.0 0.1205524346
C  C77  1  0.41550000  0.31220000  0.17010000  1.0 0.1205524346
C  C78  1  0.68780000  0.10330000  0.17010000  1.0 0.1205524346
C  C79  1  0.05250000  0.30830000  0.80300000  1.0 -0.028941686
C  C80  1  0.69170000  0.74420000  0.80300000  1.0 -0.028941686
C  C81  1  0.25580000  0.94750000  0.80300000  1.0 -0.028941686
C  C82  1  0.94750000  0.69170000  0.19700000  1.0 -0.028941686
C  C83  1  0.30830000  0.25580000  0.19700000  1.0 -0.028941686
C  C84  1  0.74420000  0.05250000  0.19700000  1.0 -0.028941686
C  C85  1  0.00620000  0.33150000  0.79440000  1.0 -0.0775100962
C  C86  1  0.66850000  0.67470000  0.79440000  1.0 -0.0775100962
C  C87  1  0.32530000  0.99380000  0.79440000  1.0 -0.0775100962
C  C88  1  0.99380000  0.66850000  0.20560000  1.0 -0.0775100962
C  C89  1  0.33150000  0.32530000  0.20560000  1.0 -0.0775100962
C  C90  1  0.67470000  0.00620000  0.20560000  1.0 -0.0775100962
C  C91  1  0.07470000  0.65010000  0.74800000  1.0 0.0995787928
C  C92  1  0.34990000  0.42460000  0.74800000  1.0 0.0995787928
C  C93  1  0.57540000  0.92530000  0.74800000  1.0 0.0995787928
C  C94  1  0.92530000  0.34990000  0.25200000  1.0 0.0995787928
C  C95  1  0.65010000  0.57540000  0.25200000  1.0 0.0995787928
C  C96  1  0.42460000  0.07470000  0.25200000  1.0 0.0995787928
C  C97  1  0.02950000  0.65370000  0.89570000  1.0 -0.040004422
C  C98  1  0.34630000  0.37580000  0.89570000  1.0 -0.040004422
C  C99  1  0.62420000  0.97050000  0.89570000  1.0 -0.040004422
C  C100  1  0.97050000  0.34630000  0.10430000  1.0 -0.040004422
C  C101  1  0.65370000  0.62420000  0.10430000  1.0 -0.040004422
C  C102  1  0.37580000  0.02950000  0.10430000  1.0 -0.040004422
C  C103  1  0.99060000  0.59010000  0.85690000  1.0 -0.111986138
C  C104  1  0.40990000  0.40050000  0.85690000  1.0 -0.111986138
C  C105  1  0.59950000  0.00940000  0.85690000  1.0 -0.111986138
C  C106  1  0.00940000  0.40990000  0.14310000  1.0 -0.111986138
C  C107  1  0.59010000  0.59950000  0.14310000  1.0 -0.111986138
C  C108  1  0.40050000  0.99060000  0.14310000  1.0 -0.111986138
N  N1  1  0.15230000  0.29670000  0.52160000  1.0 0.0568027645
N  N2  1  0.70330000  0.85560000  0.52160000  1.0 0.0568027645
N  N3  1  0.14440000  0.84770000  0.52160000  1.0 0.0568027645
N  N4  1  0.84770000  0.70330000  0.47840000  1.0 0.0568027645
N  N5  1  0.29670000  0.14440000  0.47840000  1.0 0.0568027645
N  N6  1  0.85560000  0.15230000  0.47840000  1.0 0.0568027645
N  N7  1  0.19480000  0.33150000  0.68300000  1.0 -0.3100370467
N  N8  1  0.66850000  0.86330000  0.68300000  1.0 -0.3100370467
N  N9  1  0.13670000  0.80520000  0.68300000  1.0 -0.3100370467
N  N10  1  0.80520000  0.66850000  0.31700000  1.0 -0.3100370467
N  N11  1  0.33150000  0.13670000  0.31700000  1.0 -0.3100370467
N  N12  1  0.86330000  0.19480000  0.31700000  1.0 -0.3100370467
N  N13  1  0.17140000  0.37010000  0.15040000  1.0 0.0390485077
N  N14  1  0.62990000  0.80130000  0.15040000  1.0 0.0390485077
N  N15  1  0.19870000  0.82860000  0.15040000  1.0 0.0390485077
N  N16  1  0.82860000  0.62990000  0.84960000  1.0 0.0390485077
N  N17  1  0.37010000  0.19870000  0.84960000  1.0 0.0390485077
N  N18  1  0.80130000  0.17140000  0.84960000  1.0 0.0390485077
N  N19  1  0.21060000  0.38580000  0.98520000  1.0 -0.2906457832
N  N20  1  0.61420000  0.82480000  0.98520000  1.0 -0.2906457832
N  N21  1  0.17520000  0.78940000  0.98520000  1.0 -0.2906457832
N  N22  1  0.78940000  0.61420000  0.01480000  1.0 -0.2906457832
N  N23  1  0.38580000  0.17520000  0.01480000  1.0 -0.2906457832
N  N24  1  0.82480000  0.21060000  0.01480000  1.0 -0.2906457832
N  N25  1  0.03840000  0.39850000  0.81240000  1.0 0.0286876236
N  N26  1  0.60150000  0.63990000  0.81240000  1.0 0.0286876236
N  N27  1  0.36010000  0.96160000  0.81240000  1.0 0.0286876236
N  N28  1  0.96160000  0.60150000  0.18760000  1.0 0.0286876236
N  N29  1  0.39850000  0.36010000  0.18760000  1.0 0.0286876236
N  N30  1  0.63990000  0.03840000  0.18760000  1.0 0.0286876236
N  N31  1  0.11530000  0.36410000  0.82200000  1.0 -0.2906457832
N  N32  1  0.63590000  0.75120000  0.82200000  1.0 -0.2906457832
N  N33  1  0.24880000  0.88470000  0.82200000  1.0 -0.2906457832
N  N34  1  0.88470000  0.63590000  0.17800000  1.0 -0.2906457832
N  N35  1  0.36410000  0.24880000  0.17800000  1.0 -0.2906457832
N  N36  1  0.75120000  0.11530000  0.17800000  1.0 -0.2906457832
N  N37  1  0.01940000  0.58760000  0.76530000  1.0 0.0455878364
N  N38  1  0.41240000  0.43180000  0.76530000  1.0 0.0455878364
N  N39  1  0.56820000  0.98060000  0.76530000  1.0 0.0455878364
N  N40  1  0.98060000  0.41240000  0.23470000  1.0 0.0455878364
N  N41  1  0.58760000  0.56820000  0.23470000  1.0 0.0455878364
N  N42  1  0.43180000  0.01940000  0.23470000  1.0 0.0455878364
N  N43  1  0.08330000  0.69200000  0.82830000  1.0 -0.2778874686
N  N44  1  0.30800000  0.39130000  0.82830000  1.0 -0.2778874686
N  N45  1  0.60870000  0.91670000  0.82830000  1.0 -0.2778874686
N  N46  1  0.91670000  0.30800000  0.17170000  1.0 -0.2778874686
N  N47  1  0.69200000  0.60870000  0.17170000  1.0 -0.2778874686
N  N48  1  0.39130000  0.08330000  0.17170000  1.0 -0.2778874686
O  O1  1  0.06800000  0.13330000  0.80130000  1.0 -0.4682267706
O  O2  1  0.86670000  0.93470000  0.80130000  1.0 -0.4682267706
O  O3  1  0.06530000  0.93200000  0.80130000  1.0 -0.4682267706
O  O4  1  0.93200000  0.86670000  0.19870000  1.0 -0.4682267706
O  O5  1  0.13330000  0.06530000  0.19870000  1.0 -0.4682267706
O  O6  1  0.93470000  0.06800000  0.19870000  1.0 -0.4682267706
O  O7  1  0.14080000  0.17720000  0.06430000  1.0 -0.4328984967
O  O8  1  0.82280000  0.96360000  0.06430000  1.0 -0.4328984967
O  O9  1  0.03640000  0.85920000  0.06430000  1.0 -0.4328984967
O  O10  1  0.85920000  0.82280000  0.93570000  1.0 -0.4328984967
O  O11  1  0.17720000  0.03640000  0.93570000  1.0 -0.4328984967
O  O12  1  0.96360000  0.14080000  0.93570000  1.0 -0.4328984967
O  O13  1  0.20980000  0.23710000  0.88200000  1.0 -0.3465694736
O  O14  1  0.76290000  0.97270000  0.88200000  1.0 -0.3465694736
O  O15  1  0.02730000  0.79020000  0.88200000  1.0 -0.3465694736
O  O16  1  0.79020000  0.76290000  0.11800000  1.0 -0.3465694736
O  O17  1  0.23710000  0.02730000  0.11800000  1.0 -0.3465694736
O  O18  1  0.97270000  0.20980000  0.11800000  1.0 -0.3465694736
O  O19  1  0.88710000  0.02430000  0.80320000  1.0 -0.4751256109
O  O20  1  0.97570000  0.86280000  0.80320000  1.0 -0.4751256109
O  O21  1  0.13720000  0.11290000  0.80320000  1.0 -0.4751256109
O  O22  1  0.11290000  0.97570000  0.19680000  1.0 -0.4751256109
O  O23  1  0.02430000  0.13720000  0.19680000  1.0 -0.4751256109
O  O24  1  0.86280000  0.88710000  0.19680000  1.0 -0.4751256109
O  O25  1  0.96470000  0.15390000  0.72200000  1.0 -0.5341305038
O  O26  1  0.84610000  0.81080000  0.72200000  1.0 -0.5341305038
O  O27  1  0.18920000  0.03530000  0.72200000  1.0 -0.5341305038
O  O28  1  0.03530000  0.84610000  0.27800000  1.0 -0.5341305038
O  O29  1  0.15390000  0.18920000  0.27800000  1.0 -0.5341305038
O  O30  1  0.81080000  0.96470000  0.27800000  1.0 -0.5341305038
O  O31  1  0.04700000  0.04900000  0.90500000  1.0 -0.2079223553
O  O32  1  0.95100000  0.99800000  0.90500000  1.0 -0.2079223553
O  O33  1  0.00200000  0.95300000  0.90500000  1.0 -0.2079223553
O  O34  1  0.95300000  0.95100000  0.09500000  1.0 -0.2079223553
O  O35  1  0.04900000  0.00200000  0.09500000  1.0 -0.2079223553
O  O36  1  0.99800000  0.04700000  0.09500000  1.0 -0.2045034618
O  O37  1  0.16600000  0.14000000  0.01800000  1.0 -0.3826734325
O  O38  1  0.86000000  0.02600000  0.01800000  1.0 -0.3826734325
O  O39  1  0.97400000  0.83400000  0.01800000  1.0 -0.3826734325
O  O40  1  0.83400000  0.86000000  0.98200000  1.0 -0.3826734325
O  O41  1  0.14000000  0.97400000  0.98200000  1.0 -0.3826734325
O  O42  1  0.02600000  0.16600000  0.98200000  1.0 -0.3826734325
O  O43  1  0.16000000  0.25260000  0.87800000  1.0 -0.3465694736
O  O44  1  0.74740000  0.90740000  0.87800000  1.0 -0.3465694736
O  O45  1  0.09260000  0.84000000  0.87800000  1.0 -0.3465694736
O  O46  1  0.84000000  0.74740000  0.12200000  1.0 -0.3465694736
O  O47  1  0.25260000  0.09260000  0.12200000  1.0 -0.3465694736
O  O48  1  0.90740000  0.16000000  0.12200000  1.0 -0.3465694736
O  O49  1  0.97000000  0.07100000  0.61600000  1.0 -0.4888528487
O  O50  1  0.92900000  0.89900000  0.61600000  1.0 -0.4888528487
O  O51  1  0.10100000  0.03000000  0.61600000  1.0 -0.4888528487
O  O52  1  0.03000000  0.92900000  0.38400000  1.0 -0.4888528487
O  O53  1  0.07100000  0.10100000  0.38400000  1.0 -0.4888528487
O  O54  1  0.89900000  0.97000000  0.38400000  1.0 -0.4888528487
O  O55  1  0.01500000  0.07280000  0.97000000  1.0 -0.1629713625
O  O56  1  0.92720000  0.94220000  0.97000000  1.0 -0.1629713625
O  O57  1  0.05780000  0.98500000  0.97000000  1.0 -0.1629713625
O  O58  1  0.98500000  0.92720000  0.03000000  1.0 -0.1629713625
O  O59  1  0.07280000  0.05780000  0.03000000  1.0 -0.1629713625
O  O60  1  0.94220000  0.01500000  0.03000000  1.0 -0.1629713625
O  O61  1  0.66666667  0.33333333  0.40980000  1.0 -0.9448376299
O  O62  1  0.62640000  0.36870000  0.57240000  1.0 -0.9448376299
O  O63  1  0.63130000  0.25770000  0.57240000  1.0 -0.9448376299
O  O64  1  0.74230000  0.37360000  0.57240000  1.0 -0.9448376299
O  O65  1  0.66900000  0.46660000  0.39900000  1.0 -0.8799446524
O  O66  1  0.53340000  0.20240000  0.39900000  1.0 -0.8799446524
O  O67  1  0.79760000  0.33100000  0.39900000  1.0 -0.8799446524
O  O68  1  0.78840000  0.47050000  0.39400000  1.0 -0.8853353561
O  O69  1  0.52950000  0.31790000  0.39400000  1.0 -0.8853353561
O  O70  1  0.68210000  0.21160000  0.39400000  1.0 -0.8853353561
O  O71  1  0.74550000  0.37690000  0.24280000  1.0 -0.8682343563
O  O72  1  0.62310000  0.36860000  0.24280000  1.0 -0.8682343563
O  O73  1  0.63140000  0.25450000  0.24280000  1.0 -0.8682343563
O  O74  1  0.73930000  0.49920000  0.20570000  1.0 -0.7032076419
O  O75  1  0.50080000  0.24010000  0.20570000  1.0 -0.7032076419
O  O76  1  0.75990000  0.26070000  0.20570000  1.0 -0.7032076419
O  O77  1  0.55970000  0.43180000  0.51350000  1.0 -0.844305724
O  O78  1  0.56820000  0.12790000  0.51350000  1.0 -0.844305724
O  O79  1  0.87210000  0.44030000  0.51350000  1.0 -0.844305724
O  O80  1  0.63510000  0.47210000  0.68960000  1.0 -0.8509944281
O  O81  1  0.52790000  0.16300000  0.68960000  1.0 -0.8509944281
O  O82  1  0.83700000  0.36490000  0.68960000  1.0 -0.8509944281
O  O83  1  0.66850000  0.56820000  0.53120000  1.0 -0.6300172508
O  O84  1  0.43180000  0.10030000  0.53120000  1.0 -0.6300172508
O  O85  1  0.89970000  0.33150000  0.53120000  1.0 -0.6300172508
O  O86  1  0.51760000  0.34810000  0.68460000  1.0 -0.8682343563
O  O87  1  0.65190000  0.16950000  0.68460000  1.0 -0.8682343563
O  O88  1  0.83050000  0.48240000  0.68460000  1.0 -0.8682343563
O  O89  1  0.49280000  0.24210000  0.56320000  1.0 -0.8624159992
O  O90  1  0.75790000  0.25070000  0.56320000  1.0 -0.8624159992
O  O91  1  0.74930000  0.50720000  0.56320000  1.0 -0.8624159992
O  O92  1  0.42640000  0.32100000  0.51890000  1.0 -0.6565758289
O  O93  1  0.67900000  0.10540000  0.51890000  1.0 -0.6565758289
O  O94  1  0.89460000  0.57360000  0.51890000  1.0 -0.6565758289
O  O95  1  0.70240000  0.41270000  0.77890000  1.0 -0.8509944281
O  O96  1  0.58730000  0.28970000  0.77890000  1.0 -0.8509944281
O  O97  1  0.71030000  0.29760000  0.77890000  1.0 -0.8509944281
O  O98  1  0.58280000  0.39970000  0.88400000  1.0 -0.7156325877
O  O99  1  0.60030000  0.18310000  0.88400000  1.0 -0.7156325877
O  O100  1  0.81690000  0.41720000  0.88400000  1.0 -0.7156325877
O  O101  1  0.33333333  0.66666667  0.59020000  1.0 -0.9448376299
O  O102  1  0.37360000  0.63130000  0.42760000  1.0 -0.9448376299
O  O103  1  0.36870000  0.74230000  0.42760000  1.0 -0.9448376299
O  O104  1  0.25770000  0.62640000  0.42760000  1.0 -0.9448376299
O  O105  1  0.33100000  0.53340000  0.60100000  1.0 -0.8799446524
O  O106  1  0.46660000  0.79760000  0.60100000  1.0 -0.8799446524
O  O107  1  0.20240000  0.66900000  0.60100000  1.0 -0.8799446524
O  O108  1  0.21160000  0.52950000  0.60600000  1.0 -0.8853353561
O  O109  1  0.47050000  0.68210000  0.60600000  1.0 -0.8853353561
O  O110  1  0.31790000  0.78840000  0.60600000  1.0 -0.8853353561
O  O111  1  0.25450000  0.62310000  0.75720000  1.0 -0.8682343563
O  O112  1  0.37690000  0.63140000  0.75720000  1.0 -0.8682343563
O  O113  1  0.36860000  0.74550000  0.75720000  1.0 -0.8682343563
O  O114  1  0.26070000  0.50080000  0.79430000  1.0 -0.7032076419
O  O115  1  0.49920000  0.75990000  0.79430000  1.0 -0.7032076419
O  O116  1  0.24010000  0.73930000  0.79430000  1.0 -0.7032076419
O  O117  1  0.44030000  0.56820000  0.48650000  1.0 -0.844305724
O  O118  1  0.43180000  0.87210000  0.48650000  1.0 -0.844305724
O  O119  1  0.12790000  0.55970000  0.48650000  1.0 -0.844305724
O  O120  1  0.36490000  0.52790000  0.31040000  1.0 -0.8509944281
O  O121  1  0.47210000  0.83700000  0.31040000  1.0 -0.8509944281
O  O122  1  0.16300000  0.63510000  0.31040000  1.0 -0.8509944281
O  O123  1  0.33150000  0.43180000  0.46880000  1.0 -0.6300172508
O  O124  1  0.56820000  0.89970000  0.46880000  1.0 -0.6300172508
O  O125  1  0.10030000  0.66850000  0.46880000  1.0 -0.6300172508
O  O126  1  0.48240000  0.65190000  0.31540000  1.0 -0.8682343563
O  O127  1  0.34810000  0.83050000  0.31540000  1.0 -0.8682343563
O  O128  1  0.16950000  0.51760000  0.31540000  1.0 -0.8682343563
O  O129  1  0.50720000  0.75790000  0.43680000  1.0 -0.8624159992
O  O130  1  0.24210000  0.74930000  0.43680000  1.0 -0.8624159992
O  O131  1  0.25070000  0.49280000  0.43680000  1.0 -0.8624159992
O  O132  1  0.57360000  0.67900000  0.48110000  1.0 -0.6565758289
O  O133  1  0.32100000  0.89460000  0.48110000  1.0 -0.6565758289
O  O134  1  0.10540000  0.42640000  0.48110000  1.0 -0.6565758289
O  O135  1  0.29760000  0.58730000  0.22110000  1.0 -0.8509944281
O  O136  1  0.41270000  0.71030000  0.22110000  1.0 -0.8509944281
O  O137  1  0.28970000  0.70240000  0.22110000  1.0 -0.8509944281
O  O138  1  0.41720000  0.60030000  0.11600000  1.0 -0.7156325877
O  O139  1  0.39970000  0.81690000  0.11600000  1.0 -0.7156325877
O  O140  1  0.18310000  0.58280000  0.11600000  1.0 -0.7156325877
