# DDEC6 charges by PACMAN v1.1 (https://github.com/mtap-research/PACMAN-charge/)
data_HUCFAO_ASR_pacman
_symmetry_space_group_name_H-M   'P 1'
_cell_length_a   8.91470000
_cell_length_b   12.71500000
_cell_length_c   21.22600000
_cell_angle_alpha   90.21000000
_cell_angle_beta   94.14000000
_cell_angle_gamma   91.29000000
_symmetry_Int_Tables_number   1
_chemical_formula_structural   Mn3H25C24(N2O7)3
_chemical_formula_sum   'Mn6 H50 C48 N12 O42'
_cell_volume   2399.05575898
_cell_formula_units_Z   2
loop_
 _symmetry_equiv_pos_site_id
 _symmetry_equiv_pos_as_xyz
  1  'x, y, z'
loop_
 _atom_site_type_symbol
 _atom_site_label
 _atom_site_symmetry_multiplicity
 _atom_site_fract_x
 _atom_site_fract_y
 _atom_site_fract_z
 _atom_site_occupancy
 _atom_site_charge
Mn  Mn1  1  0.60220000  0.27080000  0.23740000  1.0 1.0112874219
Mn  Mn2  1  0.39780000  0.72920000  0.76260000  1.0 1.0112874219
Mn  Mn3  1  0.97410000  0.36080000  0.24690000  1.0 1.0021091112
Mn  Mn4  1  0.02590000  0.63920000  0.75310000  1.0 1.0021091112
Mn  Mn5  1  0.27950000  0.14510000  0.26260000  1.0 1.1049656579
Mn  Mn6  1  0.72050000  0.85490000  0.73740000  1.0 1.1049656579
H  H1  1  0.11520000  0.16520000  0.36130000  1.0 0.3722385624
H  H2  1  0.88480000  0.83480000  0.63870000  1.0 0.3722385624
H  H3  1  0.19220000  0.95620000  0.28730000  1.0 0.3722385624
H  H4  1  0.80780000  0.04380000  0.71270000  1.0 0.3722385624
H  H5  1  0.11200000  0.43490000  0.14520000  1.0 0.3787399838
H  H6  1  0.88800000  0.56510000  0.85480000  1.0 0.3787399838
H  H7  1  0.51000000  0.01410000  0.39710000  1.0 0.1597283521
H  H8  1  0.49000000  0.98590000  0.60290000  1.0 0.1597283521
H  H9  1  0.42640000  0.96500000  0.33580000  1.0 0.1522461893
H  H10  1  0.57360000  0.03500000  0.66420000  1.0 0.1522461893
H  H11  1  0.65590000  0.86910000  0.32180000  1.0 0.1305646324
H  H12  1  0.34410000  0.13090000  0.67820000  1.0 0.1305646324
H  H13  1  0.71050000  0.90470000  0.39080000  1.0 0.1196915859
H  H14  1  0.28950000  0.09530000  0.60920000  1.0 0.1196915859
H  H15  1  0.27790000  0.61930000  0.29340000  1.0 0.1196915859
H  H16  1  0.72210000  0.38070000  0.70660000  1.0 0.1196915859
H  H17  1  0.21620000  0.56030000  0.35110000  1.0 0.1196915859
H  H18  1  0.78380000  0.43970000  0.64890000  1.0 0.1196915859
H  H19  1  0.47250000  0.50190000  0.28760000  1.0 0.169197307
H  H20  1  0.52750000  0.49810000  0.71240000  1.0 0.169197307
H  H21  1  0.44060000  0.45220000  0.35270000  1.0 0.1597283521
H  H22  1  0.55940000  0.54780000  0.64730000  1.0 0.1597283521
H  H23  1  0.49870000  0.72060000  0.56860000  1.0 0.1305646324
H  H24  1  0.50130000  0.27940000  0.43140000  1.0 0.1305646324
H  H25  1  0.43900000  0.60640000  0.55280000  1.0 0.1106278012
H  H26  1  0.56100000  0.39360000  0.44720000  1.0 0.1106278012
H  H27  1  0.25150000  0.78330000  0.56300000  1.0 0.1597283521
H  H28  1  0.74850000  0.21670000  0.43700000  1.0 0.1597283521
H  H29  1  0.18700000  0.67320000  0.54090000  1.0 0.1522461893
H  H30  1  0.81300000  0.32680000  0.45910000  1.0 0.1522461893
H  H31  1  0.01790000  0.01270000  0.18010000  1.0 0.1522461893
H  H32  1  0.98210000  0.98730000  0.81990000  1.0 0.1522461893
H  H33  1  0.74660000  0.08790000  0.13040000  1.0 0.1305646324
H  H34  1  0.25340000  0.91210000  0.86960000  1.0 0.1305646324
H  H35  1  0.72010000  0.02050000  0.19090000  1.0 0.135650427
H  H36  1  0.27990000  0.97950000  0.80910000  1.0 0.135650427
H  H37  1  0.81300000  0.79710000  0.93590000  1.0 0.1305646324
H  H38  1  0.18700000  0.20290000  0.06410000  1.0 0.1305646324
H  H39  1  0.78160000  0.91850000  0.93960000  1.0 0.1305646324
H  H40  1  0.21840000  0.08150000  0.06040000  1.0 0.1305646324
H  H41  1  0.51960000  0.81950000  0.97190000  1.0 0.1522461893
H  H42  1  0.48040000  0.18050000  0.02810000  1.0 0.1522461893
H  H43  1  0.91200000  0.65850000  0.18180000  1.0 0.1196915859
H  H44  1  0.08800000  0.34150000  0.81820000  1.0 0.1196915859
H  H45  1  0.88420000  0.60060000  0.11640000  1.0 0.1196915859
H  H46  1  0.11580000  0.39940000  0.88360000  1.0 0.1196915859
H  H47  1  0.64900000  0.64900000  0.19500000  1.0 0.1597283521
H  H48  1  0.35100000  0.35100000  0.80500000  1.0 0.1597283521
H  H49  1  0.62220000  0.59000000  0.13000000  1.0 0.1597283521
H  H50  1  0.37780000  0.41000000  0.87000000  1.0 0.1597283521
C  C1  1  0.60100000  0.06700000  0.31530000  1.0 0.6551288078
C  C2  1  0.39900000  0.93300000  0.68470000  1.0 0.6551288078
C  C3  1  0.52400000  0.98500000  0.35600000  1.0 -0.3492706111
C  C4  1  0.47600000  0.01500000  0.64400000  1.0 -0.3492706111
C  C5  1  0.62200000  0.88900000  0.36300000  1.0 -0.0316202138
C  C6  1  0.37800000  0.11100000  0.63700000  1.0 -0.0316202138
C  C7  1  0.51900000  0.78800000  0.45400000  1.0 0.5425604412
C  C8  1  0.48100000  0.21200000  0.54600000  1.0 0.5425604412
C  C9  1  0.46900000  0.73400000  0.34700000  1.0 0.5425604412
C  C10  1  0.53100000  0.26600000  0.65300000  1.0 0.5425604412
C  C11  1  0.38000000  0.62700000  0.43800000  1.0 0.5306084165
C  C12  1  0.62000000  0.37300000  0.56200000  1.0 0.5306084165
C  C13  1  0.30700000  0.58200000  0.33200000  1.0 0.0209643221
C  C14  1  0.69300000  0.41800000  0.66800000  1.0 0.0209643221
C  C15  1  0.39300000  0.48100000  0.31400000  1.0 -0.3894377491
C  C16  1  0.60700000  0.51900000  0.68600000  1.0 -0.3894377491
C  C17  1  0.30100000  0.40100000  0.28260000  1.0 0.667749227
C  C18  1  0.69900000  0.59900000  0.71740000  1.0 0.667749227
C  C19  1  0.42200000  0.68000000  0.54390000  1.0 -0.0316202138
C  C20  1  0.57800000  0.32000000  0.45610000  1.0 -0.0316202138
C  C21  1  0.26400000  0.70800000  0.56900000  1.0 -0.308969318
C  C22  1  0.73600000  0.29200000  0.43100000  1.0 -0.308969318
C  C23  1  0.23000000  0.68200000  0.63730000  1.0 0.6477828929
C  C24  1  0.77000000  0.31800000  0.36270000  1.0 0.6477828929
C  C25  1  0.94200000  0.16600000  0.21120000  1.0 0.639474224
C  C26  1  0.05800000  0.83400000  0.78880000  1.0 0.6341256807
C  C27  1  0.93600000  0.05700000  0.18200000  1.0 -0.2607808849
C  C28  1  0.06400000  0.94300000  0.81800000  1.0 -0.2607808849
C  C29  1  0.78600000  0.03100000  0.15700000  1.0 -0.0377975283
C  C30  1  0.21400000  0.96900000  0.84300000  1.0 -0.0377975283
C  C31  1  0.77800000  0.94200000  0.05500000  1.0 0.5495934555
C  C32  1  0.22200000  0.05800000  0.94500000  1.0 0.5495934555
C  C33  1  0.80900000  0.84100000  0.15100000  1.0 0.5495934555
C  C34  1  0.19100000  0.15900000  0.84900000  1.0 0.5495934555
C  C35  1  0.80100000  0.75000000  0.05000000  1.0 0.5495934555
C  C36  1  0.19900000  0.25000000  0.95000000  1.0 0.5425604412
C  C37  1  0.75400000  0.85000000  0.95500000  1.0 -0.0377975283
C  C38  1  0.24600000  0.15000000  0.04500000  1.0 -0.0377975283
C  C39  1  0.59200000  0.82800000  0.94300000  1.0 -0.308969318
C  C40  1  0.40800000  0.17200000  0.05700000  1.0 -0.308969318
C  C41  1  0.57100000  0.82100000  0.87200000  1.0 0.639474224
C  C42  1  0.42900000  0.17900000  0.12800000  1.0 0.639474224
C  C43  1  0.84100000  0.64900000  0.14500000  1.0 -0.0238942169
C  C44  1  0.15900000  0.35100000  0.85500000  1.0 -0.0238942169
C  C45  1  0.69300000  0.60000000  0.16700000  1.0 -0.3185057929
C  C46  1  0.30700000  0.40000000  0.83300000  1.0 -0.3185057929
C  C47  1  0.71800000  0.49500000  0.20000000  1.0 0.6188083598
C  C48  1  0.28200000  0.50500000  0.80000000  1.0 0.6188083598
N  N1  1  0.39100000  0.65000000  0.37320000  1.0 -0.2392989865
N  N2  1  0.60900000  0.35000000  0.62680000  1.0 -0.2392989865
N  N3  1  0.44300000  0.69800000  0.47540000  1.0 -0.2221738687
N  N4  1  0.55700000  0.30200000  0.52460000  1.0 -0.2221738687
N  N5  1  0.53400000  0.79800000  0.38880000  1.0 -0.2312548211
N  N6  1  0.46600000  0.20200000  0.61120000  1.0 -0.2312548211
N  N7  1  0.79500000  0.93400000  0.11960000  1.0 -0.2312548211
N  N8  1  0.20500000  0.06600000  0.88040000  1.0 -0.2312548211
N  N9  1  0.81600000  0.75100000  0.11390000  1.0 -0.2392989865
N  N10  1  0.18400000  0.24900000  0.88610000  1.0 -0.2392989865
N  N11  1  0.77800000  0.84700000  0.02280000  1.0 -0.2312548211
N  N12  1  0.22200000  0.15300000  0.97720000  1.0 -0.2392989865
O  O1  1  0.16700000  0.42800000  0.27670000  1.0 -0.4926780552
O  O2  1  0.83300000  0.57200000  0.72330000  1.0 -0.4926780552
O  O3  1  0.51700000  0.12600000  0.28110000  1.0 -0.5685098261
O  O4  1  0.48300000  0.87400000  0.71890000  1.0 -0.5685098261
O  O5  1  0.73900000  0.07500000  0.31410000  1.0 -0.4926780552
O  O6  1  0.26100000  0.92500000  0.68590000  1.0 -0.4957033486
O  O7  1  0.09600000  0.66400000  0.65600000  1.0 -0.5892265281
O  O8  1  0.90400000  0.33600000  0.34400000  1.0 -0.5892265281
O  O9  1  0.33800000  0.68100000  0.67190000  1.0 -0.4843837163
O  O10  1  0.66200000  0.31900000  0.32810000  1.0 -0.4843837163
O  O11  1  0.35900000  0.31400000  0.26540000  1.0 -0.5892265281
O  O12  1  0.64100000  0.68600000  0.73460000  1.0 -0.5892265281
O  O13  1  0.48200000  0.74900000  0.29110000  1.0 -0.4283279469
O  O14  1  0.51800000  0.25100000  0.70890000  1.0 -0.4283279469
O  O15  1  0.57000000  0.84900000  0.48860000  1.0 -0.3781306436
O  O16  1  0.43000000  0.15100000  0.51140000  1.0 -0.3781306436
O  O17  1  0.31700000  0.55000000  0.45750000  1.0 -0.4368799729
O  O18  1  0.68300000  0.45000000  0.54250000  1.0 -0.4368799729
O  O19  1  0.83600000  0.23200000  0.20420000  1.0 -0.4957033486
O  O20  1  0.16400000  0.76800000  0.79580000  1.0 -0.4957033486
O  O21  1  0.05300000  0.18900000  0.24040000  1.0 -0.3978832802
O  O22  1  0.94700000  0.81100000  0.75960000  1.0 -0.3978832802
O  O23  1  0.81500000  0.83700000  0.20730000  1.0 -0.4368799729
O  O24  1  0.18500000  0.16300000  0.79270000  1.0 -0.4368799729
O  O25  1  0.76000000  0.02500000  0.02970000  1.0 -0.4368799729
O  O26  1  0.24000000  0.97500000  0.97030000  1.0 -0.4368799729
O  O27  1  0.80400000  0.66900000  0.01960000  1.0 -0.4368799729
O  O28  1  0.19600000  0.33100000  0.98040000  1.0 -0.4368799729
O  O29  1  0.46200000  0.77100000  0.85570000  1.0 -0.4283279469
O  O30  1  0.53800000  0.22900000  0.14430000  1.0 -0.4283279469
O  O31  1  0.66500000  0.86600000  0.83550000  1.0 -0.5769863417
O  O32  1  0.33500000  0.13400000  0.16450000  1.0 -0.5685098261
O  O33  1  0.62500000  0.42500000  0.19230000  1.0 -0.4726791671
O  O34  1  0.37500000  0.57500000  0.80770000  1.0 -0.4726791671
O  O35  1  0.83000000  0.48800000  0.23230000  1.0 -0.4573425045
O  O36  1  0.17000000  0.51200000  0.76770000  1.0 -0.4573425045
O  O37  1  0.20600000  0.15600000  0.36250000  1.0 -0.7890404156
O  O38  1  0.79400000  0.84400000  0.63750000  1.0 -0.7890404156
O  O39  1  0.24000000  0.97500000  0.25800000  1.0 -0.7994540921
O  O40  1  0.76000000  0.02500000  0.74200000  1.0 -0.7994540921
O  O41  1  0.07100000  0.37700000  0.14800000  1.0 -0.78106895
O  O42  1  0.92900000  0.62300000  0.85200000  1.0 -0.78106895
