# DDEC6 charges by PACMAN v1.1 (https://github.com/mtap-research/PACMAN-charge/)
data_HUGYUG_ion_pacman
_symmetry_space_group_name_H-M   'P 1'
_cell_length_a   21.59800000
_cell_length_b   10.31350000
_cell_length_c   29.69120000
_cell_angle_alpha   90.00000000
_cell_angle_beta   125.85700000
_cell_angle_gamma   90.00000000
_symmetry_Int_Tables_number   1
_chemical_formula_structural   MnH40C60(NO)7
_chemical_formula_sum   'Mn4 H160 C240 N28 O28'
_cell_volume   5360.31677249
_cell_formula_units_Z   4
loop_
 _symmetry_equiv_pos_site_id
 _symmetry_equiv_pos_as_xyz
  1  'x, y, z'
loop_
 _atom_site_type_symbol
 _atom_site_label
 _atom_site_symmetry_multiplicity
 _atom_site_fract_x
 _atom_site_fract_y
 _atom_site_fract_z
 _atom_site_occupancy
 _atom_site_charge
Mn  Mn1  1  0.51196000  0.63932000  0.95861000  1.0 0.8538900175
Mn  Mn2  1  0.48804000  0.13932000  0.54139000  1.0 0.8538900175
Mn  Mn3  1  0.48804000  0.36068000  0.04139000  1.0 0.8538900175
Mn  Mn4  1  0.51196000  0.86068000  0.45861000  1.0 0.8538900175
H  H1  1  0.68068000  0.00595000  0.49290000  1.0 0.1306443313
H  H2  1  0.72366000  0.27441000  0.60447000  1.0 0.1204171771
H  H3  1  0.84899000  0.28334000  0.63469000  1.0 0.1106313871
H  H4  1  0.80616000  0.01461000  0.52314000  1.0 0.1204171771
H  H5  1  0.51304000  0.88462000  0.02171000  1.0 0.1204171771
H  H6  1  0.65974000  0.08504000  0.18189000  1.0 0.1375745916
H  H7  1  0.58920000  0.02409000  0.09284000  1.0 0.1497170487
H  H8  1  0.86972000  0.22908000  0.28741000  1.0 0.1204171771
H  H9  1  0.17081000  0.02850000  0.63277000  1.0 0.1204171771
H  H10  1  0.76543000  0.78577000  0.14357000  1.0 0.1306443313
H  H11  1  0.25678000  0.45913000  0.78555000  1.0 0.1306443313
H  H12  1  0.57158000  0.33884000  0.24691000  1.0 0.1106313871
H  H13  1  0.51171000  0.49922000  0.35646000  1.0 0.1204171771
H  H14  1  0.18840000  0.29736000  0.73610000  1.0 0.1306443313
H  H15  1  0.66551000  0.77341000  0.39513000  1.0 0.1204171771
H  H16  1  0.68331000  0.65250000  0.07077000  1.0 0.1106313871
H  H17  1  0.71334000  0.65086000  0.35733000  1.0 0.1106313871
H  H18  1  0.33709000  0.59483000  0.85733000  1.0 0.1106313871
H  H19  1  0.55926000  0.37560000  0.31876000  1.0 0.1106313871
H  H20  1  0.78331000  0.46470000  0.36327000  1.0 0.1306443313
H  H21  1  0.10938000  0.20290000  0.34471000  1.0 0.1106313871
H  H22  1  0.83008000  0.33212000  0.32765000  1.0 0.1106313871
H  H23  1  0.22931000  0.92443000  0.60591000  1.0 0.1306443313
H  H24  1  0.42527000  0.06937000  0.73473000  1.0 0.1306443313
H  H25  1  0.05519000  0.96925000  0.22959000  1.0 0.1106313871
H  H26  1  0.98716000  0.21523000  0.31842000  1.0 0.1306443313
H  H27  1  0.92994000  0.96383000  0.19985000  1.0 0.1306443313
H  H28  1  0.61795000  0.21341000  0.20898000  1.0 0.1204171771
H  H29  1  0.43919000  0.25573000  0.82401000  1.0 0.1375745916
H  H30  1  0.51392000  0.39847000  0.89497000  1.0 0.1106313871
H  H31  1  0.29748000  0.81120000  0.58238000  1.0 0.1204171771
H  H32  1  0.48687000  0.95127000  0.70702000  1.0 0.1021054545
H  H33  1  0.93287000  0.96616000  0.58601000  1.0 0.1204171771
H  H34  1  0.06849000  0.34795000  0.66096000  1.0 0.1106313871
H  H35  1  0.94172000  0.33839000  0.62427000  1.0 0.1306443313
H  H36  1  0.06275000  0.96997000  0.62522000  1.0 0.1106313871
H  H37  1  0.04280000  0.09876000  0.57647000  1.0 0.1021054545
H  H38  1  0.91608000  0.10670000  0.53814000  1.0 0.1204171771
H  H39  1  0.96055000  0.20629000  0.68358000  1.0 0.1106313871
H  H40  1  0.08936000  0.20698000  0.72299000  1.0 0.1106313871
H  H41  1  0.31932000  0.50595000  0.00710000  1.0 0.1306443313
H  H42  1  0.27634000  0.77441000  0.89553000  1.0 0.1204171771
H  H43  1  0.15101000  0.78334000  0.86531000  1.0 0.1106313871
H  H44  1  0.19384000  0.51461000  0.97686000  1.0 0.1204171771
H  H45  1  0.48696000  0.38462000  0.47829000  1.0 0.1204171771
H  H46  1  0.34026000  0.58504000  0.31811000  1.0 0.1375745916
H  H47  1  0.41080000  0.52409000  0.40716000  1.0 0.1497170487
H  H48  1  0.13028000  0.72908000  0.21259000  1.0 0.1204171771
H  H49  1  0.82919000  0.52850000  0.86723000  1.0 0.1204171771
H  H50  1  0.23457000  0.28577000  0.35643000  1.0 0.1306443313
H  H51  1  0.74322000  0.95913000  0.71445000  1.0 0.1306443313
H  H52  1  0.42842000  0.83884000  0.25309000  1.0 0.1106313871
H  H53  1  0.48829000  0.99922000  0.14354000  1.0 0.1204171771
H  H54  1  0.81160000  0.79736000  0.76390000  1.0 0.1306443313
H  H55  1  0.33449000  0.27341000  0.10487000  1.0 0.1204171771
H  H56  1  0.31669000  0.15250000  0.42923000  1.0 0.1106313871
H  H57  1  0.28666000  0.15086000  0.14267000  1.0 0.1106313871
H  H58  1  0.66291000  0.09483000  0.64267000  1.0 0.1106313871
H  H59  1  0.44074000  0.87560000  0.18124000  1.0 0.1106313871
H  H60  1  0.21669000  0.96470000  0.13673000  1.0 0.1306443313
H  H61  1  0.89062000  0.70290000  0.15529000  1.0 0.1106313871
H  H62  1  0.16992000  0.83212000  0.17235000  1.0 0.1106313871
H  H63  1  0.77069000  0.42443000  0.89409000  1.0 0.1306443313
H  H64  1  0.57473000  0.56937000  0.76527000  1.0 0.1306443313
H  H65  1  0.94481000  0.46925000  0.27041000  1.0 0.1021054545
H  H66  1  0.01284000  0.71523000  0.18158000  1.0 0.1306443313
H  H67  1  0.07006000  0.46383000  0.30015000  1.0 0.1306443313
H  H68  1  0.38205000  0.71341000  0.29102000  1.0 0.1204171771
H  H69  1  0.56081000  0.75573000  0.67599000  1.0 0.1375745916
H  H70  1  0.48608000  0.89847000  0.60503000  1.0 0.1106313871
H  H71  1  0.70252000  0.31120000  0.91762000  1.0 0.1204171771
H  H72  1  0.51313000  0.45127000  0.79298000  1.0 0.1021054545
H  H73  1  0.06713000  0.46616000  0.91399000  1.0 0.1204171771
H  H74  1  0.93151000  0.84795000  0.83904000  1.0 0.1106313871
H  H75  1  0.05828000  0.83839000  0.87573000  1.0 0.1306443313
H  H76  1  0.93725000  0.46997000  0.87478000  1.0 0.1106313871
H  H77  1  0.95720000  0.59876000  0.92353000  1.0 0.1021054545
H  H78  1  0.08392000  0.60670000  0.96186000  1.0 0.1204171771
H  H79  1  0.03945000  0.70629000  0.81642000  1.0 0.1106313871
H  H80  1  0.91064000  0.70698000  0.77701000  1.0 0.1106313871
H  H81  1  0.31932000  0.99405000  0.50710000  1.0 0.1306443313
H  H82  1  0.27634000  0.72559000  0.39553000  1.0 0.1204171771
H  H83  1  0.15101000  0.71666000  0.36531000  1.0 0.1106313871
H  H84  1  0.19384000  0.98539000  0.47686000  1.0 0.1204171771
H  H85  1  0.48696000  0.11538000  0.97829000  1.0 0.1204171771
H  H86  1  0.34026000  0.91496000  0.81811000  1.0 0.1375745916
H  H87  1  0.41080000  0.97591000  0.90716000  1.0 0.1497170487
H  H88  1  0.13028000  0.77092000  0.71259000  1.0 0.1204171771
H  H89  1  0.82919000  0.97150000  0.36723000  1.0 0.1204171771
H  H90  1  0.23457000  0.21423000  0.85643000  1.0 0.1306443313
H  H91  1  0.74322000  0.54087000  0.21445000  1.0 0.1306443313
H  H92  1  0.42842000  0.66116000  0.75309000  1.0 0.1106313871
H  H93  1  0.48829000  0.50078000  0.64354000  1.0 0.1204171771
H  H94  1  0.81160000  0.70264000  0.26390000  1.0 0.1306443313
H  H95  1  0.33449000  0.22659000  0.60487000  1.0 0.1204171771
H  H96  1  0.31669000  0.34750000  0.92923000  1.0 0.1106313871
H  H97  1  0.28666000  0.34914000  0.64267000  1.0 0.1106313871
H  H98  1  0.66291000  0.40517000  0.14267000  1.0 0.1106313871
H  H99  1  0.44074000  0.62440000  0.68124000  1.0 0.1106313871
H  H100  1  0.21669000  0.53530000  0.63673000  1.0 0.1306443313
H  H101  1  0.89062000  0.79710000  0.65529000  1.0 0.1106313871
H  H102  1  0.16992000  0.66788000  0.67235000  1.0 0.1106313871
H  H103  1  0.77069000  0.07557000  0.39409000  1.0 0.1306443313
H  H104  1  0.57473000  0.93063000  0.26527000  1.0 0.1306443313
H  H105  1  0.94481000  0.03075000  0.77041000  1.0 0.1106313871
H  H106  1  0.01284000  0.78477000  0.68158000  1.0 0.1306443313
H  H107  1  0.07006000  0.03617000  0.80015000  1.0 0.1306443313
H  H108  1  0.38205000  0.78659000  0.79102000  1.0 0.1204171771
H  H109  1  0.56081000  0.74427000  0.17599000  1.0 0.1375745916
H  H110  1  0.48608000  0.60153000  0.10503000  1.0 0.1106313871
H  H111  1  0.70252000  0.18880000  0.41762000  1.0 0.1204171771
H  H112  1  0.51313000  0.04873000  0.29298000  1.0 0.1021054545
H  H113  1  0.06713000  0.03384000  0.41399000  1.0 0.1204171771
H  H114  1  0.93151000  0.65205000  0.33904000  1.0 0.1106313871
H  H115  1  0.05828000  0.66161000  0.37573000  1.0 0.1306443313
H  H116  1  0.93725000  0.03003000  0.37478000  1.0 0.1106313871
H  H117  1  0.95720000  0.90124000  0.42353000  1.0 0.1021054545
H  H118  1  0.08392000  0.89330000  0.46186000  1.0 0.1204171771
H  H119  1  0.03945000  0.79371000  0.31642000  1.0 0.1106313871
H  H120  1  0.91064000  0.79302000  0.27701000  1.0 0.1106313871
H  H121  1  0.68068000  0.49405000  0.99290000  1.0 0.1306443313
H  H122  1  0.72366000  0.22559000  0.10447000  1.0 0.1204171771
H  H123  1  0.84899000  0.21666000  0.13469000  1.0 0.1106313871
H  H124  1  0.80616000  0.48539000  0.02314000  1.0 0.1204171771
H  H125  1  0.51304000  0.61538000  0.52171000  1.0 0.1204171771
H  H126  1  0.65974000  0.41496000  0.68189000  1.0 0.1375745916
H  H127  1  0.58920000  0.47591000  0.59284000  1.0 0.1497170487
H  H128  1  0.86972000  0.27092000  0.78741000  1.0 0.1204171771
H  H129  1  0.17081000  0.47150000  0.13277000  1.0 0.1204171771
H  H130  1  0.76543000  0.71423000  0.64357000  1.0 0.1306443313
H  H131  1  0.25678000  0.04087000  0.28555000  1.0 0.1306443313
H  H132  1  0.57158000  0.16116000  0.74691000  1.0 0.1106313871
H  H133  1  0.51171000  0.00078000  0.85646000  1.0 0.1204171771
H  H134  1  0.18840000  0.20264000  0.23610000  1.0 0.1306443313
H  H135  1  0.66551000  0.72659000  0.89513000  1.0 0.1204171771
H  H136  1  0.68331000  0.84750000  0.57077000  1.0 0.1106313871
H  H137  1  0.71334000  0.84914000  0.85733000  1.0 0.1106313871
H  H138  1  0.33709000  0.90517000  0.35733000  1.0 0.1106313871
H  H139  1  0.55926000  0.12440000  0.81876000  1.0 0.1106313871
H  H140  1  0.78331000  0.03530000  0.86327000  1.0 0.1306443313
H  H141  1  0.10938000  0.29710000  0.84471000  1.0 0.1106313871
H  H142  1  0.83008000  0.16788000  0.82765000  1.0 0.1106313871
H  H143  1  0.22931000  0.57557000  0.10591000  1.0 0.1306443313
H  H144  1  0.42527000  0.43063000  0.23473000  1.0 0.1306443313
H  H145  1  0.05519000  0.53075000  0.72959000  1.0 0.1106313871
H  H146  1  0.98716000  0.28477000  0.81842000  1.0 0.1306443313
H  H147  1  0.92994000  0.53617000  0.69985000  1.0 0.1306443313
H  H148  1  0.61795000  0.28659000  0.70898000  1.0 0.1204171771
H  H149  1  0.43919000  0.24427000  0.32401000  1.0 0.1375745916
H  H150  1  0.51392000  0.10153000  0.39497000  1.0 0.1106313871
H  H151  1  0.29748000  0.68880000  0.08238000  1.0 0.1204171771
H  H152  1  0.48687000  0.54873000  0.20702000  1.0 0.1021054545
H  H153  1  0.93287000  0.53384000  0.08601000  1.0 0.1204171771
H  H154  1  0.06849000  0.15205000  0.16096000  1.0 0.1106313871
H  H155  1  0.94172000  0.16161000  0.12427000  1.0 0.1306443313
H  H156  1  0.06275000  0.53003000  0.12522000  1.0 0.1106313871
H  H157  1  0.04280000  0.40124000  0.07647000  1.0 0.1021054545
H  H158  1  0.91608000  0.39330000  0.03814000  1.0 0.1204171771
H  H159  1  0.96055000  0.29371000  0.18358000  1.0 0.1106313871
H  H160  1  0.08936000  0.29302000  0.22299000  1.0 0.1106313871
C  C1  1  0.68937000  0.13840000  0.54584000  1.0 -0.026798348
C  C2  1  0.71457000  0.06180000  0.52169000  1.0 -0.0872920445
C  C3  1  0.74013000  0.22150000  0.58806000  1.0 -0.0808695769
C  C4  1  0.81535000  0.22670000  0.60618000  1.0 -0.1495939978
C  C5  1  0.79003000  0.06700000  0.53991000  1.0 -0.1495939978
C  C6  1  0.84149000  0.14860000  0.58243000  1.0 0.0636935958
C  C7  1  0.92343000  0.15280000  0.60433000  1.0 0.0532847813
C  C8  1  0.60954000  0.12720000  0.52984000  1.0 0.5640638777
C  C9  1  0.33840000  0.34000000  0.79589000  1.0 0.0889983782
C  C10  1  0.73938000  0.01110000  0.17412000  1.0 0.2088834217
C  C11  1  0.75906000  0.17390000  0.23975000  1.0 0.1204171771
C  C12  1  0.28848000  0.24900000  0.74957000  1.0 0.2088834217
C  C13  1  0.86027000  0.09260000  0.23523000  1.0 0.2088834217
C  C14  1  0.56472000  0.86510000  0.04634000  1.0 0.0889983782
C  C15  1  0.68773000  0.92380000  0.12685000  1.0 0.0889983782
C  C16  1  0.72980000  0.25780000  0.26421000  1.0 0.0532847813
C  C17  1  0.58330000  0.64850000  0.37995000  1.0 -0.0066096313
C  C18  1  0.71124000  0.08930000  0.19627000  1.0 -0.2216556362
C  C19  1  0.61013000  0.94970000  0.08908000  1.0 -0.1704029218
C  C20  1  0.83518000  0.17380000  0.25864000  1.0 -0.2589963964
C  C21  1  0.55480000  0.72630000  0.40710000  1.0 0.5493284622
C  C22  1  0.67246000  0.41740000  0.30959000  1.0 0.072399564
C  C23  1  0.31925000  0.01160000  0.67341000  1.0 0.0773055434
C  C24  1  0.16492000  0.16100000  0.67987000  1.0 0.1021054545
C  C25  1  0.19989000  0.08420000  0.66284000  1.0 -0.2495204574
C  C26  1  0.27873000  0.09000000  0.69066000  1.0 0.2226886311
C  C27  1  0.71425000  0.80870000  0.11906000  1.0 -0.1704029218
C  C28  1  0.30916000  0.44410000  0.80723000  1.0 -0.1902673472
C  C29  1  0.62368000  0.33920000  0.26296000  1.0 -0.1360507003
C  C30  1  0.55245000  0.53030000  0.35684000  1.0 -0.0959880529
C  C31  1  0.64119000  0.49930000  0.33333333  1.0 0.0773055434
C  C32  1  0.21032000  0.24410000  0.72372000  1.0 -0.2495204574
C  C33  1  0.64396000  0.69300000  0.37970000  1.0 -0.0808695769
C  C34  1  0.66437000  0.72900000  0.07494000  1.0 0.0889983782
C  C35  1  0.08096000  0.15760000  0.65224000  1.0 0.0532847813
C  C36  1  0.67263000  0.61960000  0.35692000  1.0 -0.1316473426
C  C37  1  0.94167000  0.09080000  0.25442000  1.0 0.0889983782
C  C38  1  0.35812000  0.52510000  0.85077000  1.0 0.0773055434
C  C39  1  0.58096000  0.45610000  0.33400000  1.0 -0.1495939978
C  C40  1  0.74964000  0.41330000  0.33255000  1.0 -0.1316473426
C  C41  1  0.07230000  0.15500000  0.31380000  1.0 0.0636935958
C  C42  1  0.77775000  0.33410000  0.31072000  1.0 -0.1495939978
C  C43  1  0.28222000  0.93210000  0.62757000  1.0 -0.1902673472
C  C44  1  0.39727000  0.01730000  0.70326000  1.0 -0.1704029218
C  C45  1  0.04180000  0.02060000  0.24840000  1.0 0.0636935958
C  C46  1  0.99830000  0.16230000  0.29870000  1.0 -0.2287092287
C  C47  1  0.96470000  0.01700000  0.22950000  1.0 -0.1902673472
C  C48  1  0.65169000  0.26260000  0.24048000  1.0 -0.1316473426
C  C49  1  0.41667000  0.32420000  0.82990000  1.0 -0.1704029218
C  C50  1  0.46127000  0.41060000  0.87272000  1.0 0.0889983782
C  C51  1  0.32403000  0.86360000  0.61380000  1.0 0.0889983782
C  C52  1  0.43397000  0.94510000  0.68620000  1.0 0.072399564
C  C53  1  0.96080000  0.04150000  0.60290000  1.0 -0.0640425972
C  C54  1  0.04270000  0.26930000  0.64830000  1.0 -0.0664865515
C  C55  1  0.96600000  0.26270000  0.62540000  1.0 -0.0413399447
C  C56  1  0.03880000  0.04340000  0.62650000  1.0 -0.0808695769
C  C57  1  0.02720000  0.12380000  0.59850000  1.0 -0.0413399447
C  C58  1  0.95050000  0.12570000  0.57570000  1.0 -0.0477953135
C  C59  1  0.97770000  0.18580000  0.66210000  1.0 -0.0959880529
C  C60  1  0.05450000  0.18710000  0.68550000  1.0 -0.0959880529
C  C61  1  0.31063000  0.63840000  0.95416000  1.0 -0.026798348
C  C62  1  0.28543000  0.56180000  0.97831000  1.0 -0.0872920445
C  C63  1  0.25987000  0.72150000  0.91194000  1.0 -0.0808695769
C  C64  1  0.18465000  0.72670000  0.89382000  1.0 -0.1495939978
C  C65  1  0.20997000  0.56700000  0.96009000  1.0 -0.1495939978
C  C66  1  0.15851000  0.64860000  0.91757000  1.0 0.0636935958
C  C67  1  0.07657000  0.65280000  0.89567000  1.0 0.0532847813
C  C68  1  0.39046000  0.62720000  0.97016000  1.0 0.5640638777
C  C69  1  0.66160000  0.84000000  0.70411000  1.0 0.0889983782
C  C70  1  0.26062000  0.51110000  0.32588000  1.0 0.2088834217
C  C71  1  0.24094000  0.67390000  0.26025000  1.0 0.1204171771
C  C72  1  0.71152000  0.74900000  0.75043000  1.0 0.2088834217
C  C73  1  0.13973000  0.59260000  0.26477000  1.0 0.2088834217
C  C74  1  0.43528000  0.36510000  0.45366000  1.0 0.0889983782
C  C75  1  0.31227000  0.42380000  0.37315000  1.0 0.0889983782
C  C76  1  0.27020000  0.75780000  0.23579000  1.0 0.0532847813
C  C77  1  0.41670000  0.14850000  0.12005000  1.0 -0.0066096313
C  C78  1  0.28876000  0.58930000  0.30373000  1.0 -0.2287092287
C  C79  1  0.38987000  0.44970000  0.41092000  1.0 -0.1704029218
C  C80  1  0.16482000  0.67380000  0.24136000  1.0 -0.2589963964
C  C81  1  0.44520000  0.22630000  0.09290000  1.0 0.5493284622
C  C82  1  0.32754000  0.91740000  0.19041000  1.0 0.072399564
C  C83  1  0.68075000  0.51160000  0.82659000  1.0 0.0773055434
C  C84  1  0.83508000  0.66100000  0.82013000  1.0 0.1021054545
C  C85  1  0.80011000  0.58420000  0.83716000  1.0 -0.2495204574
C  C86  1  0.72127000  0.59000000  0.80934000  1.0 0.2226886311
C  C87  1  0.28575000  0.30870000  0.38094000  1.0 -0.1704029218
C  C88  1  0.69084000  0.94410000  0.69277000  1.0 -0.1902673472
C  C89  1  0.37632000  0.83920000  0.23704000  1.0 -0.1360507003
C  C90  1  0.44755000  0.03030000  0.14316000  1.0 -0.0959880529
C  C91  1  0.35881000  0.99930000  0.16667000  1.0 0.0773055434
C  C92  1  0.78968000  0.74410000  0.77628000  1.0 -0.2495204574
C  C93  1  0.35604000  0.19300000  0.12030000  1.0 -0.0808695769
C  C94  1  0.33563000  0.22900000  0.42506000  1.0 0.0889983782
C  C95  1  0.91904000  0.65760000  0.84776000  1.0 0.0532847813
C  C96  1  0.32737000  0.11960000  0.14308000  1.0 -0.1247494659
C  C97  1  0.05833000  0.59080000  0.24558000  1.0 0.0889983782
C  C98  1  0.64188000  0.02510000  0.64923000  1.0 0.0773055434
C  C99  1  0.41904000  0.95610000  0.16600000  1.0 -0.1495939978
C  C100  1  0.25036000  0.91330000  0.16745000  1.0 -0.1316473426
C  C101  1  0.92770000  0.65500000  0.18620000  1.0 0.072399564
C  C102  1  0.22225000  0.83410000  0.18928000  1.0 -0.1495939978
C  C103  1  0.71778000  0.43210000  0.87243000  1.0 -0.1902673472
C  C104  1  0.60273000  0.51730000  0.79674000  1.0 -0.1704029218
C  C105  1  0.95820000  0.52060000  0.25160000  1.0 0.0636935958
C  C106  1  0.00170000  0.66230000  0.20130000  1.0 -0.2287092287
C  C107  1  0.03530000  0.51700000  0.27050000  1.0 -0.1902673472
C  C108  1  0.34831000  0.76260000  0.25952000  1.0 -0.1316473426
C  C109  1  0.58333000  0.82420000  0.67010000  1.0 -0.1704029218
C  C110  1  0.53873000  0.91060000  0.62728000  1.0 0.0889983782
C  C111  1  0.67597000  0.36360000  0.88620000  1.0 0.0889983782
C  C112  1  0.56603000  0.44510000  0.81380000  1.0 0.0773055434
C  C113  1  0.03920000  0.54150000  0.89710000  1.0 -0.0640425972
C  C114  1  0.95730000  0.76930000  0.85170000  1.0 -0.0664865515
C  C115  1  0.03400000  0.76270000  0.87460000  1.0 -0.0413399447
C  C116  1  0.96120000  0.54340000  0.87350000  1.0 -0.0808695769
C  C117  1  0.97280000  0.62380000  0.90150000  1.0 -0.0413399447
C  C118  1  0.04950000  0.62570000  0.92430000  1.0 -0.0477953135
C  C119  1  0.02230000  0.68580000  0.83790000  1.0 -0.0959880529
C  C120  1  0.94550000  0.68710000  0.81450000  1.0 -0.0959880529
C  C121  1  0.31063000  0.86160000  0.45416000  1.0 -0.026798348
C  C122  1  0.28543000  0.93820000  0.47831000  1.0 -0.0872920445
C  C123  1  0.25987000  0.77850000  0.41194000  1.0 -0.0808695769
C  C124  1  0.18465000  0.77330000  0.39382000  1.0 -0.1495939978
C  C125  1  0.20997000  0.93300000  0.46009000  1.0 -0.1495939978
C  C126  1  0.15851000  0.85140000  0.41757000  1.0 0.0636935958
C  C127  1  0.07657000  0.84720000  0.39567000  1.0 0.0532847813
C  C128  1  0.39046000  0.87280000  0.47016000  1.0 0.5640638777
C  C129  1  0.66160000  0.66000000  0.20411000  1.0 0.0889983782
C  C130  1  0.26062000  0.98890000  0.82588000  1.0 0.2088834217
C  C131  1  0.24094000  0.82610000  0.76025000  1.0 0.1204171771
C  C132  1  0.71152000  0.75100000  0.25043000  1.0 0.2088834217
C  C133  1  0.13973000  0.90740000  0.76477000  1.0 0.2088834217
C  C134  1  0.43528000  0.13490000  0.95366000  1.0 0.0889983782
C  C135  1  0.31227000  0.07620000  0.87315000  1.0 0.0889983782
C  C136  1  0.27020000  0.74220000  0.73579000  1.0 0.0532847813
C  C137  1  0.41670000  0.35150000  0.62005000  1.0 -0.0066096313
C  C138  1  0.28876000  0.91070000  0.80373000  1.0 -0.2216556362
C  C139  1  0.38987000  0.05030000  0.91092000  1.0 -0.1704029218
C  C140  1  0.16482000  0.82620000  0.74136000  1.0 -0.2589963964
C  C141  1  0.44520000  0.27370000  0.59290000  1.0 0.5493284622
C  C142  1  0.32754000  0.58260000  0.69041000  1.0 0.072399564
C  C143  1  0.68075000  0.98840000  0.32659000  1.0 0.0773055434
C  C144  1  0.83508000  0.83900000  0.32013000  1.0 0.1021054545
C  C145  1  0.80011000  0.91580000  0.33716000  1.0 -0.2495204574
C  C146  1  0.72127000  0.91000000  0.30934000  1.0 0.2226886311
C  C147  1  0.28575000  0.19130000  0.88094000  1.0 -0.1704029218
C  C148  1  0.69084000  0.55590000  0.19277000  1.0 -0.1902673472
C  C149  1  0.37632000  0.66080000  0.73704000  1.0 -0.1360507003
C  C150  1  0.44755000  0.46970000  0.64316000  1.0 -0.0959880529
C  C151  1  0.35881000  0.50070000  0.66666667  1.0 0.0773055434
C  C152  1  0.78968000  0.75590000  0.27628000  1.0 -0.2495204574
C  C153  1  0.35604000  0.30700000  0.62030000  1.0 -0.0808695769
C  C154  1  0.33563000  0.27100000  0.92506000  1.0 0.0889983782
C  C155  1  0.91904000  0.84240000  0.34776000  1.0 0.0532847813
C  C156  1  0.32737000  0.38040000  0.64308000  1.0 -0.1247494659
C  C157  1  0.05833000  0.90920000  0.74558000  1.0 0.0889983782
C  C158  1  0.64188000  0.47490000  0.14923000  1.0 0.0773055434
C  C159  1  0.41904000  0.54390000  0.66600000  1.0 -0.1495939978
C  C160  1  0.25036000  0.58670000  0.66745000  1.0 -0.1316473426
C  C161  1  0.92770000  0.84500000  0.68620000  1.0 0.0636935958
C  C162  1  0.22225000  0.66590000  0.68928000  1.0 -0.1495939978
C  C163  1  0.71778000  0.06790000  0.37243000  1.0 -0.1902673472
C  C164  1  0.60273000  0.98270000  0.29674000  1.0 -0.1704029218
C  C165  1  0.95820000  0.97940000  0.75160000  1.0 0.0636935958
C  C166  1  0.00170000  0.83770000  0.70130000  1.0 -0.2216556362
C  C167  1  0.03530000  0.98300000  0.77050000  1.0 -0.1902673472
C  C168  1  0.34831000  0.73740000  0.75952000  1.0 -0.1316473426
C  C169  1  0.58333000  0.67580000  0.17010000  1.0 -0.1704029218
C  C170  1  0.53873000  0.58940000  0.12728000  1.0 0.0889983782
C  C171  1  0.67597000  0.13640000  0.38620000  1.0 0.0889983782
C  C172  1  0.56603000  0.05490000  0.31380000  1.0 0.072399564
C  C173  1  0.03920000  0.95850000  0.39710000  1.0 -0.0640425972
C  C174  1  0.95730000  0.73070000  0.35170000  1.0 -0.0664865515
C  C175  1  0.03400000  0.73730000  0.37460000  1.0 -0.0413399447
C  C176  1  0.96120000  0.95660000  0.37350000  1.0 -0.0808695769
C  C177  1  0.97280000  0.87620000  0.40150000  1.0 -0.0413399447
C  C178  1  0.04950000  0.87430000  0.42430000  1.0 -0.0477953135
C  C179  1  0.02230000  0.81420000  0.33790000  1.0 -0.0959880529
C  C180  1  0.94550000  0.81290000  0.31450000  1.0 -0.0959880529
C  C181  1  0.68937000  0.36160000  0.04584000  1.0 -0.026798348
C  C182  1  0.71457000  0.43820000  0.02169000  1.0 -0.0872920445
C  C183  1  0.74013000  0.27850000  0.08806000  1.0 -0.0808695769
C  C184  1  0.81535000  0.27330000  0.10618000  1.0 -0.1495939978
C  C185  1  0.79003000  0.43300000  0.03991000  1.0 -0.1495939978
C  C186  1  0.84149000  0.35140000  0.08243000  1.0 0.0636935958
C  C187  1  0.92343000  0.34720000  0.10433000  1.0 0.0532847813
C  C188  1  0.60954000  0.37280000  0.02984000  1.0 0.5640638777
C  C189  1  0.33840000  0.16000000  0.29589000  1.0 0.0889983782
C  C190  1  0.73938000  0.48890000  0.67412000  1.0 0.2088834217
C  C191  1  0.75906000  0.32610000  0.73975000  1.0 0.1204171771
C  C192  1  0.28848000  0.25100000  0.24957000  1.0 0.2088834217
C  C193  1  0.86027000  0.40740000  0.73523000  1.0 0.2088834217
C  C194  1  0.56472000  0.63490000  0.54634000  1.0 0.0889983782
C  C195  1  0.68773000  0.57620000  0.62685000  1.0 0.0889983782
C  C196  1  0.72980000  0.24220000  0.76421000  1.0 0.0532847813
C  C197  1  0.58330000  0.85150000  0.87995000  1.0 -0.0066096313
C  C198  1  0.71124000  0.41070000  0.69627000  1.0 -0.2216556362
C  C199  1  0.61013000  0.55030000  0.58908000  1.0 -0.1704029218
C  C200  1  0.83518000  0.32620000  0.75864000  1.0 -0.2589963964
C  C201  1  0.55480000  0.77370000  0.90710000  1.0 0.5493284622
C  C202  1  0.67246000  0.08260000  0.80959000  1.0 0.072399564
C  C203  1  0.31925000  0.48840000  0.17341000  1.0 0.0773055434
C  C204  1  0.16492000  0.33900000  0.17987000  1.0 0.1021054545
C  C205  1  0.19989000  0.41580000  0.16284000  1.0 -0.2495204574
C  C206  1  0.27873000  0.41000000  0.19066000  1.0 0.2226886311
C  C207  1  0.71425000  0.69130000  0.61906000  1.0 -0.1704029218
C  C208  1  0.30916000  0.05590000  0.30723000  1.0 -0.1902673472
C  C209  1  0.62368000  0.16080000  0.76296000  1.0 -0.1360507003
C  C210  1  0.55245000  0.96970000  0.85684000  1.0 -0.0959880529
C  C211  1  0.64119000  0.00070000  0.83333000  1.0 0.0773055434
C  C212  1  0.21032000  0.25590000  0.22372000  1.0 -0.2495204574
C  C213  1  0.64396000  0.80700000  0.87970000  1.0 -0.0808695769
C  C214  1  0.66437000  0.77100000  0.57494000  1.0 0.0889983782
C  C215  1  0.08096000  0.34240000  0.15224000  1.0 0.0532847813
C  C216  1  0.67263000  0.88040000  0.85692000  1.0 -0.1247494659
C  C217  1  0.94167000  0.40920000  0.75442000  1.0 0.0889983782
C  C218  1  0.35812000  0.97490000  0.35077000  1.0 0.0773055434
C  C219  1  0.58096000  0.04390000  0.83400000  1.0 -0.1495939978
C  C220  1  0.74964000  0.08670000  0.83255000  1.0 -0.1316473426
C  C221  1  0.07230000  0.34500000  0.81380000  1.0 0.072399564
C  C222  1  0.77775000  0.16590000  0.81072000  1.0 -0.1495939978
C  C223  1  0.28222000  0.56790000  0.12757000  1.0 -0.1902673472
C  C224  1  0.39727000  0.48270000  0.20326000  1.0 -0.1704029218
C  C225  1  0.04180000  0.47940000  0.74840000  1.0 0.0636935958
C  C226  1  0.99830000  0.33770000  0.79870000  1.0 -0.2287092287
C  C227  1  0.96470000  0.48300000  0.72950000  1.0 -0.1902673472
C  C228  1  0.65169000  0.23740000  0.74048000  1.0 -0.1316473426
C  C229  1  0.41667000  0.17580000  0.32990000  1.0 -0.1704029218
C  C230  1  0.46127000  0.08940000  0.37272000  1.0 0.0889983782
C  C231  1  0.32403000  0.63640000  0.11380000  1.0 0.0889983782
C  C232  1  0.43397000  0.55490000  0.18620000  1.0 0.0773055434
C  C233  1  0.96080000  0.45850000  0.10290000  1.0 -0.0640425972
C  C234  1  0.04270000  0.23070000  0.14830000  1.0 -0.0664865515
C  C235  1  0.96600000  0.23730000  0.12540000  1.0 -0.0413399447
C  C236  1  0.03880000  0.45660000  0.12650000  1.0 -0.0808695769
C  C237  1  0.02720000  0.37620000  0.09850000  1.0 -0.0413399447
C  C238  1  0.95050000  0.37430000  0.07570000  1.0 -0.0477953135
C  C239  1  0.97770000  0.31420000  0.16210000  1.0 -0.0959880529
C  C240  1  0.05450000  0.31290000  0.18550000  1.0 -0.0959880529
N  N1  1  0.81303000  0.01050000  0.19323000  1.0 -0.3212724654
N  N2  1  0.59025000  0.75570000  0.03779000  1.0 -0.2287092287
N  N3  1  0.32266000  0.17090000  0.73350000  1.0 -0.3212724654
N  N4  1  0.43336000  0.51060000  0.88410000  1.0 -0.2216556362
N  N5  1  0.09496000  0.08770000  0.28900000  1.0 -0.2589963964
N  N6  1  0.39922000  0.86790000  0.64239000  1.0 -0.2287092287
N  N7  1  0.18697000  0.51050000  0.30677000  1.0 -0.3212724654
N  N8  1  0.40975000  0.25570000  0.46221000  1.0 -0.2287092287
N  N9  1  0.67734000  0.67090000  0.76650000  1.0 -0.3212724654
N  N10  1  0.56664000  0.01060000  0.61590000  1.0 -0.2216556362
N  N11  1  0.90504000  0.58770000  0.21100000  1.0 -0.2589963964
N  N12  1  0.60078000  0.36790000  0.85761000  1.0 -0.2287092287
N  N13  1  0.18697000  0.98950000  0.80677000  1.0 -0.3212724654
N  N14  1  0.40975000  0.24430000  0.96221000  1.0 -0.2287092287
N  N15  1  0.67734000  0.82910000  0.26650000  1.0 -0.3212724654
N  N16  1  0.56664000  0.48940000  0.11590000  1.0 -0.2216556362
N  N17  1  0.90504000  0.91230000  0.71100000  1.0 -0.2589963964
N  N18  1  0.60078000  0.13210000  0.35761000  1.0 -0.2287092287
N  N19  1  0.81303000  0.48950000  0.69323000  1.0 -0.3212724654
N  N20  1  0.59025000  0.74430000  0.53779000  1.0 -0.2287092287
N  N21  1  0.32266000  0.32910000  0.23350000  1.0 -0.3212724654
N  N22  1  0.43336000  0.98940000  0.38410000  1.0 -0.2216556362
N  N23  1  0.09496000  0.41230000  0.78900000  1.0 -0.2589963964
N  N24  1  0.39922000  0.63210000  0.14239000  1.0 -0.2287092287
N  N25  1  0.79020000  0.54120000  0.51740000  1.0 0.7144863167
N  N26  1  0.20980000  0.04120000  0.98260000  1.0 0.7144863167
N  N27  1  0.20980000  0.45880000  0.48260000  1.0 0.7144863167
N  N28  1  0.79020000  0.95880000  0.01740000  1.0 0.7144863167
O  O1  1  0.49620000  0.68890000  0.40306000  1.0 -0.5498085088
O  O2  1  0.59079000  0.82610000  0.43410000  1.0 -0.5270057891
O  O3  1  0.58639000  0.21083000  0.54751000  1.0 -0.5248579821
O  O4  1  0.57029000  0.03200000  0.50131000  1.0 -0.5579815648
O  O5  1  0.50380000  0.18890000  0.09694000  1.0 -0.5498085088
O  O6  1  0.40921000  0.32610000  0.06590000  1.0 -0.5270057891
O  O7  1  0.41361000  0.71083000  0.95249000  1.0 -0.5248579821
O  O8  1  0.42971000  0.53200000  0.99869000  1.0 -0.5579815648
O  O9  1  0.50380000  0.31110000  0.59694000  1.0 -0.5498085088
O  O10  1  0.40921000  0.17390000  0.56590000  1.0 -0.5270057891
O  O11  1  0.41361000  0.78917000  0.45249000  1.0 -0.5248579821
O  O12  1  0.42971000  0.96800000  0.49869000  1.0 -0.5579815648
O  O13  1  0.49620000  0.81110000  0.90306000  1.0 -0.5498085088
O  O14  1  0.59079000  0.67390000  0.93410000  1.0 -0.5270057891
O  O15  1  0.58639000  0.28917000  0.04751000  1.0 -0.5270057891
O  O16  1  0.57029000  0.46800000  0.00131000  1.0 -0.5579815648
O  O17  1  0.81770000  0.45910000  0.49470000  1.0 -0.602984055
O  O18  1  0.72000000  0.49420000  0.50630000  1.0 -0.5498085088
O  O19  1  0.80930000  0.66500000  0.53240000  1.0 -0.5270057891
O  O20  1  0.18230000  0.95910000  0.00530000  1.0 -0.602984055
O  O21  1  0.28000000  0.99420000  0.99370000  1.0 -0.5498085088
O  O22  1  0.19070000  0.16500000  0.96760000  1.0 -0.5270057891
O  O23  1  0.18230000  0.54090000  0.50530000  1.0 -0.602984055
O  O24  1  0.28000000  0.50580000  0.49370000  1.0 -0.5498085088
O  O25  1  0.19070000  0.33500000  0.46760000  1.0 -0.5270057891
O  O26  1  0.81770000  0.04090000  0.99470000  1.0 -0.602984055
O  O27  1  0.72000000  0.00580000  0.00630000  1.0 -0.5498085088
O  O28  1  0.80930000  0.83500000  0.03240000  1.0 -0.5270057891
