# DDEC6 charges by PACMAN v1.1 (https://github.com/mtap-research/PACMAN-charge/)
data_HUHBET_ASR_pacman
_symmetry_space_group_name_H-M   'P 1'
_cell_length_a   19.04250000
_cell_length_b   24.42520000
_cell_length_c   26.71530000
_cell_angle_alpha   90.00000000
_cell_angle_beta   90.00000000
_cell_angle_gamma   90.00000000
_symmetry_Int_Tables_number   1
_chemical_formula_structural   Na2Mn3H28C16O13
_chemical_formula_sum   'Na32 Mn48 H448 C256 O208'
_cell_volume   12425.73674383
_cell_formula_units_Z   16
loop_
 _symmetry_equiv_pos_site_id
 _symmetry_equiv_pos_as_xyz
  1  'x, y, z'
loop_
 _atom_site_type_symbol
 _atom_site_label
 _atom_site_symmetry_multiplicity
 _atom_site_fract_x
 _atom_site_fract_y
 _atom_site_fract_z
 _atom_site_occupancy
 _atom_site_charge
Na  Na1  1  0.81533000  0.93910000  0.77456000  1.0 0.8517068706
Na  Na2  1  0.68467000  0.56090000  0.27456000  1.0 0.8517068706
Na  Na3  1  0.81533000  0.06090000  0.72544000  1.0 0.8517068706
Na  Na4  1  0.68467000  0.43910000  0.22544000  1.0 0.8517068706
Na  Na5  1  0.18467000  0.06090000  0.22544000  1.0 0.8517068706
Na  Na6  1  0.31533000  0.43910000  0.72544000  1.0 0.8517068706
Na  Na7  1  0.18467000  0.93910000  0.27456000  1.0 0.8517068706
Na  Na8  1  0.31533000  0.56090000  0.77456000  1.0 0.8517068706
Na  Na9  1  0.92324000  0.96809000  0.01192000  1.0 0.8390607618
Na  Na10  1  0.57676000  0.53191000  0.51192000  1.0 0.8390607618
Na  Na11  1  0.92324000  0.03191000  0.48808000  1.0 0.8390607618
Na  Na12  1  0.57676000  0.46809000  0.98808000  1.0 0.8390607618
Na  Na13  1  0.07676000  0.03191000  0.98808000  1.0 0.8390607618
Na  Na14  1  0.42324000  0.46809000  0.48808000  1.0 0.8390607618
Na  Na15  1  0.07676000  0.96809000  0.51192000  1.0 0.8390607618
Na  Na16  1  0.42324000  0.53191000  0.01192000  1.0 0.8390607618
Na  Na17  1  0.98193000  0.72500000  0.88983000  1.0 0.8585972868
Na  Na18  1  0.51807000  0.77500000  0.38983000  1.0 0.8585972868
Na  Na19  1  0.98193000  0.27500000  0.61017000  1.0 0.8585972868
Na  Na20  1  0.51807000  0.22500000  0.11017000  1.0 0.8585972868
Na  Na21  1  0.01807000  0.27500000  0.11017000  1.0 0.8585972868
Na  Na22  1  0.48193000  0.22500000  0.61017000  1.0 0.8585972868
Na  Na23  1  0.01807000  0.72500000  0.38983000  1.0 0.8585972868
Na  Na24  1  0.48193000  0.77500000  0.88983000  1.0 0.8585972868
Na  Na25  1  0.64605000  0.81052000  0.95665000  1.0 0.8585972868
Na  Na26  1  0.85395000  0.68948000  0.45665000  1.0 0.8585972868
Na  Na27  1  0.64605000  0.18948000  0.54335000  1.0 0.8585972868
Na  Na28  1  0.85395000  0.31052000  0.04335000  1.0 0.8585972868
Na  Na29  1  0.35395000  0.18948000  0.04335000  1.0 0.8585972868
Na  Na30  1  0.14605000  0.31052000  0.54335000  1.0 0.8585972868
Na  Na31  1  0.35395000  0.81052000  0.45665000  1.0 0.8585972868
Na  Na32  1  0.14605000  0.68948000  0.95665000  1.0 0.8585972868
Mn  Mn1  1  0.73950000  0.86911000  0.87022000  1.0 1.0287136219
Mn  Mn2  1  0.76050000  0.63089000  0.37022000  1.0 1.0287136219
Mn  Mn3  1  0.73950000  0.13089000  0.62978000  1.0 1.0287136219
Mn  Mn4  1  0.76050000  0.36911000  0.12978000  1.0 1.0287136219
Mn  Mn5  1  0.26050000  0.13089000  0.12978000  1.0 1.0287136219
Mn  Mn6  1  0.23950000  0.36911000  0.62978000  1.0 1.0287136219
Mn  Mn7  1  0.26050000  0.86911000  0.37022000  1.0 1.0287136219
Mn  Mn8  1  0.23950000  0.63089000  0.87022000  1.0 1.0287136219
Mn  Mn9  1  0.81987000  0.77205000  0.92449000  1.0 1.0366228007
Mn  Mn10  1  0.68013000  0.72795000  0.42449000  1.0 1.0366228007
Mn  Mn11  1  0.81987000  0.22795000  0.57551000  1.0 1.0366228007
Mn  Mn12  1  0.68013000  0.27205000  0.07551000  1.0 1.0366228007
Mn  Mn13  1  0.18013000  0.22795000  0.07551000  1.0 1.0366228007
Mn  Mn14  1  0.31987000  0.27205000  0.57551000  1.0 1.0366228007
Mn  Mn15  1  0.18013000  0.77205000  0.42449000  1.0 1.0366228007
Mn  Mn16  1  0.31987000  0.72795000  0.92449000  1.0 1.0366228007
Mn  Mn17  1  0.95066000  0.84852000  0.94610000  1.0 1.0482585661
Mn  Mn18  1  0.54934000  0.65148000  0.44610000  1.0 1.0482585661
Mn  Mn19  1  0.95066000  0.15148000  0.55390000  1.0 1.0482585661
Mn  Mn20  1  0.54934000  0.34852000  0.05390000  1.0 1.0482585661
Mn  Mn21  1  0.04934000  0.15148000  0.05390000  1.0 1.0482585661
Mn  Mn22  1  0.45066000  0.34852000  0.55390000  1.0 1.0482585661
Mn  Mn23  1  0.04934000  0.84852000  0.44610000  1.0 1.0482585661
Mn  Mn24  1  0.45066000  0.65148000  0.94610000  1.0 1.0482585661
Mn  Mn25  1  0.89114000  0.83223000  0.83900000  1.0 1.0202517889
Mn  Mn26  1  0.60886000  0.66777000  0.33900000  1.0 1.0202517889
Mn  Mn27  1  0.89114000  0.16777000  0.66100000  1.0 1.0202517889
Mn  Mn28  1  0.60886000  0.33223000  0.16100000  1.0 1.0202517889
Mn  Mn29  1  0.10886000  0.16777000  0.16100000  1.0 1.0202517889
Mn  Mn30  1  0.39114000  0.33223000  0.66100000  1.0 1.0202517889
Mn  Mn31  1  0.10886000  0.83223000  0.33900000  1.0 1.0202517889
Mn  Mn32  1  0.39114000  0.66777000  0.83900000  1.0 1.0202517889
Mn  Mn33  1  0.87106000  0.94578000  0.89032000  1.0 1.0125787042
Mn  Mn34  1  0.62894000  0.55422000  0.39032000  1.0 1.0125787042
Mn  Mn35  1  0.87106000  0.05422000  0.60968000  1.0 1.0125787042
Mn  Mn36  1  0.62894000  0.44578000  0.10968000  1.0 1.0125787042
Mn  Mn37  1  0.12894000  0.05422000  0.10968000  1.0 1.0125787042
Mn  Mn38  1  0.37106000  0.44578000  0.60968000  1.0 1.0125787042
Mn  Mn39  1  0.12894000  0.94578000  0.39032000  1.0 1.0125787042
Mn  Mn40  1  0.37106000  0.55422000  0.89032000  1.0 1.0125787042
Mn  Mn41  1  0.79640000  0.88583000  0.98259000  1.0 0.9376249991
Mn  Mn42  1  0.70360000  0.61417000  0.48259000  1.0 0.9376249991
Mn  Mn43  1  0.79640000  0.11417000  0.51741000  1.0 0.9376249991
Mn  Mn44  1  0.70360000  0.38583000  0.01741000  1.0 0.9376249991
Mn  Mn45  1  0.20360000  0.11417000  0.01741000  1.0 0.9376249991
Mn  Mn46  1  0.29640000  0.38583000  0.51741000  1.0 0.9376249991
Mn  Mn47  1  0.20360000  0.88583000  0.48259000  1.0 0.9376249991
Mn  Mn48  1  0.29640000  0.61417000  0.98259000  1.0 0.9376249991
H  H1  1  0.62570000  0.93880000  0.92320000  1.0 0.1087919287
H  H2  1  0.87430000  0.56120000  0.42320000  1.0 0.1087919287
H  H3  1  0.62570000  0.06120000  0.57680000  1.0 0.1087919287
H  H4  1  0.87430000  0.43880000  0.07680000  1.0 0.1087919287
H  H5  1  0.37430000  0.06120000  0.07680000  1.0 0.1087919287
H  H6  1  0.12570000  0.43880000  0.57680000  1.0 0.1087919287
H  H7  1  0.37430000  0.93880000  0.42320000  1.0 0.1087919287
H  H8  1  0.12570000  0.56120000  0.92320000  1.0 0.1087919287
H  H9  1  0.65780000  0.94510000  0.97820000  1.0 0.1087919287
H  H10  1  0.84220000  0.55490000  0.47820000  1.0 0.1087919287
H  H11  1  0.65780000  0.05490000  0.52180000  1.0 0.1087919287
H  H12  1  0.84220000  0.44510000  0.02180000  1.0 0.1087919287
H  H13  1  0.34220000  0.05490000  0.02180000  1.0 0.1087919287
H  H14  1  0.15780000  0.44510000  0.52180000  1.0 0.1087919287
H  H15  1  0.34220000  0.94510000  0.47820000  1.0 0.1087919287
H  H16  1  0.15780000  0.55490000  0.97820000  1.0 0.1087919287
H  H17  1  0.75180000  0.02350000  0.86020000  1.0 0.1029985025
H  H18  1  0.74820000  0.47650000  0.36020000  1.0 0.1029985025
H  H19  1  0.75180000  0.97650000  0.63980000  1.0 0.1029985025
H  H20  1  0.74820000  0.52350000  0.13980000  1.0 0.1029985025
H  H21  1  0.24820000  0.97650000  0.13980000  1.0 0.1029985025
H  H22  1  0.25180000  0.52350000  0.63980000  1.0 0.1087919287
H  H23  1  0.24820000  0.02350000  0.36020000  1.0 0.1029985025
H  H24  1  0.25180000  0.47650000  0.86020000  1.0 0.1087919287
H  H25  1  0.68510000  0.98520000  0.85080000  1.0 0.1087919287
H  H26  1  0.81490000  0.51480000  0.35080000  1.0 0.1087919287
H  H27  1  0.68510000  0.01480000  0.64920000  1.0 0.1087919287
H  H28  1  0.81490000  0.48520000  0.14920000  1.0 0.1087919287
H  H29  1  0.31490000  0.01480000  0.14920000  1.0 0.1087919287
H  H30  1  0.18510000  0.48520000  0.64920000  1.0 0.1087919287
H  H31  1  0.31490000  0.98520000  0.35080000  1.0 0.1087919287
H  H32  1  0.18510000  0.51480000  0.85080000  1.0 0.1087919287
H  H33  1  0.76130000  0.00800000  0.99210000  1.0 0.1029985025
H  H34  1  0.73870000  0.49200000  0.49210000  1.0 0.1029985025
H  H35  1  0.76130000  0.99200000  0.50790000  1.0 0.1029985025
H  H36  1  0.73870000  0.50800000  0.00790000  1.0 0.1029985025
H  H37  1  0.23870000  0.99200000  0.00790000  1.0 0.1029985025
H  H38  1  0.26130000  0.50800000  0.50790000  1.0 0.1029985025
H  H39  1  0.23870000  0.00800000  0.49210000  1.0 0.1029985025
H  H40  1  0.26130000  0.49200000  0.99210000  1.0 0.1029985025
H  H41  1  0.79720000  0.03780000  0.94540000  1.0 0.1029985025
H  H42  1  0.70280000  0.46220000  0.44540000  1.0 0.1029985025
H  H43  1  0.79720000  0.96220000  0.55460000  1.0 0.1029985025
H  H44  1  0.70280000  0.53780000  0.05460000  1.0 0.1029985025
H  H45  1  0.20280000  0.96220000  0.05460000  1.0 0.1029985025
H  H46  1  0.29720000  0.53780000  0.55460000  1.0 0.1029985025
H  H47  1  0.20280000  0.03780000  0.44540000  1.0 0.1029985025
H  H48  1  0.29720000  0.46220000  0.94540000  1.0 0.1029985025
H  H49  1  0.68300000  0.07490000  0.92010000  1.0 0.1298637137
H  H50  1  0.81700000  0.42510000  0.42010000  1.0 0.1298637137
H  H51  1  0.68300000  0.92510000  0.57990000  1.0 0.1298637137
H  H52  1  0.81700000  0.57490000  0.07990000  1.0 0.1298637137
H  H53  1  0.31700000  0.92510000  0.07990000  1.0 0.1298637137
H  H54  1  0.18300000  0.57490000  0.57990000  1.0 0.1298637137
H  H55  1  0.31700000  0.07490000  0.42010000  1.0 0.1298637137
H  H56  1  0.18300000  0.42510000  0.92010000  1.0 0.1298637137
H  H57  1  0.61700000  0.03510000  0.91330000  1.0 0.1298637137
H  H58  1  0.88300000  0.46490000  0.41330000  1.0 0.1298637137
H  H59  1  0.61700000  0.96490000  0.58670000  1.0 0.1298637137
H  H60  1  0.88300000  0.53510000  0.08670000  1.0 0.1298637137
H  H61  1  0.38300000  0.96490000  0.08670000  1.0 0.1298637137
H  H62  1  0.11700000  0.53510000  0.58670000  1.0 0.1298637137
H  H63  1  0.38300000  0.03510000  0.41330000  1.0 0.1298637137
H  H64  1  0.11700000  0.46490000  0.91330000  1.0 0.1298637137
H  H65  1  0.64890000  0.04580000  0.96790000  1.0 0.1375045802
H  H66  1  0.85110000  0.45420000  0.46790000  1.0 0.1375045802
H  H67  1  0.64890000  0.95420000  0.53210000  1.0 0.1375045802
H  H68  1  0.85110000  0.54580000  0.03210000  1.0 0.1375045802
H  H69  1  0.35110000  0.95420000  0.03210000  1.0 0.1375045802
H  H70  1  0.14890000  0.54580000  0.53210000  1.0 0.1375045802
H  H71  1  0.35110000  0.04580000  0.46790000  1.0 0.1375045802
H  H72  1  0.14890000  0.45420000  0.96790000  1.0 0.1375045802
H  H73  1  0.99330000  0.90800000  0.78290000  1.0 0.1087919287
H  H74  1  0.50670000  0.59200000  0.28290000  1.0 0.1087919287
H  H75  1  0.99330000  0.09200000  0.71710000  1.0 0.1087919287
H  H76  1  0.50670000  0.40800000  0.21710000  1.0 0.1087919287
H  H77  1  0.00670000  0.09200000  0.21710000  1.0 0.1087919287
H  H78  1  0.49330000  0.40800000  0.71710000  1.0 0.1087919287
H  H79  1  0.00670000  0.90800000  0.28290000  1.0 0.1087919287
H  H80  1  0.49330000  0.59200000  0.78290000  1.0 0.1087919287
H  H81  1  0.98230000  0.96680000  0.80780000  1.0 0.1087919287
H  H82  1  0.51770000  0.53320000  0.30780000  1.0 0.1087919287
H  H83  1  0.98230000  0.03320000  0.69220000  1.0 0.1087919287
H  H84  1  0.51770000  0.46680000  0.19220000  1.0 0.1087919287
H  H85  1  0.01770000  0.03320000  0.19220000  1.0 0.1087919287
H  H86  1  0.48230000  0.46680000  0.69220000  1.0 0.1087919287
H  H87  1  0.01770000  0.96680000  0.30780000  1.0 0.1087919287
H  H88  1  0.48230000  0.53320000  0.80780000  1.0 0.1087919287
H  H89  1  0.08550000  0.84660000  0.88450000  1.0 0.1087919287
H  H90  1  0.41450000  0.65340000  0.38450000  1.0 0.1087919287
H  H91  1  0.08550000  0.15340000  0.61550000  1.0 0.1087919287
H  H92  1  0.41450000  0.34660000  0.11550000  1.0 0.1087919287
H  H93  1  0.91450000  0.15340000  0.11550000  1.0 0.1087919287
H  H94  1  0.58550000  0.34660000  0.61550000  1.0 0.1087919287
H  H95  1  0.91450000  0.84660000  0.38450000  1.0 0.1087919287
H  H96  1  0.58550000  0.65340000  0.88450000  1.0 0.1087919287
H  H97  1  0.05700000  0.83530000  0.82920000  1.0 0.1029985025
H  H98  1  0.44300000  0.66470000  0.32920000  1.0 0.1029985025
H  H99  1  0.05700000  0.16470000  0.67080000  1.0 0.1029985025
H  H100  1  0.44300000  0.33530000  0.17080000  1.0 0.1029985025
H  H101  1  0.94300000  0.16470000  0.17080000  1.0 0.1029985025
H  H102  1  0.55700000  0.33530000  0.67080000  1.0 0.1029985025
H  H103  1  0.94300000  0.83530000  0.32920000  1.0 0.1029985025
H  H104  1  0.55700000  0.66470000  0.82920000  1.0 0.1029985025
H  H105  1  0.02220000  0.98310000  0.89590000  1.0 0.1029985025
H  H106  1  0.47780000  0.51690000  0.39590000  1.0 0.1029985025
H  H107  1  0.02220000  0.01690000  0.60410000  1.0 0.1029985025
H  H108  1  0.47780000  0.48310000  0.10410000  1.0 0.1029985025
H  H109  1  0.97780000  0.01690000  0.10410000  1.0 0.1029985025
H  H110  1  0.52220000  0.48310000  0.60410000  1.0 0.1029985025
H  H111  1  0.97780000  0.98310000  0.39590000  1.0 0.1029985025
H  H112  1  0.52220000  0.51690000  0.89590000  1.0 0.1029985025
H  H113  1  0.06440000  0.93640000  0.92500000  1.0 0.1029985025
H  H114  1  0.43560000  0.56360000  0.42500000  1.0 0.1029985025
H  H115  1  0.06440000  0.06360000  0.57500000  1.0 0.1029985025
H  H116  1  0.43560000  0.43640000  0.07500000  1.0 0.1029985025
H  H117  1  0.93560000  0.06360000  0.07500000  1.0 0.1029985025
H  H118  1  0.56440000  0.43640000  0.57500000  1.0 0.1029985025
H  H119  1  0.93560000  0.93640000  0.42500000  1.0 0.1029985025
H  H120  1  0.56440000  0.56360000  0.92500000  1.0 0.1029985025
H  H121  1  0.11810000  0.91720000  0.79990000  1.0 0.1298637137
H  H122  1  0.38190000  0.58280000  0.29990000  1.0 0.1298637137
H  H123  1  0.11810000  0.08280000  0.70010000  1.0 0.1298637137
H  H124  1  0.38190000  0.41720000  0.20010000  1.0 0.1298637137
H  H125  1  0.88190000  0.08280000  0.20010000  1.0 0.1298637137
H  H126  1  0.61810000  0.41720000  0.70010000  1.0 0.1298637137
H  H127  1  0.88190000  0.91720000  0.29990000  1.0 0.1298637137
H  H128  1  0.61810000  0.58280000  0.79990000  1.0 0.1298637137
H  H129  1  0.10490000  0.97500000  0.82660000  1.0 0.1496295206
H  H130  1  0.39510000  0.52500000  0.32660000  1.0 0.1496295206
H  H131  1  0.10490000  0.02500000  0.67340000  1.0 0.1496295206
H  H132  1  0.39510000  0.47500000  0.17340000  1.0 0.1496295206
H  H133  1  0.89510000  0.02500000  0.17340000  1.0 0.1496295206
H  H134  1  0.60490000  0.47500000  0.67340000  1.0 0.1496295206
H  H135  1  0.89510000  0.97500000  0.32660000  1.0 0.1496295206
H  H136  1  0.60490000  0.52500000  0.82660000  1.0 0.1496295206
H  H137  1  0.14610000  0.92760000  0.85560000  1.0 0.1375045802
H  H138  1  0.35390000  0.57240000  0.35560000  1.0 0.1375045802
H  H139  1  0.14610000  0.07240000  0.64440000  1.0 0.1375045802
H  H140  1  0.35390000  0.42760000  0.14440000  1.0 0.1375045802
H  H141  1  0.85390000  0.07240000  0.14440000  1.0 0.1375045802
H  H142  1  0.64610000  0.42760000  0.64440000  1.0 0.1375045802
H  H143  1  0.85390000  0.92760000  0.35560000  1.0 0.1375045802
H  H144  1  0.64610000  0.57240000  0.85560000  1.0 0.1375045802
H  H145  1  0.69770000  0.71730000  0.86860000  1.0 0.1087919287
H  H146  1  0.80230000  0.78270000  0.36860000  1.0 0.1087919287
H  H147  1  0.69770000  0.28270000  0.63140000  1.0 0.1087919287
H  H148  1  0.80230000  0.21730000  0.13140000  1.0 0.1087919287
H  H149  1  0.30230000  0.28270000  0.13140000  1.0 0.1087919287
H  H150  1  0.19770000  0.21730000  0.63140000  1.0 0.1087919287
H  H151  1  0.30230000  0.71730000  0.36860000  1.0 0.1087919287
H  H152  1  0.19770000  0.78270000  0.86860000  1.0 0.1087919287
H  H153  1  0.65560000  0.76570000  0.84170000  1.0 0.1087919287
H  H154  1  0.84440000  0.73430000  0.34170000  1.0 0.1087919287
H  H155  1  0.65560000  0.23430000  0.65830000  1.0 0.1087919287
H  H156  1  0.84440000  0.26570000  0.15830000  1.0 0.1087919287
H  H157  1  0.34440000  0.23430000  0.15830000  1.0 0.1087919287
H  H158  1  0.15560000  0.26570000  0.65830000  1.0 0.1087919287
H  H159  1  0.34440000  0.76570000  0.34170000  1.0 0.1087919287
H  H160  1  0.15560000  0.73430000  0.84170000  1.0 0.1087919287
H  H161  1  0.85040000  0.72270000  0.79130000  1.0 0.1087919287
H  H162  1  0.64960000  0.77730000  0.29130000  1.0 0.1087919287
H  H163  1  0.85040000  0.27730000  0.70870000  1.0 0.1087919287
H  H164  1  0.64960000  0.22270000  0.20870000  1.0 0.1087919287
H  H165  1  0.14960000  0.27730000  0.20870000  1.0 0.1087919287
H  H166  1  0.35040000  0.22270000  0.70870000  1.0 0.1087919287
H  H167  1  0.14960000  0.72270000  0.29130000  1.0 0.1087919287
H  H168  1  0.35040000  0.77730000  0.79130000  1.0 0.1087919287
H  H169  1  0.81470000  0.68840000  0.83550000  1.0 0.1087919287
H  H170  1  0.68530000  0.81160000  0.33550000  1.0 0.1087919287
H  H171  1  0.81470000  0.31160000  0.66450000  1.0 0.1087919287
H  H172  1  0.68530000  0.18840000  0.16450000  1.0 0.1087919287
H  H173  1  0.18530000  0.31160000  0.16450000  1.0 0.1087919287
H  H174  1  0.31470000  0.18840000  0.66450000  1.0 0.1087919287
H  H175  1  0.18530000  0.68840000  0.33550000  1.0 0.1087919287
H  H176  1  0.31470000  0.81160000  0.83550000  1.0 0.1087919287
H  H177  1  0.71050000  0.81540000  0.76860000  1.0 0.1087919287
H  H178  1  0.78950000  0.68460000  0.26860000  1.0 0.1087919287
H  H179  1  0.71050000  0.18460000  0.73140000  1.0 0.1087919287
H  H180  1  0.78950000  0.31540000  0.23140000  1.0 0.1087919287
H  H181  1  0.28950000  0.18460000  0.23140000  1.0 0.1087919287
H  H182  1  0.21050000  0.31540000  0.73140000  1.0 0.1087919287
H  H183  1  0.28950000  0.81540000  0.26860000  1.0 0.1087919287
H  H184  1  0.21050000  0.68460000  0.76860000  1.0 0.1087919287
H  H185  1  0.78730000  0.79820000  0.75040000  1.0 0.1087919287
H  H186  1  0.71270000  0.70180000  0.25040000  1.0 0.1087919287
H  H187  1  0.78730000  0.20180000  0.74960000  1.0 0.1087919287
H  H188  1  0.71270000  0.29820000  0.24960000  1.0 0.1087919287
H  H189  1  0.21270000  0.20180000  0.24960000  1.0 0.1087919287
H  H190  1  0.28730000  0.29820000  0.74960000  1.0 0.1087919287
H  H191  1  0.21270000  0.79820000  0.25040000  1.0 0.1087919287
H  H192  1  0.28730000  0.70180000  0.75040000  1.0 0.1087919287
H  H193  1  0.71320000  0.67230000  0.78680000  1.0 0.1375045802
H  H194  1  0.78680000  0.82770000  0.28680000  1.0 0.1375045802
H  H195  1  0.71320000  0.32770000  0.71320000  1.0 0.1375045802
H  H196  1  0.78680000  0.17230000  0.21320000  1.0 0.1375045802
H  H197  1  0.28680000  0.32770000  0.21320000  1.0 0.1375045802
H  H198  1  0.21320000  0.17230000  0.71320000  1.0 0.1375045802
H  H199  1  0.28680000  0.67230000  0.28680000  1.0 0.1375045802
H  H200  1  0.21320000  0.82770000  0.78680000  1.0 0.1375045802
H  H201  1  0.66840000  0.72130000  0.76300000  1.0 0.1375045802
H  H202  1  0.83160000  0.77870000  0.26300000  1.0 0.1375045802
H  H203  1  0.66840000  0.27870000  0.73700000  1.0 0.1375045802
H  H204  1  0.83160000  0.22130000  0.23700000  1.0 0.1375045802
H  H205  1  0.33160000  0.27870000  0.23700000  1.0 0.1375045802
H  H206  1  0.16840000  0.22130000  0.73700000  1.0 0.1375045802
H  H207  1  0.33160000  0.72130000  0.26300000  1.0 0.1375045802
H  H208  1  0.16840000  0.77870000  0.76300000  1.0 0.1375045802
H  H209  1  0.74400000  0.70650000  0.74060000  1.0 0.1375045802
H  H210  1  0.75600000  0.79350000  0.24060000  1.0 0.1375045802
H  H211  1  0.74400000  0.29350000  0.75940000  1.0 0.1375045802
H  H212  1  0.75600000  0.20650000  0.25940000  1.0 0.1375045802
H  H213  1  0.25600000  0.29350000  0.25940000  1.0 0.1375045802
H  H214  1  0.24400000  0.20650000  0.75940000  1.0 0.1375045802
H  H215  1  0.25600000  0.70650000  0.24060000  1.0 0.1375045802
H  H216  1  0.24400000  0.79350000  0.74060000  1.0 0.1375045802
H  H217  1  0.90890000  0.71030000  0.00320000  1.0 0.1087919287
H  H218  1  0.59110000  0.78970000  0.50320000  1.0 0.1087919287
H  H219  1  0.90890000  0.28970000  0.49680000  1.0 0.1087919287
H  H220  1  0.59110000  0.21030000  0.99680000  1.0 0.1087919287
H  H221  1  0.09110000  0.28970000  0.99680000  1.0 0.1087919287
H  H222  1  0.40890000  0.21030000  0.49680000  1.0 0.1087919287
H  H223  1  0.09110000  0.71030000  0.50320000  1.0 0.1087919287
H  H224  1  0.40890000  0.78970000  0.00320000  1.0 0.1087919287
H  H225  1  0.97490000  0.74890000  0.01420000  1.0 0.1087919287
H  H226  1  0.52510000  0.75110000  0.51420000  1.0 0.1087919287
H  H227  1  0.97490000  0.25110000  0.48580000  1.0 0.1087919287
H  H228  1  0.52510000  0.24890000  0.98580000  1.0 0.1087919287
H  H229  1  0.02510000  0.25110000  0.98580000  1.0 0.1087919287
H  H230  1  0.47490000  0.24890000  0.48580000  1.0 0.1087919287
H  H231  1  0.02510000  0.74890000  0.51420000  1.0 0.1087919287
H  H232  1  0.47490000  0.75110000  0.01420000  1.0 0.1087919287
H  H233  1  0.95850000  0.83740000  0.05920000  1.0 0.1087919287
H  H234  1  0.54150000  0.66260000  0.55920000  1.0 0.1087919287
H  H235  1  0.95850000  0.16260000  0.44080000  1.0 0.1087919287
H  H236  1  0.54150000  0.33740000  0.94080000  1.0 0.1087919287
H  H237  1  0.04150000  0.16260000  0.94080000  1.0 0.1087919287
H  H238  1  0.45850000  0.33740000  0.44080000  1.0 0.1087919287
H  H239  1  0.04150000  0.83740000  0.55920000  1.0 0.1087919287
H  H240  1  0.45850000  0.66260000  0.05920000  1.0 0.1087919287
H  H241  1  0.88180000  0.85560000  0.07680000  1.0 0.1029985025
H  H242  1  0.61820000  0.64440000  0.57680000  1.0 0.1029985025
H  H243  1  0.88180000  0.14440000  0.42320000  1.0 0.1029985025
H  H244  1  0.61820000  0.35560000  0.92320000  1.0 0.1029985025
H  H245  1  0.11820000  0.14440000  0.92320000  1.0 0.1029985025
H  H246  1  0.38180000  0.35560000  0.42320000  1.0 0.1029985025
H  H247  1  0.11820000  0.85560000  0.57680000  1.0 0.1029985025
H  H248  1  0.38180000  0.64440000  0.07680000  1.0 0.1029985025
H  H249  1  0.77820000  0.79390000  0.06060000  1.0 0.1087919287
H  H250  1  0.72180000  0.70610000  0.56060000  1.0 0.1087919287
H  H251  1  0.77820000  0.20610000  0.43940000  1.0 0.1087919287
H  H252  1  0.72180000  0.29390000  0.93940000  1.0 0.1087919287
H  H253  1  0.22180000  0.20610000  0.93940000  1.0 0.1087919287
H  H254  1  0.27820000  0.29390000  0.43940000  1.0 0.1087919287
H  H255  1  0.22180000  0.79390000  0.56060000  1.0 0.1087919287
H  H256  1  0.27820000  0.70610000  0.06060000  1.0 0.1087919287
H  H257  1  0.78960000  0.73630000  0.03360000  1.0 0.1087919287
H  H258  1  0.71040000  0.76370000  0.53360000  1.0 0.1087919287
H  H259  1  0.78960000  0.26370000  0.46640000  1.0 0.1087919287
H  H260  1  0.71040000  0.23630000  0.96640000  1.0 0.1087919287
H  H261  1  0.21040000  0.26370000  0.96640000  1.0 0.1087919287
H  H262  1  0.28960000  0.23630000  0.46640000  1.0 0.1087919287
H  H263  1  0.21040000  0.73630000  0.53360000  1.0 0.1087919287
H  H264  1  0.28960000  0.76370000  0.03360000  1.0 0.1087919287
H  H265  1  0.94350000  0.75520000  0.10480000  1.0 0.1298637137
H  H266  1  0.55650000  0.74480000  0.60480000  1.0 0.1298637137
H  H267  1  0.94350000  0.24480000  0.39520000  1.0 0.1298637137
H  H268  1  0.55650000  0.25520000  0.89520000  1.0 0.1298637137
H  H269  1  0.05650000  0.24480000  0.89520000  1.0 0.1298637137
H  H270  1  0.44350000  0.25520000  0.39520000  1.0 0.1298637137
H  H271  1  0.05650000  0.75520000  0.60480000  1.0 0.1298637137
H  H272  1  0.44350000  0.74480000  0.10480000  1.0 0.1298637137
H  H273  1  0.86330000  0.76630000  0.11950000  1.0 0.1298637137
H  H274  1  0.63670000  0.73370000  0.61950000  1.0 0.1298637137
H  H275  1  0.86330000  0.23370000  0.38050000  1.0 0.1298637137
H  H276  1  0.63670000  0.26630000  0.88050000  1.0 0.1298637137
H  H277  1  0.13670000  0.23370000  0.88050000  1.0 0.1298637137
H  H278  1  0.36330000  0.26630000  0.38050000  1.0 0.1298637137
H  H279  1  0.13670000  0.76630000  0.61950000  1.0 0.1298637137
H  H280  1  0.36330000  0.73370000  0.11950000  1.0 0.1298637137
H  H281  1  0.88450000  0.71120000  0.09090000  1.0 0.1298637137
H  H282  1  0.61550000  0.78880000  0.59090000  1.0 0.1298637137
H  H283  1  0.88450000  0.28880000  0.40910000  1.0 0.1298637137
H  H284  1  0.61550000  0.21120000  0.90910000  1.0 0.1298637137
H  H285  1  0.11550000  0.28880000  0.90910000  1.0 0.1298637137
H  H286  1  0.38450000  0.21120000  0.40910000  1.0 0.1298637137
H  H287  1  0.11550000  0.71120000  0.59090000  1.0 0.1298637137
H  H288  1  0.38450000  0.78880000  0.09090000  1.0 0.1298637137
H  H289  1  0.15880000  0.78890000  0.04020000  1.0 0.1618353303
H  H290  1  0.34120000  0.71110000  0.54020000  1.0 0.1618353303
H  H291  1  0.15880000  0.21110000  0.45980000  1.0 0.1618353303
H  H292  1  0.34120000  0.28890000  0.95980000  1.0 0.1618353303
H  H293  1  0.84120000  0.21110000  0.95980000  1.0 0.1618353303
H  H294  1  0.65880000  0.28890000  0.45980000  1.0 0.1618353303
H  H295  1  0.84120000  0.78890000  0.54020000  1.0 0.1618353303
H  H296  1  0.65880000  0.71110000  0.04020000  1.0 0.1618353303
H  H297  1  0.19690000  0.81920000  0.99450000  1.0 0.1754691385
H  H298  1  0.30310000  0.68080000  0.49450000  1.0 0.1754691385
H  H299  1  0.19690000  0.18080000  0.50550000  1.0 0.1754691385
H  H300  1  0.30310000  0.31920000  0.00550000  1.0 0.1754691385
H  H301  1  0.80310000  0.18080000  0.00550000  1.0 0.1754691385
H  H302  1  0.69690000  0.31920000  0.50550000  1.0 0.1754691385
H  H303  1  0.80310000  0.81920000  0.49450000  1.0 0.1754691385
H  H304  1  0.69690000  0.68080000  0.99450000  1.0 0.1754691385
H  H305  1  0.15090000  0.85380000  0.03340000  1.0 0.1618353303
H  H306  1  0.34910000  0.64620000  0.53340000  1.0 0.1618353303
H  H307  1  0.15090000  0.14620000  0.46660000  1.0 0.1618353303
H  H308  1  0.34910000  0.35380000  0.96660000  1.0 0.1618353303
H  H309  1  0.84910000  0.14620000  0.96660000  1.0 0.1618353303
H  H310  1  0.65090000  0.35380000  0.46660000  1.0 0.1618353303
H  H311  1  0.84910000  0.85380000  0.53340000  1.0 0.1618353303
H  H312  1  0.65090000  0.64620000  0.03340000  1.0 0.1618353303
H  H313  1  0.88930000  0.13160000  0.80880000  1.0 0.1673158947
H  H314  1  0.61070000  0.36840000  0.30880000  1.0 0.1673158947
H  H315  1  0.88930000  0.86840000  0.69120000  1.0 0.1673158947
H  H316  1  0.61070000  0.63160000  0.19120000  1.0 0.1673158947
H  H317  1  0.11070000  0.86840000  0.19120000  1.0 0.1673158947
H  H318  1  0.38930000  0.63160000  0.69120000  1.0 0.1673158947
H  H319  1  0.11070000  0.13160000  0.30880000  1.0 0.1673158947
H  H320  1  0.38930000  0.36840000  0.80880000  1.0 0.1673158947
H  H321  1  0.90000000  0.12930000  0.86810000  1.0 0.1618353303
H  H322  1  0.60000000  0.37070000  0.36810000  1.0 0.1618353303
H  H323  1  0.90000000  0.87070000  0.63190000  1.0 0.1618353303
H  H324  1  0.60000000  0.62930000  0.13190000  1.0 0.1618353303
H  H325  1  0.10000000  0.87070000  0.13190000  1.0 0.1618353303
H  H326  1  0.40000000  0.62930000  0.63190000  1.0 0.1618353303
H  H327  1  0.10000000  0.12930000  0.36810000  1.0 0.1618353303
H  H328  1  0.40000000  0.37070000  0.86810000  1.0 0.1618353303
H  H329  1  0.96320000  0.11300000  0.83160000  1.0 0.1673158947
H  H330  1  0.53680000  0.38700000  0.33160000  1.0 0.1673158947
H  H331  1  0.96320000  0.88700000  0.66840000  1.0 0.1673158947
H  H332  1  0.53680000  0.61300000  0.16840000  1.0 0.1673158947
H  H333  1  0.03680000  0.88700000  0.16840000  1.0 0.1673158947
H  H334  1  0.46320000  0.61300000  0.66840000  1.0 0.1673158947
H  H335  1  0.03680000  0.11300000  0.33160000  1.0 0.1673158947
H  H336  1  0.46320000  0.38700000  0.83160000  1.0 0.1673158947
H  H337  1  0.47880000  0.88630000  0.84110000  1.0 0.1618353303
H  H338  1  0.02120000  0.61370000  0.34110000  1.0 0.1618353303
H  H339  1  0.47880000  0.11370000  0.65890000  1.0 0.1618353303
H  H340  1  0.02120000  0.38630000  0.15890000  1.0 0.1618353303
H  H341  1  0.52120000  0.11370000  0.15890000  1.0 0.1618353303
H  H342  1  0.97880000  0.38630000  0.65890000  1.0 0.1618353303
H  H343  1  0.52120000  0.88630000  0.34110000  1.0 0.1618353303
H  H344  1  0.97880000  0.61370000  0.84110000  1.0 0.1618353303
H  H345  1  0.52960000  0.93040000  0.81550000  1.0 0.1496295206
H  H346  1  0.97040000  0.56960000  0.31550000  1.0 0.1496295206
H  H347  1  0.52960000  0.06960000  0.68450000  1.0 0.1496295206
H  H348  1  0.97040000  0.43040000  0.18450000  1.0 0.1496295206
H  H349  1  0.47040000  0.06960000  0.18450000  1.0 0.1496295206
H  H350  1  0.02960000  0.43040000  0.68450000  1.0 0.1496295206
H  H351  1  0.47040000  0.93040000  0.31550000  1.0 0.1496295206
H  H352  1  0.02960000  0.56960000  0.81550000  1.0 0.1496295206
H  H353  1  0.51790000  0.87200000  0.78970000  1.0 0.1618353303
H  H354  1  0.98210000  0.62800000  0.28970000  1.0 0.1618353303
H  H355  1  0.51790000  0.12800000  0.71030000  1.0 0.1618353303
H  H356  1  0.98210000  0.37200000  0.21030000  1.0 0.1618353303
H  H357  1  0.48210000  0.12800000  0.21030000  1.0 0.1618353303
H  H358  1  0.01790000  0.37200000  0.71030000  1.0 0.1618353303
H  H359  1  0.48210000  0.87200000  0.28970000  1.0 0.1618353303
H  H360  1  0.01790000  0.62800000  0.78970000  1.0 0.1618353303
H  H361  1  0.05100000  0.74380000  0.72120000  1.0 0.1673158947
H  H362  1  0.44900000  0.75620000  0.22120000  1.0 0.1673158947
H  H363  1  0.05100000  0.25620000  0.77880000  1.0 0.1673158947
H  H364  1  0.44900000  0.24380000  0.27880000  1.0 0.1673158947
H  H365  1  0.94900000  0.25620000  0.27880000  1.0 0.1673158947
H  H366  1  0.55100000  0.24380000  0.77880000  1.0 0.1673158947
H  H367  1  0.94900000  0.74380000  0.22120000  1.0 0.1673158947
H  H368  1  0.55100000  0.75620000  0.72120000  1.0 0.1673158947
H  H369  1  0.97600000  0.75580000  0.69630000  1.0 0.1673158947
H  H370  1  0.52400000  0.74420000  0.19630000  1.0 0.1673158947
H  H371  1  0.97600000  0.24420000  0.80370000  1.0 0.1673158947
H  H372  1  0.52400000  0.25580000  0.30370000  1.0 0.1673158947
H  H373  1  0.02400000  0.24420000  0.30370000  1.0 0.1673158947
H  H374  1  0.47600000  0.25580000  0.80370000  1.0 0.1673158947
H  H375  1  0.02400000  0.75580000  0.19630000  1.0 0.1673158947
H  H376  1  0.47600000  0.74420000  0.69630000  1.0 0.1673158947
H  H377  1  0.02700000  0.80550000  0.71050000  1.0 0.1618353303
H  H378  1  0.47300000  0.69450000  0.21050000  1.0 0.1618353303
H  H379  1  0.02700000  0.19450000  0.78950000  1.0 0.1618353303
H  H380  1  0.47300000  0.30550000  0.28950000  1.0 0.1618353303
H  H381  1  0.97300000  0.19450000  0.28950000  1.0 0.1618353303
H  H382  1  0.52700000  0.30550000  0.78950000  1.0 0.1618353303
H  H383  1  0.97300000  0.80550000  0.21050000  1.0 0.1618353303
H  H384  1  0.52700000  0.69450000  0.71050000  1.0 0.1618353303
H  H385  1  0.77260000  0.94430000  0.15700000  1.0 0.1496295206
H  H386  1  0.72740000  0.55570000  0.65700000  1.0 0.1496295206
H  H387  1  0.77260000  0.05570000  0.34300000  1.0 0.1496295206
H  H388  1  0.72740000  0.44430000  0.84300000  1.0 0.1496295206
H  H389  1  0.22740000  0.05570000  0.84300000  1.0 0.1496295206
H  H390  1  0.27260000  0.44430000  0.34300000  1.0 0.1496295206
H  H391  1  0.22740000  0.94430000  0.65700000  1.0 0.1496295206
H  H392  1  0.27260000  0.55570000  0.15700000  1.0 0.1496295206
H  H393  1  0.73140000  0.99320000  0.13000000  1.0 0.1496295206
H  H394  1  0.76860000  0.50680000  0.63000000  1.0 0.1496295206
H  H395  1  0.73140000  0.00680000  0.37000000  1.0 0.1496295206
H  H396  1  0.76860000  0.49320000  0.87000000  1.0 0.1496295206
H  H397  1  0.26860000  0.00680000  0.87000000  1.0 0.1496295206
H  H398  1  0.23140000  0.49320000  0.37000000  1.0 0.1496295206
H  H399  1  0.26860000  0.99320000  0.63000000  1.0 0.1496295206
H  H400  1  0.23140000  0.50680000  0.13000000  1.0 0.1496295206
H  H401  1  0.69820000  0.93300000  0.13110000  1.0 0.1496295206
H  H402  1  0.80180000  0.56700000  0.63110000  1.0 0.1496295206
H  H403  1  0.69820000  0.06700000  0.36890000  1.0 0.1496295206
H  H404  1  0.80180000  0.43300000  0.86890000  1.0 0.1496295206
H  H405  1  0.30180000  0.06700000  0.86890000  1.0 0.1496295206
H  H406  1  0.19820000  0.43300000  0.36890000  1.0 0.1496295206
H  H407  1  0.30180000  0.93300000  0.63110000  1.0 0.1496295206
H  H408  1  0.19820000  0.56700000  0.13110000  1.0 0.1496295206
H  H409  1  0.83490000  0.56770000  0.92710000  1.0 0.1673158947
H  H410  1  0.66510000  0.93230000  0.42710000  1.0 0.1673158947
H  H411  1  0.83490000  0.43230000  0.57290000  1.0 0.1673158947
H  H412  1  0.66510000  0.06770000  0.07290000  1.0 0.1673158947
H  H413  1  0.16510000  0.43230000  0.07290000  1.0 0.1673158947
H  H414  1  0.33490000  0.06770000  0.57290000  1.0 0.1673158947
H  H415  1  0.16510000  0.56770000  0.42710000  1.0 0.1673158947
H  H416  1  0.33490000  0.93230000  0.92710000  1.0 0.1673158947
H  H417  1  0.76960000  0.59440000  0.95580000  1.0 0.1618353303
H  H418  1  0.73040000  0.90560000  0.45580000  1.0 0.1618353303
H  H419  1  0.76960000  0.40560000  0.54420000  1.0 0.1618353303
H  H420  1  0.73040000  0.09440000  0.04420000  1.0 0.1618353303
H  H421  1  0.23040000  0.40560000  0.04420000  1.0 0.1618353303
H  H422  1  0.26960000  0.09440000  0.54420000  1.0 0.1618353303
H  H423  1  0.23040000  0.59440000  0.45580000  1.0 0.1618353303
H  H424  1  0.26960000  0.90560000  0.95580000  1.0 0.1618353303
H  H425  1  0.77180000  0.59420000  0.89590000  1.0 0.1618353303
H  H426  1  0.72820000  0.90580000  0.39590000  1.0 0.1618353303
H  H427  1  0.77180000  0.40580000  0.60410000  1.0 0.1618353303
H  H428  1  0.72820000  0.09420000  0.10410000  1.0 0.1618353303
H  H429  1  0.22820000  0.40580000  0.10410000  1.0 0.1618353303
H  H430  1  0.27180000  0.09420000  0.60410000  1.0 0.1618353303
H  H431  1  0.22820000  0.59420000  0.39590000  1.0 0.1618353303
H  H432  1  0.27180000  0.90580000  0.89590000  1.0 0.1618353303
H  H433  1  0.06080000  0.95130000  0.05830000  1.0 0.3394742522
H  H434  1  0.43920000  0.54870000  0.55830000  1.0 0.3394742522
H  H435  1  0.06080000  0.04870000  0.44170000  1.0 0.3394742522
H  H436  1  0.43920000  0.45130000  0.94170000  1.0 0.3394742522
H  H437  1  0.93920000  0.04870000  0.94170000  1.0 0.3394742522
H  H438  1  0.56080000  0.45130000  0.44170000  1.0 0.3394742522
H  H439  1  0.93920000  0.95130000  0.55830000  1.0 0.3394742522
H  H440  1  0.56080000  0.54870000  0.05830000  1.0 0.3394742522
H  H441  1  0.05290000  0.91850000  0.01820000  1.0 0.3394742522
H  H442  1  0.44710000  0.58150000  0.51820000  1.0 0.3394742522
H  H443  1  0.05290000  0.08150000  0.48180000  1.0 0.3394742522
H  H444  1  0.44710000  0.41850000  0.98180000  1.0 0.3394742522
H  H445  1  0.94710000  0.08150000  0.98180000  1.0 0.3394742522
H  H446  1  0.55290000  0.41850000  0.48180000  1.0 0.3394742522
H  H447  1  0.94710000  0.91850000  0.51820000  1.0 0.3394742522
H  H448  1  0.55290000  0.58150000  0.01820000  1.0 0.3394742522
C  C1  1  0.71040000  0.99240000  0.92550000  1.0 0.1298637137
C  C2  1  0.78960000  0.50760000  0.42550000  1.0 0.1298637137
C  C3  1  0.71040000  0.00760000  0.57450000  1.0 0.1298637137
C  C4  1  0.78960000  0.49240000  0.07450000  1.0 0.1298637137
C  C5  1  0.28960000  0.00760000  0.07450000  1.0 0.1298637137
C  C6  1  0.21040000  0.49240000  0.57450000  1.0 0.1298637137
C  C7  1  0.28960000  0.99240000  0.42550000  1.0 0.1298637137
C  C8  1  0.21040000  0.50760000  0.92550000  1.0 0.1298637137
C  C9  1  0.67010000  0.94110000  0.94240000  1.0 -0.0502499797
C  C10  1  0.82990000  0.55890000  0.44240000  1.0 -0.0502499797
C  C11  1  0.67010000  0.05890000  0.55760000  1.0 -0.0502499797
C  C12  1  0.82990000  0.44110000  0.05760000  1.0 -0.0502499797
C  C13  1  0.32990000  0.05890000  0.05760000  1.0 -0.0502499797
C  C14  1  0.17010000  0.44110000  0.55760000  1.0 -0.0502499797
C  C15  1  0.32990000  0.94110000  0.44240000  1.0 -0.0502499797
C  C16  1  0.17010000  0.55890000  0.94240000  1.0 -0.0502499797
C  C17  1  0.72890000  0.98890000  0.87040000  1.0 -0.0502499797
C  C18  1  0.77110000  0.51110000  0.37040000  1.0 -0.0502499797
C  C19  1  0.72890000  0.01110000  0.62960000  1.0 -0.0502499797
C  C20  1  0.77110000  0.48890000  0.12960000  1.0 -0.0502499797
C  C21  1  0.27110000  0.01110000  0.12960000  1.0 -0.0502499797
C  C22  1  0.22890000  0.48890000  0.62960000  1.0 -0.0502499797
C  C23  1  0.27110000  0.98890000  0.37040000  1.0 -0.0502499797
C  C24  1  0.22890000  0.51110000  0.87040000  1.0 -0.0502499797
C  C25  1  0.77570000  0.00300000  0.95680000  1.0 -0.0502499797
C  C26  1  0.72430000  0.49700000  0.45680000  1.0 -0.0502499797
C  C27  1  0.77570000  0.99700000  0.54320000  1.0 -0.0502499797
C  C28  1  0.72430000  0.50300000  0.04320000  1.0 -0.0502499797
C  C29  1  0.22430000  0.99700000  0.04320000  1.0 -0.0502499797
C  C30  1  0.27570000  0.50300000  0.54320000  1.0 -0.0502499797
C  C31  1  0.22430000  0.00300000  0.45680000  1.0 -0.0502499797
C  C32  1  0.27570000  0.49700000  0.95680000  1.0 -0.0502499797
C  C33  1  0.66020000  0.04150000  0.93230000  1.0 -0.460944812
C  C34  1  0.83980000  0.45850000  0.43230000  1.0 -0.460944812
C  C35  1  0.66020000  0.95850000  0.56770000  1.0 -0.460944812
C  C36  1  0.83980000  0.54150000  0.06770000  1.0 -0.460944812
C  C37  1  0.33980000  0.95850000  0.06770000  1.0 -0.460944812
C  C38  1  0.16020000  0.54150000  0.56770000  1.0 -0.460944812
C  C39  1  0.33980000  0.04150000  0.43230000  1.0 -0.460944812
C  C40  1  0.16020000  0.45850000  0.93230000  1.0 -0.460944812
C  C41  1  0.03800000  0.91400000  0.85310000  1.0 0.1375045802
C  C42  1  0.46200000  0.58600000  0.35310000  1.0 0.1375045802
C  C43  1  0.03800000  0.08600000  0.64690000  1.0 0.1375045802
C  C44  1  0.46200000  0.41400000  0.14690000  1.0 0.1375045802
C  C45  1  0.96200000  0.08600000  0.14690000  1.0 0.1375045802
C  C46  1  0.53800000  0.41400000  0.64690000  1.0 0.1375045802
C  C47  1  0.96200000  0.91400000  0.35310000  1.0 0.1375045802
C  C48  1  0.53800000  0.58600000  0.85310000  1.0 0.1375045802
C  C49  1  0.98140000  0.92700000  0.81460000  1.0 -0.0424426654
C  C50  1  0.51860000  0.57300000  0.31460000  1.0 -0.0424426654
C  C51  1  0.98140000  0.07300000  0.68540000  1.0 -0.0424426654
C  C52  1  0.51860000  0.42700000  0.18540000  1.0 -0.0424426654
C  C53  1  0.01860000  0.07300000  0.18540000  1.0 -0.0424426654
C  C54  1  0.48140000  0.42700000  0.68540000  1.0 -0.0424426654
C  C55  1  0.01860000  0.92700000  0.31460000  1.0 -0.0424426654
C  C56  1  0.48140000  0.57300000  0.81460000  1.0 -0.0424426654
C  C57  1  0.04540000  0.85290000  0.86160000  1.0 -0.0424426654
C  C58  1  0.45460000  0.64710000  0.36160000  1.0 -0.0424426654
C  C59  1  0.04540000  0.14710000  0.63840000  1.0 -0.0424426654
C  C60  1  0.45460000  0.35290000  0.13840000  1.0 -0.0424426654
C  C61  1  0.95460000  0.14710000  0.13840000  1.0 -0.0424426654
C  C62  1  0.54540000  0.35290000  0.63840000  1.0 -0.0424426654
C  C63  1  0.95460000  0.85290000  0.36160000  1.0 -0.0424426654
C  C64  1  0.54540000  0.64710000  0.86160000  1.0 -0.0424426654
C  C65  1  0.02430000  0.94320000  0.90230000  1.0 -0.0502499797
C  C66  1  0.47570000  0.55680000  0.40230000  1.0 -0.0502499797
C  C67  1  0.02430000  0.05680000  0.59770000  1.0 -0.0502499797
C  C68  1  0.47570000  0.44320000  0.09770000  1.0 -0.0502499797
C  C69  1  0.97570000  0.05680000  0.09770000  1.0 -0.0502499797
C  C70  1  0.52430000  0.44320000  0.59770000  1.0 -0.0502499797
C  C71  1  0.97570000  0.94320000  0.40230000  1.0 -0.0502499797
C  C72  1  0.52430000  0.55680000  0.90230000  1.0 -0.0502499797
C  C73  1  0.10820000  0.93540000  0.83190000  1.0 -0.460944812
C  C74  1  0.39180000  0.56460000  0.33190000  1.0 -0.460944812
C  C75  1  0.10820000  0.06460000  0.66810000  1.0 -0.460944812
C  C76  1  0.39180000  0.43540000  0.16810000  1.0 -0.460944812
C  C77  1  0.89180000  0.06460000  0.16810000  1.0 -0.460944812
C  C78  1  0.60820000  0.43540000  0.66810000  1.0 -0.460944812
C  C79  1  0.89180000  0.93540000  0.33190000  1.0 -0.460944812
C  C80  1  0.60820000  0.56460000  0.83190000  1.0 -0.460944812
C  C81  1  0.75030000  0.74910000  0.80790000  1.0 0.1298637137
C  C82  1  0.74970000  0.75090000  0.30790000  1.0 0.1298637137
C  C83  1  0.75030000  0.25090000  0.69210000  1.0 0.1298637137
C  C84  1  0.74970000  0.24910000  0.19210000  1.0 0.1298637137
C  C85  1  0.24970000  0.25090000  0.19210000  1.0 0.1298637137
C  C86  1  0.25030000  0.24910000  0.69210000  1.0 0.1298637137
C  C87  1  0.24970000  0.74910000  0.30790000  1.0 0.1298637137
C  C88  1  0.25030000  0.75090000  0.80790000  1.0 0.1298637137
C  C89  1  0.70270000  0.75390000  0.85300000  1.0 -0.0502499797
C  C90  1  0.79730000  0.74610000  0.35300000  1.0 -0.0502499797
C  C91  1  0.70270000  0.24610000  0.64700000  1.0 -0.0502499797
C  C92  1  0.79730000  0.25390000  0.14700000  1.0 -0.0502499797
C  C93  1  0.29730000  0.24610000  0.14700000  1.0 -0.0502499797
C  C94  1  0.20270000  0.25390000  0.64700000  1.0 -0.0502499797
C  C95  1  0.29730000  0.75390000  0.35300000  1.0 -0.0502499797
C  C96  1  0.20270000  0.74610000  0.85300000  1.0 -0.0502499797
C  C97  1  0.82150000  0.72580000  0.82200000  1.0 -0.0502499797
C  C98  1  0.67850000  0.77420000  0.32200000  1.0 -0.0502499797
C  C99  1  0.82150000  0.27420000  0.67800000  1.0 -0.0502499797
C  C100  1  0.67850000  0.22580000  0.17800000  1.0 -0.0502499797
C  C101  1  0.17850000  0.27420000  0.17800000  1.0 -0.0502499797
C  C102  1  0.32150000  0.22580000  0.67800000  1.0 -0.0502499797
C  C103  1  0.17850000  0.72580000  0.32200000  1.0 -0.0502499797
C  C104  1  0.32150000  0.77420000  0.82200000  1.0 -0.0502499797
C  C105  1  0.75750000  0.80380000  0.78030000  1.0 -0.0424426654
C  C106  1  0.74250000  0.69620000  0.28030000  1.0 -0.0424426654
C  C107  1  0.75750000  0.19620000  0.71970000  1.0 -0.0424426654
C  C108  1  0.74250000  0.30380000  0.21970000  1.0 -0.0424426654
C  C109  1  0.24250000  0.19620000  0.21970000  1.0 -0.0424426654
C  C110  1  0.25750000  0.30380000  0.71970000  1.0 -0.0424426654
C  C111  1  0.24250000  0.80380000  0.28030000  1.0 -0.0424426654
C  C112  1  0.25750000  0.69620000  0.78030000  1.0 -0.0424426654
C  C113  1  0.71580000  0.70860000  0.77120000  1.0 -0.460944812
C  C114  1  0.78420000  0.79140000  0.27120000  1.0 -0.460944812
C  C115  1  0.71580000  0.29140000  0.72880000  1.0 -0.460944812
C  C116  1  0.78420000  0.20860000  0.22880000  1.0 -0.460944812
C  C117  1  0.28420000  0.29140000  0.22880000  1.0 -0.460944812
C  C118  1  0.21580000  0.20860000  0.72880000  1.0 -0.460944812
C  C119  1  0.28420000  0.70860000  0.27120000  1.0 -0.460944812
C  C120  1  0.21580000  0.79140000  0.77120000  1.0 -0.460944812
C  C121  1  0.88300000  0.77870000  0.04420000  1.0 0.1298637137
C  C122  1  0.61700000  0.72130000  0.54420000  1.0 0.1298637137
C  C123  1  0.88300000  0.22130000  0.45580000  1.0 0.1298637137
C  C124  1  0.61700000  0.27870000  0.95580000  1.0 0.1298637137
C  C125  1  0.11700000  0.22130000  0.95580000  1.0 0.1298637137
C  C126  1  0.38300000  0.27870000  0.45580000  1.0 0.1298637137
C  C127  1  0.11700000  0.77870000  0.54420000  1.0 0.1298637137
C  C128  1  0.38300000  0.72130000  0.04420000  1.0 0.1298637137
C  C129  1  0.92470000  0.74890000  0.00460000  1.0 -0.0502499797
C  C130  1  0.57530000  0.75110000  0.50460000  1.0 -0.0502499797
C  C131  1  0.92470000  0.25110000  0.49540000  1.0 -0.0502499797
C  C132  1  0.57530000  0.24890000  0.99540000  1.0 -0.0502499797
C  C133  1  0.07530000  0.25110000  0.99540000  1.0 -0.0502499797
C  C134  1  0.42470000  0.24890000  0.49540000  1.0 -0.0502499797
C  C135  1  0.07530000  0.74890000  0.50460000  1.0 -0.0502499797
C  C136  1  0.42470000  0.75110000  0.00460000  1.0 -0.0502499797
C  C137  1  0.90840000  0.83790000  0.04930000  1.0 -0.0502499797
C  C138  1  0.59160000  0.66210000  0.54930000  1.0 -0.0502499797
C  C139  1  0.90840000  0.16210000  0.45070000  1.0 -0.0502499797
C  C140  1  0.59160000  0.33790000  0.95070000  1.0 -0.0502499797
C  C141  1  0.09160000  0.16210000  0.95070000  1.0 -0.0502499797
C  C142  1  0.40840000  0.33790000  0.45070000  1.0 -0.0502499797
C  C143  1  0.09160000  0.83790000  0.54930000  1.0 -0.0502499797
C  C144  1  0.40840000  0.66210000  0.04930000  1.0 -0.0502499797
C  C145  1  0.80370000  0.77530000  0.03320000  1.0 -0.0424426654
C  C146  1  0.69630000  0.72470000  0.53320000  1.0 -0.0424426654
C  C147  1  0.80370000  0.22470000  0.46680000  1.0 -0.0424426654
C  C148  1  0.69630000  0.27530000  0.96680000  1.0 -0.0424426654
C  C149  1  0.19630000  0.22470000  0.96680000  1.0 -0.0424426654
C  C150  1  0.30370000  0.27530000  0.46680000  1.0 -0.0424426654
C  C151  1  0.19630000  0.77530000  0.53320000  1.0 -0.0424426654
C  C152  1  0.30370000  0.72470000  0.03320000  1.0 -0.0424426654
C  C153  1  0.89460000  0.75030000  0.09430000  1.0 -0.460944812
C  C154  1  0.60540000  0.74970000  0.59430000  1.0 -0.460944812
C  C155  1  0.89460000  0.24970000  0.40570000  1.0 -0.460944812
C  C156  1  0.60540000  0.25030000  0.90570000  1.0 -0.460944812
C  C157  1  0.10540000  0.24970000  0.90570000  1.0 -0.460944812
C  C158  1  0.39460000  0.25030000  0.40570000  1.0 -0.460944812
C  C159  1  0.10540000  0.75030000  0.59430000  1.0 -0.460944812
C  C160  1  0.39460000  0.74970000  0.09430000  1.0 -0.460944812
C  C161  1  0.09140000  0.81000000  0.98400000  1.0 0.6917803667
C  C162  1  0.40860000  0.69000000  0.48400000  1.0 0.6917803667
C  C163  1  0.09140000  0.19000000  0.51600000  1.0 0.6917803667
C  C164  1  0.40860000  0.31000000  0.01600000  1.0 0.6917803667
C  C165  1  0.90860000  0.19000000  0.01600000  1.0 0.6917803667
C  C166  1  0.59140000  0.31000000  0.51600000  1.0 0.6917803667
C  C167  1  0.90860000  0.81000000  0.48400000  1.0 0.6917803667
C  C168  1  0.59140000  0.69000000  0.98400000  1.0 0.6917803667
C  C169  1  0.15490000  0.81870000  0.01570000  1.0 -0.6514901735
C  C170  1  0.34510000  0.68130000  0.51570000  1.0 -0.6514901735
C  C171  1  0.15490000  0.18130000  0.48430000  1.0 -0.6514901735
C  C172  1  0.34510000  0.31870000  0.98430000  1.0 -0.6514901735
C  C173  1  0.84510000  0.18130000  0.98430000  1.0 -0.6514901735
C  C174  1  0.65490000  0.31870000  0.48430000  1.0 -0.6514901735
C  C175  1  0.84510000  0.81870000  0.51570000  1.0 -0.6514901735
C  C176  1  0.65490000  0.68130000  0.01570000  1.0 -0.6514901735
C  C177  1  0.88800000  0.05400000  0.83660000  1.0 0.6979108758
C  C178  1  0.61200000  0.44600000  0.33660000  1.0 0.6979108758
C  C179  1  0.88800000  0.94600000  0.66340000  1.0 0.6979108758
C  C180  1  0.61200000  0.55400000  0.16340000  1.0 0.6979108758
C  C181  1  0.11200000  0.94600000  0.16340000  1.0 0.6979108758
C  C182  1  0.38800000  0.55400000  0.66340000  1.0 0.6979108758
C  C183  1  0.11200000  0.05400000  0.33660000  1.0 0.6979108758
C  C184  1  0.38800000  0.44600000  0.83660000  1.0 0.6979108758
C  C185  1  0.91220000  0.11190000  0.83620000  1.0 -0.6389446475
C  C186  1  0.58780000  0.38810000  0.33620000  1.0 -0.6389446475
C  C187  1  0.91220000  0.88810000  0.66380000  1.0 -0.6389446475
C  C188  1  0.58780000  0.61190000  0.16380000  1.0 -0.6389446475
C  C189  1  0.08780000  0.88810000  0.16380000  1.0 -0.6389446475
C  C190  1  0.41220000  0.61190000  0.66380000  1.0 -0.6389446475
C  C191  1  0.08780000  0.11190000  0.33620000  1.0 -0.6389446475
C  C192  1  0.41220000  0.38810000  0.83620000  1.0 -0.6389446475
C  C193  1  0.58330000  0.86860000  0.85060000  1.0 0.6979108758
C  C194  1  0.91670000  0.63140000  0.35060000  1.0 0.6979108758
C  C195  1  0.58330000  0.13140000  0.64940000  1.0 0.6979108758
C  C196  1  0.91670000  0.36860000  0.14940000  1.0 0.6979108758
C  C197  1  0.41670000  0.13140000  0.14940000  1.0 0.6979108758
C  C198  1  0.08330000  0.36860000  0.64940000  1.0 0.6979108758
C  C199  1  0.41670000  0.86860000  0.35060000  1.0 0.6979108758
C  C200  1  0.08330000  0.63140000  0.85060000  1.0 0.6979108758
C  C201  1  0.52200000  0.89130000  0.82170000  1.0 -0.6133687415
C  C202  1  0.97800000  0.60870000  0.32170000  1.0 -0.6133687415
C  C203  1  0.52200000  0.10870000  0.67830000  1.0 -0.6133687415
C  C204  1  0.97800000  0.39130000  0.17830000  1.0 -0.6133687415
C  C205  1  0.47800000  0.10870000  0.17830000  1.0 -0.6133687415
C  C206  1  0.02200000  0.39130000  0.67830000  1.0 -0.6133687415
C  C207  1  0.47800000  0.89130000  0.32170000  1.0 -0.6133687415
C  C208  1  0.02200000  0.60870000  0.82170000  1.0 -0.6133687415
C  C209  1  0.97970000  0.77180000  0.76930000  1.0 0.6596471153
C  C210  1  0.52030000  0.72820000  0.26930000  1.0 0.6596471153
C  C211  1  0.97970000  0.22820000  0.73070000  1.0 0.6596471153
C  C212  1  0.52030000  0.27180000  0.23070000  1.0 0.6596471153
C  C213  1  0.02030000  0.22820000  0.23070000  1.0 0.6596471153
C  C214  1  0.47970000  0.27180000  0.73070000  1.0 0.6596471153
C  C215  1  0.02030000  0.77180000  0.26930000  1.0 0.6596471153
C  C216  1  0.47970000  0.72820000  0.76930000  1.0 0.6596471153
C  C217  1  0.01090000  0.76900000  0.72050000  1.0 -0.6225015737
C  C218  1  0.48910000  0.73100000  0.22050000  1.0 -0.6225015737
C  C219  1  0.01090000  0.23100000  0.77950000  1.0 -0.6225015737
C  C220  1  0.48910000  0.26900000  0.27950000  1.0 -0.6225015737
C  C221  1  0.98910000  0.23100000  0.27950000  1.0 -0.6225015737
C  C222  1  0.51090000  0.26900000  0.77950000  1.0 -0.6225015737
C  C223  1  0.98910000  0.76900000  0.22050000  1.0 -0.6225015737
C  C224  1  0.51090000  0.73100000  0.72050000  1.0 -0.6225015737
C  C225  1  0.77840000  0.94060000  0.08040000  1.0 0.6917803667
C  C226  1  0.72160000  0.55940000  0.58040000  1.0 0.6917803667
C  C227  1  0.77840000  0.05940000  0.41960000  1.0 0.6917803667
C  C228  1  0.72160000  0.44060000  0.91960000  1.0 0.6917803667
C  C229  1  0.22160000  0.05940000  0.91960000  1.0 0.6917803667
C  C230  1  0.27840000  0.44060000  0.41960000  1.0 0.6917803667
C  C231  1  0.22160000  0.94060000  0.58040000  1.0 0.6917803667
C  C232  1  0.27840000  0.55940000  0.08040000  1.0 0.6917803667
C  C233  1  0.74200000  0.95400000  0.12880000  1.0 -0.5869967148
C  C234  1  0.75800000  0.54600000  0.62880000  1.0 -0.5869967148
C  C235  1  0.74200000  0.04600000  0.37120000  1.0 -0.5869967148
C  C236  1  0.75800000  0.45400000  0.87120000  1.0 -0.5869967148
C  C237  1  0.25800000  0.04600000  0.87120000  1.0 -0.5869967148
C  C238  1  0.24200000  0.45400000  0.37120000  1.0 -0.5869967148
C  C239  1  0.25800000  0.95400000  0.62880000  1.0 -0.5869967148
C  C240  1  0.24200000  0.54600000  0.12880000  1.0 -0.5869967148
C  C241  1  0.83710000  0.65140000  0.92690000  1.0 0.6596471153
C  C242  1  0.66290000  0.84860000  0.42690000  1.0 0.6596471153
C  C243  1  0.83710000  0.34860000  0.57310000  1.0 0.6596471153
C  C244  1  0.66290000  0.15140000  0.07310000  1.0 0.6596471153
C  C245  1  0.16290000  0.34860000  0.07310000  1.0 0.6596471153
C  C246  1  0.33710000  0.15140000  0.57310000  1.0 0.6596471153
C  C247  1  0.16290000  0.65140000  0.42690000  1.0 0.6596471153
C  C248  1  0.33710000  0.84860000  0.92690000  1.0 0.6596471153
C  C249  1  0.80020000  0.59720000  0.92640000  1.0 -0.6225015737
C  C250  1  0.69980000  0.90280000  0.42640000  1.0 -0.6225015737
C  C251  1  0.80020000  0.40280000  0.57360000  1.0 -0.6225015737
C  C252  1  0.69980000  0.09720000  0.07360000  1.0 -0.6225015737
C  C253  1  0.19980000  0.40280000  0.07360000  1.0 -0.6225015737
C  C254  1  0.30020000  0.09720000  0.57360000  1.0 -0.6225015737
C  C255  1  0.19980000  0.59720000  0.42640000  1.0 -0.6225015737
C  C256  1  0.30020000  0.90280000  0.92640000  1.0 -0.6225015737
O  O1  1  0.84770000  0.85439000  0.90383000  1.0 -0.782283298
O  O2  1  0.65230000  0.64561000  0.40383000  1.0 -0.782283298
O  O3  1  0.84770000  0.14561000  0.59617000  1.0 -0.782283298
O  O4  1  0.65230000  0.35439000  0.09617000  1.0 -0.782283298
O  O5  1  0.15230000  0.14561000  0.09617000  1.0 -0.782283298
O  O6  1  0.34770000  0.35439000  0.59617000  1.0 -0.782283298
O  O7  1  0.15230000  0.85439000  0.40383000  1.0 -0.782283298
O  O8  1  0.34770000  0.64561000  0.90383000  1.0 -0.782283298
O  O9  1  0.70843000  0.89122000  0.93580000  1.0 -0.5869967148
O  O10  1  0.79157000  0.60878000  0.43580000  1.0 -0.5869967148
O  O11  1  0.70843000  0.10878000  0.56420000  1.0 -0.5869967148
O  O12  1  0.79157000  0.39122000  0.06420000  1.0 -0.5869967148
O  O13  1  0.29157000  0.10878000  0.06420000  1.0 -0.5869967148
O  O14  1  0.20843000  0.39122000  0.56420000  1.0 -0.5869967148
O  O15  1  0.29157000  0.89122000  0.43580000  1.0 -0.5869967148
O  O16  1  0.20843000  0.60878000  0.93580000  1.0 -0.5869967148
O  O17  1  0.77462000  0.94411000  0.85838000  1.0 -0.5807040066
O  O18  1  0.72538000  0.55589000  0.35838000  1.0 -0.5807040066
O  O19  1  0.77462000  0.05589000  0.64162000  1.0 -0.5807040066
O  O20  1  0.72538000  0.44411000  0.14162000  1.0 -0.5807040066
O  O21  1  0.22538000  0.05589000  0.14162000  1.0 -0.5807040066
O  O22  1  0.27462000  0.44411000  0.64162000  1.0 -0.5807040066
O  O23  1  0.22538000  0.94411000  0.35838000  1.0 -0.5807040066
O  O24  1  0.27462000  0.55589000  0.85838000  1.0 -0.5807040066
O  O25  1  0.82743000  0.96142000  0.95466000  1.0 -0.5869967148
O  O26  1  0.67257000  0.53858000  0.45466000  1.0 -0.5869967148
O  O27  1  0.82743000  0.03858000  0.54534000  1.0 -0.5869967148
O  O28  1  0.67257000  0.46142000  0.04534000  1.0 -0.5869967148
O  O29  1  0.17257000  0.03858000  0.04534000  1.0 -0.5869967148
O  O30  1  0.32743000  0.46142000  0.54534000  1.0 -0.5869967148
O  O31  1  0.17257000  0.96142000  0.45466000  1.0 -0.5869967148
O  O32  1  0.32743000  0.53858000  0.95466000  1.0 -0.5869967148
O  O33  1  0.91134000  0.91183000  0.82875000  1.0 -0.5615178439
O  O34  1  0.58866000  0.58817000  0.32875000  1.0 -0.5615178439
O  O35  1  0.91134000  0.08817000  0.67125000  1.0 -0.5615178439
O  O36  1  0.58866000  0.41183000  0.17125000  1.0 -0.5615178439
O  O37  1  0.08866000  0.08817000  0.17125000  1.0 -0.5615178439
O  O38  1  0.41134000  0.41183000  0.67125000  1.0 -0.5615178439
O  O39  1  0.08866000  0.91183000  0.32875000  1.0 -0.5615178439
O  O40  1  0.41134000  0.58817000  0.82875000  1.0 -0.5615178439
O  O41  1  0.98498000  0.82690000  0.88186000  1.0 -0.5288690545
O  O42  1  0.51502000  0.67310000  0.38186000  1.0 -0.5288690545
O  O43  1  0.98498000  0.17310000  0.61814000  1.0 -0.5288690545
O  O44  1  0.51502000  0.32690000  0.11814000  1.0 -0.5288690545
O  O45  1  0.01502000  0.17310000  0.11814000  1.0 -0.5288690545
O  O46  1  0.48498000  0.32690000  0.61814000  1.0 -0.5288690545
O  O47  1  0.01502000  0.82690000  0.38186000  1.0 -0.5288690545
O  O48  1  0.48498000  0.67310000  0.88186000  1.0 -0.5288690545
O  O49  1  0.96067000  0.92695000  0.92742000  1.0 -0.5504828312
O  O50  1  0.53933000  0.57305000  0.42742000  1.0 -0.5504828312
O  O51  1  0.96067000  0.07305000  0.57258000  1.0 -0.5504828312
O  O52  1  0.53933000  0.42695000  0.07258000  1.0 -0.5504828312
O  O53  1  0.03933000  0.07305000  0.07258000  1.0 -0.5504828312
O  O54  1  0.46067000  0.42695000  0.57258000  1.0 -0.5504828312
O  O55  1  0.03933000  0.92695000  0.42742000  1.0 -0.5504828312
O  O56  1  0.46067000  0.57305000  0.92742000  1.0 -0.5504828312
O  O57  1  0.72760000  0.79165000  0.89003000  1.0 -0.5504828312
O  O58  1  0.77240000  0.70835000  0.39003000  1.0 -0.5504828312
O  O59  1  0.72760000  0.20835000  0.60997000  1.0 -0.5504828312
O  O60  1  0.77240000  0.29165000  0.10997000  1.0 -0.5504828312
O  O61  1  0.27240000  0.20835000  0.10997000  1.0 -0.5504828312
O  O62  1  0.22760000  0.29165000  0.60997000  1.0 -0.5504828312
O  O63  1  0.27240000  0.79165000  0.39003000  1.0 -0.5504828312
O  O64  1  0.22760000  0.70835000  0.89003000  1.0 -0.5504828312
O  O65  1  0.85998000  0.75775000  0.85842000  1.0 -0.5436318063
O  O66  1  0.64002000  0.74225000  0.35842000  1.0 -0.5436318063
O  O67  1  0.85998000  0.24225000  0.64158000  1.0 -0.5436318063
O  O68  1  0.64002000  0.25775000  0.14158000  1.0 -0.5436318063
O  O69  1  0.14002000  0.24225000  0.14158000  1.0 -0.5436318063
O  O70  1  0.35998000  0.25775000  0.64158000  1.0 -0.5436318063
O  O71  1  0.14002000  0.75775000  0.35842000  1.0 -0.5436318063
O  O72  1  0.35998000  0.74225000  0.85842000  1.0 -0.5436318063
O  O73  1  0.78712000  0.84673000  0.80999000  1.0 -0.5504828312
O  O74  1  0.71288000  0.65327000  0.30999000  1.0 -0.5504828312
O  O75  1  0.78712000  0.15327000  0.69001000  1.0 -0.5504828312
O  O76  1  0.71288000  0.34673000  0.19001000  1.0 -0.5504828312
O  O77  1  0.21288000  0.15327000  0.19001000  1.0 -0.5504828312
O  O78  1  0.28712000  0.34673000  0.69001000  1.0 -0.5504828312
O  O79  1  0.21288000  0.84673000  0.30999000  1.0 -0.5504828312
O  O80  1  0.28712000  0.65327000  0.80999000  1.0 -0.5504828312
O  O81  1  0.91780000  0.77273000  0.95568000  1.0 -0.5504828312
O  O82  1  0.58220000  0.72727000  0.45568000  1.0 -0.5504828312
O  O83  1  0.91780000  0.22727000  0.54432000  1.0 -0.5504828312
O  O84  1  0.58220000  0.27273000  0.04432000  1.0 -0.5504828312
O  O85  1  0.08220000  0.22727000  0.04432000  1.0 -0.5504828312
O  O86  1  0.41780000  0.27273000  0.54432000  1.0 -0.5504828312
O  O87  1  0.08220000  0.77273000  0.45568000  1.0 -0.5504828312
O  O88  1  0.41780000  0.72727000  0.95568000  1.0 -0.5504828312
O  O89  1  0.90110000  0.87068000  0.00510000  1.0 -0.5681660243
O  O90  1  0.59890000  0.62932000  0.50510000  1.0 -0.5681660243
O  O91  1  0.90110000  0.12932000  0.49490000  1.0 -0.5681660243
O  O92  1  0.59890000  0.37068000  0.99490000  1.0 -0.5681660243
O  O93  1  0.09890000  0.12932000  0.99490000  1.0 -0.5681660243
O  O94  1  0.40110000  0.37068000  0.49490000  1.0 -0.5681660243
O  O95  1  0.09890000  0.87068000  0.50510000  1.0 -0.5681660243
O  O96  1  0.40110000  0.62932000  0.00510000  1.0 -0.5681660243
O  O97  1  0.78180000  0.79870000  0.98676000  1.0 -0.5615178439
O  O98  1  0.71820000  0.70130000  0.48676000  1.0 -0.5615178439
O  O99  1  0.78180000  0.20130000  0.51324000  1.0 -0.5615178439
O  O100  1  0.71820000  0.29870000  0.01324000  1.0 -0.5615178439
O  O101  1  0.21820000  0.20130000  0.01324000  1.0 -0.5615178439
O  O102  1  0.28180000  0.29870000  0.51324000  1.0 -0.5615178439
O  O103  1  0.21820000  0.79870000  0.48676000  1.0 -0.5615178439
O  O104  1  0.28180000  0.70130000  0.98676000  1.0 -0.5615178439
O  O105  1  0.04568000  0.84906000  0.98449000  1.0 -0.5615178439
O  O106  1  0.45432000  0.65094000  0.48449000  1.0 -0.5615178439
O  O107  1  0.04568000  0.15094000  0.51551000  1.0 -0.5615178439
O  O108  1  0.45432000  0.34906000  0.01551000  1.0 -0.5615178439
O  O109  1  0.95432000  0.15094000  0.01551000  1.0 -0.5615178439
O  O110  1  0.54568000  0.34906000  0.51551000  1.0 -0.5615178439
O  O111  1  0.95432000  0.84906000  0.48449000  1.0 -0.5615178439
O  O112  1  0.54568000  0.65094000  0.98449000  1.0 -0.5615178439
O  O113  1  0.08480000  0.76795000  0.95948000  1.0 -0.6514901735
O  O114  1  0.41520000  0.73205000  0.45948000  1.0 -0.6514901735
O  O115  1  0.08480000  0.23205000  0.54052000  1.0 -0.6514901735
O  O116  1  0.41520000  0.26795000  0.04052000  1.0 -0.6514901735
O  O117  1  0.91520000  0.23205000  0.04052000  1.0 -0.6514901735
O  O118  1  0.58480000  0.26795000  0.54052000  1.0 -0.6514901735
O  O119  1  0.91520000  0.76795000  0.45948000  1.0 -0.6514901735
O  O120  1  0.58480000  0.73205000  0.95948000  1.0 -0.6514901735
O  O121  1  0.89910000  0.02773000  0.87753000  1.0 -0.5807040066
O  O122  1  0.60090000  0.47227000  0.37753000  1.0 -0.5807040066
O  O123  1  0.89910000  0.97227000  0.62247000  1.0 -0.5807040066
O  O124  1  0.60090000  0.52773000  0.12247000  1.0 -0.5807040066
O  O125  1  0.10090000  0.97227000  0.12247000  1.0 -0.5807040066
O  O126  1  0.39910000  0.52773000  0.62247000  1.0 -0.5807040066
O  O127  1  0.10090000  0.02773000  0.37753000  1.0 -0.5807040066
O  O128  1  0.39910000  0.47227000  0.87753000  1.0 -0.5807040066
O  O129  1  0.86100000  0.03307000  0.79908000  1.0 -0.6955426254
O  O130  1  0.63900000  0.46693000  0.29908000  1.0 -0.6955426254
O  O131  1  0.86100000  0.96693000  0.70092000  1.0 -0.6955426254
O  O132  1  0.63900000  0.53307000  0.20092000  1.0 -0.6955426254
O  O133  1  0.13900000  0.96693000  0.20092000  1.0 -0.6955426254
O  O134  1  0.36100000  0.53307000  0.70092000  1.0 -0.6955426254
O  O135  1  0.13900000  0.03307000  0.29908000  1.0 -0.6955426254
O  O136  1  0.36100000  0.46693000  0.79908000  1.0 -0.6955426254
O  O137  1  0.64420000  0.88282000  0.83392000  1.0 -0.5996154093
O  O138  1  0.85580000  0.61718000  0.33392000  1.0 -0.5996154093
O  O139  1  0.64420000  0.11718000  0.66608000  1.0 -0.5996154093
O  O140  1  0.85580000  0.38282000  0.16608000  1.0 -0.5996154093
O  O141  1  0.35580000  0.11718000  0.16608000  1.0 -0.5996154093
O  O142  1  0.14420000  0.38282000  0.66608000  1.0 -0.5996154093
O  O143  1  0.35580000  0.88282000  0.33392000  1.0 -0.5996154093
O  O144  1  0.14420000  0.61718000  0.83392000  1.0 -0.5996154093
O  O145  1  0.57320000  0.83906000  0.88761000  1.0 -0.6856807687
O  O146  1  0.92680000  0.66094000  0.38761000  1.0 -0.6856807687
O  O147  1  0.57320000  0.16094000  0.61239000  1.0 -0.6856807687
O  O148  1  0.92680000  0.33906000  0.11239000  1.0 -0.6856807687
O  O149  1  0.42680000  0.16094000  0.11239000  1.0 -0.6856807687
O  O150  1  0.07320000  0.33906000  0.61239000  1.0 -0.6856807687
O  O151  1  0.42680000  0.83906000  0.38761000  1.0 -0.6856807687
O  O152  1  0.07320000  0.66094000  0.88761000  1.0 -0.6856807687
O  O153  1  0.93390000  0.81175000  0.77687000  1.0 -0.5807040066
O  O154  1  0.56610000  0.68825000  0.27687000  1.0 -0.5807040066
O  O155  1  0.93390000  0.18825000  0.72313000  1.0 -0.5807040066
O  O156  1  0.56610000  0.31175000  0.22313000  1.0 -0.5807040066
O  O157  1  0.06610000  0.18825000  0.22313000  1.0 -0.5807040066
O  O158  1  0.43390000  0.31175000  0.72313000  1.0 -0.5807040066
O  O159  1  0.06610000  0.81175000  0.27687000  1.0 -0.5807040066
O  O160  1  0.43390000  0.68825000  0.77687000  1.0 -0.5807040066
O  O161  1  0.99810000  0.73964000  0.80196000  1.0 -0.5996154093
O  O162  1  0.50190000  0.76036000  0.30196000  1.0 -0.5996154093
O  O163  1  0.99810000  0.26036000  0.69804000  1.0 -0.5996154093
O  O164  1  0.50190000  0.23964000  0.19804000  1.0 -0.5996154093
O  O165  1  0.00190000  0.26036000  0.19804000  1.0 -0.5996154093
O  O166  1  0.49810000  0.23964000  0.69804000  1.0 -0.5996154093
O  O167  1  0.00190000  0.73964000  0.30196000  1.0 -0.5996154093
O  O168  1  0.49810000  0.76036000  0.80196000  1.0 -0.5996154093
O  O169  1  0.75330000  0.90940000  0.04820000  1.0 -0.5869967148
O  O170  1  0.74670000  0.59060000  0.54820000  1.0 -0.5869967148
O  O171  1  0.75330000  0.09060000  0.45180000  1.0 -0.5869967148
O  O172  1  0.74670000  0.40940000  0.95180000  1.0 -0.5869967148
O  O173  1  0.24670000  0.09060000  0.95180000  1.0 -0.5869967148
O  O174  1  0.25330000  0.40940000  0.45180000  1.0 -0.5869967148
O  O175  1  0.24670000  0.90940000  0.54820000  1.0 -0.5869967148
O  O176  1  0.25330000  0.59060000  0.04820000  1.0 -0.5869967148
O  O177  1  0.83940000  0.96700000  0.07400000  1.0 -0.7211716242
O  O178  1  0.66060000  0.53300000  0.57400000  1.0 -0.7211716242
O  O179  1  0.83940000  0.03300000  0.42600000  1.0 -0.7211716242
O  O180  1  0.66060000  0.46700000  0.92600000  1.0 -0.7211716242
O  O181  1  0.16060000  0.03300000  0.92600000  1.0 -0.7211716242
O  O182  1  0.33940000  0.46700000  0.42600000  1.0 -0.7211716242
O  O183  1  0.16060000  0.96700000  0.57400000  1.0 -0.7211716242
O  O184  1  0.33940000  0.53300000  0.07400000  1.0 -0.7211716242
O  O185  1  0.79750000  0.69290000  0.93663000  1.0 -0.5807040066
O  O186  1  0.70250000  0.80710000  0.43663000  1.0 -0.5807040066
O  O187  1  0.79750000  0.30710000  0.56337000  1.0 -0.5807040066
O  O188  1  0.70250000  0.19290000  0.06337000  1.0 -0.5807040066
O  O189  1  0.20250000  0.30710000  0.06337000  1.0 -0.5807040066
O  O190  1  0.29750000  0.19290000  0.56337000  1.0 -0.5807040066
O  O191  1  0.20250000  0.69290000  0.43663000  1.0 -0.5807040066
O  O192  1  0.29750000  0.80710000  0.93663000  1.0 -0.5807040066
O  O193  1  0.89930000  0.65403000  0.91632000  1.0 -0.5996154093
O  O194  1  0.60070000  0.84597000  0.41632000  1.0 -0.5996154093
O  O195  1  0.89930000  0.34597000  0.58368000  1.0 -0.5996154093
O  O196  1  0.60070000  0.15403000  0.08368000  1.0 -0.5996154093
O  O197  1  0.10070000  0.34597000  0.08368000  1.0 -0.5996154093
O  O198  1  0.39930000  0.15403000  0.58368000  1.0 -0.5996154093
O  O199  1  0.10070000  0.65403000  0.41632000  1.0 -0.5996154093
O  O200  1  0.39930000  0.84597000  0.91632000  1.0 -0.5996154093
O  O201  1  0.04282000  0.94953000  0.02970000  1.0 -0.7928925298
O  O202  1  0.45718000  0.55047000  0.52970000  1.0 -0.7928925298
O  O203  1  0.04282000  0.05047000  0.47030000  1.0 -0.7928925298
O  O204  1  0.45718000  0.44953000  0.97030000  1.0 -0.7928925298
O  O205  1  0.95718000  0.05047000  0.97030000  1.0 -0.7928925298
O  O206  1  0.54282000  0.44953000  0.47030000  1.0 -0.7928925298
O  O207  1  0.95718000  0.94953000  0.52970000  1.0 -0.7928925298
O  O208  1  0.54282000  0.55047000  0.02970000  1.0 -0.7928925298
