# DDEC6 charges by PACMAN v1.1 (https://github.com/mtap-research/PACMAN-charge/)
data_HUHBUJ_ASR_pacman
_symmetry_space_group_name_H-M   'P 1'
_cell_length_a   26.89010000
_cell_length_b   26.89010000
_cell_length_c   13.25910000
_cell_angle_alpha   90.00000000
_cell_angle_beta   90.00000000
_cell_angle_gamma   90.00000000
_symmetry_Int_Tables_number   1
_chemical_formula_structural   Ti2Cd4H120C104Br4N12O13
_chemical_formula_sum   'Ti8 Cd16 H480 C416 Br16 N48 O52'
_cell_volume   9587.35658868
_cell_formula_units_Z   4
loop_
 _symmetry_equiv_pos_site_id
 _symmetry_equiv_pos_as_xyz
  1  'x, y, z'
loop_
 _atom_site_type_symbol
 _atom_site_label
 _atom_site_symmetry_multiplicity
 _atom_site_fract_x
 _atom_site_fract_y
 _atom_site_fract_z
 _atom_site_occupancy
 _atom_site_charge
Ti  Ti1  1  0.77418000  0.30573000  0.67871000  1.0 1.7942137053
Ti  Ti2  1  0.80573000  0.72582000  0.92871000  1.0 1.7942137053
Ti  Ti3  1  0.22582000  0.69427000  0.17871000  1.0 1.7942137053
Ti  Ti4  1  0.19427000  0.27418000  0.42871000  1.0 1.7942137053
Ti  Ti5  1  0.72582000  0.80573000  0.07129000  1.0 1.7942137053
Ti  Ti6  1  0.27418000  0.19427000  0.57129000  1.0 1.7942137053
Ti  Ti7  1  0.30573000  0.77418000  0.32129000  1.0 1.7942137053
Ti  Ti8  1  0.69427000  0.22582000  0.82129000  1.0 1.7942137053
Cd  Cd1  1  0.45282000  0.62627000  0.71110000  1.0 0.3727724111
Cd  Cd2  1  0.12627000  0.04718000  0.96110000  1.0 0.3727724111
Cd  Cd3  1  0.54718000  0.37373000  0.21110000  1.0 0.3727724111
Cd  Cd4  1  0.87373000  0.95282000  0.46110000  1.0 0.3727724111
Cd  Cd5  1  0.04718000  0.12627000  0.03890000  1.0 0.3727724111
Cd  Cd6  1  0.95282000  0.87373000  0.53890000  1.0 0.3727724111
Cd  Cd7  1  0.62627000  0.45282000  0.28890000  1.0 0.3727724111
Cd  Cd8  1  0.37373000  0.54718000  0.78890000  1.0 0.3727724111
Cd  Cd9  1  0.47139000  0.64210000  0.76480000  1.0 0.4235153502
Cd  Cd10  1  0.14210000  0.02861000  0.01480000  1.0 0.4235153502
Cd  Cd11  1  0.52861000  0.35790000  0.26480000  1.0 0.4235153502
Cd  Cd12  1  0.85790000  0.97139000  0.51480000  1.0 0.4235153502
Cd  Cd13  1  0.02861000  0.14210000  0.98520000  1.0 0.4235153502
Cd  Cd14  1  0.97139000  0.85790000  0.48520000  1.0 0.4235153502
Cd  Cd15  1  0.64210000  0.47139000  0.23520000  1.0 0.4235153502
Cd  Cd16  1  0.35790000  0.52861000  0.73520000  1.0 0.4235153502
H  H1  1  0.75380000  0.21170000  0.62970000  1.0 0.2507362147
H  H2  1  0.71170000  0.74620000  0.87970000  1.0 0.2507362147
H  H3  1  0.24620000  0.78830000  0.12970000  1.0 0.2507362147
H  H4  1  0.28830000  0.25380000  0.37970000  1.0 0.2507362147
H  H5  1  0.74620000  0.71170000  0.12030000  1.0 0.2507362147
H  H6  1  0.25380000  0.28830000  0.62030000  1.0 0.2507362147
H  H7  1  0.21170000  0.75380000  0.37030000  1.0 0.2507362147
H  H8  1  0.78830000  0.24620000  0.87030000  1.0 0.2507362147
H  H9  1  0.73100000  0.34370000  0.50770000  1.0 0.2646766832
H  H10  1  0.84370000  0.76900000  0.75770000  1.0 0.2646766832
H  H11  1  0.26900000  0.65630000  0.00770000  1.0 0.2646766832
H  H12  1  0.15630000  0.23100000  0.25770000  1.0 0.2646766832
H  H13  1  0.76900000  0.84370000  0.24230000  1.0 0.2646766832
H  H14  1  0.23100000  0.15630000  0.74230000  1.0 0.2646766832
H  H15  1  0.34370000  0.73100000  0.49230000  1.0 0.2646766832
H  H16  1  0.65630000  0.26900000  0.99230000  1.0 0.2646766832
H  H17  1  0.67750000  0.25590000  0.55210000  1.0 0.0899890365
H  H18  1  0.75590000  0.82250000  0.80210000  1.0 0.0899890365
H  H19  1  0.32250000  0.74410000  0.05210000  1.0 0.0899890365
H  H20  1  0.24410000  0.17750000  0.30210000  1.0 0.0899890365
H  H21  1  0.82250000  0.75590000  0.19790000  1.0 0.0899890365
H  H22  1  0.17750000  0.24410000  0.69790000  1.0 0.0899890365
H  H23  1  0.25590000  0.67750000  0.44790000  1.0 0.0899890365
H  H24  1  0.74410000  0.32250000  0.94790000  1.0 0.0899890365
H  H25  1  0.64720000  0.35190000  0.54900000  1.0 0.0807808708
H  H26  1  0.85190000  0.85280000  0.79900000  1.0 0.0807808708
H  H27  1  0.35280000  0.64810000  0.04900000  1.0 0.0807808708
H  H28  1  0.14810000  0.14720000  0.29900000  1.0 0.0807808708
H  H29  1  0.85280000  0.85190000  0.20100000  1.0 0.0807808708
H  H30  1  0.14720000  0.14810000  0.70100000  1.0 0.0807808708
H  H31  1  0.35190000  0.64720000  0.45100000  1.0 0.0807808708
H  H32  1  0.64810000  0.35280000  0.95100000  1.0 0.0807808708
H  H33  1  0.65590000  0.32260000  0.65210000  1.0 0.119464557
H  H34  1  0.82260000  0.84410000  0.90210000  1.0 0.119464557
H  H35  1  0.34410000  0.67740000  0.15210000  1.0 0.119464557
H  H36  1  0.17740000  0.15590000  0.40210000  1.0 0.119464557
H  H37  1  0.84410000  0.82260000  0.09790000  1.0 0.119464557
H  H38  1  0.15590000  0.17740000  0.59790000  1.0 0.119464557
H  H39  1  0.32260000  0.65590000  0.34790000  1.0 0.119464557
H  H40  1  0.67740000  0.34410000  0.84790000  1.0 0.119464557
H  H41  1  0.92990000  0.32150000  0.32600000  1.0 0.0990728477
H  H42  1  0.82150000  0.57010000  0.57600000  1.0 0.0990728477
H  H43  1  0.07010000  0.67850000  0.82600000  1.0 0.0990728477
H  H44  1  0.17850000  0.42990000  0.07600000  1.0 0.0990728477
H  H45  1  0.57010000  0.82150000  0.42400000  1.0 0.0990728477
H  H46  1  0.42990000  0.17850000  0.92400000  1.0 0.0990728477
H  H47  1  0.32150000  0.92990000  0.67400000  1.0 0.0990728477
H  H48  1  0.67850000  0.07010000  0.17400000  1.0 0.0990728477
H  H49  1  0.88390000  0.18860000  0.43590000  1.0 0.0990728477
H  H50  1  0.68860000  0.61610000  0.68590000  1.0 0.0990728477
H  H51  1  0.11610000  0.81140000  0.93590000  1.0 0.0990728477
H  H52  1  0.31140000  0.38390000  0.18590000  1.0 0.0990728477
H  H53  1  0.61610000  0.68860000  0.31410000  1.0 0.0990728477
H  H54  1  0.38390000  0.31140000  0.81410000  1.0 0.0990728477
H  H55  1  0.18860000  0.88390000  0.56410000  1.0 0.0990728477
H  H56  1  0.81140000  0.11610000  0.06410000  1.0 0.0990728477
H  H57  1  0.61180000  0.42020000  0.62650000  1.0 0.0899890365
H  H58  1  0.92020000  0.88820000  0.87650000  1.0 0.0899890365
H  H59  1  0.38820000  0.57980000  0.12650000  1.0 0.0899890365
H  H60  1  0.07980000  0.11180000  0.37650000  1.0 0.0899890365
H  H61  1  0.88820000  0.92020000  0.12350000  1.0 0.0899890365
H  H62  1  0.11180000  0.07980000  0.62350000  1.0 0.0899890365
H  H63  1  0.42020000  0.61180000  0.37350000  1.0 0.0899890365
H  H64  1  0.57980000  0.38820000  0.87350000  1.0 0.0899890365
H  H65  1  0.69270000  0.51230000  0.80430000  1.0 0.0899890365
H  H66  1  0.01230000  0.80730000  0.05430000  1.0 0.0899890365
H  H67  1  0.30730000  0.48770000  0.30430000  1.0 0.0899890365
H  H68  1  0.98770000  0.19270000  0.55430000  1.0 0.0899890365
H  H69  1  0.80730000  0.01230000  0.94570000  1.0 0.0899890365
H  H70  1  0.19270000  0.98770000  0.44570000  1.0 0.0899890365
H  H71  1  0.51230000  0.69270000  0.19570000  1.0 0.0899890365
H  H72  1  0.48770000  0.30730000  0.69570000  1.0 0.0899890365
H  H73  1  0.84060000  0.21750000  0.64880000  1.0 0.0899890365
H  H74  1  0.71750000  0.65940000  0.89880000  1.0 0.0899890365
H  H75  1  0.15940000  0.78250000  0.14880000  1.0 0.0899890365
H  H76  1  0.28250000  0.34060000  0.39880000  1.0 0.0899890365
H  H77  1  0.65940000  0.71750000  0.10120000  1.0 0.0899890365
H  H78  1  0.34060000  0.28250000  0.60120000  1.0 0.0899890365
H  H79  1  0.21750000  0.84060000  0.35120000  1.0 0.0899890365
H  H80  1  0.78250000  0.15940000  0.85120000  1.0 0.0899890365
H  H81  1  0.82380000  0.18240000  0.55720000  1.0 0.1086070231
H  H82  1  0.68240000  0.67620000  0.80720000  1.0 0.1086070231
H  H83  1  0.17620000  0.81760000  0.05720000  1.0 0.1086070231
H  H84  1  0.31760000  0.32380000  0.30720000  1.0 0.1086070231
H  H85  1  0.67620000  0.68240000  0.19280000  1.0 0.1086070231
H  H86  1  0.32380000  0.31760000  0.69280000  1.0 0.1086070231
H  H87  1  0.18240000  0.82380000  0.44280000  1.0 0.1086070231
H  H88  1  0.81760000  0.17620000  0.94280000  1.0 0.1086070231
H  H89  1  0.64440000  0.30100000  0.41720000  1.0 0.0990728477
H  H90  1  0.80100000  0.85560000  0.66720000  1.0 0.0990728477
H  H91  1  0.35560000  0.69900000  0.91720000  1.0 0.0990728477
H  H92  1  0.19900000  0.14440000  0.16720000  1.0 0.0990728477
H  H93  1  0.85560000  0.80100000  0.33280000  1.0 0.0990728477
H  H94  1  0.14440000  0.19900000  0.83280000  1.0 0.0990728477
H  H95  1  0.30100000  0.64440000  0.58280000  1.0 0.0990728477
H  H96  1  0.69900000  0.35560000  0.08280000  1.0 0.0990728477
H  H97  1  0.69730000  0.30080000  0.36150000  1.0 0.1086070231
H  H98  1  0.80080000  0.80270000  0.61150000  1.0 0.1086070231
H  H99  1  0.30270000  0.69920000  0.86150000  1.0 0.1086070231
H  H100  1  0.19920000  0.19730000  0.11150000  1.0 0.1086070231
H  H101  1  0.80270000  0.80080000  0.38850000  1.0 0.1086070231
H  H102  1  0.19730000  0.19920000  0.88850000  1.0 0.1086070231
H  H103  1  0.30080000  0.69730000  0.63850000  1.0 0.1086070231
H  H104  1  0.69920000  0.30270000  0.13850000  1.0 0.1086070231
H  H105  1  0.80830000  0.39560000  0.49410000  1.0 0.1276920623
H  H106  1  0.89560000  0.69170000  0.74410000  1.0 0.1276920623
H  H107  1  0.19170000  0.60440000  0.99410000  1.0 0.1276920623
H  H108  1  0.10440000  0.30830000  0.24410000  1.0 0.1276920623
H  H109  1  0.69170000  0.89560000  0.25590000  1.0 0.1276920623
H  H110  1  0.30830000  0.10440000  0.75590000  1.0 0.1276920623
H  H111  1  0.39560000  0.80830000  0.50590000  1.0 0.1276920623
H  H112  1  0.60440000  0.19170000  0.00590000  1.0 0.1276920623
H  H113  1  0.82880000  0.44150000  0.42950000  1.0 0.1086070231
H  H114  1  0.94150000  0.67120000  0.67950000  1.0 0.1086070231
H  H115  1  0.17120000  0.55850000  0.92950000  1.0 0.1086070231
H  H116  1  0.05850000  0.32880000  0.17950000  1.0 0.1086070231
H  H117  1  0.67120000  0.94150000  0.32050000  1.0 0.1086070231
H  H118  1  0.32880000  0.05850000  0.82050000  1.0 0.1086070231
H  H119  1  0.44150000  0.82880000  0.57050000  1.0 0.1086070231
H  H120  1  0.55850000  0.17120000  0.07050000  1.0 0.1086070231
H  H121  1  0.81370000  0.39080000  0.37430000  1.0 0.119464557
H  H122  1  0.89080000  0.68630000  0.62430000  1.0 0.119464557
H  H123  1  0.18630000  0.60920000  0.87430000  1.0 0.119464557
H  H124  1  0.10920000  0.31370000  0.12430000  1.0 0.119464557
H  H125  1  0.68630000  0.89080000  0.37570000  1.0 0.119464557
H  H126  1  0.31370000  0.10920000  0.87570000  1.0 0.119464557
H  H127  1  0.39080000  0.81370000  0.62570000  1.0 0.119464557
H  H128  1  0.60920000  0.18630000  0.12570000  1.0 0.119464557
H  H129  1  0.73030000  0.21330000  0.29550000  1.0 0.0899890365
H  H130  1  0.71330000  0.76970000  0.54550000  1.0 0.0899890365
H  H131  1  0.26970000  0.78670000  0.79550000  1.0 0.0899890365
H  H132  1  0.28670000  0.23030000  0.04550000  1.0 0.0899890365
H  H133  1  0.76970000  0.71330000  0.45450000  1.0 0.0899890365
H  H134  1  0.23030000  0.28670000  0.95450000  1.0 0.0899890365
H  H135  1  0.21330000  0.73030000  0.70450000  1.0 0.0899890365
H  H136  1  0.78670000  0.26970000  0.20450000  1.0 0.0899890365
H  H137  1  0.69650000  0.16580000  0.32010000  1.0 0.0899890365
H  H138  1  0.66580000  0.80350000  0.57010000  1.0 0.0899890365
H  H139  1  0.30350000  0.83420000  0.82010000  1.0 0.0899890365
H  H140  1  0.33420000  0.19650000  0.07010000  1.0 0.0899890365
H  H141  1  0.80350000  0.66580000  0.42990000  1.0 0.0899890365
H  H142  1  0.19650000  0.33420000  0.92990000  1.0 0.0899890365
H  H143  1  0.16580000  0.69650000  0.67990000  1.0 0.0899890365
H  H144  1  0.83420000  0.30350000  0.17990000  1.0 0.0899890365
H  H145  1  0.77040000  0.26040000  0.44520000  1.0 0.0899890365
H  H146  1  0.76040000  0.72960000  0.69520000  1.0 0.0899890365
H  H147  1  0.22960000  0.73960000  0.94520000  1.0 0.0899890365
H  H148  1  0.23960000  0.27040000  0.19520000  1.0 0.0899890365
H  H149  1  0.72960000  0.76040000  0.30480000  1.0 0.0899890365
H  H150  1  0.27040000  0.23960000  0.80480000  1.0 0.0899890365
H  H151  1  0.26040000  0.77040000  0.55480000  1.0 0.0899890365
H  H152  1  0.73960000  0.22960000  0.05480000  1.0 0.0899890365
H  H153  1  0.81920000  0.48790000  0.70030000  1.0 0.1086070231
H  H154  1  0.98790000  0.68080000  0.95030000  1.0 0.1086070231
H  H155  1  0.18080000  0.51210000  0.20030000  1.0 0.1086070231
H  H156  1  0.01210000  0.31920000  0.45030000  1.0 0.1086070231
H  H157  1  0.68080000  0.98790000  0.04970000  1.0 0.1086070231
H  H158  1  0.31920000  0.01210000  0.54970000  1.0 0.1086070231
H  H159  1  0.48790000  0.81920000  0.29970000  1.0 0.1086070231
H  H160  1  0.51210000  0.18080000  0.79970000  1.0 0.1086070231
H  H161  1  0.85350000  0.46670000  0.78910000  1.0 0.1378628821
H  H162  1  0.96670000  0.64650000  0.03910000  1.0 0.1378628821
H  H163  1  0.14650000  0.53330000  0.28910000  1.0 0.1378628821
H  H164  1  0.03330000  0.35350000  0.53910000  1.0 0.1378628821
H  H165  1  0.64650000  0.96670000  0.96090000  1.0 0.1378628821
H  H166  1  0.35350000  0.03330000  0.46090000  1.0 0.1378628821
H  H167  1  0.46670000  0.85350000  0.21090000  1.0 0.1378628821
H  H168  1  0.53330000  0.14650000  0.71090000  1.0 0.1378628821
H  H169  1  0.82470000  0.42910000  0.71590000  1.0 0.1378628821
H  H170  1  0.92910000  0.67530000  0.96590000  1.0 0.1378628821
H  H171  1  0.17530000  0.57090000  0.21590000  1.0 0.1378628821
H  H172  1  0.07090000  0.32470000  0.46590000  1.0 0.1378628821
H  H173  1  0.67530000  0.92910000  0.03410000  1.0 0.1378628821
H  H174  1  0.32470000  0.07090000  0.53410000  1.0 0.1378628821
H  H175  1  0.42910000  0.82470000  0.28410000  1.0 0.1378628821
H  H176  1  0.57090000  0.17530000  0.78410000  1.0 0.1378628821
H  H177  1  0.74690000  0.51570000  0.91740000  1.0 0.119464557
H  H178  1  0.01570000  0.75310000  0.16740000  1.0 0.119464557
H  H179  1  0.25310000  0.48430000  0.41740000  1.0 0.119464557
H  H180  1  0.98430000  0.24690000  0.66740000  1.0 0.119464557
H  H181  1  0.75310000  0.01570000  0.83260000  1.0 0.119464557
H  H182  1  0.24690000  0.98430000  0.33260000  1.0 0.119464557
H  H183  1  0.51570000  0.74690000  0.08260000  1.0 0.119464557
H  H184  1  0.48430000  0.25310000  0.58260000  1.0 0.119464557
H  H185  1  0.80640000  0.51880000  0.91640000  1.0 0.1276920623
H  H186  1  0.01880000  0.69360000  0.16640000  1.0 0.1276920623
H  H187  1  0.19360000  0.48120000  0.41640000  1.0 0.1276920623
H  H188  1  0.98120000  0.30640000  0.66640000  1.0 0.1276920623
H  H189  1  0.69360000  0.01880000  0.83360000  1.0 0.1276920623
H  H190  1  0.30640000  0.98120000  0.33360000  1.0 0.1276920623
H  H191  1  0.51880000  0.80640000  0.08360000  1.0 0.1276920623
H  H192  1  0.48120000  0.19360000  0.58360000  1.0 0.1276920623
H  H193  1  0.77510000  0.54060000  0.82370000  1.0 0.119464557
H  H194  1  0.04060000  0.72490000  0.07370000  1.0 0.119464557
H  H195  1  0.22490000  0.45940000  0.32370000  1.0 0.119464557
H  H196  1  0.95940000  0.27510000  0.57370000  1.0 0.119464557
H  H197  1  0.72490000  0.04060000  0.92630000  1.0 0.119464557
H  H198  1  0.27510000  0.95940000  0.42630000  1.0 0.119464557
H  H199  1  0.54060000  0.77510000  0.17630000  1.0 0.119464557
H  H200  1  0.45940000  0.22490000  0.67630000  1.0 0.119464557
H  H201  1  0.79440000  0.39040000  0.87320000  1.0 0.1276920623
H  H202  1  0.89040000  0.70560000  0.12320000  1.0 0.1276920623
H  H203  1  0.20560000  0.60960000  0.37320000  1.0 0.1276920623
H  H204  1  0.10960000  0.29440000  0.62320000  1.0 0.1276920623
H  H205  1  0.70560000  0.89040000  0.87680000  1.0 0.1276920623
H  H206  1  0.29440000  0.10960000  0.37680000  1.0 0.1276920623
H  H207  1  0.39040000  0.79440000  0.12680000  1.0 0.1276920623
H  H208  1  0.60960000  0.20560000  0.62680000  1.0 0.1276920623
H  H209  1  0.81480000  0.43290000  0.94690000  1.0 0.1276920623
H  H210  1  0.93290000  0.68520000  0.19690000  1.0 0.1276920623
H  H211  1  0.18520000  0.56710000  0.44690000  1.0 0.119464557
H  H212  1  0.06710000  0.31480000  0.69690000  1.0 0.1276920623
H  H213  1  0.68520000  0.93290000  0.80310000  1.0 0.119464557
H  H214  1  0.31480000  0.06710000  0.30310000  1.0 0.1276920623
H  H215  1  0.43290000  0.81480000  0.05310000  1.0 0.1276920623
H  H216  1  0.56710000  0.18520000  0.55310000  1.0 0.119464557
H  H217  1  0.75670000  0.42000000  0.94480000  1.0 0.119464557
H  H218  1  0.92000000  0.74330000  0.19480000  1.0 0.119464557
H  H219  1  0.24330000  0.58000000  0.44480000  1.0 0.119464557
H  H220  1  0.08000000  0.25670000  0.69480000  1.0 0.119464557
H  H221  1  0.74330000  0.92000000  0.80520000  1.0 0.119464557
H  H222  1  0.25670000  0.08000000  0.30520000  1.0 0.119464557
H  H223  1  0.42000000  0.75670000  0.05520000  1.0 0.119464557
H  H224  1  0.58000000  0.24330000  0.55520000  1.0 0.119464557
H  H225  1  0.71410000  0.17140000  0.48880000  1.0 0.119464557
H  H226  1  0.67140000  0.78590000  0.73880000  1.0 0.119464557
H  H227  1  0.28590000  0.82860000  0.98880000  1.0 0.119464557
H  H228  1  0.32860000  0.21410000  0.23880000  1.0 0.119464557
H  H229  1  0.78590000  0.67140000  0.26120000  1.0 0.119464557
H  H230  1  0.21410000  0.32860000  0.76120000  1.0 0.119464557
H  H231  1  0.17140000  0.71410000  0.51120000  1.0 0.119464557
H  H232  1  0.82860000  0.28590000  0.01120000  1.0 0.119464557
H  H233  1  0.76580000  0.17270000  0.42880000  1.0 0.0990728477
H  H234  1  0.67270000  0.73420000  0.67880000  1.0 0.0990728477
H  H235  1  0.23420000  0.82730000  0.92880000  1.0 0.0990728477
H  H236  1  0.32730000  0.26580000  0.17880000  1.0 0.0990728477
H  H237  1  0.73420000  0.67270000  0.32120000  1.0 0.0990728477
H  H238  1  0.26580000  0.32730000  0.82120000  1.0 0.0990728477
H  H239  1  0.17270000  0.76580000  0.57120000  1.0 0.0990728477
H  H240  1  0.82730000  0.23420000  0.07120000  1.0 0.0990728477
H  H241  1  0.93750000  0.38940000  0.55290000  1.0 0.1276920623
H  H242  1  0.88940000  0.56250000  0.80290000  1.0 0.1276920623
H  H243  1  0.06250000  0.61060000  0.05290000  1.0 0.1276920623
H  H244  1  0.11060000  0.43750000  0.30290000  1.0 0.1276920623
H  H245  1  0.56250000  0.88940000  0.19710000  1.0 0.1276920623
H  H246  1  0.43750000  0.11060000  0.69710000  1.0 0.1276920623
H  H247  1  0.38940000  0.93750000  0.44710000  1.0 0.1276920623
H  H248  1  0.61060000  0.06250000  0.94710000  1.0 0.1276920623
H  H249  1  0.90460000  0.43890000  0.54730000  1.0 0.1276920623
H  H250  1  0.93890000  0.59540000  0.79730000  1.0 0.1276920623
H  H251  1  0.09540000  0.56110000  0.04730000  1.0 0.1276920623
H  H252  1  0.06110000  0.40460000  0.29730000  1.0 0.1276920623
H  H253  1  0.59540000  0.93890000  0.20270000  1.0 0.1276920623
H  H254  1  0.40460000  0.06110000  0.70270000  1.0 0.1276920623
H  H255  1  0.43890000  0.90460000  0.45270000  1.0 0.119464557
H  H256  1  0.56110000  0.09540000  0.95270000  1.0 0.1276920623
H  H257  1  0.88310000  0.39040000  0.60170000  1.0 0.1378628821
H  H258  1  0.89040000  0.61690000  0.85170000  1.0 0.1378628821
H  H259  1  0.11690000  0.60960000  0.10170000  1.0 0.1378628821
H  H260  1  0.10960000  0.38310000  0.35170000  1.0 0.1378628821
H  H261  1  0.61690000  0.89040000  0.14830000  1.0 0.1378628821
H  H262  1  0.38310000  0.10960000  0.64830000  1.0 0.1378628821
H  H263  1  0.39040000  0.88310000  0.39830000  1.0 0.1378628821
H  H264  1  0.60960000  0.11690000  0.89830000  1.0 0.1378628821
H  H265  1  0.00440000  0.26200000  0.30970000  1.0 0.1378628821
H  H266  1  0.76200000  0.49560000  0.55970000  1.0 0.1378628821
H  H267  1  0.99560000  0.73800000  0.80970000  1.0 0.1378628821
H  H268  1  0.23800000  0.50440000  0.05970000  1.0 0.1378628821
H  H269  1  0.49560000  0.76200000  0.44030000  1.0 0.1378628821
H  H270  1  0.50440000  0.23800000  0.94030000  1.0 0.1378628821
H  H271  1  0.26200000  0.00440000  0.69030000  1.0 0.1378628821
H  H272  1  0.73800000  0.99560000  0.19030000  1.0 0.1378628821
H  H273  1  0.89380000  0.40530000  0.29970000  1.0 0.119464557
H  H274  1  0.90530000  0.60620000  0.54970000  1.0 0.119464557
H  H275  1  0.10620000  0.59470000  0.79970000  1.0 0.119464557
H  H276  1  0.09470000  0.39380000  0.04970000  1.0 0.119464557
H  H277  1  0.60620000  0.90530000  0.45030000  1.0 0.119464557
H  H278  1  0.39380000  0.09470000  0.95030000  1.0 0.119464557
H  H279  1  0.40530000  0.89380000  0.70030000  1.0 0.119464557
H  H280  1  0.59470000  0.10620000  0.20030000  1.0 0.119464557
H  H281  1  0.91900000  0.44330000  0.37740000  1.0 0.1276920623
H  H282  1  0.94330000  0.58100000  0.62740000  1.0 0.1276920623
H  H283  1  0.08100000  0.55670000  0.87740000  1.0 0.1276920623
H  H284  1  0.05670000  0.41900000  0.12740000  1.0 0.1276920623
H  H285  1  0.58100000  0.94330000  0.37260000  1.0 0.1276920623
H  H286  1  0.41900000  0.05670000  0.87260000  1.0 0.1276920623
H  H287  1  0.44330000  0.91900000  0.62260000  1.0 0.1276920623
H  H288  1  0.55670000  0.08100000  0.12260000  1.0 0.1276920623
H  H289  1  0.94410000  0.39030000  0.35650000  1.0 0.119464557
H  H290  1  0.89030000  0.55590000  0.60650000  1.0 0.119464557
H  H291  1  0.05590000  0.60970000  0.85650000  1.0 0.119464557
H  H292  1  0.10970000  0.44410000  0.10650000  1.0 0.119464557
H  H293  1  0.55590000  0.89030000  0.39350000  1.0 0.119464557
H  H294  1  0.44410000  0.10970000  0.89350000  1.0 0.119464557
H  H295  1  0.39030000  0.94410000  0.64350000  1.0 0.119464557
H  H296  1  0.60970000  0.05590000  0.14350000  1.0 0.119464557
H  H297  1  0.64770000  0.23850000  0.29040000  1.0 0.0807808708
H  H298  1  0.73850000  0.85230000  0.54040000  1.0 0.0807808708
H  H299  1  0.35230000  0.76150000  0.79040000  1.0 0.0807808708
H  H300  1  0.26150000  0.14770000  0.04040000  1.0 0.0807808708
H  H301  1  0.85230000  0.73850000  0.45960000  1.0 0.0807808708
H  H302  1  0.14770000  0.26150000  0.95960000  1.0 0.0807808708
H  H303  1  0.23850000  0.64770000  0.70960000  1.0 0.0807808708
H  H304  1  0.76150000  0.35230000  0.20960000  1.0 0.0807808708
H  H305  1  0.63700000  0.21490000  0.39910000  1.0 0.0899890365
H  H306  1  0.71490000  0.86300000  0.64910000  1.0 0.0899890365
H  H307  1  0.36300000  0.78510000  0.89910000  1.0 0.0899890365
H  H308  1  0.28510000  0.13700000  0.14910000  1.0 0.0899890365
H  H309  1  0.86300000  0.71490000  0.35090000  1.0 0.0899890365
H  H310  1  0.13700000  0.28510000  0.85090000  1.0 0.0899890365
H  H311  1  0.21490000  0.63700000  0.60090000  1.0 0.0899890365
H  H312  1  0.78510000  0.36300000  0.10090000  1.0 0.0899890365
H  H313  1  0.44950000  0.78970000  0.79980000  1.0 0.0990728477
H  H314  1  0.28970000  0.05050000  0.04980000  1.0 0.0990728477
H  H315  1  0.55050000  0.21030000  0.29980000  1.0 0.0990728477
H  H316  1  0.71030000  0.94950000  0.54980000  1.0 0.0990728477
H  H317  1  0.05050000  0.28970000  0.95020000  1.0 0.0990728477
H  H318  1  0.94950000  0.71030000  0.45020000  1.0 0.0990728477
H  H319  1  0.78970000  0.44950000  0.20020000  1.0 0.0990728477
H  H320  1  0.21030000  0.55050000  0.70020000  1.0 0.0990728477
H  H321  1  0.50800000  0.77970000  0.79050000  1.0 0.0684115138
H  H322  1  0.27970000  0.99200000  0.04050000  1.0 0.0684115138
H  H323  1  0.49200000  0.22030000  0.29050000  1.0 0.0684115138
H  H324  1  0.72030000  0.00800000  0.54050000  1.0 0.0684115138
H  H325  1  0.99200000  0.27970000  0.95950000  1.0 0.0684115138
H  H326  1  0.00800000  0.72030000  0.45950000  1.0 0.0684115138
H  H327  1  0.77970000  0.50800000  0.20950000  1.0 0.0684115138
H  H328  1  0.22030000  0.49200000  0.70950000  1.0 0.0684115138
H  H329  1  0.48010000  0.76990000  0.89520000  1.0 0.0684115138
H  H330  1  0.26990000  0.01990000  0.14520000  1.0 0.0684115138
H  H331  1  0.51990000  0.23010000  0.39520000  1.0 0.0684115138
H  H332  1  0.73010000  0.98010000  0.64520000  1.0 0.0684115138
H  H333  1  0.01990000  0.26990000  0.85480000  1.0 0.0684115138
H  H334  1  0.98010000  0.73010000  0.35480000  1.0 0.0684115138
H  H335  1  0.76990000  0.48010000  0.10480000  1.0 0.0684115138
H  H336  1  0.23010000  0.51990000  0.60480000  1.0 0.0684115138
H  H337  1  0.56500000  0.47670000  0.58270000  1.0 0.0568980864
H  H338  1  0.97670000  0.93500000  0.83270000  1.0 0.0568980864
H  H339  1  0.43500000  0.52330000  0.08270000  1.0 0.0568980864
H  H340  1  0.02330000  0.06500000  0.33270000  1.0 0.0568980864
H  H341  1  0.93500000  0.97670000  0.16730000  1.0 0.0568980864
H  H342  1  0.06500000  0.02330000  0.66730000  1.0 0.0568980864
H  H343  1  0.47670000  0.56500000  0.41730000  1.0 0.0568980864
H  H344  1  0.52330000  0.43500000  0.91730000  1.0 0.0568980864
H  H345  1  0.61940000  0.53790000  0.83920000  1.0 0.0990728477
H  H346  1  0.03790000  0.88060000  0.08920000  1.0 0.0990728477
H  H347  1  0.38060000  0.46210000  0.33920000  1.0 0.0990728477
H  H348  1  0.96210000  0.11940000  0.58920000  1.0 0.0990728477
H  H349  1  0.88060000  0.03790000  0.91080000  1.0 0.0990728477
H  H350  1  0.11940000  0.96210000  0.41080000  1.0 0.0990728477
H  H351  1  0.53790000  0.61940000  0.16080000  1.0 0.0990728477
H  H352  1  0.46210000  0.38060000  0.66080000  1.0 0.0990728477
H  H353  1  0.55020000  0.59050000  0.84800000  1.0 0.0990728477
H  H354  1  0.09050000  0.94980000  0.09800000  1.0 0.0990728477
H  H355  1  0.44980000  0.40950000  0.34800000  1.0 0.0990728477
H  H356  1  0.90950000  0.05020000  0.59800000  1.0 0.0990728477
H  H357  1  0.94980000  0.09050000  0.90200000  1.0 0.0990728477
H  H358  1  0.05020000  0.90950000  0.40200000  1.0 0.0990728477
H  H359  1  0.59050000  0.55020000  0.15200000  1.0 0.0990728477
H  H360  1  0.40950000  0.44980000  0.65200000  1.0 0.0990728477
H  H361  1  0.49580000  0.52920000  0.59140000  1.0 0.0302288811
H  H362  1  0.02920000  0.00420000  0.84140000  1.0 0.0302288811
H  H363  1  0.50420000  0.47080000  0.09140000  1.0 0.0302288811
H  H364  1  0.97080000  0.99580000  0.34140000  1.0 0.0302288811
H  H365  1  0.00420000  0.02920000  0.15860000  1.0 0.0302288811
H  H366  1  0.99580000  0.97080000  0.65860000  1.0 0.0302288811
H  H367  1  0.52920000  0.49580000  0.40860000  1.0 0.0302288811
H  H368  1  0.47080000  0.50420000  0.90860000  1.0 0.0302288811
H  H369  1  0.89560000  0.16610000  0.27270000  1.0 0.0807808708
H  H370  1  0.66610000  0.60440000  0.52270000  1.0 0.0807808708
H  H371  1  0.10440000  0.83390000  0.77270000  1.0 0.0807808708
H  H372  1  0.33390000  0.39560000  0.02270000  1.0 0.0807808708
H  H373  1  0.60440000  0.66610000  0.47730000  1.0 0.0807808708
H  H374  1  0.39560000  0.33390000  0.97730000  1.0 0.0807808708
H  H375  1  0.16610000  0.89560000  0.72730000  1.0 0.0807808708
H  H376  1  0.83390000  0.10440000  0.22730000  1.0 0.0807808708
H  H377  1  0.94440000  0.12300000  0.16380000  1.0 0.0302288811
H  H378  1  0.62300000  0.55560000  0.41380000  1.0 0.0302288811
H  H379  1  0.05560000  0.87700000  0.66380000  1.0 0.0302288811
H  H380  1  0.37700000  0.44440000  0.91380000  1.0 0.0302288811
H  H381  1  0.55560000  0.62300000  0.58620000  1.0 0.0302288811
H  H382  1  0.44440000  0.37700000  0.08620000  1.0 0.0302288811
H  H383  1  0.12300000  0.94440000  0.83620000  1.0 0.0302288811
H  H384  1  0.87700000  0.05560000  0.33620000  1.0 0.0302288811
H  H385  1  0.04950000  0.21650000  0.20050000  1.0 0.0899890365
H  H386  1  0.71650000  0.45050000  0.45050000  1.0 0.0899890365
H  H387  1  0.95050000  0.78350000  0.70050000  1.0 0.0899890365
H  H388  1  0.28350000  0.54950000  0.95050000  1.0 0.0899890365
H  H389  1  0.45050000  0.71650000  0.54950000  1.0 0.0899890365
H  H390  1  0.54950000  0.28350000  0.04950000  1.0 0.0899890365
H  H391  1  0.21650000  0.04950000  0.79950000  1.0 0.0899890365
H  H392  1  0.78350000  0.95050000  0.29950000  1.0 0.0899890365
H  H393  1  0.46760000  0.80090000  0.82210000  1.0 0.0568980864
H  H394  1  0.30090000  0.03240000  0.07210000  1.0 0.0568980864
H  H395  1  0.53240000  0.19910000  0.32210000  1.0 0.0568980864
H  H396  1  0.69910000  0.96760000  0.57210000  1.0 0.0568980864
H  H397  1  0.03240000  0.30090000  0.92790000  1.0 0.0568980864
H  H398  1  0.96760000  0.69910000  0.42790000  1.0 0.0568980864
H  H399  1  0.80090000  0.46760000  0.17790000  1.0 0.0568980864
H  H400  1  0.19910000  0.53240000  0.67790000  1.0 0.0568980864
H  H401  1  0.52580000  0.79270000  0.80330000  1.0 0.0807808708
H  H402  1  0.29270000  0.97420000  0.05330000  1.0 0.0807808708
H  H403  1  0.47420000  0.20730000  0.30330000  1.0 0.0807808708
H  H404  1  0.70730000  0.02580000  0.55330000  1.0 0.0807808708
H  H405  1  0.97420000  0.29270000  0.94670000  1.0 0.0807808708
H  H406  1  0.02580000  0.70730000  0.44670000  1.0 0.0807808708
H  H407  1  0.79270000  0.52580000  0.19670000  1.0 0.0807808708
H  H408  1  0.20730000  0.47420000  0.69670000  1.0 0.0807808708
H  H409  1  0.50410000  0.79160000  0.91560000  1.0 0.0990728477
H  H410  1  0.29160000  0.99590000  0.16560000  1.0 0.0990728477
H  H411  1  0.49590000  0.20840000  0.41560000  1.0 0.0990728477
H  H412  1  0.70840000  0.00410000  0.66560000  1.0 0.0990728477
H  H413  1  0.99590000  0.29160000  0.83440000  1.0 0.0990728477
H  H414  1  0.00410000  0.70840000  0.33440000  1.0 0.0990728477
H  H415  1  0.79160000  0.50410000  0.08440000  1.0 0.0990728477
H  H416  1  0.20840000  0.49590000  0.58440000  1.0 0.0990728477
H  H417  1  0.56120000  0.59770000  0.88960000  1.0 0.0489460677
H  H418  1  0.09770000  0.93880000  0.13960000  1.0 0.0489460677
H  H419  1  0.43880000  0.40230000  0.38960000  1.0 0.0489460677
H  H420  1  0.90230000  0.06120000  0.63960000  1.0 0.0489460677
H  H421  1  0.93880000  0.09770000  0.86040000  1.0 0.0489460677
H  H422  1  0.06120000  0.90230000  0.36040000  1.0 0.0489460677
H  H423  1  0.59770000  0.56120000  0.11040000  1.0 0.0489460677
H  H424  1  0.40230000  0.43880000  0.61040000  1.0 0.0489460677
H  H425  1  0.62630000  0.54030000  0.87600000  1.0 0.0899890365
H  H426  1  0.04030000  0.87370000  0.12600000  1.0 0.0899890365
H  H427  1  0.37370000  0.45970000  0.37600000  1.0 0.0899890365
H  H428  1  0.95970000  0.12630000  0.62600000  1.0 0.0899890365
H  H429  1  0.87370000  0.04030000  0.87400000  1.0 0.0899890365
H  H430  1  0.12630000  0.95970000  0.37400000  1.0 0.0899890365
H  H431  1  0.54030000  0.62630000  0.12400000  1.0 0.0899890365
H  H432  1  0.45970000  0.37370000  0.62400000  1.0 0.0899890365
H  H433  1  0.57150000  0.49360000  0.60750000  1.0 0.0899890365
H  H434  1  0.99360000  0.92850000  0.85750000  1.0 0.0899890365
H  H435  1  0.42850000  0.50640000  0.10750000  1.0 0.0899890365
H  H436  1  0.00640000  0.07150000  0.35750000  1.0 0.0899890365
H  H437  1  0.92850000  0.99360000  0.14250000  1.0 0.0899890365
H  H438  1  0.07150000  0.00640000  0.64250000  1.0 0.0899890365
H  H439  1  0.49360000  0.57150000  0.39250000  1.0 0.0899890365
H  H440  1  0.50640000  0.42850000  0.89250000  1.0 0.0899890365
H  H441  1  0.50640000  0.55090000  0.62110000  1.0 0.0807808708
H  H442  1  0.05090000  0.99360000  0.87110000  1.0 0.0807808708
H  H443  1  0.49360000  0.44910000  0.12110000  1.0 0.0807808708
H  H444  1  0.94910000  0.00640000  0.37110000  1.0 0.0807808708
H  H445  1  0.99360000  0.05090000  0.12890000  1.0 0.0807808708
H  H446  1  0.00640000  0.94910000  0.62890000  1.0 0.0807808708
H  H447  1  0.55090000  0.50640000  0.37890000  1.0 0.0807808708
H  H448  1  0.44910000  0.49360000  0.87890000  1.0 0.0807808708
H  H449  1  0.00500000  0.26460000  0.29280000  1.0 0.1378628821
H  H450  1  0.76460000  0.49500000  0.54280000  1.0 0.1378628821
H  H451  1  0.99500000  0.73540000  0.79280000  1.0 0.1378628821
H  H452  1  0.23540000  0.50500000  0.04280000  1.0 0.1378628821
H  H453  1  0.49500000  0.76460000  0.45720000  1.0 0.1378628821
H  H454  1  0.50500000  0.23540000  0.95720000  1.0 0.1378628821
H  H455  1  0.26460000  0.00500000  0.70720000  1.0 0.1378628821
H  H456  1  0.73540000  0.99500000  0.20720000  1.0 0.1378628821
H  H457  1  0.87930000  0.18650000  0.23520000  1.0 0.0684115138
H  H458  1  0.68650000  0.62070000  0.48520000  1.0 0.0684115138
H  H459  1  0.12070000  0.81350000  0.73520000  1.0 0.0684115138
H  H460  1  0.31350000  0.37930000  0.98520000  1.0 0.0684115138
H  H461  1  0.62070000  0.68650000  0.51480000  1.0 0.0684115138
H  H462  1  0.37930000  0.31350000  0.01480000  1.0 0.0684115138
H  H463  1  0.18650000  0.87930000  0.76480000  1.0 0.0684115138
H  H464  1  0.81350000  0.12070000  0.26480000  1.0 0.0684115138
H  H465  1  0.92130000  0.14120000  0.11100000  1.0 0.0302288811
H  H466  1  0.64120000  0.57870000  0.36100000  1.0 0.0302288811
H  H467  1  0.07870000  0.85880000  0.61100000  1.0 0.0302288811
H  H468  1  0.35880000  0.42130000  0.86100000  1.0 0.0302288811
H  H469  1  0.57870000  0.64120000  0.63900000  1.0 0.0302288811
H  H470  1  0.42130000  0.35880000  0.13900000  1.0 0.0302288811
H  H471  1  0.14120000  0.92130000  0.88900000  1.0 0.0302288811
H  H472  1  0.85880000  0.07870000  0.38900000  1.0 0.0302288811
H  H473  1  0.04700000  0.21930000  0.16850000  1.0 0.0807808708
H  H474  1  0.71930000  0.45300000  0.41850000  1.0 0.0807808708
H  H475  1  0.95300000  0.78070000  0.66850000  1.0 0.0807808708
H  H476  1  0.28070000  0.54700000  0.91850000  1.0 0.0807808708
H  H477  1  0.45300000  0.71930000  0.58150000  1.0 0.0807808708
H  H478  1  0.54700000  0.28070000  0.08150000  1.0 0.0807808708
H  H479  1  0.21930000  0.04700000  0.83150000  1.0 0.0807808708
H  H480  1  0.78070000  0.95300000  0.33150000  1.0 0.0807808708
C  C1  1  0.70080000  0.27430000  0.50660000  1.0 0.0899890365
C  C2  1  0.77430000  0.79920000  0.75660000  1.0 0.0807808708
C  C3  1  0.29920000  0.72570000  0.00660000  1.0 0.0807808708
C  C4  1  0.22570000  0.20080000  0.25660000  1.0 0.0899890365
C  C5  1  0.79920000  0.77430000  0.24340000  1.0 0.0807808708
C  C6  1  0.20080000  0.22570000  0.74340000  1.0 0.0899890365
C  C7  1  0.27430000  0.70080000  0.49340000  1.0 0.0807808708
C  C8  1  0.72570000  0.29920000  0.99340000  1.0 0.0807808708
C  C9  1  0.67150000  0.34580000  0.60360000  1.0 -0.1091379667
C  C10  1  0.84580000  0.82850000  0.85360000  1.0 -0.1091379667
C  C11  1  0.32850000  0.65420000  0.10360000  1.0 -0.1091379667
C  C12  1  0.15420000  0.17150000  0.35360000  1.0 -0.1091379667
C  C13  1  0.82850000  0.84580000  0.14640000  1.0 -0.1091379667
C  C14  1  0.17150000  0.15420000  0.64640000  1.0 -0.1091379667
C  C15  1  0.34580000  0.67150000  0.39640000  1.0 -0.1091379667
C  C16  1  0.65420000  0.32850000  0.89640000  1.0 -0.1091379667
C  C17  1  0.91070000  0.30286000  0.37290000  1.0 -0.218105582
C  C18  1  0.80286000  0.58930000  0.62290000  1.0 -0.218105582
C  C19  1  0.08930000  0.69714000  0.87290000  1.0 -0.218105582
C  C20  1  0.19714000  0.41070000  0.12290000  1.0 -0.218105582
C  C21  1  0.58930000  0.80286000  0.37710000  1.0 -0.218105582
C  C22  1  0.41070000  0.19714000  0.87710000  1.0 -0.218105582
C  C23  1  0.30286000  0.91070000  0.62710000  1.0 -0.218105582
C  C24  1  0.69714000  0.08930000  0.12710000  1.0 -0.218105582
C  C25  1  0.88200000  0.32723000  0.44470000  1.0 -0.0379113683
C  C26  1  0.82723000  0.61800000  0.69470000  1.0 -0.0379113683
C  C27  1  0.11800000  0.67277000  0.94470000  1.0 -0.0379113683
C  C28  1  0.17277000  0.38200000  0.19470000  1.0 -0.0379113683
C  C29  1  0.61800000  0.82723000  0.30530000  1.0 -0.0379113683
C  C30  1  0.38200000  0.17277000  0.80530000  1.0 -0.0379113683
C  C31  1  0.32723000  0.88200000  0.55530000  1.0 -0.0379113683
C  C32  1  0.67277000  0.11800000  0.05530000  1.0 -0.0379113683
C  C33  1  0.85402000  0.29993000  0.51320000  1.0 0.2368092766
C  C34  1  0.79993000  0.64598000  0.76320000  1.0 0.2368092766
C  C35  1  0.14598000  0.70007000  0.01320000  1.0 0.2368092766
C  C36  1  0.20007000  0.35402000  0.26320000  1.0 0.2368092766
C  C37  1  0.64598000  0.79993000  0.23680000  1.0 0.2368092766
C  C38  1  0.35402000  0.20007000  0.73680000  1.0 0.2368092766
C  C39  1  0.29993000  0.85402000  0.48680000  1.0 0.2368092766
C  C40  1  0.70007000  0.14598000  0.98680000  1.0 0.2368092766
C  C41  1  0.85470000  0.24827000  0.50990000  1.0 -0.0511975857
C  C42  1  0.74827000  0.64530000  0.75990000  1.0 -0.0511975857
C  C43  1  0.14530000  0.75173000  0.00990000  1.0 -0.0511975857
C  C44  1  0.25173000  0.35470000  0.25990000  1.0 -0.0511975857
C  C45  1  0.64530000  0.74827000  0.24010000  1.0 -0.0511975857
C  C46  1  0.35470000  0.25173000  0.74010000  1.0 -0.0511975857
C  C47  1  0.24827000  0.85470000  0.49010000  1.0 -0.0511975857
C  C48  1  0.75173000  0.14530000  0.99010000  1.0 -0.0511975857
C  C49  1  0.88340000  0.22390000  0.43810000  1.0 -0.3112694504
C  C50  1  0.72390000  0.61660000  0.68810000  1.0 -0.3112694504
C  C51  1  0.11660000  0.77610000  0.93810000  1.0 -0.3112694504
C  C52  1  0.27610000  0.38340000  0.18810000  1.0 -0.3112694504
C  C53  1  0.61660000  0.72390000  0.31190000  1.0 -0.3112694504
C  C54  1  0.38340000  0.27610000  0.81190000  1.0 -0.3112694504
C  C55  1  0.22390000  0.88340000  0.56190000  1.0 -0.3112694504
C  C56  1  0.77610000  0.11660000  0.06190000  1.0 -0.3112694504
C  C57  1  0.91140000  0.25120000  0.36960000  1.0 0.0302288811
C  C58  1  0.75120000  0.58860000  0.61960000  1.0 0.0302288811
C  C59  1  0.08860000  0.74880000  0.86960000  1.0 0.0302288811
C  C60  1  0.24880000  0.41140000  0.11960000  1.0 0.0302288811
C  C61  1  0.58860000  0.75120000  0.38040000  1.0 0.0302288811
C  C62  1  0.41140000  0.24880000  0.88040000  1.0 0.0302288811
C  C63  1  0.25120000  0.91140000  0.63040000  1.0 0.0302288811
C  C64  1  0.74880000  0.08860000  0.13040000  1.0 0.0302288811
C  C65  1  0.64177000  0.42760000  0.66130000  1.0 -0.3285000505
C  C66  1  0.92760000  0.85823000  0.91130000  1.0 -0.3285000505
C  C67  1  0.35823000  0.57240000  0.16130000  1.0 -0.3285000505
C  C68  1  0.07240000  0.14177000  0.41130000  1.0 -0.3285000505
C  C69  1  0.85823000  0.92760000  0.08870000  1.0 -0.3285000505
C  C70  1  0.14177000  0.07240000  0.58870000  1.0 -0.3285000505
C  C71  1  0.42760000  0.64177000  0.33870000  1.0 -0.3285000505
C  C72  1  0.57240000  0.35823000  0.83870000  1.0 -0.3285000505
C  C73  1  0.64600000  0.47150000  0.71600000  1.0 -0.0170265902
C  C74  1  0.97150000  0.85400000  0.96600000  1.0 -0.0170265902
C  C75  1  0.35400000  0.52850000  0.21600000  1.0 -0.0170265902
C  C76  1  0.02850000  0.14600000  0.46600000  1.0 -0.0170265902
C  C77  1  0.85400000  0.97150000  0.03400000  1.0 -0.0170265902
C  C78  1  0.14600000  0.02850000  0.53400000  1.0 -0.0170265902
C  C79  1  0.47150000  0.64600000  0.28400000  1.0 -0.0170265902
C  C80  1  0.52850000  0.35400000  0.78400000  1.0 -0.0170265902
C  C81  1  0.68990000  0.48229000  0.76690000  1.0 -0.2710632956
C  C82  1  0.98229000  0.81010000  0.01690000  1.0 -0.2710632956
C  C83  1  0.31010000  0.51771000  0.26690000  1.0 -0.2710632956
C  C84  1  0.01771000  0.18990000  0.51690000  1.0 -0.2710632956
C  C85  1  0.81010000  0.98229000  0.98310000  1.0 -0.2710632956
C  C86  1  0.18990000  0.01771000  0.48310000  1.0 -0.2710632956
C  C87  1  0.48229000  0.68990000  0.23310000  1.0 -0.2710632956
C  C88  1  0.51771000  0.31010000  0.73310000  1.0 -0.2710632956
C  C89  1  0.72950000  0.44920000  0.76300000  1.0 -0.0511975857
C  C90  1  0.94920000  0.77050000  0.01300000  1.0 -0.0511975857
C  C91  1  0.27050000  0.55080000  0.26300000  1.0 -0.0511975857
C  C92  1  0.05080000  0.22950000  0.51300000  1.0 -0.0511975857
C  C93  1  0.77050000  0.94920000  0.98700000  1.0 -0.0511975857
C  C94  1  0.22950000  0.05080000  0.48700000  1.0 -0.0511975857
C  C95  1  0.44920000  0.72950000  0.23700000  1.0 -0.0511975857
C  C96  1  0.55080000  0.27050000  0.73700000  1.0 -0.0511975857
C  C97  1  0.72534000  0.40535000  0.70830000  1.0 0.2507362147
C  C98  1  0.90535000  0.77466000  0.95830000  1.0 0.2507362147
C  C99  1  0.27466000  0.59465000  0.20830000  1.0 0.2507362147
C  C100  1  0.09465000  0.22534000  0.45830000  1.0 0.2507362147
C  C101  1  0.77466000  0.90535000  0.04170000  1.0 0.2507362147
C  C102  1  0.22534000  0.09465000  0.54170000  1.0 0.2507362147
C  C103  1  0.40535000  0.72534000  0.29170000  1.0 0.2507362147
C  C104  1  0.59465000  0.27466000  0.79170000  1.0 0.2507362147
C  C105  1  0.68150000  0.39454000  0.65740000  1.0 -0.0696292882
C  C106  1  0.89454000  0.81850000  0.90740000  1.0 -0.0696292882
C  C107  1  0.31850000  0.60546000  0.15740000  1.0 -0.0696292882
C  C108  1  0.10546000  0.18150000  0.40740000  1.0 -0.0696292882
C  C109  1  0.81850000  0.89454000  0.09260000  1.0 -0.0696292882
C  C110  1  0.18150000  0.10546000  0.59260000  1.0 -0.0696292882
C  C111  1  0.39454000  0.68150000  0.34260000  1.0 -0.0696292882
C  C112  1  0.60546000  0.31850000  0.84260000  1.0 -0.0696292882
C  C113  1  0.82470000  0.21720000  0.58150000  1.0 -0.1185858667
C  C114  1  0.71720000  0.67530000  0.83150000  1.0 -0.1185858667
C  C115  1  0.17530000  0.78280000  0.08150000  1.0 -0.1185858667
C  C116  1  0.28280000  0.32470000  0.33150000  1.0 -0.1185858667
C  C117  1  0.67530000  0.71720000  0.16850000  1.0 -0.1185858667
C  C118  1  0.32470000  0.28280000  0.66850000  1.0 -0.1185858667
C  C119  1  0.21720000  0.82470000  0.41850000  1.0 -0.1185858667
C  C120  1  0.78280000  0.17530000  0.91850000  1.0 -0.1185858667
C  C121  1  0.88220000  0.38560000  0.44870000  1.0 0.3060766091
C  C122  1  0.88560000  0.61780000  0.69870000  1.0 0.3060766091
C  C123  1  0.11780000  0.61440000  0.94870000  1.0 0.3060766091
C  C124  1  0.11440000  0.38220000  0.19870000  1.0 0.3060766091
C  C125  1  0.61780000  0.88560000  0.30130000  1.0 0.3060766091
C  C126  1  0.38220000  0.11440000  0.80130000  1.0 0.3060766091
C  C127  1  0.38560000  0.88220000  0.55130000  1.0 0.3060766091
C  C128  1  0.61440000  0.11780000  0.05130000  1.0 0.3060766091
C  C129  1  0.67530000  0.28160000  0.40690000  1.0 -0.2824763091
C  C130  1  0.78160000  0.82470000  0.65690000  1.0 -0.2824763091
C  C131  1  0.32470000  0.71840000  0.90690000  1.0 -0.2824763091
C  C132  1  0.21840000  0.17530000  0.15690000  1.0 -0.2824763091
C  C133  1  0.82470000  0.78160000  0.34310000  1.0 -0.2824763091
C  C134  1  0.17530000  0.21840000  0.84310000  1.0 -0.2824763091
C  C135  1  0.28160000  0.67530000  0.59310000  1.0 -0.2824763091
C  C136  1  0.71840000  0.32470000  0.09310000  1.0 -0.2824763091
C  C137  1  0.77910000  0.46170000  0.82040000  1.0 0.3249950936
C  C138  1  0.96170000  0.72090000  0.07040000  1.0 0.3259013822
C  C139  1  0.22090000  0.53830000  0.32040000  1.0 0.3249950936
C  C140  1  0.03830000  0.27910000  0.57040000  1.0 0.3249950936
C  C141  1  0.72090000  0.96170000  0.92960000  1.0 0.3259013822
C  C142  1  0.27910000  0.03830000  0.42960000  1.0 0.3249950936
C  C143  1  0.46170000  0.77910000  0.17960000  1.0 0.3249950936
C  C144  1  0.53830000  0.22090000  0.67960000  1.0 0.3249950936
C  C145  1  0.82830000  0.40520000  0.43540000  1.0 -0.5507438103
C  C146  1  0.90520000  0.67170000  0.68540000  1.0 -0.5507438103
C  C147  1  0.17170000  0.59480000  0.93540000  1.0 -0.5507438103
C  C148  1  0.09480000  0.32830000  0.18540000  1.0 -0.5507438103
C  C149  1  0.67170000  0.90520000  0.31460000  1.0 -0.5507438103
C  C150  1  0.32830000  0.09480000  0.81460000  1.0 -0.5507438103
C  C151  1  0.40520000  0.82830000  0.56460000  1.0 -0.5507438103
C  C152  1  0.59480000  0.17170000  0.06460000  1.0 -0.5507438103
C  C153  1  0.70750000  0.19860000  0.34600000  1.0 -0.1694547361
C  C154  1  0.69860000  0.79250000  0.59600000  1.0 -0.1694547361
C  C155  1  0.29250000  0.80140000  0.84600000  1.0 -0.1694547361
C  C156  1  0.30140000  0.20750000  0.09600000  1.0 -0.1694547361
C  C157  1  0.79250000  0.69860000  0.40400000  1.0 -0.1694547361
C  C158  1  0.20750000  0.30140000  0.90400000  1.0 -0.1694547361
C  C159  1  0.19860000  0.70750000  0.65400000  1.0 -0.1694547361
C  C160  1  0.80140000  0.29250000  0.15400000  1.0 -0.1694547361
C  C161  1  0.74750000  0.24220000  0.49170000  1.0 0.0684115138
C  C162  1  0.74220000  0.75250000  0.74170000  1.0 0.0684115138
C  C163  1  0.25250000  0.75780000  0.99170000  1.0 0.0684115138
C  C164  1  0.25780000  0.24750000  0.24170000  1.0 0.0684115138
C  C165  1  0.75250000  0.74220000  0.25830000  1.0 0.0684115138
C  C166  1  0.24750000  0.25780000  0.75830000  1.0 0.0684115138
C  C167  1  0.24220000  0.74750000  0.50830000  1.0 0.0684115138
C  C168  1  0.75780000  0.25250000  0.00830000  1.0 0.0684115138
C  C169  1  0.82290000  0.46130000  0.75040000  1.0 -0.5092331538
C  C170  1  0.96130000  0.67710000  0.00040000  1.0 -0.5092331538
C  C171  1  0.17710000  0.53870000  0.25040000  1.0 -0.5092331538
C  C172  1  0.03870000  0.32290000  0.50040000  1.0 -0.5092331538
C  C173  1  0.67710000  0.96130000  0.99960000  1.0 -0.5092331538
C  C174  1  0.32290000  0.03870000  0.49960000  1.0 -0.5092331538
C  C175  1  0.46130000  0.82290000  0.24960000  1.0 -0.5092331538
C  C176  1  0.53870000  0.17710000  0.74960000  1.0 -0.5092331538
C  C177  1  0.77660000  0.51420000  0.87470000  1.0 -0.5174308041
C  C178  1  0.01420000  0.72340000  0.12470000  1.0 -0.5174308041
C  C179  1  0.22340000  0.48580000  0.37470000  1.0 -0.5174308041
C  C180  1  0.98580000  0.27660000  0.62470000  1.0 -0.5174308041
C  C181  1  0.72340000  0.01420000  0.87530000  1.0 -0.5174308041
C  C182  1  0.27660000  0.98580000  0.37530000  1.0 -0.5174308041
C  C183  1  0.51420000  0.77660000  0.12530000  1.0 -0.5174308041
C  C184  1  0.48580000  0.22340000  0.62530000  1.0 -0.5174308041
C  C185  1  0.78700000  0.42270000  0.90390000  1.0 -0.5092331538
C  C186  1  0.92270000  0.71300000  0.15390000  1.0 -0.5092331538
C  C187  1  0.21300000  0.57730000  0.40390000  1.0 -0.5092331538
C  C188  1  0.07730000  0.28700000  0.65390000  1.0 -0.5092331538
C  C189  1  0.71300000  0.92270000  0.84610000  1.0 -0.5092331538
C  C190  1  0.28700000  0.07730000  0.34610000  1.0 -0.5092331538
C  C191  1  0.42270000  0.78700000  0.09610000  1.0 -0.5092331538
C  C192  1  0.57730000  0.21300000  0.59610000  1.0 -0.5092331538
C  C193  1  0.73470000  0.19130000  0.44190000  1.0 -0.2358686994
C  C194  1  0.69130000  0.76530000  0.69190000  1.0 -0.2358686994
C  C195  1  0.26530000  0.80870000  0.94190000  1.0 -0.2358686994
C  C196  1  0.30870000  0.23470000  0.19190000  1.0 -0.2358686994
C  C197  1  0.76530000  0.69130000  0.30810000  1.0 -0.2358686994
C  C198  1  0.23470000  0.30870000  0.80810000  1.0 -0.2358686994
C  C199  1  0.19130000  0.73470000  0.55810000  1.0 -0.2358686994
C  C200  1  0.80870000  0.26530000  0.05810000  1.0 -0.2358686994
C  C201  1  0.90370000  0.40250000  0.54590000  1.0 -0.4674366875
C  C202  1  0.90250000  0.59630000  0.79590000  1.0 -0.4674366875
C  C203  1  0.09630000  0.59750000  0.04590000  1.0 -0.4674366875
C  C204  1  0.09750000  0.40370000  0.29590000  1.0 -0.4674366875
C  C205  1  0.59630000  0.90250000  0.20410000  1.0 -0.4674366875
C  C206  1  0.40370000  0.09750000  0.70410000  1.0 -0.4674366875
C  C207  1  0.40250000  0.90370000  0.45410000  1.0 -0.4674366875
C  C208  1  0.59750000  0.09630000  0.95410000  1.0 -0.4674366875
C  C209  1  0.99030000  0.23300000  0.28000000  1.0 -0.1494690901
C  C210  1  0.73300000  0.50970000  0.53000000  1.0 -0.1494690901
C  C211  1  0.00970000  0.76700000  0.78000000  1.0 -0.1494690901
C  C212  1  0.26700000  0.49030000  0.03000000  1.0 -0.1494690901
C  C213  1  0.50970000  0.73300000  0.47000000  1.0 -0.1494690901
C  C214  1  0.49030000  0.26700000  0.97000000  1.0 -0.1494690901
C  C215  1  0.23300000  0.99030000  0.72000000  1.0 -0.1494690901
C  C216  1  0.76700000  0.00970000  0.22000000  1.0 -0.1494690901
C  C217  1  0.91250000  0.40810000  0.36290000  1.0 -0.4795844289
C  C218  1  0.90810000  0.58750000  0.61290000  1.0 -0.4795844289
C  C219  1  0.08750000  0.59190000  0.86290000  1.0 -0.4795844289
C  C220  1  0.09190000  0.41250000  0.11290000  1.0 -0.4795844289
C  C221  1  0.58750000  0.90810000  0.38710000  1.0 -0.4795844289
C  C222  1  0.41250000  0.09190000  0.88710000  1.0 -0.4795844289
C  C223  1  0.40810000  0.91250000  0.63710000  1.0 -0.4795844289
C  C224  1  0.59190000  0.08750000  0.13710000  1.0 -0.4795844289
C  C225  1  0.66240000  0.23210000  0.35760000  1.0 -0.1694547361
C  C226  1  0.73210000  0.83760000  0.60760000  1.0 -0.1694547361
C  C227  1  0.33760000  0.76790000  0.85760000  1.0 -0.1694547361
C  C228  1  0.26790000  0.16240000  0.10760000  1.0 -0.1694547361
C  C229  1  0.83760000  0.73210000  0.39240000  1.0 -0.1694547361
C  C230  1  0.16240000  0.26790000  0.89240000  1.0 -0.1694547361
C  C231  1  0.23210000  0.66240000  0.64240000  1.0 -0.1694547361
C  C232  1  0.76790000  0.33760000  0.14240000  1.0 -0.1694547361
C  C233  1  0.46660000  0.71550000  0.79000000  1.0 0.1569860061
C  C234  1  0.21550000  0.03340000  0.04000000  1.0 0.1569860061
C  C235  1  0.53340000  0.28450000  0.29000000  1.0 0.1569860061
C  C236  1  0.78450000  0.96660000  0.54000000  1.0 0.1569860061
C  C237  1  0.03340000  0.21550000  0.96000000  1.0 0.1569860061
C  C238  1  0.96660000  0.78450000  0.46000000  1.0 0.1569860061
C  C239  1  0.71550000  0.46660000  0.21000000  1.0 0.1569860061
C  C240  1  0.28450000  0.53340000  0.71000000  1.0 0.1569860061
C  C241  1  0.47690000  0.76830000  0.82200000  1.0 -0.130792729
C  C242  1  0.26830000  0.02310000  0.07200000  1.0 -0.130792729
C  C243  1  0.52310000  0.23170000  0.32200000  1.0 -0.130792729
C  C244  1  0.73170000  0.97690000  0.57200000  1.0 -0.130792729
C  C245  1  0.02310000  0.26830000  0.92800000  1.0 -0.130792729
C  C246  1  0.97690000  0.73170000  0.42800000  1.0 -0.130792729
C  C247  1  0.76830000  0.47690000  0.17800000  1.0 -0.130792729
C  C248  1  0.23170000  0.52310000  0.67800000  1.0 -0.130792729
C  C249  1  0.56200000  0.49980000  0.63650000  1.0 -0.0787865654
C  C250  1  0.99980000  0.93800000  0.88650000  1.0 -0.0787865654
C  C251  1  0.43800000  0.50020000  0.13650000  1.0 -0.0787865654
C  C252  1  0.00020000  0.06200000  0.38650000  1.0 -0.0787865654
C  C253  1  0.93800000  0.99980000  0.11350000  1.0 -0.0787865654
C  C254  1  0.06200000  0.00020000  0.61350000  1.0 -0.0787865654
C  C255  1  0.49980000  0.56200000  0.36350000  1.0 -0.0787865654
C  C256  1  0.50020000  0.43800000  0.86350000  1.0 -0.0787865654
C  C257  1  0.59870000  0.50240000  0.71000000  1.0 0.0489460677
C  C258  1  0.00240000  0.90130000  0.96000000  1.0 0.0489460677
C  C259  1  0.40130000  0.49760000  0.21000000  1.0 0.0489460677
C  C260  1  0.99760000  0.09870000  0.46000000  1.0 0.0489460677
C  C261  1  0.90130000  0.00240000  0.04000000  1.0 0.0489460677
C  C262  1  0.09870000  0.99760000  0.54000000  1.0 0.0489460677
C  C263  1  0.50240000  0.59870000  0.29000000  1.0 0.0489460677
C  C264  1  0.49760000  0.40130000  0.79000000  1.0 0.0489460677
C  C265  1  0.59430000  0.53620000  0.78900000  1.0 -0.0379113683
C  C266  1  0.03620000  0.90570000  0.03900000  1.0 -0.0379113683
C  C267  1  0.40570000  0.46380000  0.28900000  1.0 -0.0379113683
C  C268  1  0.96380000  0.09430000  0.53900000  1.0 -0.0379113683
C  C269  1  0.90570000  0.03620000  0.96100000  1.0 -0.0379113683
C  C270  1  0.09430000  0.96380000  0.46100000  1.0 -0.0379113683
C  C271  1  0.53620000  0.59430000  0.21100000  1.0 -0.0379113683
C  C272  1  0.46380000  0.40570000  0.71100000  1.0 -0.0379113683
C  C273  1  0.55320000  0.56740000  0.79410000  1.0 0.0489460677
C  C274  1  0.06740000  0.94680000  0.04410000  1.0 0.0489460677
C  C275  1  0.44680000  0.43260000  0.29410000  1.0 0.0489460677
C  C276  1  0.93260000  0.05320000  0.54410000  1.0 0.0489460677
C  C277  1  0.94680000  0.06740000  0.95590000  1.0 0.0489460677
C  C278  1  0.05320000  0.93260000  0.45590000  1.0 0.0489460677
C  C279  1  0.56740000  0.55320000  0.20590000  1.0 0.0489460677
C  C280  1  0.43260000  0.44680000  0.70590000  1.0 0.0489460677
C  C281  1  0.52090000  0.53100000  0.64170000  1.0 -0.0901125468
C  C282  1  0.03100000  0.97910000  0.89170000  1.0 -0.0977161378
C  C283  1  0.47910000  0.46900000  0.14170000  1.0 -0.0901125468
C  C284  1  0.96900000  0.02090000  0.39170000  1.0 -0.0901125468
C  C285  1  0.97910000  0.03100000  0.10830000  1.0 -0.0901125468
C  C286  1  0.02090000  0.96900000  0.60830000  1.0 -0.0977161378
C  C287  1  0.53100000  0.52090000  0.35830000  1.0 -0.0901125468
C  C288  1  0.46900000  0.47910000  0.85830000  1.0 -0.0977161378
C  C289  1  0.92820000  0.17790000  0.25860000  1.0 -0.0901125468
C  C290  1  0.67790000  0.57180000  0.50860000  1.0 -0.0901125468
C  C291  1  0.07180000  0.82210000  0.75860000  1.0 -0.0901125468
C  C292  1  0.32210000  0.42820000  0.00860000  1.0 -0.0901125468
C  C293  1  0.57180000  0.67790000  0.49140000  1.0 -0.0901125468
C  C294  1  0.42820000  0.32210000  0.99140000  1.0 -0.0901125468
C  C295  1  0.17790000  0.92820000  0.74140000  1.0 -0.0901125468
C  C296  1  0.82210000  0.07180000  0.24140000  1.0 -0.0901125468
C  C297  1  0.95710000  0.15210000  0.19500000  1.0 0.0190450233
C  C298  1  0.65210000  0.54290000  0.44500000  1.0 0.0190450233
C  C299  1  0.04290000  0.84790000  0.69500000  1.0 0.0190450233
C  C300  1  0.34790000  0.45710000  0.94500000  1.0 0.0190450233
C  C301  1  0.54290000  0.65210000  0.55500000  1.0 0.0190450233
C  C302  1  0.45710000  0.34790000  0.05500000  1.0 0.0190450233
C  C303  1  0.15210000  0.95710000  0.80500000  1.0 0.0190450233
C  C304  1  0.84790000  0.04290000  0.30500000  1.0 0.0190450233
C  C305  1  0.94360000  0.21960000  0.30260000  1.0 0.0807808708
C  C306  1  0.71960000  0.55640000  0.55260000  1.0 0.0807808708
C  C307  1  0.05640000  0.78040000  0.80260000  1.0 0.0684115138
C  C308  1  0.28040000  0.44360000  0.05260000  1.0 0.0684115138
C  C309  1  0.55640000  0.71960000  0.44740000  1.0 0.0807808708
C  C310  1  0.44360000  0.28040000  0.94740000  1.0 0.0684115138
C  C311  1  0.21960000  0.94360000  0.69740000  1.0 0.0807808708
C  C312  1  0.78040000  0.05640000  0.19740000  1.0 0.0807808708
C  C313  1  0.01690000  0.20540000  0.21600000  1.0 0.0190450233
C  C314  1  0.70540000  0.48310000  0.46600000  1.0 0.0190450233
C  C315  1  0.98310000  0.79460000  0.71600000  1.0 0.0190450233
C  C316  1  0.29460000  0.51690000  0.96600000  1.0 0.0190450233
C  C317  1  0.48310000  0.70540000  0.53400000  1.0 0.0190450233
C  C318  1  0.51690000  0.29460000  0.03400000  1.0 0.0190450233
C  C319  1  0.20540000  0.01690000  0.78400000  1.0 0.0190450233
C  C320  1  0.79460000  0.98310000  0.28400000  1.0 0.0190450233
C  C321  1  0.49740000  0.78310000  0.84500000  1.0 -0.229771241
C  C322  1  0.28310000  0.00260000  0.09500000  1.0 -0.229771241
C  C323  1  0.50260000  0.21690000  0.34500000  1.0 -0.229771241
C  C324  1  0.71690000  0.99740000  0.59500000  1.0 -0.229771241
C  C325  1  0.00260000  0.28310000  0.90500000  1.0 -0.229771241
C  C326  1  0.99740000  0.71690000  0.40500000  1.0 -0.229771241
C  C327  1  0.78310000  0.49740000  0.15500000  1.0 -0.229771241
C  C328  1  0.21690000  0.50260000  0.65500000  1.0 -0.229771241
C  C329  1  0.48890000  0.72780000  0.83600000  1.0 0.200479929
C  C330  1  0.22780000  0.01110000  0.08600000  1.0 0.200479929
C  C331  1  0.51110000  0.27220000  0.33600000  1.0 0.200479929
C  C332  1  0.77220000  0.98890000  0.58600000  1.0 0.200479929
C  C333  1  0.01110000  0.22780000  0.91400000  1.0 0.200479929
C  C334  1  0.98890000  0.77220000  0.41400000  1.0 0.200479929
C  C335  1  0.72780000  0.48890000  0.16400000  1.0 0.200479929
C  C336  1  0.27220000  0.51110000  0.66400000  1.0 0.200479929
C  C337  1  0.56330000  0.57660000  0.83230000  1.0 -0.0787865654
C  C338  1  0.07660000  0.93670000  0.08230000  1.0 -0.0787865654
C  C339  1  0.43670000  0.42340000  0.33230000  1.0 -0.0787865654
C  C340  1  0.92340000  0.06330000  0.58230000  1.0 -0.0787865654
C  C341  1  0.93670000  0.07660000  0.91770000  1.0 -0.0787865654
C  C342  1  0.06330000  0.92340000  0.41770000  1.0 -0.0787865654
C  C343  1  0.57660000  0.56330000  0.16770000  1.0 -0.0787865654
C  C344  1  0.42340000  0.43670000  0.66770000  1.0 -0.0787865654
C  C345  1  0.60190000  0.54250000  0.82430000  1.0 -0.0901125468
C  C346  1  0.04250000  0.89810000  0.07430000  1.0 -0.0901125468
C  C347  1  0.39810000  0.45750000  0.32430000  1.0 -0.0901125468
C  C348  1  0.95750000  0.10190000  0.57430000  1.0 -0.0901125468
C  C349  1  0.89810000  0.04250000  0.92570000  1.0 -0.0901125468
C  C350  1  0.10190000  0.95750000  0.42570000  1.0 -0.0901125468
C  C351  1  0.54250000  0.60190000  0.17570000  1.0 -0.0901125468
C  C352  1  0.45750000  0.39810000  0.67570000  1.0 -0.0901125468
C  C353  1  0.60500000  0.51160000  0.74100000  1.0 0.0684115138
C  C354  1  0.01160000  0.89500000  0.99100000  1.0 0.0684115138
C  C355  1  0.39500000  0.48840000  0.24100000  1.0 0.0684115138
C  C356  1  0.98840000  0.10500000  0.49100000  1.0 0.0684115138
C  C357  1  0.89500000  0.01160000  0.00900000  1.0 0.0684115138
C  C358  1  0.10500000  0.98840000  0.50900000  1.0 0.0684115138
C  C359  1  0.51160000  0.60500000  0.25900000  1.0 0.0684115138
C  C360  1  0.48840000  0.39500000  0.75900000  1.0 0.0684115138
C  C361  1  0.56940000  0.51470000  0.66480000  1.0 -0.0379113683
C  C362  1  0.01470000  0.93060000  0.91480000  1.0 -0.0379113683
C  C363  1  0.43060000  0.48530000  0.16480000  1.0 -0.0379113683
C  C364  1  0.98530000  0.06940000  0.41480000  1.0 -0.0379113683
C  C365  1  0.93060000  0.01470000  0.08520000  1.0 -0.0379113683
C  C366  1  0.06940000  0.98530000  0.58520000  1.0 -0.0379113683
C  C367  1  0.51470000  0.56940000  0.33520000  1.0 -0.0379113683
C  C368  1  0.48530000  0.43060000  0.83520000  1.0 -0.0379113683
C  C369  1  0.53070000  0.54880000  0.67280000  1.0 0.0489460677
C  C370  1  0.04880000  0.96930000  0.92280000  1.0 0.0489460677
C  C371  1  0.46930000  0.45120000  0.17280000  1.0 0.0489460677
C  C372  1  0.95120000  0.03070000  0.42280000  1.0 0.0489460677
C  C373  1  0.96930000  0.04880000  0.07720000  1.0 0.0489460677
C  C374  1  0.03070000  0.95120000  0.57720000  1.0 0.0489460677
C  C375  1  0.54880000  0.53070000  0.32720000  1.0 0.0489460677
C  C376  1  0.45120000  0.46930000  0.82720000  1.0 0.0489460677
C  C377  1  0.98800000  0.23960000  0.25600000  1.0 -0.1494690901
C  C378  1  0.73960000  0.51200000  0.50600000  1.0 -0.1494690901
C  C379  1  0.01200000  0.76040000  0.75600000  1.0 -0.1494690901
C  C380  1  0.26040000  0.48800000  0.00600000  1.0 -0.1494690901
C  C381  1  0.51200000  0.73960000  0.49400000  1.0 -0.1494690901
C  C382  1  0.48800000  0.26040000  0.99400000  1.0 -0.1494690901
C  C383  1  0.23960000  0.98800000  0.74400000  1.0 -0.1494690901
C  C384  1  0.76040000  0.01200000  0.24400000  1.0 -0.1494690901
C  C385  1  0.93820000  0.22980000  0.27570000  1.0 0.0899890365
C  C386  1  0.72980000  0.56180000  0.52570000  1.0 0.0899890365
C  C387  1  0.06180000  0.77020000  0.77570000  1.0 0.0899890365
C  C388  1  0.27020000  0.43820000  0.02570000  1.0 0.0899890365
C  C389  1  0.56180000  0.72980000  0.47430000  1.0 0.0899890365
C  C390  1  0.43820000  0.27020000  0.97430000  1.0 0.0899890365
C  C391  1  0.22980000  0.93820000  0.72430000  1.0 0.0899890365
C  C392  1  0.77020000  0.06180000  0.22430000  1.0 0.0899890365
C  C393  1  0.91330000  0.19320000  0.22170000  1.0 -0.0511975857
C  C394  1  0.69320000  0.58670000  0.47170000  1.0 -0.0511975857
C  C395  1  0.08670000  0.80680000  0.72170000  1.0 -0.0511975857
C  C396  1  0.30680000  0.41330000  0.97170000  1.0 -0.0511975857
C  C397  1  0.58670000  0.69320000  0.52830000  1.0 -0.0511975857
C  C398  1  0.41330000  0.30680000  0.02830000  1.0 -0.0511975857
C  C399  1  0.19320000  0.91330000  0.77830000  1.0 -0.0511975857
C  C400  1  0.80680000  0.08670000  0.27830000  1.0 -0.0511975857
C  C401  1  0.93830000  0.16620000  0.14790000  1.0 -0.0170265902
C  C402  1  0.66620000  0.56170000  0.39790000  1.0 -0.0170265902
C  C403  1  0.06170000  0.83380000  0.64790000  1.0 -0.0170265902
C  C404  1  0.33380000  0.43830000  0.89790000  1.0 -0.0170265902
C  C405  1  0.56170000  0.66620000  0.60210000  1.0 -0.0170265902
C  C406  1  0.43830000  0.33380000  0.10210000  1.0 -0.0170265902
C  C407  1  0.16620000  0.93830000  0.85210000  1.0 -0.0170265902
C  C408  1  0.83380000  0.06170000  0.35210000  1.0 -0.0170265902
C  C409  1  0.01300000  0.21260000  0.18200000  1.0 0.0489460677
C  C410  1  0.71260000  0.48700000  0.43200000  1.0 0.0489460677
C  C411  1  0.98700000  0.78740000  0.68200000  1.0 0.0489460677
C  C412  1  0.28740000  0.51300000  0.93200000  1.0 0.0489460677
C  C413  1  0.48700000  0.71260000  0.56800000  1.0 0.0489460677
C  C414  1  0.51300000  0.28740000  0.06800000  1.0 0.0489460677
C  C415  1  0.21260000  0.01300000  0.81800000  1.0 0.0489460677
C  C416  1  0.78740000  0.98700000  0.31800000  1.0 0.0489460677
Br  Br1  1  0.39750000  0.59170000  0.86920000  1.0 -0.130792729
Br  Br2  1  0.09170000  0.10250000  0.11920000  1.0 -0.130792729
Br  Br3  1  0.60250000  0.40830000  0.36920000  1.0 -0.130792729
Br  Br4  1  0.90830000  0.89750000  0.61920000  1.0 -0.130792729
Br  Br5  1  0.10250000  0.09170000  0.88080000  1.0 -0.130792729
Br  Br6  1  0.89750000  0.90830000  0.38080000  1.0 -0.130792729
Br  Br7  1  0.59170000  0.39750000  0.13080000  1.0 -0.130792729
Br  Br8  1  0.40830000  0.60250000  0.63080000  1.0 -0.130792729
Br  Br9  1  0.42580000  0.60360000  0.92590000  1.0 -0.1821732851
Br  Br10  1  0.10360000  0.07420000  0.17590000  1.0 -0.1821732851
Br  Br11  1  0.57420000  0.39640000  0.42590000  1.0 -0.1821732851
Br  Br12  1  0.89640000  0.92580000  0.67590000  1.0 -0.1821732851
Br  Br13  1  0.07420000  0.10360000  0.82410000  1.0 -0.1821732851
Br  Br14  1  0.92580000  0.89640000  0.32410000  1.0 -0.1821732851
Br  Br15  1  0.60360000  0.42580000  0.07410000  1.0 -0.1821732851
Br  Br16  1  0.39640000  0.57420000  0.57410000  1.0 -0.1821732851
N  N1  1  0.77320000  0.23670000  0.58980000  1.0 -0.4674366875
N  N2  1  0.73670000  0.72680000  0.83980000  1.0 -0.4674366875
N  N3  1  0.22680000  0.76330000  0.08980000  1.0 -0.4674366875
N  N4  1  0.26330000  0.27320000  0.33980000  1.0 -0.4674366875
N  N5  1  0.72680000  0.73670000  0.16020000  1.0 -0.4674366875
N  N6  1  0.27320000  0.26330000  0.66020000  1.0 -0.4674366875
N  N7  1  0.23670000  0.77320000  0.41020000  1.0 -0.4674366875
N  N8  1  0.76330000  0.22680000  0.91020000  1.0 -0.4674366875
N  N9  1  0.71620000  0.32080000  0.55890000  1.0 -0.4418907198
N  N10  1  0.82080000  0.78380000  0.80890000  1.0 -0.4418907198
N  N11  1  0.28380000  0.67920000  0.05890000  1.0 -0.4418907198
N  N12  1  0.17920000  0.21620000  0.30890000  1.0 -0.4418907198
N  N13  1  0.78380000  0.82080000  0.19110000  1.0 -0.4418907198
N  N14  1  0.21620000  0.17920000  0.69110000  1.0 -0.4418907198
N  N15  1  0.32080000  0.71620000  0.44110000  1.0 -0.4418907198
N  N16  1  0.67920000  0.28380000  0.94110000  1.0 -0.4418907198
N  N17  1  0.51650000  0.56480000  0.72050000  1.0 -0.0977161378
N  N18  1  0.06480000  0.98350000  0.97050000  1.0 -0.0977161378
N  N19  1  0.48350000  0.43520000  0.22050000  1.0 -0.0977161378
N  N20  1  0.93520000  0.01650000  0.47050000  1.0 -0.0977161378
N  N21  1  0.98350000  0.06480000  0.02950000  1.0 -0.0977161378
N  N22  1  0.01650000  0.93520000  0.52950000  1.0 -0.0977161378
N  N23  1  0.56480000  0.51650000  0.27950000  1.0 -0.0977161378
N  N24  1  0.43520000  0.48350000  0.77950000  1.0 -0.0977161378
N  N25  1  0.00240000  0.16660000  0.17640000  1.0 -0.1185858667
N  N26  1  0.66666667  0.49760000  0.42640000  1.0 -0.1185858667
N  N27  1  0.99760000  0.83340000  0.67640000  1.0 -0.1185858667
N  N28  1  0.33340000  0.50240000  0.92640000  1.0 -0.1185858667
N  N29  1  0.49760000  0.66666667  0.57360000  1.0 -0.1185858667
N  N30  1  0.50240000  0.33340000  0.07360000  1.0 -0.1185858667
N  N31  1  0.16660000  0.00240000  0.82360000  1.0 -0.1185858667
N  N32  1  0.83340000  0.99760000  0.32360000  1.0 -0.1185858667
N  N33  1  0.52770000  0.57970000  0.75660000  1.0 -0.0977161378
N  N34  1  0.07970000  0.97230000  0.00660000  1.0 -0.0977161378
N  N35  1  0.47230000  0.42030000  0.25660000  1.0 -0.0977161378
N  N36  1  0.92030000  0.02770000  0.50660000  1.0 -0.0901125468
N  N37  1  0.97230000  0.07970000  0.99340000  1.0 -0.0977161378
N  N38  1  0.02770000  0.92030000  0.49340000  1.0 -0.0977161378
N  N39  1  0.57970000  0.52770000  0.24340000  1.0 -0.0977161378
N  N40  1  0.42030000  0.47230000  0.74340000  1.0 -0.0977161378
N  N41  1  0.98810000  0.17600000  0.12810000  1.0 -0.1185858667
N  N42  1  0.67600000  0.51190000  0.37810000  1.0 -0.130792729
N  N43  1  0.01190000  0.82400000  0.62810000  1.0 -0.130792729
N  N44  1  0.32400000  0.48810000  0.87810000  1.0 -0.130792729
N  N45  1  0.51190000  0.67600000  0.62190000  1.0 -0.130792729
N  N46  1  0.48810000  0.32400000  0.12190000  1.0 -0.130792729
N  N47  1  0.17600000  0.98810000  0.87190000  1.0 -0.130792729
N  N48  1  0.82400000  0.01190000  0.37190000  1.0 -0.1185858667
O  O1  1  0.82570000  0.32250000  0.58090000  1.0 -0.6588049303
O  O2  1  0.82250000  0.67430000  0.83090000  1.0 -0.6588049303
O  O3  1  0.17430000  0.67750000  0.08090000  1.0 -0.6588049303
O  O4  1  0.17750000  0.32570000  0.33090000  1.0 -0.6588049303
O  O5  1  0.67430000  0.82250000  0.16910000  1.0 -0.6588049303
O  O6  1  0.32570000  0.17750000  0.66910000  1.0 -0.6588049303
O  O7  1  0.32250000  0.82570000  0.41910000  1.0 -0.6588049303
O  O8  1  0.67750000  0.17430000  0.91910000  1.0 -0.6588049303
O  O9  1  0.72370000  0.27630000  0.75000000  1.0 -1.1559050152
O  O10  1  0.77630000  0.77630000  0.00000000  1.0 -1.1559050152
O  O11  1  0.27630000  0.72370000  0.25000000  1.0 -1.1542558143
O  O12  1  0.22370000  0.22370000  0.50000000  1.0 -1.1542558143
O  O13  1  0.76250000  0.37220000  0.70950000  1.0 -0.6384653518
O  O14  1  0.87220000  0.73750000  0.95950000  1.0 -0.6384653518
O  O15  1  0.23750000  0.62780000  0.20950000  1.0 -0.6384653518
O  O16  1  0.12780000  0.26250000  0.45950000  1.0 -0.6384653518
O  O17  1  0.73750000  0.87220000  0.04050000  1.0 -0.6384653518
O  O18  1  0.26250000  0.12780000  0.54050000  1.0 -0.6384653518
O  O19  1  0.37220000  0.76250000  0.29050000  1.0 -0.6384653518
O  O20  1  0.62780000  0.23750000  0.79050000  1.0 -0.6384653518
O  O21  1  0.42650000  0.70580000  0.74180000  1.0 -0.3012625123
O  O22  1  0.20580000  0.07350000  0.99180000  1.0 -0.3012625123
O  O23  1  0.57350000  0.29420000  0.24180000  1.0 -0.3012625123
O  O24  1  0.79420000  0.92650000  0.49180000  1.0 -0.3012625123
O  O25  1  0.07350000  0.20580000  0.00820000  1.0 -0.3012625123
O  O26  1  0.92650000  0.79420000  0.50820000  1.0 -0.3012625123
O  O27  1  0.70580000  0.42650000  0.25820000  1.0 -0.3012625123
O  O28  1  0.29420000  0.57350000  0.75820000  1.0 -0.3012625123
O  O29  1  0.49820000  0.68480000  0.81290000  1.0 -0.0977161378
O  O30  1  0.18480000  0.00180000  0.06290000  1.0 -0.0977161378
O  O31  1  0.50180000  0.31520000  0.31290000  1.0 -0.0977161378
O  O32  1  0.81520000  0.99820000  0.56290000  1.0 -0.0977161378
O  O33  1  0.00180000  0.18480000  0.93710000  1.0 -0.0977161378
O  O34  1  0.99820000  0.81520000  0.43710000  1.0 -0.0977161378
O  O35  1  0.68480000  0.49820000  0.18710000  1.0 -0.0977161378
O  O36  1  0.31520000  0.50180000  0.68710000  1.0 -0.0977161378
O  O37  1  0.52400000  0.69980000  0.86290000  1.0 -0.2710632956
O  O38  1  0.19980000  0.97600000  0.11290000  1.0 -0.2710632956
O  O39  1  0.47600000  0.30020000  0.36290000  1.0 -0.2710632956
O  O40  1  0.80020000  0.02400000  0.61290000  1.0 -0.2710632956
O  O41  1  0.97600000  0.19980000  0.88710000  1.0 -0.2710632956
O  O42  1  0.02400000  0.80020000  0.38710000  1.0 -0.2710632956
O  O43  1  0.69980000  0.52400000  0.13710000  1.0 -0.2710632956
O  O44  1  0.30020000  0.47600000  0.63710000  1.0 -0.2710632956
O  O45  1  0.44630000  0.71840000  0.78600000  1.0 -0.0117092053
O  O46  1  0.21840000  0.05370000  0.03600000  1.0 -0.0117092053
O  O47  1  0.55370000  0.28160000  0.28600000  1.0 -0.0117092053
O  O48  1  0.78160000  0.94630000  0.53600000  1.0 -0.0117092053
O  O49  1  0.05370000  0.21840000  0.96400000  1.0 -0.0117092053
O  O50  1  0.94630000  0.78160000  0.46400000  1.0 -0.0117092053
O  O51  1  0.71840000  0.44630000  0.21400000  1.0 -0.0117092053
O  O52  1  0.28160000  0.55370000  0.71400000  1.0 -0.0117092053
