# DDEC6 charges by PACMAN v1.1 (https://github.com/mtap-research/PACMAN-charge/)
data_HUHNIJ_ASR_pacman
_symmetry_space_group_name_H-M   'P 1'
_cell_length_a   13.93250000
_cell_length_b   26.87300000
_cell_length_c   27.14700000
_cell_angle_alpha   90.00000000
_cell_angle_beta   90.00000000
_cell_angle_gamma   90.00000000
_symmetry_Int_Tables_number   1
_chemical_formula_structural   Ti2Cd2H104C84N8O13
_chemical_formula_sum   'Ti8 Cd8 H416 C336 N32 O52'
_cell_volume   10164.05594416
_cell_formula_units_Z   4
loop_
 _symmetry_equiv_pos_site_id
 _symmetry_equiv_pos_as_xyz
  1  'x, y, z'
loop_
 _atom_site_type_symbol
 _atom_site_label
 _atom_site_symmetry_multiplicity
 _atom_site_fract_x
 _atom_site_fract_y
 _atom_site_fract_z
 _atom_site_occupancy
 _atom_site_charge
Ti  Ti1  1  0.68726000  0.44401000  0.78086000  1.0 1.7491243161
Ti  Ti2  1  0.81274000  0.55599000  0.28086000  1.0 1.7491243161
Ti  Ti3  1  0.18726000  0.05599000  0.21914000  1.0 1.7491243161
Ti  Ti4  1  0.31274000  0.94401000  0.71914000  1.0 1.7491243161
Ti  Ti5  1  0.55557000  0.52149000  0.69699000  1.0 1.7491243161
Ti  Ti6  1  0.94443000  0.47851000  0.19699000  1.0 1.7491243161
Ti  Ti7  1  0.05557000  0.97851000  0.30301000  1.0 1.7491243161
Ti  Ti8  1  0.44443000  0.02149000  0.80301000  1.0 1.7491243161
Cd  Cd1  1  0.30793000  0.62932000  0.04194000  1.0 0.8196060337
Cd  Cd2  1  0.19207000  0.37068000  0.54194000  1.0 0.8196060337
Cd  Cd3  1  0.80793000  0.87068000  0.95806000  1.0 0.8196060337
Cd  Cd4  1  0.69207000  0.12932000  0.45806000  1.0 0.8196060337
Cd  Cd5  1  0.90765000  0.78380000  0.86201000  1.0 0.8196060337
Cd  Cd6  1  0.59235000  0.21620000  0.36201000  1.0 0.8196060337
Cd  Cd7  1  0.40765000  0.71620000  0.13799000  1.0 0.8196060337
Cd  Cd8  1  0.09235000  0.28380000  0.63799000  1.0 0.8196060337
H  H1  1  0.73120000  0.53920000  0.76380000  1.0 0.2515173047
H  H2  1  0.76880000  0.46080000  0.26380000  1.0 0.2515173047
H  H3  1  0.23120000  0.96080000  0.23620000  1.0 0.2515173047
H  H4  1  0.26880000  0.03920000  0.73620000  1.0 0.2515173047
H  H5  1  0.85660000  0.40860000  0.74340000  1.0 0.2698781893
H  H6  1  0.64340000  0.59140000  0.24340000  1.0 0.2698781893
H  H7  1  0.35660000  0.09140000  0.25660000  1.0 0.2698781893
H  H8  1  0.14340000  0.90860000  0.75660000  1.0 0.2698781893
H  H9  1  0.40040000  0.47730000  0.65240000  1.0 0.2647282458
H  H10  1  0.09960000  0.52270000  0.15240000  1.0 0.2698781893
H  H11  1  0.90040000  0.02270000  0.34760000  1.0 0.2698781893
H  H12  1  0.59960000  0.97730000  0.84760000  1.0 0.2698781893
H  H13  1  0.49490000  0.49580000  0.78770000  1.0 0.2515173047
H  H14  1  0.00510000  0.50420000  0.28770000  1.0 0.2515173047
H  H15  1  0.99490000  0.00420000  0.21230000  1.0 0.2515173047
H  H16  1  0.50510000  0.99580000  0.71230000  1.0 0.2515173047
H  H17  1  0.90520000  0.49270000  0.78470000  1.0 0.0899730153
H  H18  1  0.59480000  0.50730000  0.28470000  1.0 0.0899730153
H  H19  1  0.40520000  0.00730000  0.21530000  1.0 0.0899730153
H  H20  1  0.09480000  0.99270000  0.71530000  1.0 0.0899730153
H  H21  1  0.81840000  0.49720000  0.69060000  1.0 0.0899730153
H  H22  1  0.68160000  0.50280000  0.19060000  1.0 0.0899730153
H  H23  1  0.31840000  0.00280000  0.30940000  1.0 0.0899730153
H  H24  1  0.18160000  0.99720000  0.80940000  1.0 0.0899730153
H  H25  1  0.00380000  0.45410000  0.71530000  1.0 0.1103160889
H  H26  1  0.49620000  0.54590000  0.21530000  1.0 0.1103160889
H  H27  1  0.50380000  0.04590000  0.28470000  1.0 0.1103160889
H  H28  1  0.99620000  0.95410000  0.78470000  1.0 0.1103160889
H  H29  1  0.95600000  0.45030000  0.66180000  1.0 0.1187158015
H  H30  1  0.54400000  0.54970000  0.16180000  1.0 0.1187158015
H  H31  1  0.45600000  0.04970000  0.33820000  1.0 0.1187158015
H  H32  1  0.04400000  0.95030000  0.83820000  1.0 0.1187158015
H  H33  1  0.97130000  0.53740000  0.65090000  1.0 0.1007551425
H  H34  1  0.52870000  0.46260000  0.15090000  1.0 0.1007551425
H  H35  1  0.47130000  0.96260000  0.34910000  1.0 0.1007551425
H  H36  1  0.02870000  0.03740000  0.84910000  1.0 0.1007551425
H  H37  1  0.07490000  0.51520000  0.66510000  1.0 0.1007551425
H  H38  1  0.42510000  0.48480000  0.16510000  1.0 0.1007551425
H  H39  1  0.57490000  0.98480000  0.33490000  1.0 0.1007551425
H  H40  1  0.92510000  0.01520000  0.83490000  1.0 0.1007551425
H  H41  1  0.05180000  0.53680000  0.74980000  1.0 0.0899730153
H  H42  1  0.44820000  0.46320000  0.24980000  1.0 0.0899730153
H  H43  1  0.55180000  0.96320000  0.25020000  1.0 0.0899730153
H  H44  1  0.94820000  0.03680000  0.75020000  1.0 0.0899730153
H  H45  1  0.03730000  0.58600000  0.71760000  1.0 0.1007551425
H  H46  1  0.46270000  0.41400000  0.21760000  1.0 0.1007551425
H  H47  1  0.53730000  0.91400000  0.28240000  1.0 0.1007551425
H  H48  1  0.96270000  0.08600000  0.78240000  1.0 0.1007551425
H  H49  1  0.91680000  0.58040000  0.78040000  1.0 0.1007551425
H  H50  1  0.58320000  0.41960000  0.28040000  1.0 0.1007551425
H  H51  1  0.41680000  0.91960000  0.21960000  1.0 0.1007551425
H  H52  1  0.08320000  0.08040000  0.71960000  1.0 0.1007551425
H  H53  1  0.86790000  0.58050000  0.72690000  1.0 0.1187158015
H  H54  1  0.63210000  0.41950000  0.22690000  1.0 0.1187158015
H  H55  1  0.36790000  0.91950000  0.27310000  1.0 0.1187158015
H  H56  1  0.13210000  0.08050000  0.77310000  1.0 0.1187158015
H  H57  1  0.83230000  0.39980000  0.66010000  1.0 0.1007551425
H  H58  1  0.66770000  0.60020000  0.16010000  1.0 0.1007551425
H  H59  1  0.33230000  0.10020000  0.33990000  1.0 0.1007551425
H  H60  1  0.16770000  0.89980000  0.83990000  1.0 0.1007551425
H  H61  1  0.73350000  0.42970000  0.66310000  1.0 0.1187158015
H  H62  1  0.76650000  0.57030000  0.16310000  1.0 0.1187158015
H  H63  1  0.23350000  0.07030000  0.33690000  1.0 0.1187158015
H  H64  1  0.26650000  0.92970000  0.83690000  1.0 0.1187158015
H  H65  1  0.58560000  0.23720000  0.69340000  1.0 0.1007551425
H  H66  1  0.91440000  0.76280000  0.19340000  1.0 0.1007551425
H  H67  1  0.08560000  0.26280000  0.30660000  1.0 0.1007551425
H  H68  1  0.41440000  0.73720000  0.80660000  1.0 0.1007551425
H  H69  1  0.75950000  0.33280000  0.62020000  1.0 0.1103160889
H  H70  1  0.74050000  0.66720000  0.12020000  1.0 0.1103160889
H  H71  1  0.25950000  0.16720000  0.37980000  1.0 0.1103160889
H  H72  1  0.24050000  0.83280000  0.87980000  1.0 0.1103160889
H  H73  1  0.50380000  0.35730000  0.79440000  1.0 0.1305526653
H  H74  1  0.99620000  0.64270000  0.29440000  1.0 0.1305526653
H  H75  1  0.00380000  0.14270000  0.20560000  1.0 0.1305526653
H  H76  1  0.49620000  0.85730000  0.70560000  1.0 0.1305526653
H  H77  1  0.43310000  0.31390000  0.81230000  1.0 0.1305526653
H  H78  1  0.06690000  0.68610000  0.31230000  1.0 0.1305526653
H  H79  1  0.93310000  0.18610000  0.18770000  1.0 0.1305526653
H  H80  1  0.56690000  0.81390000  0.68770000  1.0 0.1305526653
H  H81  1  0.43780000  0.32870000  0.75520000  1.0 0.1187158015
H  H82  1  0.06220000  0.67130000  0.25520000  1.0 0.1187158015
H  H83  1  0.93780000  0.17130000  0.24480000  1.0 0.1187158015
H  H84  1  0.56220000  0.82870000  0.74480000  1.0 0.1187158015
H  H85  1  0.66030000  0.25460000  0.82290000  1.0 0.1187158015
H  H86  1  0.83970000  0.74540000  0.32290000  1.0 0.1187158015
H  H87  1  0.16030000  0.24540000  0.17710000  1.0 0.1187158015
H  H88  1  0.33970000  0.75460000  0.67710000  1.0 0.1187158015
H  H89  1  0.57870000  0.28290000  0.85350000  1.0 0.1305526653
H  H90  1  0.92130000  0.71710000  0.35350000  1.0 0.1305526653
H  H91  1  0.07870000  0.21710000  0.14650000  1.0 0.1305526653
H  H92  1  0.42130000  0.78290000  0.64650000  1.0 0.1305526653
H  H93  1  0.66000000  0.31410000  0.82560000  1.0 0.1504304523
H  H94  1  0.84000000  0.68590000  0.32560000  1.0 0.1504304523
H  H95  1  0.16000000  0.18590000  0.17440000  1.0 0.1504304523
H  H96  1  0.34000000  0.81410000  0.67440000  1.0 0.1504304523
H  H97  1  0.44490000  0.23940000  0.75190000  1.0 0.1305526653
H  H98  1  0.05510000  0.76060000  0.25190000  1.0 0.1305526653
H  H99  1  0.94490000  0.26060000  0.24810000  1.0 0.1305526653
H  H100  1  0.55510000  0.73940000  0.74810000  1.0 0.1305526653
H  H101  1  0.48310000  0.22330000  0.80520000  1.0 0.1384613789
H  H102  1  0.01690000  0.77670000  0.30520000  1.0 0.1384613789
H  H103  1  0.98310000  0.27670000  0.19480000  1.0 0.1384613789
H  H104  1  0.51690000  0.72330000  0.69480000  1.0 0.1384613789
H  H105  1  0.54500000  0.21070000  0.75710000  1.0 0.1187158015
H  H106  1  0.95500000  0.78930000  0.25710000  1.0 0.1187158015
H  H107  1  0.04500000  0.28930000  0.24290000  1.0 0.1187158015
H  H108  1  0.45500000  0.71070000  0.74290000  1.0 0.1187158015
H  H109  1  0.79040000  0.27570000  0.57330000  1.0 0.1305526653
H  H110  1  0.70960000  0.72430000  0.07330000  1.0 0.1305526653
H  H111  1  0.29040000  0.22430000  0.42670000  1.0 0.1305526653
H  H112  1  0.20960000  0.77570000  0.92670000  1.0 0.1305526653
H  H113  1  0.78920000  0.22930000  0.50470000  1.0 0.1103160889
H  H114  1  0.71080000  0.77070000  0.00470000  1.0 0.1103160889
H  H115  1  0.28920000  0.27070000  0.49530000  1.0 0.1103160889
H  H116  1  0.21080000  0.72930000  0.99530000  1.0 0.1103160889
H  H117  1  0.56670000  0.15430000  0.55460000  1.0 0.1187158015
H  H118  1  0.93330000  0.84570000  0.05460000  1.0 0.1187158015
H  H119  1  0.06670000  0.34570000  0.44540000  1.0 0.1187158015
H  H120  1  0.43330000  0.65430000  0.94540000  1.0 0.1187158015
H  H121  1  0.56510000  0.20140000  0.62400000  1.0 0.1305526653
H  H122  1  0.93490000  0.79860000  0.12400000  1.0 0.1305526653
H  H123  1  0.06510000  0.29860000  0.37600000  1.0 0.1305526653
H  H124  1  0.43490000  0.70140000  0.87600000  1.0 0.1305526653
H  H125  1  0.70520000  0.53020000  0.84880000  1.0 0.1007551425
H  H126  1  0.79480000  0.46980000  0.34880000  1.0 0.1007551425
H  H127  1  0.20520000  0.96980000  0.15120000  1.0 0.1007551425
H  H128  1  0.29480000  0.03020000  0.65120000  1.0 0.1007551425
H  H129  1  0.78850000  0.56870000  0.83410000  1.0 0.1103160889
H  H130  1  0.71150000  0.43130000  0.33410000  1.0 0.1103160889
H  H131  1  0.28850000  0.93130000  0.16590000  1.0 0.1103160889
H  H132  1  0.21150000  0.06870000  0.66590000  1.0 0.1103160889
H  H133  1  0.02210000  0.43130000  0.93610000  1.0 0.1187158015
H  H134  1  0.47790000  0.56870000  0.43610000  1.0 0.1187158015
H  H135  1  0.52210000  0.06870000  0.06390000  1.0 0.1187158015
H  H136  1  0.97790000  0.93130000  0.56390000  1.0 0.1187158015
H  H137  1  0.91090000  0.56340000  0.89220000  1.0 0.1103160889
H  H138  1  0.58910000  0.43660000  0.39220000  1.0 0.1103160889
H  H139  1  0.41090000  0.93660000  0.10780000  1.0 0.1103160889
H  H140  1  0.08910000  0.06340000  0.60780000  1.0 0.1103160889
H  H141  1  0.86310000  0.35020000  0.81620000  1.0 0.1384613789
H  H142  1  0.63690000  0.64980000  0.31620000  1.0 0.1384613789
H  H143  1  0.36310000  0.14980000  0.18380000  1.0 0.1384613789
H  H144  1  0.13690000  0.85020000  0.68380000  1.0 0.1384613789
H  H145  1  0.94870000  0.31420000  0.83280000  1.0 0.1305526653
H  H146  1  0.55130000  0.68580000  0.33280000  1.0 0.1305526653
H  H147  1  0.44870000  0.18580000  0.16720000  1.0 0.1305526653
H  H148  1  0.05130000  0.81420000  0.66720000  1.0 0.1305526653
H  H149  1  0.97120000  0.37030000  0.81670000  1.0 0.1305526653
H  H150  1  0.52880000  0.62970000  0.31670000  1.0 0.1305526653
H  H151  1  0.47120000  0.12970000  0.18330000  1.0 0.1305526653
H  H152  1  0.02880000  0.87030000  0.68330000  1.0 0.1305526653
H  H153  1  0.81430000  0.35530000  0.94260000  1.0 0.1305526653
H  H154  1  0.68570000  0.64470000  0.44260000  1.0 0.1305526653
H  H155  1  0.31430000  0.14470000  0.05740000  1.0 0.1305526653
H  H156  1  0.18570000  0.85530000  0.55740000  1.0 0.1305526653
H  H157  1  0.81510000  0.31110000  0.90310000  1.0 0.1384613789
H  H158  1  0.68490000  0.68890000  0.40310000  1.0 0.1384613789
H  H159  1  0.31510000  0.18890000  0.09690000  1.0 0.1384613789
H  H160  1  0.18490000  0.81110000  0.59690000  1.0 0.1384613789
H  H161  1  0.76560000  0.36310000  0.88970000  1.0 0.1384613789
H  H162  1  0.73440000  0.63690000  0.38970000  1.0 0.1384613789
H  H163  1  0.26560000  0.13690000  0.11030000  1.0 0.1384613789
H  H164  1  0.23440000  0.86310000  0.61030000  1.0 0.1384613789
H  H165  1  0.05380000  0.36790000  0.90710000  1.0 0.1103160889
H  H166  1  0.44620000  0.63210000  0.40710000  1.0 0.1103160889
H  H167  1  0.55380000  0.13210000  0.09290000  1.0 0.1103160889
H  H168  1  0.94620000  0.86790000  0.59290000  1.0 0.1103160889
H  H169  1  0.01380000  0.31250000  0.90020000  1.0 0.1305526653
H  H170  1  0.48620000  0.68750000  0.40020000  1.0 0.1305526653
H  H171  1  0.51380000  0.18750000  0.09980000  1.0 0.1305526653
H  H172  1  0.98620000  0.81250000  0.59980000  1.0 0.1305526653
H  H173  1  0.98680000  0.34360000  0.94860000  1.0 0.1187158015
H  H174  1  0.51320000  0.65640000  0.44860000  1.0 0.1187158015
H  H175  1  0.48680000  0.15640000  0.05140000  1.0 0.1187158015
H  H176  1  0.01320000  0.84360000  0.55140000  1.0 0.1187158015
H  H177  1  0.05990000  0.58630000  0.90260000  1.0 0.1187158015
H  H178  1  0.44010000  0.41370000  0.40260000  1.0 0.1187158015
H  H179  1  0.55990000  0.91370000  0.09740000  1.0 0.1187158015
H  H180  1  0.94010000  0.08630000  0.59740000  1.0 0.1187158015
H  H181  1  0.17260000  0.63160000  0.94850000  1.0 0.0899730153
H  H182  1  0.32740000  0.36840000  0.44850000  1.0 0.0899730153
H  H183  1  0.67260000  0.86840000  0.05150000  1.0 0.0899730153
H  H184  1  0.82740000  0.13160000  0.55150000  1.0 0.0899730153
H  H185  1  0.17170000  0.52830000  0.05000000  1.0 0.1103160889
H  H186  1  0.32830000  0.47170000  0.55000000  1.0 0.1103160889
H  H187  1  0.67170000  0.97170000  0.95000000  1.0 0.1103160889
H  H188  1  0.82830000  0.02830000  0.45000000  1.0 0.1103160889
H  H189  1  0.05970000  0.48380000  0.00700000  1.0 0.1504304523
H  H190  1  0.44030000  0.51620000  0.50700000  1.0 0.1504304523
H  H191  1  0.55970000  0.01620000  0.99300000  1.0 0.1504304523
H  H192  1  0.94030000  0.98380000  0.49300000  1.0 0.1504304523
H  H193  1  0.42620000  0.42360000  0.73940000  1.0 0.0899730153
H  H194  1  0.07380000  0.57640000  0.23940000  1.0 0.0899730153
H  H195  1  0.92620000  0.07640000  0.26060000  1.0 0.0899730153
H  H196  1  0.57380000  0.92360000  0.76060000  1.0 0.0899730153
H  H197  1  0.32870000  0.51690000  0.73180000  1.0 0.0899730153
H  H198  1  0.17130000  0.48310000  0.23180000  1.0 0.0899730153
H  H199  1  0.82870000  0.98310000  0.26820000  1.0 0.0899730153
H  H200  1  0.67130000  0.01690000  0.76820000  1.0 0.0899730153
H  H201  1  0.35320000  0.45460000  0.81840000  1.0 0.1103160889
H  H202  1  0.14680000  0.54540000  0.31840000  1.0 0.1103160889
H  H203  1  0.85320000  0.04540000  0.18160000  1.0 0.1103160889
H  H204  1  0.64680000  0.95460000  0.68160000  1.0 0.1103160889
H  H205  1  0.29910000  0.50740000  0.81850000  1.0 0.1007551425
H  H206  1  0.20090000  0.49260000  0.31850000  1.0 0.1007551425
H  H207  1  0.79910000  0.99260000  0.18150000  1.0 0.1007551425
H  H208  1  0.70090000  0.00740000  0.68150000  1.0 0.1007551425
H  H209  1  0.18340000  0.44260000  0.81250000  1.0 0.1103160889
H  H210  1  0.31660000  0.55740000  0.31250000  1.0 0.1103160889
H  H211  1  0.68340000  0.05740000  0.18750000  1.0 0.1103160889
H  H212  1  0.81660000  0.94260000  0.68750000  1.0 0.1103160889
H  H213  1  0.18080000  0.47570000  0.76360000  1.0 0.1007551425
H  H214  1  0.31920000  0.52430000  0.26360000  1.0 0.1007551425
H  H215  1  0.68080000  0.02430000  0.23640000  1.0 0.1007551425
H  H216  1  0.81920000  0.97570000  0.73640000  1.0 0.1007551425
H  H217  1  0.17560000  0.39140000  0.74270000  1.0 0.1187158015
H  H218  1  0.32440000  0.60860000  0.24270000  1.0 0.1187158015
H  H219  1  0.67560000  0.10860000  0.25730000  1.0 0.1103160889
H  H220  1  0.82440000  0.89140000  0.75730000  1.0 0.1187158015
H  H221  1  0.27440000  0.38180000  0.77170000  1.0 0.1103160889
H  H222  1  0.22560000  0.61820000  0.27170000  1.0 0.1103160889
H  H223  1  0.77440000  0.11820000  0.22830000  1.0 0.1103160889
H  H224  1  0.72560000  0.88180000  0.72830000  1.0 0.1103160889
H  H225  1  0.30940000  0.39240000  0.68560000  1.0 0.1187158015
H  H226  1  0.19060000  0.60760000  0.18560000  1.0 0.1187158015
H  H227  1  0.80940000  0.10760000  0.31440000  1.0 0.1187158015
H  H228  1  0.69060000  0.89240000  0.81440000  1.0 0.1187158015
H  H229  1  0.25570000  0.44520000  0.68540000  1.0 0.1187158015
H  H230  1  0.24430000  0.55480000  0.18540000  1.0 0.1187158015
H  H231  1  0.75570000  0.05480000  0.31460000  1.0 0.1187158015
H  H232  1  0.74430000  0.94520000  0.81460000  1.0 0.1187158015
H  H233  1  0.44190000  0.39370000  0.64660000  1.0 0.1007551425
H  H234  1  0.05810000  0.60630000  0.14660000  1.0 0.1007551425
H  H235  1  0.94190000  0.10630000  0.35340000  1.0 0.1007551425
H  H236  1  0.55810000  0.89370000  0.85340000  1.0 0.1007551425
H  H237  1  0.53660000  0.40390000  0.67810000  1.0 0.1187158015
H  H238  1  0.96340000  0.59610000  0.17810000  1.0 0.1187158015
H  H239  1  0.03660000  0.09610000  0.32190000  1.0 0.1187158015
H  H240  1  0.46340000  0.90390000  0.82190000  1.0 0.1187158015
H  H241  1  0.51890000  0.36120000  0.57730000  1.0 0.1103160889
H  H242  1  0.98110000  0.63880000  0.07730000  1.0 0.1103160889
H  H243  1  0.01890000  0.13880000  0.42270000  1.0 0.1103160889
H  H244  1  0.48110000  0.86120000  0.92270000  1.0 0.1103160889
H  H245  1  0.69630000  0.44430000  0.49230000  1.0 0.1007551425
H  H246  1  0.80370000  0.55570000  0.99230000  1.0 0.1007551425
H  H247  1  0.19630000  0.05570000  0.50770000  1.0 0.1007551425
H  H248  1  0.30370000  0.94430000  0.00770000  1.0 0.1007551425
H  H249  1  0.81720000  0.50020000  0.49850000  1.0 0.1305526653
H  H250  1  0.68280000  0.49980000  0.99850000  1.0 0.1305526653
H  H251  1  0.31720000  0.99980000  0.50150000  1.0 0.1305526653
H  H252  1  0.18280000  0.00020000  0.00150000  1.0 0.1305526653
H  H253  1  0.79810000  0.55840000  0.49100000  1.0 0.1384613789
H  H254  1  0.70190000  0.44160000  0.99100000  1.0 0.1384613789
H  H255  1  0.29810000  0.94160000  0.50900000  1.0 0.1384613789
H  H256  1  0.20190000  0.05840000  0.00900000  1.0 0.1384613789
H  H257  1  0.72390000  0.51860000  0.46940000  1.0 0.1187158015
H  H258  1  0.77610000  0.48140000  0.96940000  1.0 0.1187158015
H  H259  1  0.22390000  0.98140000  0.53060000  1.0 0.1187158015
H  H260  1  0.27610000  0.01860000  0.03060000  1.0 0.1187158015
H  H261  1  0.60610000  0.57270000  0.51600000  1.0 0.1187158015
H  H262  1  0.89390000  0.42730000  0.01600000  1.0 0.1187158015
H  H263  1  0.10610000  0.92730000  0.48400000  1.0 0.1187158015
H  H264  1  0.39390000  0.07270000  0.98400000  1.0 0.1187158015
H  H265  1  0.68810000  0.60320000  0.54410000  1.0 0.1305526653
H  H266  1  0.81190000  0.39680000  0.04410000  1.0 0.1305526653
H  H267  1  0.18810000  0.89680000  0.45590000  1.0 0.1305526653
H  H268  1  0.31190000  0.10320000  0.95590000  1.0 0.1305526653
H  H269  1  0.60780000  0.57410000  0.57490000  1.0 0.1384613789
H  H270  1  0.89220000  0.42590000  0.07490000  1.0 0.1384613789
H  H271  1  0.10780000  0.92590000  0.42510000  1.0 0.1384613789
H  H272  1  0.39220000  0.07410000  0.92510000  1.0 0.1384613789
H  H273  1  0.75410000  0.53820000  0.61870000  1.0 0.1305526653
H  H274  1  0.74590000  0.46180000  0.11870000  1.0 0.1305526653
H  H275  1  0.25410000  0.96180000  0.38130000  1.0 0.1305526653
H  H276  1  0.24590000  0.03820000  0.88130000  1.0 0.1305526653
H  H277  1  0.82060000  0.56730000  0.58020000  1.0 0.1305526653
H  H278  1  0.67940000  0.43270000  0.08020000  1.0 0.1305526653
H  H279  1  0.32060000  0.93270000  0.41980000  1.0 0.1305526653
H  H280  1  0.17940000  0.06730000  0.91980000  1.0 0.1305526653
H  H281  1  0.83210000  0.50850000  0.58700000  1.0 0.1187158015
H  H282  1  0.66790000  0.49150000  0.08700000  1.0 0.1187158015
H  H283  1  0.33210000  0.99150000  0.41300000  1.0 0.1187158015
H  H284  1  0.16790000  0.00850000  0.91300000  1.0 0.1187158015
H  H285  1  0.49650000  0.31760000  0.51810000  1.0 0.1384613789
H  H286  1  0.00350000  0.68240000  0.01810000  1.0 0.1384613789
H  H287  1  0.99650000  0.18240000  0.48190000  1.0 0.1384613789
H  H288  1  0.50350000  0.81760000  0.98190000  1.0 0.1384613789
H  H289  1  0.50140000  0.25270000  0.46310000  1.0 0.1007551425
H  H290  1  0.99860000  0.74730000  0.96310000  1.0 0.1007551425
H  H291  1  0.00140000  0.24730000  0.53690000  1.0 0.1007551425
H  H292  1  0.49860000  0.75270000  0.03690000  1.0 0.1007551425
H  H293  1  0.71470000  0.31570000  0.39350000  1.0 0.1103160889
H  H294  1  0.78530000  0.68430000  0.89350000  1.0 0.1103160889
H  H295  1  0.21470000  0.18430000  0.60650000  1.0 0.1103160889
H  H296  1  0.28530000  0.81570000  0.10650000  1.0 0.1103160889
H  H297  1  0.72720000  0.37650000  0.45280000  1.0 0.1305526653
H  H298  1  0.77280000  0.62350000  0.95280000  1.0 0.1305526653
H  H299  1  0.22720000  0.12350000  0.54720000  1.0 0.1305526653
H  H300  1  0.27280000  0.87650000  0.04720000  1.0 0.1305526653
H  H301  1  0.51500000  0.58300000  0.78650000  1.0 0.1007551425
H  H302  1  0.98500000  0.41700000  0.28650000  1.0 0.1007551425
H  H303  1  0.01500000  0.91700000  0.21350000  1.0 0.1007551425
H  H304  1  0.48500000  0.08300000  0.71350000  1.0 0.1007551425
H  H305  1  0.42390000  0.56450000  0.81750000  1.0 0.1103160889
H  H306  1  0.07610000  0.43550000  0.31750000  1.0 0.1103160889
H  H307  1  0.92390000  0.93550000  0.18250000  1.0 0.1103160889
H  H308  1  0.57610000  0.06450000  0.68250000  1.0 0.1103160889
H  H309  1  0.21340000  0.67530000  0.67970000  1.0 0.1103160889
H  H310  1  0.28660000  0.32470000  0.17970000  1.0 0.1103160889
H  H311  1  0.71340000  0.82470000  0.32030000  1.0 0.1103160889
H  H312  1  0.78660000  0.17530000  0.82030000  1.0 0.1103160889
H  H313  1  0.31230000  0.62720000  0.81180000  1.0 0.1103160889
H  H314  1  0.18770000  0.37280000  0.31180000  1.0 0.1103160889
H  H315  1  0.81230000  0.87280000  0.18820000  1.0 0.1103160889
H  H316  1  0.68770000  0.12720000  0.68820000  1.0 0.1103160889
H  H317  1  0.36680000  0.55050000  0.61320000  1.0 0.1384613789
H  H318  1  0.13320000  0.44950000  0.11320000  1.0 0.1384613789
H  H319  1  0.86680000  0.94950000  0.38680000  1.0 0.1384613789
H  H320  1  0.63320000  0.05050000  0.88680000  1.0 0.1384613789
H  H321  1  0.32100000  0.57160000  0.56330000  1.0 0.1305526653
H  H322  1  0.17900000  0.42840000  0.06330000  1.0 0.1305526653
H  H323  1  0.82100000  0.92840000  0.43670000  1.0 0.1305526653
H  H324  1  0.67900000  0.07160000  0.93670000  1.0 0.1305526653
H  H325  1  0.25380000  0.56090000  0.61000000  1.0 0.1305526653
H  H326  1  0.24620000  0.43910000  0.11000000  1.0 0.1305526653
H  H327  1  0.75380000  0.93910000  0.39000000  1.0 0.1305526653
H  H328  1  0.74620000  0.06090000  0.89000000  1.0 0.1305526653
H  H329  1  0.43640000  0.68480000  0.61380000  1.0 0.1305526653
H  H330  1  0.06360000  0.31520000  0.11380000  1.0 0.1305526653
H  H331  1  0.93640000  0.81520000  0.38620000  1.0 0.1305526653
H  H332  1  0.56360000  0.18480000  0.88620000  1.0 0.1305526653
H  H333  1  0.43070000  0.65310000  0.56400000  1.0 0.1305526653
H  H334  1  0.06930000  0.34690000  0.06400000  1.0 0.1305526653
H  H335  1  0.93070000  0.84690000  0.43600000  1.0 0.1305526653
H  H336  1  0.56930000  0.15310000  0.93600000  1.0 0.1305526653
H  H337  1  0.48470000  0.63080000  0.61110000  1.0 0.1504304523
H  H338  1  0.01530000  0.36920000  0.11110000  1.0 0.1504304523
H  H339  1  0.98470000  0.86920000  0.38890000  1.0 0.1504304523
H  H340  1  0.51530000  0.13080000  0.88890000  1.0 0.1504304523
H  H341  1  0.18880000  0.64510000  0.60420000  1.0 0.1187158015
H  H342  1  0.31120000  0.35490000  0.10420000  1.0 0.1187158015
H  H343  1  0.68880000  0.85490000  0.39580000  1.0 0.1187158015
H  H344  1  0.81120000  0.14510000  0.89580000  1.0 0.1187158015
H  H345  1  0.25780000  0.66180000  0.56000000  1.0 0.1305526653
H  H346  1  0.24220000  0.33820000  0.06000000  1.0 0.1305526653
H  H347  1  0.75780000  0.83820000  0.44000000  1.0 0.1305526653
H  H348  1  0.74220000  0.16180000  0.94000000  1.0 0.1305526653
H  H349  1  0.25450000  0.69360000  0.60980000  1.0 0.1187158015
H  H350  1  0.24550000  0.30640000  0.10980000  1.0 0.1187158015
H  H351  1  0.75450000  0.80640000  0.39020000  1.0 0.1187158015
H  H352  1  0.74550000  0.19360000  0.89020000  1.0 0.1187158015
H  H353  1  0.15420000  0.63610000  0.83190000  1.0 0.1187158015
H  H354  1  0.34580000  0.36390000  0.33190000  1.0 0.1187158015
H  H355  1  0.65420000  0.86390000  0.16810000  1.0 0.1187158015
H  H356  1  0.84580000  0.13610000  0.66810000  1.0 0.1187158015
H  H357  1  0.03300000  0.67870000  0.86870000  1.0 0.1007551425
H  H358  1  0.46700000  0.32130000  0.36870000  1.0 0.1007551425
H  H359  1  0.53300000  0.82130000  0.13130000  1.0 0.1007551425
H  H360  1  0.96700000  0.17870000  0.63130000  1.0 0.1007551425
H  H361  1  0.06510000  0.79080000  0.77790000  1.0 0.1187158015
H  H362  1  0.43490000  0.20920000  0.27790000  1.0 0.1187158015
H  H363  1  0.56510000  0.70920000  0.22210000  1.0 0.1187158015
H  H364  1  0.93490000  0.29080000  0.72210000  1.0 0.1187158015
H  H365  1  0.17480000  0.74780000  0.73390000  1.0 0.1504304523
H  H366  1  0.32520000  0.25220000  0.23390000  1.0 0.1504304523
H  H367  1  0.67480000  0.75220000  0.26610000  1.0 0.1504304523
H  H368  1  0.82520000  0.24780000  0.76610000  1.0 0.1504304523
H  H369  1  0.40790000  0.46670000  0.00630000  1.0 0.1601833343
H  H370  1  0.09210000  0.53330000  0.50630000  1.0 0.1601833343
H  H371  1  0.90790000  0.03330000  0.99370000  1.0 0.1601833343
H  H372  1  0.59210000  0.96670000  0.49370000  1.0 0.1601833343
H  H373  1  0.42840000  0.46640000  0.06440000  1.0 0.1504304523
H  H374  1  0.07160000  0.53360000  0.56440000  1.0 0.1504304523
H  H375  1  0.92840000  0.03360000  0.93560000  1.0 0.1504304523
H  H376  1  0.57160000  0.96640000  0.43560000  1.0 0.1504304523
H  H377  1  0.50750000  0.48760000  0.02720000  1.0 0.1504304523
H  H378  1  0.99250000  0.51240000  0.52720000  1.0 0.1504304523
H  H379  1  0.00750000  0.01240000  0.97280000  1.0 0.1504304523
H  H380  1  0.49250000  0.98760000  0.47280000  1.0 0.1504304523
H  H381  1  0.78850000  0.78570000  0.70600000  1.0 0.1504304523
H  H382  1  0.71150000  0.21430000  0.20600000  1.0 0.1504304523
H  H383  1  0.28850000  0.71430000  0.29400000  1.0 0.1504304523
H  H384  1  0.21150000  0.28570000  0.79400000  1.0 0.1504304523
H  H385  1  0.71850000  0.74280000  0.72570000  1.0 0.1504304523
H  H386  1  0.78150000  0.25720000  0.22570000  1.0 0.1504304523
H  H387  1  0.21850000  0.75720000  0.27430000  1.0 0.1504304523
H  H388  1  0.28150000  0.24280000  0.77430000  1.0 0.1504304523
H  H389  1  0.82330000  0.72890000  0.70580000  1.0 0.1601833343
H  H390  1  0.67670000  0.27110000  0.20580000  1.0 0.1601833343
H  H391  1  0.32330000  0.77110000  0.29420000  1.0 0.1601833343
H  H392  1  0.17670000  0.22890000  0.79420000  1.0 0.1601833343
H  H393  1  0.07910000  0.88850000  0.97850000  1.0 0.1683878578
H  H394  1  0.42090000  0.11150000  0.47850000  1.0 0.1683878578
H  H395  1  0.57910000  0.61150000  0.02150000  1.0 0.1683878578
H  H396  1  0.92090000  0.38850000  0.52150000  1.0 0.1683878578
H  H397  1  0.09380000  0.92340000  0.93130000  1.0 0.1601833343
H  H398  1  0.40620000  0.07660000  0.43130000  1.0 0.1601833343
H  H399  1  0.59380000  0.57660000  0.06870000  1.0 0.1601833343
H  H400  1  0.90620000  0.42340000  0.56870000  1.0 0.1601833343
H  H401  1  0.16250000  0.87640000  0.93980000  1.0 0.1504304523
H  H402  1  0.33750000  0.12360000  0.43980000  1.0 0.1504304523
H  H403  1  0.66250000  0.62360000  0.06020000  1.0 0.1504304523
H  H404  1  0.83750000  0.37640000  0.56020000  1.0 0.1504304523
H  H405  1  0.66050000  0.78750000  0.82240000  1.0 0.1601833343
H  H406  1  0.83950000  0.21250000  0.32240000  1.0 0.1601833343
H  H407  1  0.16050000  0.71250000  0.17760000  1.0 0.1601833343
H  H408  1  0.33950000  0.28750000  0.67760000  1.0 0.1601833343
H  H409  1  0.56370000  0.78950000  0.85400000  1.0 0.1601833343
H  H410  1  0.93630000  0.21050000  0.35400000  1.0 0.1601833343
H  H411  1  0.06370000  0.71050000  0.14600000  1.0 0.1601833343
H  H412  1  0.43630000  0.28950000  0.64600000  1.0 0.1601833343
H  H413  1  0.63790000  0.74470000  0.86170000  1.0 0.1683878578
H  H414  1  0.86210000  0.25530000  0.36170000  1.0 0.1683878578
H  H415  1  0.13790000  0.75530000  0.13830000  1.0 0.1683878578
H  H416  1  0.36210000  0.24470000  0.63830000  1.0 0.1683878578
C  C1  1  0.86250000  0.51020000  0.76070000  1.0 0.0463809486
C  C2  1  0.63750000  0.48980000  0.26070000  1.0 0.0463809486
C  C3  1  0.36250000  0.98980000  0.23930000  1.0 0.0463809486
C  C4  1  0.13750000  0.01020000  0.73930000  1.0 0.0463809486
C  C5  1  0.85890000  0.47920000  0.71520000  1.0 0.0693686026
C  C6  1  0.64110000  0.52080000  0.21520000  1.0 0.0693686026
C  C7  1  0.35890000  0.02080000  0.28480000  1.0 0.0693686026
C  C8  1  0.14110000  0.97920000  0.78480000  1.0 0.0693686026
C  C9  1  0.96200000  0.47160000  0.69150000  1.0 -0.2281272784
C  C10  1  0.53800000  0.52840000  0.19150000  1.0 -0.2281272784
C  C11  1  0.46200000  0.02840000  0.30850000  1.0 -0.2281272784
C  C12  1  0.03800000  0.97160000  0.80850000  1.0 -0.2281272784
C  C13  1  0.00870000  0.52070000  0.67710000  1.0 -0.168079617
C  C14  1  0.49130000  0.47930000  0.17710000  1.0 -0.168079617
C  C15  1  0.50870000  0.97930000  0.32290000  1.0 -0.168079617
C  C16  1  0.99130000  0.02070000  0.82290000  1.0 -0.168079617
C  C17  1  0.00920000  0.55300000  0.72540000  1.0 -0.1607746225
C  C18  1  0.49080000  0.44700000  0.22540000  1.0 -0.1607746225
C  C19  1  0.50920000  0.94700000  0.27460000  1.0 -0.1607746225
C  C20  1  0.99080000  0.05300000  0.77460000  1.0 -0.1607746225
C  C21  1  0.90950000  0.56120000  0.74950000  1.0 -0.2197929656
C  C22  1  0.59050000  0.43880000  0.24950000  1.0 -0.2197929656
C  C23  1  0.40950000  0.93880000  0.25050000  1.0 -0.2197929656
C  C24  1  0.09050000  0.06120000  0.75050000  1.0 -0.2197929656
C  C25  1  0.77570000  0.40630000  0.68110000  1.0 -0.1007151124
C  C26  1  0.72430000  0.59370000  0.18110000  1.0 -0.1007151124
C  C27  1  0.27570000  0.09370000  0.31890000  1.0 -0.1007151124
C  C28  1  0.22430000  0.90630000  0.81890000  1.0 -0.1007151124
C  C29  1  0.66780000  0.34471000  0.73025000  1.0 0.2365954197
C  C30  1  0.83220000  0.65529000  0.23025000  1.0 0.2365954197
C  C31  1  0.16780000  0.15529000  0.26975000  1.0 0.2365954197
C  C32  1  0.33220000  0.84471000  0.76975000  1.0 0.2365954197
C  C33  1  0.61740000  0.30010000  0.73205000  1.0 -0.0571711762
C  C34  1  0.88260000  0.69990000  0.23205000  1.0 -0.0571711762
C  C35  1  0.11740000  0.19990000  0.26795000  1.0 -0.0571711762
C  C36  1  0.38260000  0.80010000  0.76795000  1.0 -0.0571711762
C  C37  1  0.62000000  0.26769000  0.69220000  1.0 -0.1931343809
C  C38  1  0.88000000  0.73231000  0.19220000  1.0 -0.1931343809
C  C39  1  0.12000000  0.23231000  0.30780000  1.0 -0.1931343809
C  C40  1  0.38000000  0.76769000  0.80780000  1.0 -0.1931343809
C  C41  1  0.67290000  0.27989000  0.65048000  1.0 0.0427104653
C  C42  1  0.82710000  0.72011000  0.15048000  1.0 0.0463809486
C  C43  1  0.17290000  0.22011000  0.34952000  1.0 0.0463809486
C  C44  1  0.32710000  0.77989000  0.84952000  1.0 0.0463809486
C  C45  1  0.72330000  0.32450000  0.64868000  1.0 -0.2003070952
C  C46  1  0.77670000  0.67550000  0.14868000  1.0 -0.2003070952
C  C47  1  0.22330000  0.17550000  0.35132000  1.0 -0.2003070952
C  C48  1  0.27670000  0.82450000  0.85132000  1.0 -0.2003070952
C  C49  1  0.72080000  0.35690000  0.68860000  1.0 -0.0299054455
C  C50  1  0.77920000  0.64310000  0.18860000  1.0 -0.0299054455
C  C51  1  0.22080000  0.14310000  0.31140000  1.0 -0.0299054455
C  C52  1  0.27920000  0.85690000  0.81140000  1.0 -0.0299054455
C  C53  1  0.55580000  0.28630000  0.77750000  1.0 0.3127074815
C  C54  1  0.94420000  0.71370000  0.27750000  1.0 0.3127074815
C  C55  1  0.05580000  0.21370000  0.22250000  1.0 0.3127074815
C  C56  1  0.44420000  0.78630000  0.72250000  1.0 0.3127074815
C  C57  1  0.47520000  0.32510000  0.78560000  1.0 -0.4793055378
C  C58  1  0.02480000  0.67490000  0.28560000  1.0 -0.4900713065
C  C59  1  0.97520000  0.17490000  0.21440000  1.0 -0.4900713065
C  C60  1  0.52480000  0.82510000  0.71440000  1.0 -0.4900713065
C  C61  1  0.61960000  0.28430000  0.82420000  1.0 -0.4900713065
C  C62  1  0.88040000  0.71570000  0.32420000  1.0 -0.4900713065
C  C63  1  0.11960000  0.21570000  0.17580000  1.0 -0.4900713065
C  C64  1  0.38040000  0.78430000  0.67580000  1.0 -0.4900713065
C  C65  1  0.50220000  0.23510000  0.77240000  1.0 -0.4900713065
C  C66  1  0.99780000  0.76490000  0.27240000  1.0 -0.4900713065
C  C67  1  0.00220000  0.26490000  0.22760000  1.0 -0.4900713065
C  C68  1  0.49780000  0.73510000  0.72760000  1.0 -0.4900713065
C  C69  1  0.67690000  0.24680000  0.60620000  1.0 0.1103160889
C  C70  1  0.82310000  0.75320000  0.10620000  1.0 0.1103160889
C  C71  1  0.17690000  0.25320000  0.39380000  1.0 0.1103160889
C  C72  1  0.32310000  0.74680000  0.89380000  1.0 0.1103160889
C  C73  1  0.74210000  0.25100000  0.57000000  1.0 -0.2003070952
C  C74  1  0.75790000  0.74900000  0.07000000  1.0 -0.2003070952
C  C75  1  0.24210000  0.24900000  0.43000000  1.0 -0.2003070952
C  C76  1  0.25790000  0.75100000  0.93000000  1.0 -0.2003070952
C  C77  1  0.74320000  0.22220000  0.52960000  1.0 0.0463809486
C  C78  1  0.75680000  0.77780000  0.02960000  1.0 0.0463809486
C  C79  1  0.24320000  0.27780000  0.47040000  1.0 0.0463809486
C  C80  1  0.25680000  0.72220000  0.97040000  1.0 0.0463809486
C  C81  1  0.61460000  0.17910000  0.55850000  1.0 0.0427104653
C  C82  1  0.88540000  0.82090000  0.05850000  1.0 0.0427104653
C  C83  1  0.11460000  0.32090000  0.44150000  1.0 0.0427104653
C  C84  1  0.38540000  0.67910000  0.94150000  1.0 0.0427104653
C  C85  1  0.61200000  0.20780000  0.59940000  1.0 -0.2003070952
C  C86  1  0.88800000  0.79220000  0.09940000  1.0 -0.2003070952
C  C87  1  0.11200000  0.29220000  0.40060000  1.0 -0.2003070952
C  C88  1  0.38800000  0.70780000  0.90060000  1.0 -0.2003070952
C  C89  1  0.76990000  0.53320000  0.83390000  1.0 -0.1007151124
C  C90  1  0.73010000  0.46680000  0.33390000  1.0 -0.1007151124
C  C91  1  0.26990000  0.96680000  0.16610000  1.0 -0.1007151124
C  C92  1  0.23010000  0.03320000  0.66610000  1.0 -0.1007151124
C  C93  1  0.84160000  0.50312000  0.86370000  1.0 -0.038325154
C  C94  1  0.65840000  0.49688000  0.36370000  1.0 -0.038325154
C  C95  1  0.34160000  0.99688000  0.13630000  1.0 -0.038325154
C  C96  1  0.15840000  0.00312000  0.63630000  1.0 -0.038325154
C  C97  1  0.84040000  0.45141000  0.86280000  1.0 0.2058087154
C  C98  1  0.65960000  0.54859000  0.36280000  1.0 0.2058087154
C  C99  1  0.34040000  0.04859000  0.13720000  1.0 0.2058087154
C  C100  1  0.15960000  0.95141000  0.63720000  1.0 0.2058087154
C  C101  1  0.90760000  0.42463000  0.88980000  1.0 -0.0299054455
C  C102  1  0.59240000  0.57537000  0.38980000  1.0 -0.0299054455
C  C103  1  0.40760000  0.07537000  0.11020000  1.0 -0.0299054455
C  C104  1  0.09240000  0.92463000  0.61020000  1.0 -0.0299054455
C  C105  1  0.97610000  0.44957000  0.91770000  1.0 -0.2197929656
C  C106  1  0.52390000  0.55043000  0.41770000  1.0 -0.2197929656
C  C107  1  0.47610000  0.05043000  0.08230000  1.0 -0.2197929656
C  C108  1  0.02390000  0.94957000  0.58230000  1.0 -0.2197929656
C  C109  1  0.97730000  0.50130000  0.91860000  1.0 0.0625543964
C  C110  1  0.52270000  0.49870000  0.41860000  1.0 0.0625543964
C  C111  1  0.47730000  0.99870000  0.08140000  1.0 0.0625543964
C  C112  1  0.02270000  0.00130000  0.58140000  1.0 0.0625543964
C  C113  1  0.91000000  0.52806000  0.89160000  1.0 -0.2281272784
C  C114  1  0.59000000  0.47194000  0.39160000  1.0 -0.2281272784
C  C115  1  0.41000000  0.97194000  0.10840000  1.0 -0.2281272784
C  C116  1  0.09000000  0.02806000  0.60840000  1.0 -0.2281272784
C  C117  1  0.91190000  0.36590000  0.88750000  1.0 0.3031140357
C  C118  1  0.58810000  0.63410000  0.38750000  1.0 0.3031140357
C  C119  1  0.41190000  0.13410000  0.11250000  1.0 0.3031140357
C  C120  1  0.08810000  0.86590000  0.61250000  1.0 0.3031140357
C  C121  1  0.92490000  0.34850000  0.83330000  1.0 -0.4711046565
C  C122  1  0.57510000  0.65150000  0.33333333  1.0 -0.4711046565
C  C123  1  0.42490000  0.15150000  0.16670000  1.0 -0.4711046565
C  C124  1  0.07510000  0.84850000  0.66666667  1.0 -0.4711046565
C  C125  1  0.81870000  0.34720000  0.90750000  1.0 -0.4711046565
C  C126  1  0.68130000  0.65280000  0.40750000  1.0 -0.4711046565
C  C127  1  0.31870000  0.15280000  0.09250000  1.0 -0.4711046565
C  C128  1  0.18130000  0.84720000  0.59250000  1.0 -0.4711046565
C  C129  1  0.99920000  0.34570000  0.91310000  1.0 -0.4711046565
C  C130  1  0.50080000  0.65430000  0.41310000  1.0 -0.4711046565
C  C131  1  0.49920000  0.15430000  0.08690000  1.0 -0.4711046565
C  C132  1  0.00080000  0.84570000  0.58690000  1.0 -0.4711046565
C  C133  1  0.05130000  0.52820000  0.94910000  1.0 0.1103160889
C  C134  1  0.44870000  0.47180000  0.44910000  1.0 0.1103160889
C  C135  1  0.55130000  0.97180000  0.05090000  1.0 0.1103160889
C  C136  1  0.94870000  0.02820000  0.55090000  1.0 0.1103160889
C  C137  1  0.08350000  0.57310000  0.93270000  1.0 -0.2281272784
C  C138  1  0.41650000  0.42690000  0.43270000  1.0 -0.2281272784
C  C139  1  0.58350000  0.92690000  0.06730000  1.0 -0.2281272784
C  C140  1  0.91650000  0.07310000  0.56730000  1.0 -0.2281272784
C  C141  1  0.15190000  0.60020000  0.96060000  1.0 0.1007551425
C  C142  1  0.34810000  0.39980000  0.46060000  1.0 0.1007551425
C  C143  1  0.65190000  0.89980000  0.03940000  1.0 0.1007551425
C  C144  1  0.84810000  0.10020000  0.53940000  1.0 0.1007551425
C  C145  1  0.15050000  0.54050000  0.01900000  1.0 0.0427104653
C  C146  1  0.34950000  0.45950000  0.51900000  1.0 0.0427104653
C  C147  1  0.65050000  0.95950000  0.98100000  1.0 0.0427104653
C  C148  1  0.84950000  0.04050000  0.48100000  1.0 0.0427104653
C  C149  1  0.08380000  0.51370000  0.99310000  1.0 -0.1607746225
C  C150  1  0.41620000  0.48630000  0.49310000  1.0 -0.1607746225
C  C151  1  0.58380000  0.98630000  0.00690000  1.0 -0.1607746225
C  C152  1  0.91620000  0.01370000  0.50690000  1.0 -0.1607746225
C  C153  1  0.38740000  0.44760000  0.71950000  1.0 0.0625543964
C  C154  1  0.11260000  0.55240000  0.21950000  1.0 0.0625543964
C  C155  1  0.88740000  0.05240000  0.28050000  1.0 0.0693686026
C  C156  1  0.61260000  0.94760000  0.78050000  1.0 0.0625543964
C  C157  1  0.36900000  0.49290000  0.75090000  1.0 0.0625543964
C  C158  1  0.13100000  0.50710000  0.25090000  1.0 0.0625543964
C  C159  1  0.86900000  0.00710000  0.24910000  1.0 0.0625543964
C  C160  1  0.63100000  0.99290000  0.74910000  1.0 0.0625543964
C  C161  1  0.31360000  0.47760000  0.79840000  1.0 -0.2197929656
C  C162  1  0.18640000  0.52240000  0.29840000  1.0 -0.2197929656
C  C163  1  0.81360000  0.02240000  0.20160000  1.0 -0.2197929656
C  C164  1  0.68640000  0.97760000  0.70160000  1.0 -0.2197929656
C  C165  1  0.22020000  0.45190000  0.78270000  1.0 -0.168079617
C  C166  1  0.27980000  0.54810000  0.28270000  1.0 -0.168079617
C  C167  1  0.72020000  0.04810000  0.21730000  1.0 -0.168079617
C  C168  1  0.77980000  0.95190000  0.71730000  1.0 -0.168079617
C  C169  1  0.23750000  0.40660000  0.75240000  1.0 -0.1516438522
C  C170  1  0.26250000  0.59340000  0.25240000  1.0 -0.1516438522
C  C171  1  0.73750000  0.09340000  0.24760000  1.0 -0.1516438522
C  C172  1  0.76250000  0.90660000  0.74760000  1.0 -0.1516438522
C  C173  1  0.29520000  0.42230000  0.70560000  1.0 -0.2281272784
C  C174  1  0.20480000  0.57770000  0.20560000  1.0 -0.2281272784
C  C175  1  0.79520000  0.07770000  0.29440000  1.0 -0.2281272784
C  C176  1  0.70480000  0.92230000  0.79440000  1.0 -0.2281272784
C  C177  1  0.49190000  0.41880000  0.65390000  1.0 -0.1007151124
C  C178  1  0.00810000  0.58120000  0.15390000  1.0 -0.1007151124
C  C179  1  0.99190000  0.08120000  0.34610000  1.0 -0.1007151124
C  C180  1  0.50810000  0.91880000  0.84610000  1.0 -0.1007151124
C  C181  1  0.60840000  0.39669000  0.52939000  1.0 0.0427104653
C  C182  1  0.89160000  0.60331000  0.02939000  1.0 0.0427104653
C  C183  1  0.10840000  0.10331000  0.47061000  1.0 0.0427104653
C  C184  1  0.39160000  0.89669000  0.97061000  1.0 0.0427104653
C  C185  1  0.55320000  0.39123000  0.57171000  1.0 -0.2003070952
C  C186  1  0.94680000  0.60877000  0.07171000  1.0 -0.2003070952
C  C187  1  0.05320000  0.10877000  0.42829000  1.0 -0.2003070952
C  C188  1  0.44680000  0.89123000  0.92829000  1.0 -0.2003070952
C  C189  1  0.54830000  0.42969000  0.60586000  1.0 -0.0299054455
C  C190  1  0.95170000  0.57031000  0.10586000  1.0 -0.0299054455
C  C191  1  0.04830000  0.07031000  0.39414000  1.0 -0.0299054455
C  C192  1  0.45170000  0.92969000  0.89414000  1.0 -0.0299054455
C  C193  1  0.59850000  0.47361000  0.59768000  1.0 0.2323217369
C  C194  1  0.90150000  0.52639000  0.09768000  1.0 0.2323217369
C  C195  1  0.09850000  0.02639000  0.40232000  1.0 0.2323217369
C  C196  1  0.40150000  0.97361000  0.90232000  1.0 0.2323217369
C  C197  1  0.65370000  0.47907000  0.55536000  1.0 -0.0571711762
C  C198  1  0.84630000  0.52093000  0.05536000  1.0 -0.0571711762
C  C199  1  0.15370000  0.02093000  0.44464000  1.0 -0.0571711762
C  C200  1  0.34630000  0.97907000  0.94464000  1.0 -0.0571711762
C  C201  1  0.65860000  0.44060000  0.52121000  1.0 -0.1931343809
C  C202  1  0.84140000  0.55940000  0.02121000  1.0 -0.1931343809
C  C203  1  0.15860000  0.05940000  0.47879000  1.0 -0.1931343809
C  C204  1  0.34140000  0.94060000  0.97879000  1.0 -0.1931343809
C  C205  1  0.71050000  0.52740000  0.54570000  1.0 0.3031140357
C  C206  1  0.78950000  0.47260000  0.04570000  1.0 0.3031140357
C  C207  1  0.21050000  0.97260000  0.45430000  1.0 0.3031140357
C  C208  1  0.28950000  0.02740000  0.95430000  1.0 0.3031140357
C  C209  1  0.76770000  0.52600000  0.49660000  1.0 -0.4793055378
C  C210  1  0.73230000  0.47400000  0.99660000  1.0 -0.4793055378
C  C211  1  0.26770000  0.97400000  0.50340000  1.0 -0.4793055378
C  C212  1  0.23230000  0.02600000  0.00340000  1.0 -0.4900713065
C  C213  1  0.64760000  0.57350000  0.54510000  1.0 -0.4793055378
C  C214  1  0.85240000  0.42650000  0.04510000  1.0 -0.4793055378
C  C215  1  0.14760000  0.92650000  0.45490000  1.0 -0.4793055378
C  C216  1  0.35240000  0.07350000  0.95490000  1.0 -0.4793055378
C  C217  1  0.78630000  0.53610000  0.58670000  1.0 -0.4793055378
C  C218  1  0.71370000  0.46390000  0.08670000  1.0 -0.4793055378
C  C219  1  0.28630000  0.96390000  0.41330000  1.0 -0.4793055378
C  C220  1  0.21370000  0.03610000  0.91330000  1.0 -0.4793055378
C  C221  1  0.61070000  0.35520000  0.49330000  1.0 0.1187158015
C  C222  1  0.88930000  0.64480000  0.99330000  1.0 0.1187158015
C  C223  1  0.11070000  0.14480000  0.50670000  1.0 0.1187158015
C  C224  1  0.38930000  0.85520000  0.00670000  1.0 0.1187158015
C  C225  1  0.54520000  0.31740000  0.49360000  1.0 -0.2003070952
C  C226  1  0.95480000  0.68260000  0.99360000  1.0 -0.2003070952
C  C227  1  0.04520000  0.18260000  0.50640000  1.0 -0.2003070952
C  C228  1  0.45480000  0.81740000  0.00640000  1.0 -0.2003070952
C  C229  1  0.54660000  0.27890000  0.45980000  1.0 0.0333216838
C  C230  1  0.95340000  0.72110000  0.95980000  1.0 0.0333216838
C  C231  1  0.04660000  0.22110000  0.54020000  1.0 0.0333216838
C  C232  1  0.45340000  0.77890000  0.04020000  1.0 0.0333216838
C  C233  1  0.67130000  0.31460000  0.42050000  1.0 0.0778847221
C  C234  1  0.82870000  0.68540000  0.92050000  1.0 0.0778847221
C  C235  1  0.17130000  0.18540000  0.57950000  1.0 0.0778847221
C  C236  1  0.32870000  0.81460000  0.07950000  1.0 0.0778847221
C  C237  1  0.67750000  0.35240000  0.45510000  1.0 -0.2281272784
C  C238  1  0.82250000  0.64760000  0.95510000  1.0 -0.2281272784
C  C239  1  0.17750000  0.14760000  0.54490000  1.0 -0.2281272784
C  C240  1  0.32250000  0.85240000  0.04490000  1.0 -0.2281272784
C  C241  1  0.45090000  0.56720000  0.78390000  1.0 -0.1099016336
C  C242  1  0.04910000  0.43280000  0.28390000  1.0 -0.1099016336
C  C243  1  0.95090000  0.93280000  0.21610000  1.0 -0.1099016336
C  C244  1  0.54910000  0.06720000  0.71610000  1.0 -0.1099016336
C  C245  1  0.38650000  0.59971000  0.75305000  1.0 -0.038325154
C  C246  1  0.11350000  0.40029000  0.25305000  1.0 -0.0299054455
C  C247  1  0.88650000  0.90029000  0.24695000  1.0 -0.038325154
C  C248  1  0.61350000  0.09971000  0.74695000  1.0 -0.038325154
C  C249  1  0.39230000  0.60012000  0.70194000  1.0 0.2204436041
C  C250  1  0.10770000  0.39988000  0.20194000  1.0 0.2204436041
C  C251  1  0.89230000  0.89988000  0.29806000  1.0 0.2204436041
C  C252  1  0.60770000  0.10012000  0.79806000  1.0 0.2204436041
C  C253  1  0.32780000  0.62830000  0.67460000  1.0 -0.0466823955
C  C254  1  0.17220000  0.37170000  0.17460000  1.0 -0.0466823955
C  C255  1  0.82780000  0.87170000  0.32540000  1.0 -0.0466823955
C  C256  1  0.67220000  0.12830000  0.82540000  1.0 -0.0466823955
C  C257  1  0.25750000  0.65610000  0.69838000  1.0 -0.2003070952
C  C258  1  0.24250000  0.34390000  0.19838000  1.0 -0.2003070952
C  C259  1  0.75750000  0.84390000  0.30162000  1.0 -0.2003070952
C  C260  1  0.74250000  0.15610000  0.80162000  1.0 -0.2003070952
C  C261  1  0.25170000  0.65560000  0.74949000  1.0 0.0463809486
C  C262  1  0.24830000  0.34440000  0.24949000  1.0 0.0463809486
C  C263  1  0.75170000  0.84440000  0.25051000  1.0 0.0463809486
C  C264  1  0.74830000  0.15560000  0.75051000  1.0 0.0427104653
C  C265  1  0.31630000  0.62750000  0.77683000  1.0 -0.2197929656
C  C266  1  0.18370000  0.37250000  0.27683000  1.0 -0.2197929656
C  C267  1  0.81630000  0.87250000  0.22317000  1.0 -0.2197929656
C  C268  1  0.68370000  0.12750000  0.72317000  1.0 -0.2197929656
C  C269  1  0.33400000  0.62710000  0.61800000  1.0 0.3212746061
C  C270  1  0.16600000  0.37290000  0.11800000  1.0 0.3212746061
C  C271  1  0.83400000  0.87290000  0.38200000  1.0 0.3212746061
C  C272  1  0.66600000  0.12710000  0.88200000  1.0 0.3212746061
C  C273  1  0.31730000  0.57240000  0.59940000  1.0 -0.5088816606
C  C274  1  0.18270000  0.42760000  0.09940000  1.0 -0.5088816606
C  C275  1  0.81730000  0.92760000  0.40060000  1.0 -0.5088816606
C  C276  1  0.68270000  0.07240000  0.90060000  1.0 -0.5088816606
C  C277  1  0.43050000  0.65120000  0.60000000  1.0 -0.4793055378
C  C278  1  0.06950000  0.34880000  0.10000000  1.0 -0.4793055378
C  C279  1  0.93050000  0.84880000  0.40000000  1.0 -0.4793055378
C  C280  1  0.56950000  0.15120000  0.90000000  1.0 -0.4793055378
C  C281  1  0.25090000  0.66000000  0.59590000  1.0 -0.4900713065
C  C282  1  0.24910000  0.34000000  0.09590000  1.0 -0.4900713065
C  C283  1  0.75090000  0.84000000  0.40410000  1.0 -0.4900713065
C  C284  1  0.74910000  0.16000000  0.90410000  1.0 -0.4900713065
C  C285  1  0.17760000  0.68500000  0.77550000  1.0 0.1305526653
C  C286  1  0.32240000  0.31500000  0.27550000  1.0 0.1305526653
C  C287  1  0.67760000  0.81500000  0.22450000  1.0 0.1305526653
C  C288  1  0.82240000  0.18500000  0.72450000  1.0 0.1305526653
C  C289  1  0.13460000  0.66720000  0.81870000  1.0 -0.2197929656
C  C290  1  0.36540000  0.33280000  0.31870000  1.0 -0.2197929656
C  C291  1  0.63460000  0.83280000  0.18130000  1.0 -0.2197929656
C  C292  1  0.86540000  0.16720000  0.68130000  1.0 -0.2197929656
C  C293  1  0.06550000  0.69390000  0.84180000  1.0 0.0693686026
C  C294  1  0.43450000  0.30610000  0.34180000  1.0 0.0693686026
C  C295  1  0.56550000  0.80610000  0.15820000  1.0 0.0693686026
C  C296  1  0.93450000  0.19390000  0.65820000  1.0 0.0693686026
C  C297  1  0.08240000  0.75830000  0.78860000  1.0 0.0693686026
C  C298  1  0.41760000  0.24170000  0.28860000  1.0 0.0693686026
C  C299  1  0.58240000  0.74170000  0.21140000  1.0 0.0693686026
C  C300  1  0.91760000  0.25830000  0.71140000  1.0 0.0693686026
C  C301  1  0.14780000  0.73280000  0.76240000  1.0 -0.1781288483
C  C302  1  0.35220000  0.26720000  0.26240000  1.0 -0.1781288483
C  C303  1  0.64780000  0.76720000  0.23760000  1.0 -0.1781288483
C  C304  1  0.85220000  0.23280000  0.73760000  1.0 -0.1781288483
C  C305  1  0.39280000  0.53840000  0.03800000  1.0 0.6594131268
C  C306  1  0.10720000  0.46160000  0.53800000  1.0 0.6594131268
C  C307  1  0.89280000  0.96160000  0.96200000  1.0 0.6594131268
C  C308  1  0.60720000  0.03840000  0.46200000  1.0 0.6594131268
C  C309  1  0.43850000  0.48470000  0.03350000  1.0 -0.5902544879
C  C310  1  0.06150000  0.51530000  0.53350000  1.0 -0.5902544879
C  C311  1  0.93850000  0.01530000  0.96650000  1.0 -0.5902544879
C  C312  1  0.56150000  0.98470000  0.46650000  1.0 -0.5902544879
C  C313  1  0.82710000  0.76050000  0.77680000  1.0 0.6203387804
C  C314  1  0.67290000  0.23950000  0.27680000  1.0 0.6203387804
C  C315  1  0.32710000  0.73950000  0.22320000  1.0 0.6203387804
C  C316  1  0.17290000  0.26050000  0.72320000  1.0 0.6203387804
C  C317  1  0.78500000  0.75380000  0.72360000  1.0 -0.5753563367
C  C318  1  0.71500000  0.24620000  0.22360000  1.0 -0.5753563367
C  C319  1  0.28500000  0.74620000  0.27640000  1.0 -0.5753563367
C  C320  1  0.21500000  0.25380000  0.77640000  1.0 -0.5753563367
C  C321  1  0.02410000  0.85480000  0.91280000  1.0 0.6203387804
C  C322  1  0.47590000  0.14520000  0.41280000  1.0 0.6203387804
C  C323  1  0.52410000  0.64520000  0.08720000  1.0 0.6203387804
C  C324  1  0.97590000  0.35480000  0.58720000  1.0 0.6203387804
C  C325  1  0.09700000  0.88910000  0.94360000  1.0 -0.5993461334
C  C326  1  0.40300000  0.11090000  0.44360000  1.0 -0.5993461334
C  C327  1  0.59700000  0.61090000  0.05640000  1.0 -0.5993461334
C  C328  1  0.90300000  0.38910000  0.55640000  1.0 -0.5993461334
C  C329  1  0.68610000  0.81190000  0.89650000  1.0 0.634859351
C  C330  1  0.81390000  0.18810000  0.39650000  1.0 0.634859351
C  C331  1  0.18610000  0.68810000  0.10350000  1.0 0.634859351
C  C332  1  0.31390000  0.31190000  0.60350000  1.0 0.634859351
C  C333  1  0.63170000  0.78030000  0.85450000  1.0 -0.6146320426
C  C334  1  0.86830000  0.21970000  0.35450000  1.0 -0.6146320426
C  C335  1  0.13170000  0.71970000  0.14550000  1.0 -0.6146320426
C  C336  1  0.36830000  0.28030000  0.64550000  1.0 -0.6146320426
N  N1  1  0.76830000  0.51450000  0.78370000  1.0 -0.4591682253
N  N2  1  0.73170000  0.48550000  0.28370000  1.0 -0.4591682253
N  N3  1  0.26830000  0.98550000  0.21630000  1.0 -0.4591682253
N  N4  1  0.23170000  0.01450000  0.71630000  1.0 -0.4591682253
N  N5  1  0.80890000  0.43110000  0.72720000  1.0 -0.4342446797
N  N6  1  0.69110000  0.56890000  0.22720000  1.0 -0.4342446797
N  N7  1  0.30890000  0.06890000  0.27280000  1.0 -0.4342446797
N  N8  1  0.19110000  0.93110000  0.77280000  1.0 -0.4342446797
N  N9  1  0.68250000  0.18380000  0.52230000  1.0 -0.2560869702
N  N10  1  0.81750000  0.81620000  0.02230000  1.0 -0.2560869702
N  N11  1  0.18250000  0.31620000  0.47770000  1.0 -0.2560869702
N  N12  1  0.31750000  0.68380000  0.97770000  1.0 -0.2560869702
N  N13  1  0.18750000  0.58420000  0.00160000  1.0 -0.2197929656
N  N14  1  0.31250000  0.41580000  0.50160000  1.0 -0.2197929656
N  N15  1  0.68750000  0.91580000  0.99840000  1.0 -0.2197929656
N  N16  1  0.81250000  0.08420000  0.49840000  1.0 -0.2197929656
N  N17  1  0.44490000  0.46240000  0.67730000  1.0 -0.4342446797
N  N18  1  0.05510000  0.53760000  0.17730000  1.0 -0.4342446797
N  N19  1  0.94490000  0.03760000  0.32270000  1.0 -0.4342446797
N  N20  1  0.55510000  0.96240000  0.82270000  1.0 -0.4342446797
N  N21  1  0.46160000  0.51700000  0.76270000  1.0 -0.4591682253
N  N22  1  0.03840000  0.48300000  0.26270000  1.0 -0.4591682253
N  N23  1  0.96160000  0.98300000  0.23730000  1.0 -0.4591682253
N  N24  1  0.53840000  0.01700000  0.73730000  1.0 -0.4591682253
N  N25  1  0.61090000  0.27750000  0.42200000  1.0 -0.2516690367
N  N26  1  0.88910000  0.72250000  0.92200000  1.0 -0.2516690367
N  N27  1  0.11090000  0.22250000  0.57800000  1.0 -0.2516690367
N  N28  1  0.38910000  0.77750000  0.07800000  1.0 -0.2516690367
N  N29  1  0.04000000  0.73970000  0.82950000  1.0 -0.2421957389
N  N30  1  0.46000000  0.26030000  0.32950000  1.0 -0.2421957389
N  N31  1  0.54000000  0.76030000  0.17050000  1.0 -0.2421957389
N  N32  1  0.96000000  0.23970000  0.67050000  1.0 -0.2421957389
O  O1  1  0.66320000  0.37657000  0.76810000  1.0 -0.6357163512
O  O2  1  0.83680000  0.62343000  0.26810000  1.0 -0.6357163512
O  O3  1  0.16320000  0.12343000  0.23190000  1.0 -0.6357163512
O  O4  1  0.33680000  0.87657000  0.73190000  1.0 -0.6357163512
O  O5  1  0.77680000  0.42870000  0.83250000  1.0 -0.6690172874
O  O6  1  0.72320000  0.57130000  0.33250000  1.0 -0.6690172874
O  O7  1  0.27680000  0.07130000  0.16750000  1.0 -0.6690172874
O  O8  1  0.22320000  0.92870000  0.66750000  1.0 -0.6690172874
O  O9  1  0.59530000  0.51000000  0.63180000  1.0 -0.6533463471
O  O10  1  0.90470000  0.49000000  0.13180000  1.0 -0.6533463471
O  O11  1  0.09530000  0.99000000  0.36820000  1.0 -0.6533463471
O  O12  1  0.40470000  0.01000000  0.86820000  1.0 -0.6533463471
O  O13  1  0.45910000  0.57160000  0.67990000  1.0 -0.6690172874
O  O14  1  0.04090000  0.42840000  0.17990000  1.0 -0.6690172874
O  O15  1  0.95910000  0.92840000  0.32010000  1.0 -0.6690172874
O  O16  1  0.54090000  0.07160000  0.82010000  1.0 -0.6690172874
O  O17  1  0.62200000  0.47270000  0.72860000  1.0 -1.1443913304
O  O18  1  0.87800000  0.52730000  0.22860000  1.0 -1.1443913304
O  O19  1  0.12200000  0.02730000  0.27140000  1.0 -1.1443913304
O  O20  1  0.37800000  0.97270000  0.77140000  1.0 -1.1443913304
O  O21  1  0.35300000  0.55350000  0.07580000  1.0 -0.5692036324
O  O22  1  0.14700000  0.44650000  0.57580000  1.0 -0.5692036324
O  O23  1  0.85300000  0.94650000  0.92420000  1.0 -0.5692036324
O  O24  1  0.64700000  0.05350000  0.42420000  1.0 -0.5692036324
O  O25  1  0.40490000  0.56740000  0.99990000  1.0 -0.6305078887
O  O26  1  0.09510000  0.43260000  0.49990000  1.0 -0.6305078887
O  O27  1  0.90490000  0.93260000  0.00010000  1.0 -0.6305078887
O  O28  1  0.59510000  0.06740000  0.50010000  1.0 -0.6305078887
O  O29  1  0.86800000  0.80050000  0.78300000  1.0 -0.5376016223
O  O30  1  0.63200000  0.19950000  0.28300000  1.0 -0.5376016223
O  O31  1  0.36800000  0.69950000  0.21700000  1.0 -0.5376016223
O  O32  1  0.13200000  0.30050000  0.71700000  1.0 -0.5376016223
O  O33  1  0.81270000  0.72980000  0.80760000  1.0 -0.5565429055
O  O34  1  0.68730000  0.27020000  0.30760000  1.0 -0.5565429055
O  O35  1  0.31270000  0.77020000  0.19240000  1.0 -0.5565429055
O  O36  1  0.18730000  0.22980000  0.69240000  1.0 -0.5565429055
O  O37  1  0.02420000  0.85050000  0.86670000  1.0 -0.4900713065
O  O38  1  0.47580000  0.14950000  0.36670000  1.0 -0.4900713065
O  O39  1  0.52420000  0.64950000  0.13330000  1.0 -0.4900713065
O  O40  1  0.97580000  0.35050000  0.63330000  1.0 -0.4900713065
O  O41  1  0.95790000  0.83370000  0.93080000  1.0 -0.4591682253
O  O42  1  0.54210000  0.16630000  0.43080000  1.0 -0.4591682253
O  O43  1  0.45790000  0.66630000  0.06920000  1.0 -0.4591682253
O  O44  1  0.04210000  0.33370000  0.56920000  1.0 -0.4591682253
O  O45  1  0.76750000  0.82530000  0.88950000  1.0 -0.4958445602
O  O46  1  0.73250000  0.17470000  0.38950000  1.0 -0.4958445602
O  O47  1  0.26750000  0.67470000  0.11050000  1.0 -0.4958445602
O  O48  1  0.23250000  0.32530000  0.61050000  1.0 -0.4958445602
O  O49  1  0.64450000  0.82140000  0.93500000  1.0 -0.5480242394
O  O50  1  0.85550000  0.17860000  0.43500000  1.0 -0.5480242394
O  O51  1  0.14450000  0.67860000  0.06500000  1.0 -0.5480242394
O  O52  1  0.35550000  0.32140000  0.56500000  1.0 -0.5480242394
