# DDEC6 charges by PACMAN v1.1 (https://github.com/mtap-research/PACMAN-charge/)
data_HUHZAO_ASR_pacman
_symmetry_space_group_name_H-M   'P 1'
_cell_length_a   24.67900000
_cell_length_b   24.67900000
_cell_length_c   17.51200000
_cell_angle_alpha   90.00000000
_cell_angle_beta   90.00000000
_cell_angle_gamma   120.00000000
_symmetry_Int_Tables_number   1
_chemical_formula_structural   Al3H80C122O13
_chemical_formula_sum   'Al3 H80 C122 O13'
_cell_volume   9236.79906564
_cell_formula_units_Z   1
loop_
 _symmetry_equiv_pos_site_id
 _symmetry_equiv_pos_as_xyz
  1  'x, y, z'
loop_
 _atom_site_type_symbol
 _atom_site_label
 _atom_site_symmetry_multiplicity
 _atom_site_fract_x
 _atom_site_fract_y
 _atom_site_fract_z
 _atom_site_occupancy
 _atom_site_charge
Al  Al1  1  0.58106000  0.29053000  0.00000000  1.0 1.6249206228
Al  Al2  1  0.70947000  0.41894000  0.00000000  1.0 1.6249206228
Al  Al3  1  0.70947000  0.29053000  0.00000000  1.0 1.6249206228
H  H1  1  0.49620000  0.34280000  0.16790000  1.0 0.1266275608
H  H2  1  0.45530000  0.38200000  0.25440000  1.0 0.099120859
H  H3  1  0.41460000  0.43080000  0.30150000  1.0 0.092650549
H  H4  1  0.37420000  0.49450000  0.34710000  1.0 0.099120859
H  H5  1  0.42080000  0.46330000  0.46360000  1.0 0.0621639987
H  H6  1  0.45040000  0.41760000  0.37690000  1.0 0.099120859
H  H7  1  0.84660000  0.50380000  0.16790000  1.0 0.1266275608
H  H8  1  0.92670000  0.54470000  0.25440000  1.0 0.099120859
H  H9  1  0.01620000  0.58540000  0.30150000  1.0 0.092650549
H  H10  1  0.12030000  0.62580000  0.34710000  1.0 0.099120859
H  H11  1  0.04250000  0.57920000  0.46360000  1.0 0.0621639987
H  H12  1  0.96720000  0.54960000  0.37690000  1.0 0.099120859
H  H13  1  0.65720000  0.15340000  0.16790000  1.0 0.1266275608
H  H14  1  0.61800000  0.07330000  0.25440000  1.0 0.099120859
H  H15  1  0.56920000  0.98380000  0.30150000  1.0 0.092650549
H  H16  1  0.50550000  0.87970000  0.34710000  1.0 0.092650549
H  H17  1  0.53670000  0.95750000  0.46360000  1.0 0.0621639987
H  H18  1  0.58240000  0.03280000  0.37690000  1.0 0.099120859
H  H19  1  0.49620000  0.34280000  0.83210000  1.0 0.1266275608
H  H20  1  0.45530000  0.38200000  0.74560000  1.0 0.099120859
H  H21  1  0.41460000  0.43080000  0.69850000  1.0 0.092650549
H  H22  1  0.37420000  0.49450000  0.65290000  1.0 0.099120859
H  H23  1  0.42080000  0.46330000  0.53640000  1.0 0.0621639987
H  H24  1  0.45040000  0.41760000  0.62310000  1.0 0.099120859
H  H25  1  0.84660000  0.50380000  0.83210000  1.0 0.1266275608
H  H26  1  0.92670000  0.54470000  0.74560000  1.0 0.099120859
H  H27  1  0.01620000  0.58540000  0.69850000  1.0 0.092650549
H  H28  1  0.12030000  0.62580000  0.65290000  1.0 0.099120859
H  H29  1  0.04250000  0.57920000  0.53640000  1.0 0.0621639987
H  H30  1  0.96720000  0.54960000  0.62310000  1.0 0.099120859
H  H31  1  0.65720000  0.15340000  0.83210000  1.0 0.1266275608
H  H32  1  0.61800000  0.07330000  0.74560000  1.0 0.099120859
H  H33  1  0.56920000  0.98380000  0.69850000  1.0 0.092650549
H  H34  1  0.50550000  0.87970000  0.65290000  1.0 0.092650549
H  H35  1  0.53670000  0.95750000  0.53640000  1.0 0.0621639987
H  H36  1  0.58240000  0.03280000  0.62310000  1.0 0.099120859
H  H37  1  0.84660000  0.34280000  0.16790000  1.0 0.1266275608
H  H38  1  0.92670000  0.38200000  0.25440000  1.0 0.099120859
H  H39  1  0.01620000  0.43080000  0.30150000  1.0 0.092650549
H  H40  1  0.12030000  0.49450000  0.34710000  1.0 0.099120859
H  H41  1  0.04250000  0.46330000  0.46360000  1.0 0.0621639987
H  H42  1  0.96720000  0.41760000  0.37690000  1.0 0.099120859
H  H43  1  0.65720000  0.50380000  0.16790000  1.0 0.1266275608
H  H44  1  0.61800000  0.54470000  0.25440000  1.0 0.099120859
H  H45  1  0.56920000  0.58540000  0.30150000  1.0 0.092650549
H  H46  1  0.50550000  0.62580000  0.34710000  1.0 0.099120859
H  H47  1  0.53670000  0.57920000  0.46360000  1.0 0.0621639987
H  H48  1  0.58240000  0.54960000  0.37690000  1.0 0.099120859
H  H49  1  0.49620000  0.15340000  0.16790000  1.0 0.1266275608
H  H50  1  0.45530000  0.07330000  0.25440000  1.0 0.099120859
H  H51  1  0.41460000  0.98380000  0.30150000  1.0 0.092650549
H  H52  1  0.37420000  0.87970000  0.34710000  1.0 0.092650549
H  H53  1  0.42080000  0.95750000  0.46360000  1.0 0.0621639987
H  H54  1  0.45040000  0.03280000  0.37690000  1.0 0.099120859
H  H55  1  0.84660000  0.34280000  0.83210000  1.0 0.1266275608
H  H56  1  0.92670000  0.38200000  0.74560000  1.0 0.099120859
H  H57  1  0.01620000  0.43080000  0.69850000  1.0 0.092650549
H  H58  1  0.12030000  0.49450000  0.65290000  1.0 0.099120859
H  H59  1  0.04250000  0.46330000  0.53640000  1.0 0.0621639987
H  H60  1  0.96720000  0.41760000  0.62310000  1.0 0.099120859
H  H61  1  0.65720000  0.50380000  0.83210000  1.0 0.1266275608
H  H62  1  0.61800000  0.54470000  0.74560000  1.0 0.099120859
H  H63  1  0.56920000  0.58540000  0.69850000  1.0 0.092650549
H  H64  1  0.50550000  0.62580000  0.65290000  1.0 0.099120859
H  H65  1  0.53670000  0.57920000  0.53640000  1.0 0.0621639987
H  H66  1  0.58240000  0.54960000  0.62310000  1.0 0.099120859
H  H67  1  0.49620000  0.15340000  0.83210000  1.0 0.1266275608
H  H68  1  0.45530000  0.07330000  0.74560000  1.0 0.099120859
H  H69  1  0.41460000  0.98380000  0.69850000  1.0 0.092650549
H  H70  1  0.37420000  0.87970000  0.65290000  1.0 0.092650549
H  H71  1  0.42080000  0.95750000  0.53640000  1.0 0.0621639987
H  H72  1  0.45040000  0.03280000  0.62310000  1.0 0.099120859
H  H73  1  0.39340000  0.60660000  0.36880000  1.0 0.1266275608
H  H74  1  0.21320000  0.60660000  0.36880000  1.0 0.1266275608
H  H75  1  0.39340000  0.78680000  0.36880000  1.0 0.1266275608
H  H76  1  0.39340000  0.60660000  0.63120000  1.0 0.1266275608
H  H77  1  0.21320000  0.60660000  0.63120000  1.0 0.1266275608
H  H78  1  0.39340000  0.78680000  0.63120000  1.0 0.1266275608
H  H79  1  0.33333333  0.66666667  0.37090000  1.0 0.120975898
H  H80  1  0.33333333  0.66666667  0.62910000  1.0 0.120975898
C  C1  1  0.52097000  0.38334000  0.18598000  1.0 -0.0906385884
C  C2  1  0.49625000  0.40663000  0.23742000  1.0 -0.1709349093
C  C3  1  0.44087000  0.47021000  0.32210000  1.0 -0.0665963154
C  C4  1  0.41439000  0.50263000  0.35853000  1.0 -0.1510609226
C  C5  1  0.44296000  0.48644000  0.42115000  1.0 -0.0594999187
C  C6  1  0.46351000  0.45997000  0.37290000  1.0 -0.1041960802
C  C7  1  0.86237000  0.47903000  0.18598000  1.0 -0.0906385884
C  C8  1  0.91038000  0.50375000  0.23742000  1.0 -0.1709349093
C  C9  1  0.02934000  0.55913000  0.32210000  1.0 -0.0665963154
C  C10  1  0.08824000  0.58561000  0.35853000  1.0 -0.1510609226
C  C11  1  0.04348000  0.55704000  0.42115000  1.0 -0.0594999187
C  C12  1  0.99646000  0.53649000  0.37290000  1.0 -0.1041960802
C  C13  1  0.61666000  0.13763000  0.18598000  1.0 -0.0906385884
C  C14  1  0.59337000  0.08962000  0.23742000  1.0 -0.1709349093
C  C15  1  0.52979000  0.97066000  0.32210000  1.0 -0.0665963154
C  C16  1  0.49737000  0.91176000  0.35853000  1.0 -0.1510609226
C  C17  1  0.51356000  0.95652000  0.42115000  1.0 -0.0594999187
C  C18  1  0.54003000  0.00354000  0.37290000  1.0 -0.1041960802
C  C19  1  0.52097000  0.38334000  0.81402000  1.0 -0.0906385884
C  C20  1  0.49625000  0.40663000  0.76258000  1.0 -0.1709349093
C  C21  1  0.44087000  0.47021000  0.67790000  1.0 -0.0665963154
C  C22  1  0.41439000  0.50263000  0.64147000  1.0 -0.1510609226
C  C23  1  0.44296000  0.48644000  0.57885000  1.0 -0.0594999187
C  C24  1  0.46351000  0.45997000  0.62710000  1.0 -0.1041960802
C  C25  1  0.86237000  0.47903000  0.81402000  1.0 -0.0906385884
C  C26  1  0.91038000  0.50375000  0.76258000  1.0 -0.1709349093
C  C27  1  0.02934000  0.55913000  0.67790000  1.0 -0.0665963154
C  C28  1  0.08824000  0.58561000  0.64147000  1.0 -0.1510609226
C  C29  1  0.04348000  0.55704000  0.57885000  1.0 -0.0594999187
C  C30  1  0.99646000  0.53649000  0.62710000  1.0 -0.1041960802
C  C31  1  0.61666000  0.13763000  0.81402000  1.0 -0.0906385884
C  C32  1  0.59337000  0.08962000  0.76258000  1.0 -0.1709349093
C  C33  1  0.52979000  0.97066000  0.67790000  1.0 -0.0665963154
C  C34  1  0.49737000  0.91176000  0.64147000  1.0 -0.1510609226
C  C35  1  0.51356000  0.95652000  0.57885000  1.0 -0.0594999187
C  C36  1  0.54003000  0.00354000  0.62710000  1.0 -0.1041960802
C  C37  1  0.86237000  0.38334000  0.18598000  1.0 -0.0906385884
C  C38  1  0.91038000  0.40663000  0.23742000  1.0 -0.1709349093
C  C39  1  0.02934000  0.47021000  0.32210000  1.0 -0.0665963154
C  C40  1  0.08824000  0.50263000  0.35853000  1.0 -0.1510609226
C  C41  1  0.04348000  0.48644000  0.42115000  1.0 -0.0594999187
C  C42  1  0.99646000  0.45997000  0.37290000  1.0 -0.1041960802
C  C43  1  0.61666000  0.47903000  0.18598000  1.0 -0.0906385884
C  C44  1  0.59337000  0.50375000  0.23742000  1.0 -0.1709349093
C  C45  1  0.52979000  0.55913000  0.32210000  1.0 -0.0665963154
C  C46  1  0.49737000  0.58561000  0.35853000  1.0 -0.1510609226
C  C47  1  0.51356000  0.55704000  0.42115000  1.0 -0.0594999187
C  C48  1  0.54003000  0.53649000  0.37290000  1.0 -0.1041960802
C  C49  1  0.52097000  0.13763000  0.18598000  1.0 -0.0906385884
C  C50  1  0.49625000  0.08962000  0.23742000  1.0 -0.1709349093
C  C51  1  0.44087000  0.97066000  0.32210000  1.0 -0.0665963154
C  C52  1  0.41439000  0.91176000  0.35853000  1.0 -0.1510609226
C  C53  1  0.44296000  0.95652000  0.42115000  1.0 -0.0594999187
C  C54  1  0.46351000  0.00354000  0.37290000  1.0 -0.1041960802
C  C55  1  0.86237000  0.38334000  0.81402000  1.0 -0.0906385884
C  C56  1  0.91038000  0.40663000  0.76258000  1.0 -0.1709349093
C  C57  1  0.02934000  0.47021000  0.67790000  1.0 -0.0665963154
C  C58  1  0.08824000  0.50263000  0.64147000  1.0 -0.1510609226
C  C59  1  0.04348000  0.48644000  0.57885000  1.0 -0.0594999187
C  C60  1  0.99646000  0.45997000  0.62710000  1.0 -0.1041960802
C  C61  1  0.61666000  0.47903000  0.81402000  1.0 -0.0906385884
C  C62  1  0.59337000  0.50375000  0.76258000  1.0 -0.1709349093
C  C63  1  0.52979000  0.55913000  0.67790000  1.0 -0.0665963154
C  C64  1  0.49737000  0.58561000  0.64147000  1.0 -0.1510609226
C  C65  1  0.51356000  0.55704000  0.57885000  1.0 -0.0594999187
C  C66  1  0.54003000  0.53649000  0.62710000  1.0 -0.1041960802
C  C67  1  0.52097000  0.13763000  0.81402000  1.0 -0.0906385884
C  C68  1  0.49625000  0.08962000  0.76258000  1.0 -0.1709349093
C  C69  1  0.44087000  0.97066000  0.67790000  1.0 -0.0665963154
C  C70  1  0.41439000  0.91176000  0.64147000  1.0 -0.1510609226
C  C71  1  0.44296000  0.95652000  0.57885000  1.0 -0.0594999187
C  C72  1  0.46351000  0.00354000  0.62710000  1.0 -0.1041960802
C  C73  1  0.60667000  0.39333000  0.09670000  1.0 0.6188522739
C  C74  1  0.58171000  0.41829000  0.16002000  1.0 -0.0432997942
C  C75  1  0.53263000  0.46737000  0.26431000  1.0 0.0724507285
C  C76  1  0.50440000  0.49560000  0.31649000  1.0 0.0063386798
C  C77  1  0.45212000  0.54788000  0.41321000  1.0 0.0474561516
C  C78  1  0.42263000  0.57737000  0.45960000  1.0 0.0063386798
C  C79  1  0.39343000  0.60657000  0.42188000  1.0 -0.2181912349
C  C80  1  0.36576000  0.63423000  0.45804000  1.0 0.0446775743
C  C81  1  0.78667000  0.39333000  0.09670000  1.0 0.6188522739
C  C82  1  0.83659000  0.41829000  0.16002000  1.0 -0.0432997942
C  C83  1  0.93475000  0.46737000  0.26431000  1.0 0.0724507285
C  C84  1  0.99120000  0.49560000  0.31649000  1.0 0.0063386798
C  C85  1  0.09575000  0.54788000  0.41321000  1.0 0.0474561516
C  C86  1  0.15474000  0.57737000  0.45960000  1.0 0.0063386798
C  C87  1  0.21313000  0.60657000  0.42188000  1.0 -0.2181912349
C  C88  1  0.26847000  0.63423000  0.45804000  1.0 0.0446775743
C  C89  1  0.60667000  0.21333000  0.09670000  1.0 0.6188522739
C  C90  1  0.58171000  0.16341000  0.16002000  1.0 -0.0432997942
C  C91  1  0.53263000  0.06525000  0.26431000  1.0 0.0724507285
C  C92  1  0.50440000  0.00880000  0.31649000  1.0 0.0063386798
C  C93  1  0.45212000  0.90425000  0.41321000  1.0 0.0474561516
C  C94  1  0.42263000  0.84526000  0.45960000  1.0 0.0063386798
C  C95  1  0.39343000  0.78687000  0.42188000  1.0 -0.2181912349
C  C96  1  0.36576000  0.73153000  0.45804000  1.0 0.0446775743
C  C97  1  0.60667000  0.39333000  0.90330000  1.0 0.6188522739
C  C98  1  0.58171000  0.41829000  0.83998000  1.0 -0.0432997942
C  C99  1  0.53263000  0.46737000  0.73569000  1.0 0.0724507285
C  C100  1  0.50440000  0.49560000  0.68351000  1.0 0.0063386798
C  C101  1  0.45212000  0.54788000  0.58679000  1.0 0.0474561516
C  C102  1  0.42263000  0.57737000  0.54040000  1.0 0.0063386798
C  C103  1  0.39343000  0.60657000  0.57812000  1.0 -0.2181912349
C  C104  1  0.36576000  0.63423000  0.54196000  1.0 0.0446775743
C  C105  1  0.78667000  0.39333000  0.90330000  1.0 0.6188522739
C  C106  1  0.83659000  0.41829000  0.83998000  1.0 -0.0432997942
C  C107  1  0.93475000  0.46737000  0.73569000  1.0 0.0724507285
C  C108  1  0.99120000  0.49560000  0.68351000  1.0 0.0063386798
C  C109  1  0.09575000  0.54788000  0.58679000  1.0 0.0474561516
C  C110  1  0.15474000  0.57737000  0.54040000  1.0 0.0063386798
C  C111  1  0.21313000  0.60657000  0.57812000  1.0 -0.2181912349
C  C112  1  0.26847000  0.63423000  0.54196000  1.0 0.0446775743
C  C113  1  0.60667000  0.21333000  0.90330000  1.0 0.6188522739
C  C114  1  0.58171000  0.16341000  0.83998000  1.0 -0.0432997942
C  C115  1  0.53263000  0.06525000  0.73569000  1.0 0.0724507285
C  C116  1  0.50440000  0.00880000  0.68351000  1.0 0.0063386798
C  C117  1  0.45212000  0.90425000  0.58679000  1.0 0.0474561516
C  C118  1  0.42263000  0.84526000  0.54040000  1.0 0.0063386798
C  C119  1  0.39343000  0.78687000  0.57812000  1.0 -0.2181912349
C  C120  1  0.36576000  0.73153000  0.54196000  1.0 0.0446775743
C  C121  1  0.33333333  0.66666667  0.42690000  1.0 -0.1290131198
C  C122  1  0.33333333  0.66666667  0.57310000  1.0 -0.1290131198
O  O1  1  0.57189000  0.33873000  0.07671000  1.0 -0.5659320192
O  O2  1  0.76684000  0.42811000  0.07671000  1.0 -0.5659320192
O  O3  1  0.66127000  0.23316000  0.07671000  1.0 -0.5659320192
O  O4  1  0.57189000  0.33873000  0.92329000  1.0 -0.5659320192
O  O5  1  0.76684000  0.42811000  0.92329000  1.0 -0.5659320192
O  O6  1  0.66127000  0.23316000  0.92329000  1.0 -0.5659320192
O  O7  1  0.76684000  0.33873000  0.07671000  1.0 -0.5659320192
O  O8  1  0.66127000  0.42811000  0.07671000  1.0 -0.5659320192
O  O9  1  0.57189000  0.23316000  0.07671000  1.0 -0.5659320192
O  O10  1  0.76684000  0.33873000  0.92329000  1.0 -0.5659320192
O  O11  1  0.66127000  0.42811000  0.92329000  1.0 -0.5659320192
O  O12  1  0.57189000  0.23316000  0.92329000  1.0 -0.5659320192
O  O13  1  0.66666667  0.33333333  0.00000000  1.0 -1.2396610813
