# DDEC6 charges by PACMAN v1.1 (https://github.com/mtap-research/PACMAN-charge/)
data_HUJSEL_ion_pacman
_symmetry_space_group_name_H-M   'P 1'
_cell_length_a   20.01920000
_cell_length_b   20.24970000
_cell_length_c   20.53700000
_cell_angle_alpha   59.76250000
_cell_angle_beta   67.53230000
_cell_angle_gamma   78.65900000
_symmetry_Int_Tables_number   1
_chemical_formula_structural   Na4Er6Cu30H140C52N26Cl27O220
_chemical_formula_sum   'Na4 Er6 Cu30 H140 C52 N26 Cl27 O220'
_cell_volume   6646.59604681
_cell_formula_units_Z   1
loop_
 _symmetry_equiv_pos_site_id
 _symmetry_equiv_pos_as_xyz
  1  'x, y, z'
loop_
 _atom_site_type_symbol
 _atom_site_label
 _atom_site_symmetry_multiplicity
 _atom_site_fract_x
 _atom_site_fract_y
 _atom_site_fract_z
 _atom_site_occupancy
 _atom_site_charge
Na  Na1  1  0.59840000  0.08710000  0.95590000  1.0 0.8407314888
Na  Na2  1  0.40160000  0.91290000  0.04410000  1.0 0.8407314888
Na  Na3  1  0.15260000  0.37650000  0.11980000  1.0 0.8002356759
Na  Na4  1  0.84740000  0.62350000  0.88020000  1.0 0.8002356759
Er  Er1  1  0.17813000  0.16359000  0.74407000  1.0 2.1503584257
Er  Er2  1  0.82187000  0.83641000  0.25593000  1.0 2.1503584257
Er  Er3  1  0.02459000  0.15136000  0.11583000  1.0 2.1503584257
Er  Er4  1  0.97541000  0.84864000  0.88417000  1.0 2.1503584257
Er  Er5  1  0.80599000  0.17041000  0.91445000  1.0 2.1503584257
Er  Er6  1  0.19401000  0.82959000  0.08555000  1.0 2.1503584257
Cu  Cu1  1  0.89048000  0.00563000  0.90509000  1.0 0.9852810374
Cu  Cu2  1  0.10952000  0.99437000  0.09491000  1.0 0.9852810374
Cu  Cu3  1  0.99063000  0.16138000  0.83142000  1.0 0.9817126712
Cu  Cu4  1  0.00937000  0.83862000  0.16858000  1.0 0.9817126712
Cu  Cu5  1  0.09812000  0.15730000  0.92836000  1.0 0.9978222719
Cu  Cu6  1  0.90188000  0.84270000  0.07164000  1.0 0.9978222719
Cu  Cu7  1  0.18117000  0.99878000  0.91638000  1.0 0.9817126712
Cu  Cu8  1  0.81883000  0.00122000  0.08362000  1.0 0.9817126712
Cu  Cu9  1  0.91843000  0.15597000  0.01263000  1.0 0.9817126712
Cu  Cu10  1  0.08157000  0.84403000  0.98737000  1.0 0.9817126712
Cu  Cu11  1  0.07312000  0.00569000  0.81907000  1.0 0.9817126712
Cu  Cu12  1  0.92688000  0.99431000  0.18093000  1.0 0.9817126712
Cu  Cu13  1  0.69984000  0.32773000  0.92667000  1.0 0.8805109879
Cu  Cu14  1  0.30016000  0.67227000  0.07333000  1.0 0.8805109879
Cu  Cu15  1  0.87320000  0.83207000  0.78692000  1.0 0.8885741702
Cu  Cu16  1  0.12680000  0.16793000  0.21308000  1.0 0.8885741702
Cu  Cu17  1  0.77123000  0.33637000  0.75240000  1.0 0.9279203883
Cu  Cu18  1  0.22877000  0.66363000  0.24760000  1.0 0.9279203883
Cu  Cu19  1  0.04493000  0.83023000  0.70732000  1.0 0.8707450053
Cu  Cu20  1  0.95507000  0.16977000  0.29268000  1.0 0.8707450053
Cu  Cu21  1  0.36469000  0.18132000  0.63438000  1.0 0.8805109879
Cu  Cu22  1  0.63531000  0.81868000  0.36562000  1.0 0.8805109879
Cu  Cu23  1  0.29307000  0.32134000  0.64859000  1.0 0.8707450053
Cu  Cu24  1  0.70693000  0.67866000  0.35141000  1.0 0.8707450053
Cu  Cu25  1  0.50000000  0.50000000  0.00000000  1.0 0.716098415
Cu  Cu26  1  0.15618000  0.73250000  0.49719000  1.0 0.7656317225
Cu  Cu27  1  0.84382000  0.26750000  0.50281000  1.0 0.7656317225
Cu  Cu28  1  0.59480000  0.76037000  0.93661000  1.0 0.7372365763
Cu  Cu29  1  0.40520000  0.23963000  0.06339000  1.0 0.7372365763
Cu  Cu30  1  0.50000000  0.00000000  0.50000000  1.0 0.716098415
H  H1  1  0.46400000  0.09250000  0.62700000  1.0 0.2889169684
H  H2  1  0.53600000  0.90750000  0.37300000  1.0 0.2889169684
H  H3  1  0.47560000  0.13250000  0.66410000  1.0 0.2985757282
H  H4  1  0.52440000  0.86750000  0.33590000  1.0 0.3074063034
H  H5  1  0.34100000  0.39760000  0.68220000  1.0 0.3074063034
H  H6  1  0.65900000  0.60240000  0.31780000  1.0 0.3074063034
H  H7  1  0.27870000  0.43860000  0.65870000  1.0 0.2889169684
H  H8  1  0.72130000  0.56140000  0.34130000  1.0 0.2889169684
H  H9  1  0.55940000  0.37340000  0.35610000  1.0 0.271694245
H  H10  1  0.44060000  0.62660000  0.64390000  1.0 0.271694245
H  H11  1  0.50950000  0.31030000  0.39760000  1.0 0.2615063211
H  H12  1  0.49050000  0.68970000  0.60240000  1.0 0.2615063211
H  H13  1  0.55300000  0.31540000  0.43760000  1.0 0.2547677627
H  H14  1  0.44700000  0.68460000  0.56240000  1.0 0.2547677627
H  H15  1  0.40250000  0.96990000  0.47880000  1.0 0.2889169684
H  H16  1  0.59750000  0.03010000  0.52120000  1.0 0.2889169684
H  H17  1  0.38960000  0.92990000  0.56450000  1.0 0.2889169684
H  H18  1  0.61040000  0.07010000  0.43550000  1.0 0.2889169684
H  H19  1  0.24600000  0.13080000  0.22520000  1.0 0.2889169684
H  H20  1  0.75400000  0.86920000  0.77480000  1.0 0.2889169684
H  H21  1  0.19410000  0.07810000  0.29920000  1.0 0.2615063211
H  H22  1  0.80590000  0.92190000  0.70080000  1.0 0.2615063211
H  H23  1  0.10860000  0.90780000  0.56550000  1.0 0.2786627071
H  H24  1  0.89140000  0.09220000  0.43450000  1.0 0.2786627071
H  H25  1  0.16240000  0.86140000  0.60230000  1.0 0.2786627071
H  H26  1  0.83760000  0.13860000  0.39770000  1.0 0.2786627071
H  H27  1  0.09470000  0.61010000  0.58790000  1.0 0.271694245
H  H28  1  0.90530000  0.38990000  0.41210000  1.0 0.271694245
H  H29  1  0.05160000  0.65940000  0.53730000  1.0 0.2985757282
H  H30  1  0.94840000  0.34060000  0.46270000  1.0 0.2985757282
H  H31  1  0.26010000  0.80810000  0.44590000  1.0 0.2786627071
H  H32  1  0.73990000  0.19190000  0.55410000  1.0 0.2786627071
H  H33  1  0.20280000  0.85990000  0.42030000  1.0 0.2786627071
H  H34  1  0.79720000  0.14010000  0.57970000  1.0 0.2786627071
H  H35  1  0.69720000  0.42530000  0.96270000  1.0 0.271694245
H  H36  1  0.30280000  0.57470000  0.03730000  1.0 0.271694245
H  H37  1  0.66460000  0.35690000  0.03610000  1.0 0.2985757282
H  H38  1  0.33540000  0.64310000  0.96390000  1.0 0.2985757282
H  H39  1  0.82940000  0.38570000  0.60900000  1.0 0.2786627071
H  H40  1  0.17060000  0.61430000  0.39100000  1.0 0.2786627071
H  H41  1  0.83540000  0.44390000  0.62830000  1.0 0.2786627071
H  H42  1  0.16460000  0.55610000  0.37170000  1.0 0.2786627071
H  H43  1  0.60030000  0.75860000  0.81710000  1.0 0.2889169684
H  H44  1  0.39970000  0.24140000  0.18290000  1.0 0.2889169684
H  H45  1  0.59070000  0.83790000  0.80140000  1.0 0.2786627071
H  H46  1  0.40930000  0.16210000  0.19860000  1.0 0.2786627071
H  H47  1  0.44670000  0.53580000  0.89820000  1.0 0.2889169684
H  H48  1  0.55330000  0.46420000  0.10180000  1.0 0.2889169684
H  H49  1  0.50690000  0.58730000  0.86230000  1.0 0.2889169684
H  H50  1  0.49310000  0.41270000  0.13770000  1.0 0.2889169684
H  H51  1  0.58880000  0.67920000  0.07540000  1.0 0.2889169684
H  H52  1  0.41120000  0.32080000  0.92460000  1.0 0.2889169684
H  H53  1  0.60420000  0.75670000  0.05320000  1.0 0.2889169684
H  H54  1  0.39580000  0.24330000  0.94680000  1.0 0.2889169684
H  H55  1  0.43900000  0.03830000  0.77590000  1.0 0.1396216031
H  H56  1  0.56100000  0.96170000  0.22410000  1.0 0.1396216031
H  H57  1  0.42080000  0.99810000  0.73660000  1.0 0.1396216031
H  H58  1  0.57920000  0.00190000  0.26340000  1.0 0.1396216031
H  H59  1  0.21640000  0.40140000  0.77900000  1.0 0.1396216031
H  H60  1  0.78360000  0.59860000  0.22100000  1.0 0.1396216031
H  H61  1  0.28050000  0.34910000  0.80400000  1.0 0.1304344816
H  H62  1  0.71950000  0.65090000  0.19600000  1.0 0.1304344816
H  H63  1  0.44560000  0.41700000  0.39620000  1.0 0.1304344816
H  H64  1  0.55440000  0.58300000  0.60380000  1.0 0.1304344816
H  H65  1  0.49260000  0.42250000  0.43950000  1.0 0.1304344816
H  H66  1  0.50740000  0.57750000  0.56050000  1.0 0.1304344816
H  H67  1  0.30710000  0.01070000  0.57190000  1.0 0.1304344816
H  H68  1  0.69290000  0.98930000  0.42810000  1.0 0.1304344816
H  H69  1  0.34020000  0.06620000  0.47990000  1.0 0.1304344816
H  H70  1  0.65980000  0.93380000  0.52010000  1.0 0.1304344816
H  H71  1  0.22410000  0.99600000  0.26200000  1.0 0.1396216031
H  H72  1  0.77590000  0.00400000  0.73800000  1.0 0.1396216031
H  H73  1  0.27240000  0.05370000  0.17830000  1.0 0.1559724382
H  H74  1  0.72760000  0.94630000  0.82170000  1.0 0.1559724382
H  H75  1  0.19320000  0.95610000  0.59610000  1.0 0.1396216031
H  H76  1  0.80680000  0.04390000  0.40390000  1.0 0.1396216031
H  H77  1  0.12770000  0.00210000  0.56880000  1.0 0.1396216031
H  H78  1  0.87230000  0.99790000  0.43120000  1.0 0.1396216031
H  H79  1  0.98140000  0.69070000  0.62370000  1.0 0.1304344816
H  H80  1  0.01860000  0.30930000  0.37630000  1.0 0.1304344816
H  H81  1  0.02210000  0.63000000  0.68170000  1.0 0.1495169422
H  H82  1  0.97790000  0.37000000  0.31830000  1.0 0.1495169422
H  H83  1  0.24260000  0.86570000  0.30730000  1.0 0.1304344816
H  H84  1  0.75740000  0.13430000  0.69270000  1.0 0.1304344816
H  H85  1  0.31030000  0.82040000  0.33030000  1.0 0.1396216031
H  H86  1  0.68970000  0.17960000  0.66970000  1.0 0.1396216031
H  H87  1  0.75920000  0.34440000  0.06150000  1.0 0.1396216031
H  H88  1  0.24080000  0.65560000  0.93850000  1.0 0.1396216031
H  H89  1  0.80030000  0.40060000  0.97200000  1.0 0.1396216031
H  H90  1  0.19970000  0.59940000  0.02800000  1.0 0.1396216031
H  H91  1  0.93970000  0.40940000  0.63320000  1.0 0.1495169422
H  H92  1  0.06030000  0.59060000  0.36680000  1.0 0.1495169422
H  H93  1  0.93800000  0.35670000  0.59840000  1.0 0.1495169422
H  H94  1  0.06200000  0.64330000  0.40160000  1.0 0.1495169422
H  H95  1  0.48080000  0.83410000  0.82300000  1.0 0.1396216031
H  H96  1  0.51920000  0.16590000  0.17700000  1.0 0.1396216031
H  H97  1  0.49110000  0.74850000  0.84070000  1.0 0.1304344816
H  H98  1  0.50890000  0.25150000  0.15930000  1.0 0.1304344816
H  H99  1  0.57270000  0.52600000  0.80500000  1.0 0.1396216031
H  H100  1  0.42730000  0.47400000  0.19500000  1.0 0.1396216031
H  H101  1  0.50850000  0.46920000  0.84550000  1.0 0.1396216031
H  H102  1  0.49150000  0.53080000  0.15450000  1.0 0.1396216031
H  H103  1  0.71070000  0.71460000  0.05210000  1.0 0.1396216031
H  H104  1  0.28930000  0.28540000  0.94790000  1.0 0.1396216031
H  H105  1  0.69930000  0.64690000  0.04090000  1.0 0.1396216031
H  H106  1  0.30070000  0.35310000  0.95910000  1.0 0.1396216031
H  H107  1  0.01170000  0.25320000  0.95680000  1.0 0.3690178142
H  H108  1  0.98830000  0.74680000  0.04320000  1.0 0.3690178142
H  H109  1  0.92570000  0.25530000  0.87650000  1.0 0.3760166338
H  H110  1  0.07430000  0.74470000  0.12350000  1.0 0.3760166338
H  H111  1  0.07220000  0.25420000  0.80610000  1.0 0.3690178142
H  H112  1  0.92780000  0.74580000  0.19390000  1.0 0.3690178142
H  H113  1  0.05560000  0.13690000  0.71560000  1.0 0.3690178142
H  H114  1  0.94440000  0.86310000  0.28440000  1.0 0.3690178142
H  H115  1  0.97170000  0.00860000  0.77870000  1.0 0.3690178142
H  H116  1  0.02830000  0.99140000  0.22130000  1.0 0.3690178142
H  H117  1  0.90210000  0.13460000  0.79130000  1.0 0.3690178142
H  H118  1  0.09790000  0.86540000  0.20870000  1.0 0.3690178142
H  H119  1  0.21170000  0.87290000  0.92370000  1.0 0.3690178142
H  H120  1  0.78830000  0.12710000  0.07630000  1.0 0.3690178142
H  H121  1  0.12480000  0.87720000  0.84540000  1.0 0.3690178142
H  H122  1  0.87520000  0.12280000  0.15460000  1.0 0.3690178142
H  H123  1  0.20380000  0.00470000  0.78700000  1.0 0.3690178142
H  H124  1  0.79620000  0.99530000  0.21300000  1.0 0.3690178142
H  H125  1  0.23670000  0.98920000  0.01040000  1.0 0.3690178142
H  H126  1  0.76330000  0.01080000  0.98960000  1.0 0.3690178142
H  H127  1  0.22400000  0.12390000  0.87500000  1.0 0.3690178142
H  H128  1  0.77600000  0.87610000  0.12500000  1.0 0.3690178142
H  H129  1  0.16470000  0.12180000  0.02030000  1.0 0.3690178142
H  H130  1  0.83530000  0.87820000  0.97970000  1.0 0.3690178142
H  H131  1  0.26710000  0.26160000  0.58100000  1.0 0.4015080205
H  H132  1  0.73290000  0.73840000  0.41900000  1.0 0.4015080205
H  H133  1  0.96390000  0.73590000  0.83960000  1.0 0.3870921975
H  H134  1  0.03610000  0.26410000  0.16040000  1.0 0.3870921975
H  H135  1  0.67660000  0.24890000  0.87470000  1.0 0.3690178142
H  H136  1  0.32340000  0.75110000  0.12530000  1.0 0.3690178142
H  H137  1  0.83500000  0.77260000  0.72510000  1.0 0.4082349113
H  H138  1  0.16500000  0.22740000  0.27490000  1.0 0.4082349113
H  H139  1  0.91900000  0.75930000  0.70900000  1.0 0.3870921975
H  H140  1  0.08100000  0.24070000  0.29100000  1.0 0.3870921975
C  C1  1  0.33333333  0.05110000  0.78310000  1.0 0.6313584319
C  C2  1  0.66666667  0.94890000  0.21690000  1.0 0.6313584319
C  C3  1  0.41280000  0.04400000  0.74220000  1.0 -0.1806661466
C  C4  1  0.58720000  0.95600000  0.25780000  1.0 -0.1806661466
C  C5  1  0.20790000  0.29240000  0.80290000  1.0 0.6228993481
C  C6  1  0.79210000  0.70760000  0.19710000  1.0 0.6228993481
C  C7  1  0.24990000  0.36190000  0.77220000  1.0 -0.1983923638
C  C8  1  0.75010000  0.63810000  0.22780000  1.0 -0.1983923638
C  C9  1  0.41910000  0.33480000  0.51440000  1.0 0.597138839
C  C10  1  0.58090000  0.66520000  0.48560000  1.0 0.597138839
C  C11  1  0.47140000  0.38730000  0.43390000  1.0 -0.1806661466
C  C12  1  0.52860000  0.61270000  0.56610000  1.0 -0.1806661466
C  C13  1  0.38390000  0.08280000  0.54720000  1.0 0.597138839
C  C14  1  0.61610000  0.91720000  0.45280000  1.0 0.597138839
C  C15  1  0.35160000  0.03400000  0.52880000  1.0 -0.1902750114
C  C16  1  0.64840000  0.96600000  0.47120000  1.0 -0.1902750114
C  C17  1  0.17150000  0.04510000  0.18130000  1.0 0.6228993481
C  C18  1  0.82850000  0.95490000  0.81870000  1.0 0.6228993481
C  C19  1  0.22470000  0.04550000  0.21700000  1.0 -0.1806661466
C  C20  1  0.77530000  0.95450000  0.78300000  1.0 -0.1806661466
C  C21  1  0.10390000  0.95330000  0.69040000  1.0 0.6228993481
C  C22  1  0.89610000  0.04670000  0.30960000  1.0 0.6228993481
C  C23  1  0.14130000  0.95540000  0.60930000  1.0 -0.1806661466
C  C24  1  0.85870000  0.04460000  0.39070000  1.0 -0.1806661466
C  C25  1  0.05910000  0.73920000  0.62890000  1.0 0.580570973
C  C26  1  0.94090000  0.26080000  0.37110000  1.0 0.580570973
C  C27  1  0.02850000  0.67540000  0.63030000  1.0 -0.2084541971
C  C28  1  0.97150000  0.32460000  0.36970000  1.0 -0.2084541971
C  C29  1  0.23610000  0.74990000  0.34800000  1.0 0.5924171975
C  C30  1  0.76390000  0.25010000  0.65200000  1.0 0.5924171975
C  C31  1  0.25810000  0.81910000  0.34630000  1.0 -0.1983923638
C  C32  1  0.74190000  0.18090000  0.65370000  1.0 -0.1983923638
C  C33  1  0.80780000  0.28930000  0.99420000  1.0 0.6313584319
C  C34  1  0.19220000  0.71070000  0.00580000  1.0 0.6313584319
C  C35  1  0.76920000  0.35630000  0.00660000  1.0 -0.1806661466
C  C36  1  0.23080000  0.64370000  0.99340000  1.0 -0.1806661466
C  C37  1  0.91680000  0.29880000  0.71880000  1.0 0.6228993481
C  C38  1  0.08320000  0.70120000  0.28120000  1.0 0.6228993481
C  C39  1  0.91370000  0.36810000  0.64250000  1.0 -0.1983923638
C  C40  1  0.08630000  0.63190000  0.35750000  1.0 -0.1983923638
C  C41  1  0.45670000  0.75930000  0.94230000  1.0 0.580570973
C  C42  1  0.54330000  0.24070000  0.05770000  1.0 0.580570973
C  C43  1  0.49860000  0.78460000  0.85510000  1.0 -0.1902750114
C  C44  1  0.50140000  0.21540000  0.14490000  1.0 -0.1902750114
C  C45  1  0.57790000  0.43230000  0.90820000  1.0 0.580570973
C  C46  1  0.42210000  0.56770000  0.09180000  1.0 0.580570973
C  C47  1  0.53820000  0.49290000  0.85580000  1.0 -0.1983923638
C  C48  1  0.46180000  0.50710000  0.14420000  1.0 -0.1983923638
C  C49  1  0.73430000  0.74390000  0.93520000  1.0 0.5924171975
C  C50  1  0.26570000  0.25610000  0.06480000  1.0 0.5924171975
C  C51  1  0.69280000  0.70140000  0.02240000  1.0 -0.2084541971
C  C52  1  0.30720000  0.29860000  0.97760000  1.0 -0.2084541971
N  N1  1  0.44230000  0.10890000  0.66360000  1.0 -0.4683033729
N  N2  1  0.55770000  0.89110000  0.33640000  1.0 -0.4683033729
N  N3  1  0.29520000  0.39230000  0.68770000  1.0 -0.4904728288
N  N4  1  0.70480000  0.60770000  0.31230000  1.0 -0.4904728288
N  N5  1  0.52910000  0.34210000  0.40330000  1.0 -0.4190945323
N  N6  1  0.47090000  0.65790000  0.59670000  1.0 -0.4190945323
N  N7  1  0.40290000  0.97490000  0.51980000  1.0 -0.4998319814
N  N8  1  0.59710000  0.02510000  0.48020000  1.0 -0.4998319814
N  N9  1  0.20690000  0.10200000  0.24560000  1.0 -0.4998319814
N  N10  1  0.79310000  0.89800000  0.75440000  1.0 -0.4998319814
N  N11  1  0.12310000  0.89110000  0.60780000  1.0 -0.4797908866
N  N12  1  0.87690000  0.10890000  0.39220000  1.0 -0.4797908866
N  N13  1  0.07650000  0.65760000  0.56650000  1.0 -0.4904728288
N  N14  1  0.92350000  0.34240000  0.43350000  1.0 -0.4904728288
N  N15  1  0.22530000  0.81520000  0.42530000  1.0 -0.4904728288
N  N16  1  0.77470000  0.18480000  0.57470000  1.0 -0.4904728288
N  N17  1  0.70200000  0.37430000  0.98990000  1.0 -0.4797908866
N  N18  1  0.29800000  0.62570000  0.01010000  1.0 -0.4797908866
N  N19  1  0.83960000  0.39370000  0.64350000  1.0 -0.4797908866
N  N20  1  0.16040000  0.60630000  0.35650000  1.0 -0.4797908866
N  N21  1  0.57560000  0.78980000  0.83780000  1.0 -0.4998319814
N  N22  1  0.42440000  0.21020000  0.16220000  1.0 -0.4998319814
N  N23  1  0.49300000  0.53810000  0.89330000  1.0 -0.4904728288
N  N24  1  0.50700000  0.46190000  0.10670000  1.0 -0.4904728288
N  N25  1  0.61560000  0.72100000  0.03680000  1.0 -0.4904728288
N  N26  1  0.38440000  0.27900000  0.96320000  1.0 -0.4904728288
Cl  Cl1  1  0.00000000  0.00000000  0.00000000  1.0 0.7894068828
Cl  Cl2  1  0.67426000  0.88433000  0.05135000  1.0 1.2707239261
Cl  Cl3  1  0.32574000  0.11567000  0.94865000  1.0 1.2707239261
Cl  Cl4  1  0.33070000  0.41340000  0.07650000  1.0 1.1532245746
Cl  Cl5  1  0.66930000  0.58660000  0.92350000  1.0 1.1532245746
Cl  Cl6  1  0.46330000  0.05000000  0.10390000  1.0 1.2219509354
Cl  Cl7  1  0.53670000  0.95000000  0.89610000  1.0 1.2219509354
Cl  Cl8  1  0.65630000  0.99770000  0.65180000  1.0 1.1941277257
Cl  Cl9  1  0.34370000  0.00230000  0.34820000  1.0 1.1941277257
Cl  Cl10  1  0.81820000  0.52010000  0.43450000  1.0 1.2311668466
Cl  Cl11  1  0.18180000  0.47990000  0.56550000  1.0 1.2311668466
Cl  Cl12  1  0.40960000  0.62220000  0.44710000  1.0 1.2311668466
Cl  Cl13  1  0.59040000  0.37780000  0.55290000  1.0 1.2311668466
Cl  Cl14  1  0.90100000  0.60120000  0.57340000  1.0 1.1658141485
Cl  Cl15  1  0.09900000  0.39880000  0.42660000  1.0 1.1658141485
Cl  Cl16  1  0.58630000  0.72270000  0.68050000  1.0 1.213968443
Cl  Cl17  1  0.41370000  0.27730000  0.31950000  1.0 1.213968443
Cl  Cl18  1  0.31800000  0.78660000  0.59010000  1.0 1.213968443
Cl  Cl19  1  0.68200000  0.21340000  0.40990000  1.0 1.213968443
Cl  Cl20  1  0.44920000  0.41490000  0.75350000  1.0 1.2311668466
Cl  Cl21  1  0.55080000  0.58510000  0.24650000  1.0 1.2311668466
Cl  Cl22  1  0.04280000  0.86019000  0.36384000  1.0 1.2645839325
Cl  Cl23  1  0.95720000  0.13981000  0.63616000  1.0 1.2645839325
Cl  Cl24  1  0.99956000  0.60805000  0.18649000  1.0 1.253223317
Cl  Cl25  1  0.00044000  0.39195000  0.81351000  1.0 1.253223317
Cl  Cl26  1  0.71950000  0.12758000  0.22824000  1.0 1.253223317
Cl  Cl27  1  0.28050000  0.87242000  0.77176000  1.0 1.253223317
O  O1  1  0.01240000  0.19720000  0.98550000  1.0 -0.8892229626
O  O2  1  0.98760000  0.80280000  0.01450000  1.0 -0.8892229626
O  O3  1  0.92100000  0.19970000  0.90250000  1.0 -0.9167027006
O  O4  1  0.07900000  0.80030000  0.09750000  1.0 -0.9167027006
O  O5  1  0.07490000  0.19830000  0.83010000  1.0 -0.8983328172
O  O6  1  0.92510000  0.80170000  0.16990000  1.0 -0.8983328172
O  O7  1  0.06320000  0.11810000  0.76650000  1.0 -0.8892229626
O  O8  1  0.93680000  0.88190000  0.23350000  1.0 -0.8892229626
O  O9  1  0.97700000  0.98380000  0.83160000  1.0 -0.908611981
O  O10  1  0.02300000  0.01620000  0.16840000  1.0 -0.908611981
O  O11  1  0.90490000  0.11640000  0.84430000  1.0 -0.8892229626
O  O12  1  0.09510000  0.88360000  0.15570000  1.0 -0.8892229626
O  O13  1  0.17330000  0.88910000  0.95990000  1.0 -0.8892229626
O  O14  1  0.82670000  0.11090000  0.04010000  1.0 -0.8892229626
O  O15  1  0.08190000  0.89380000  0.87740000  1.0 -0.8983328172
O  O16  1  0.91810000  0.10620000  0.12260000  1.0 -0.8983328172
O  O17  1  0.16480000  0.02700000  0.81680000  1.0 -0.8983328172
O  O18  1  0.83520000  0.97300000  0.18320000  1.0 -0.8983328172
O  O19  1  0.19150000  0.96920000  0.01920000  1.0 -0.8803043196
O  O20  1  0.80850000  0.03080000  0.98080000  1.0 -0.8803043196
O  O21  1  0.17910000  0.10910000  0.87720000  1.0 -0.9167027006
O  O22  1  0.82090000  0.89090000  0.12280000  1.0 -0.9167027006
O  O23  1  0.11730000  0.10600000  0.02960000  1.0 -0.8983328172
O  O24  1  0.88270000  0.89400000  0.97040000  1.0 -0.8983328172
O  O25  1  0.27550000  0.24140000  0.63180000  1.0 -0.908611981
O  O26  1  0.72450000  0.75860000  0.36820000  1.0 -0.908611981
O  O27  1  0.96400000  0.79190000  0.80960000  1.0 -0.8983328172
O  O28  1  0.03600000  0.20810000  0.19040000  1.0 -0.8983328172
O  O29  1  0.72080000  0.27030000  0.86650000  1.0 -0.8665164837
O  O30  1  0.27920000  0.72970000  0.13350000  1.0 -0.8665164837
O  O31  1  0.20210000  0.12570000  0.64520000  1.0 -0.4392043629
O  O32  1  0.79790000  0.87430000  0.35480000  1.0 -0.4392043629
O  O33  1  0.12530000  0.27050000  0.65580000  1.0 -0.3908738138
O  O34  1  0.87470000  0.72950000  0.34420000  1.0 -0.3908738138
O  O35  1  0.94100000  0.25480000  0.10060000  1.0 -0.4190945323
O  O36  1  0.05900000  0.74520000  0.89940000  1.0 -0.4190945323
O  O37  1  0.10740000  0.25460000  0.02310000  1.0 -0.459563761
O  O38  1  0.89260000  0.74540000  0.97690000  1.0 -0.4483205662
O  O39  1  0.68930000  0.12870000  0.01280000  1.0 -0.4904728288
O  O40  1  0.31070000  0.87130000  0.98720000  1.0 -0.4904728288
O  O41  1  0.75360000  0.13390000  0.85020000  1.0 -0.4998319814
O  O42  1  0.24640000  0.86610000  0.14980000  1.0 -0.4998319814
O  O43  1  0.68220000  0.39630000  0.73490000  1.0 -0.2084541971
O  O44  1  0.31780000  0.60370000  0.26510000  1.0 -0.2084541971
O  O45  1  0.87270000  0.75930000  0.74850000  1.0 -0.7308378348
O  O46  1  0.12730000  0.24070000  0.25150000  1.0 -0.7308378348
O  O47  1  0.23220000  0.64590000  0.57190000  1.0 0.0521908461
O  O48  1  0.76780000  0.35410000  0.42810000  1.0 0.0555812216
O  O49  1  0.98800000  0.08300000  0.96900000  1.0 -0.1556640545
O  O50  1  0.01200000  0.91700000  0.03100000  1.0 -0.1545766124
O  O51  1  0.05800000  0.98780000  0.93800000  1.0 -0.102333037
O  O52  1  0.94200000  0.01220000  0.06200000  1.0 -0.102333037
O  O53  1  0.30290000  0.00170000  0.85180000  1.0 -0.4797908866
O  O54  1  0.69710000  0.99830000  0.14820000  1.0 -0.4797908866
O  O55  1  0.30070000  0.10890000  0.74140000  1.0 -0.6491706499
O  O56  1  0.69930000  0.89110000  0.25860000  1.0 -0.6491706499
O  O57  1  0.21880000  0.26660000  0.75380000  1.0 -0.6423127779
O  O58  1  0.78120000  0.73340000  0.24620000  1.0 -0.6423127779
O  O59  1  0.16730000  0.26230000  0.87280000  1.0 -0.4797908866
O  O60  1  0.83270000  0.73770000  0.12720000  1.0 -0.4797908866
O  O61  1  0.37160000  0.36850000  0.54740000  1.0 -0.4998319814
O  O62  1  0.62840000  0.63150000  0.45260000  1.0 -0.4998319814
O  O63  1  0.42790000  0.26410000  0.53940000  1.0 -0.5192620684
O  O64  1  0.57210000  0.73590000  0.46060000  1.0 -0.5192620684
O  O65  1  0.34430000  0.12790000  0.56950000  1.0 -0.4683033729
O  O66  1  0.65570000  0.87210000  0.43050000  1.0 -0.4683033729
O  O67  1  0.45010000  0.07490000  0.53630000  1.0 -0.4998319814
O  O68  1  0.54990000  0.92510000  0.46370000  1.0 -0.5098021925
O  O69  1  0.12280000  0.09850000  0.17280000  1.0 -0.6584098169
O  O70  1  0.87720000  0.90150000  0.82720000  1.0 -0.6584098169
O  O71  1  0.17840000  0.99680000  0.15990000  1.0 -0.459563761
O  O72  1  0.82160000  0.00320000  0.84010000  1.0 -0.459563761
O  O73  1  0.05810000  0.89880000  0.74370000  1.0 -0.6584098169
O  O74  1  0.94190000  0.10120000  0.25630000  1.0 -0.6584098169
O  O75  1  0.11920000  0.00200000  0.70140000  1.0 -0.4904728288
O  O76  1  0.88080000  0.99800000  0.29860000  1.0 -0.4904728288
O  O77  1  0.11470000  0.76980000  0.57640000  1.0 -0.4683033729
O  O78  1  0.88530000  0.23020000  0.42360000  1.0 -0.4683033729
O  O79  1  0.02220000  0.75640000  0.68350000  1.0 -0.5192620684
O  O80  1  0.97780000  0.24360000  0.31650000  1.0 -0.5192620684
O  O81  1  0.26230000  0.74440000  0.28510000  1.0 -0.459563761
O  O82  1  0.73770000  0.25560000  0.71490000  1.0 -0.459563761
O  O83  1  0.19270000  0.70420000  0.41150000  1.0 -0.4904728288
O  O84  1  0.80730000  0.29580000  0.58850000  1.0 -0.4904728288
O  O85  1  0.78320000  0.26720000  0.95900000  1.0 -0.6491706499
O  O86  1  0.21680000  0.73280000  0.04100000  1.0 -0.6491706499
O  O87  1  0.86000000  0.26030000  0.01730000  1.0 -0.4998319814
O  O88  1  0.14000000  0.73970000  0.98270000  1.0 -0.4998319814
O  O89  1  0.85590000  0.27440000  0.77710000  1.0 -0.6737957427
O  O90  1  0.14410000  0.72560000  0.22290000  1.0 -0.6737957427
O  O91  1  0.97590000  0.26850000  0.72330000  1.0 -0.459563761
O  O92  1  0.02410000  0.73150000  0.27670000  1.0 -0.459563761
O  O93  1  0.38970000  0.75950000  0.96250000  1.0 -0.4683033729
O  O94  1  0.61030000  0.24050000  0.03750000  1.0 -0.4683033729
O  O95  1  0.49160000  0.74070000  0.98880000  1.0 -0.4392043629
O  O96  1  0.50840000  0.25930000  0.01120000  1.0 -0.4392043629
O  O97  1  0.62670000  0.39550000  0.87860000  1.0 -0.459563761
O  O98  1  0.37330000  0.60450000  0.12140000  1.0 -0.459563761
O  O99  1  0.56270000  0.42140000  0.97790000  1.0 -0.5098021925
O  O100  1  0.43730000  0.57860000  0.02210000  1.0 -0.5098021925
O  O101  1  0.69830000  0.77850000  0.88720000  1.0 -0.5098021925
O  O102  1  0.30170000  0.22150000  0.11280000  1.0 -0.5098021925
O  O103  1  0.80140000  0.74450000  0.91180000  1.0 -0.5098021925
O  O104  1  0.19860000  0.25550000  0.08820000  1.0 -0.5098021925
O  O105  1  0.60550000  0.85910000  0.06720000  1.0 -0.4316908675
O  O106  1  0.39450000  0.14090000  0.93280000  1.0 -0.4316908675
O  O107  1  0.67600000  0.96650000  0.01420000  1.0 -0.4683033729
O  O108  1  0.32400000  0.03350000  0.98580000  1.0 -0.4683033729
O  O109  1  0.73160000  0.85760000  0.00050000  1.0 -0.4483205662
O  O110  1  0.26840000  0.14240000  0.99950000  1.0 -0.4483205662
O  O111  1  0.68950000  0.85380000  0.12450000  1.0 -0.4483205662
O  O112  1  0.31050000  0.14620000  0.87550000  1.0 -0.4483205662
O  O113  1  0.39290000  0.38590000  0.05500000  1.0 -0.4004456857
O  O114  1  0.60710000  0.61410000  0.94500000  1.0 -0.4004456857
O  O115  1  0.33000000  0.45660000  0.11210000  1.0 -0.3908738138
O  O116  1  0.67000000  0.54340000  0.88790000  1.0 -0.3908738138
O  O117  1  0.30490000  0.46600000  0.01700000  1.0 -0.4099463867
O  O118  1  0.69510000  0.53400000  0.98300000  1.0 -0.4099463867
O  O119  1  0.28100000  0.35820000  0.12700000  1.0 -0.4190945323
O  O120  1  0.71900000  0.64180000  0.87300000  1.0 -0.4190945323
O  O121  1  0.42040000  0.10660000  0.08900000  1.0 -0.3538283387
O  O122  1  0.57960000  0.89340000  0.91100000  1.0 -0.3538283387
O  O123  1  0.52380000  0.07000000  0.11160000  1.0 -0.4099463867
O  O124  1  0.47620000  0.93000000  0.88840000  1.0 -0.4099463867
O  O125  1  0.50370000  0.04680000  0.02430000  1.0 -0.5284875759
O  O126  1  0.49630000  0.95320000  0.97570000  1.0 -0.5284875759
O  O127  1  0.43400000  0.97570000  0.15490000  1.0 -0.4004456857
O  O128  1  0.56600000  0.02430000  0.84510000  1.0 -0.4004456857
O  O129  1  0.86360000  0.26110000  0.23800000  1.0 0.0521908461
O  O130  1  0.13640000  0.73890000  0.76200000  1.0 0.0521908461
O  O131  1  0.58840000  0.23190000  0.88270000  1.0 -0.1983923638
O  O132  1  0.41160000  0.76810000  0.11730000  1.0 -0.1983923638
O  O133  1  0.03160000  0.36410000  0.12210000  1.0 -0.4998319814
O  O134  1  0.96840000  0.63590000  0.87790000  1.0 -0.4998319814
O  O135  1  0.13120000  0.44020000  0.18360000  1.0 -0.4797908866
O  O136  1  0.86880000  0.55980000  0.81640000  1.0 -0.4797908866
O  O137  1  0.07000000  0.03500000  0.98100000  1.0 -0.1806661466
O  O138  1  0.93000000  0.96500000  0.01900000  1.0 -0.1806661466
O  O139  1  0.01200000  0.97130000  0.07470000  1.0 -0.1311203891
O  O140  1  0.98800000  0.02870000  0.92530000  1.0 -0.1311203891
O  O141  1  0.70780000  0.03540000  0.64110000  1.0 -0.3908738138
O  O142  1  0.61520000  0.97990000  0.74650000  1.0 -0.4316908675
O  O143  1  0.66920000  0.91760000  0.67920000  1.0 -0.4683033729
O  O144  1  0.59800000  0.02280000  0.62820000  1.0 -0.4316908675
O  O145  1  0.29220000  0.96460000  0.35890000  1.0 -0.3908738138
O  O146  1  0.38480000  0.02010000  0.25350000  1.0 -0.4316908675
O  O147  1  0.33080000  0.08240000  0.32080000  1.0 -0.4683033729
O  O148  1  0.40200000  0.97720000  0.37180000  1.0 -0.4316908675
O  O149  1  0.79810000  0.59510000  0.41530000  1.0 -0.4099463867
O  O150  1  0.88650000  0.50040000  0.44150000  1.0 -0.4190945323
O  O151  1  0.82100000  0.50300000  0.37200000  1.0 -0.4483205662
O  O152  1  0.76720000  0.46900000  0.50500000  1.0 -0.4099463867
O  O153  1  0.20190000  0.40490000  0.58470000  1.0 -0.4099463867
O  O154  1  0.11350000  0.49960000  0.55850000  1.0 -0.4190945323
O  O155  1  0.17900000  0.49700000  0.62800000  1.0 -0.4483205662
O  O156  1  0.23280000  0.53100000  0.49500000  1.0 -0.4190945323
O  O157  1  0.36990000  0.65360000  0.39700000  1.0 -0.4004456857
O  O158  1  0.48520000  0.64220000  0.39980000  1.0 -0.4483205662
O  O159  1  0.39150000  0.65190000  0.50160000  1.0 -0.4483205662
O  O160  1  0.41020000  0.53890000  0.49380000  1.0 -0.4483205662
O  O161  1  0.63010000  0.34640000  0.60300000  1.0 -0.4004456857
O  O162  1  0.51480000  0.35780000  0.60020000  1.0 -0.4483205662
O  O163  1  0.60850000  0.34810000  0.49840000  1.0 -0.4483205662
O  O164  1  0.58980000  0.46110000  0.50620000  1.0 -0.4483205662
O  O165  1  0.95220000  0.65280000  0.51310000  1.0 -0.4004456857
O  O166  1  0.92590000  0.54980000  0.63140000  1.0 -0.3640039989
O  O167  1  0.85170000  0.57190000  0.56990000  1.0 -0.3685859868
O  O168  1  0.85950000  0.65300000  0.61000000  1.0 -0.3685859868
O  O169  1  0.04780000  0.34720000  0.48690000  1.0 -0.4004456857
O  O170  1  0.07410000  0.45020000  0.36860000  1.0 -0.3640039989
O  O171  1  0.14830000  0.42810000  0.43010000  1.0 -0.3685859868
O  O172  1  0.14050000  0.34700000  0.39000000  1.0 -0.3685859868
O  O173  1  0.58350000  0.68560000  0.75880000  1.0 -0.4483205662
O  O174  1  0.58660000  0.66910000  0.65640000  1.0 -0.4392043629
O  O175  1  0.64160000  0.77240000  0.63020000  1.0 -0.4099463867
O  O176  1  0.51660000  0.76200000  0.68020000  1.0 -0.4683033729
O  O177  1  0.41650000  0.31440000  0.24120000  1.0 -0.4483205662
O  O178  1  0.41340000  0.33090000  0.34360000  1.0 -0.4392043629
O  O179  1  0.35840000  0.22760000  0.36980000  1.0 -0.4099463867
O  O180  1  0.48340000  0.23800000  0.31980000  1.0 -0.4683033729
O  O181  1  0.38990000  0.80150000  0.57390000  1.0 -0.4483205662
O  O182  1  0.27320000  0.84370000  0.60070000  1.0 -0.4392043629
O  O183  1  0.30410000  0.78630000  0.52760000  1.0 -0.4483205662
O  O184  1  0.29500000  0.71720000  0.66000000  1.0 -0.4004456857
O  O185  1  0.61010000  0.19850000  0.42610000  1.0 -0.4483205662
O  O186  1  0.72680000  0.15630000  0.39930000  1.0 -0.4392043629
O  O187  1  0.69590000  0.21370000  0.47240000  1.0 -0.4483205662
O  O188  1  0.70500000  0.28280000  0.34000000  1.0 -0.4004456857
O  O189  1  0.41000000  0.43270000  0.82150000  1.0 -0.5192620684
O  O190  1  0.51980000  0.41750000  0.73810000  1.0 -0.3685859868
O  O191  1  0.43950000  0.33420000  0.77730000  1.0 -0.4683033729
O  O192  1  0.42240000  0.46380000  0.68950000  1.0 -0.459563761
O  O193  1  0.59000000  0.56730000  0.17850000  1.0 -0.5192620684
O  O194  1  0.48020000  0.58250000  0.26190000  1.0 -0.3685859868
O  O195  1  0.56050000  0.66580000  0.22270000  1.0 -0.4683033729
O  O196  1  0.57760000  0.53620000  0.31050000  1.0 -0.459563761
O  O197  1  0.04690000  0.82300000  0.43950000  1.0 -0.4483205662
O  O198  1  0.09790000  0.83540000  0.31110000  1.0 -0.4392043629
O  O199  1  0.03440000  0.93940000  0.32750000  1.0 -0.4316908675
O  O200  1  0.96910000  0.83400000  0.37490000  1.0 -0.4316908675
O  O201  1  0.95310000  0.17700000  0.56050000  1.0 -0.4483205662
O  O202  1  0.90210000  0.16460000  0.68890000  1.0 -0.4392043629
O  O203  1  0.96560000  0.06060000  0.67250000  1.0 -0.4316908675
O  O204  1  0.03090000  0.16600000  0.62510000  1.0 -0.4316908675
O  O205  1  0.99640000  0.52730000  0.22410000  1.0 -0.3685859868
O  O206  1  0.06630000  0.63360000  0.17790000  1.0 -0.4483205662
O  O207  1  0.94020000  0.63950000  0.23130000  1.0 -0.4392043629
O  O208  1  0.99190000  0.64070000  0.10860000  1.0 -0.3908738138
O  O209  1  0.00360000  0.47270000  0.77590000  1.0 -0.3685859868
O  O210  1  0.93370000  0.36640000  0.82210000  1.0 -0.4483205662
O  O211  1  0.05980000  0.36050000  0.76870000  1.0 -0.4392043629
O  O212  1  0.00810000  0.35930000  0.89140000  1.0 -0.3908738138
O  O213  1  0.72140000  0.04450000  0.26670000  1.0 -0.459563761
O  O214  1  0.66100000  0.15300000  0.27460000  1.0 -0.4099463867
O  O215  1  0.78660000  0.15280000  0.21750000  1.0 -0.4316908675
O  O216  1  0.71620000  0.15600000  0.14880000  1.0 -0.4316908675
O  O217  1  0.27860000  0.95550000  0.73330000  1.0 -0.459563761
O  O218  1  0.33900000  0.84700000  0.72540000  1.0 -0.4099463867
O  O219  1  0.21340000  0.84720000  0.78250000  1.0 -0.4316908675
O  O220  1  0.28380000  0.84400000  0.85120000  1.0 -0.4316908675
