# DDEC6 charges by PACMAN v1.1 (https://github.com/mtap-research/PACMAN-charge/)
data_HUJVOX_ASR_pacman
_symmetry_space_group_name_H-M   'P 1'
_cell_length_a   9.03200000
_cell_length_b   9.03200000
_cell_length_c   31.32200000
_cell_angle_alpha   90.00000000
_cell_angle_beta   90.00000000
_cell_angle_gamma   90.00000000
_symmetry_Int_Tables_number   1
_chemical_formula_structural   CuH12(C3N2)4
_chemical_formula_sum   'Cu4 H48 C48 N32'
_cell_volume   2555.15554573
_cell_formula_units_Z   4
loop_
 _symmetry_equiv_pos_site_id
 _symmetry_equiv_pos_as_xyz
  1  'x, y, z'
loop_
 _atom_site_type_symbol
 _atom_site_label
 _atom_site_symmetry_multiplicity
 _atom_site_fract_x
 _atom_site_fract_y
 _atom_site_fract_z
 _atom_site_occupancy
 _atom_site_charge
Cu  Cu1  1  0.73262000  0.73262000  0.00000000  1.0 0.1984600053
Cu  Cu2  1  0.76738000  0.23262000  0.75000000  1.0 0.1984600053
Cu  Cu3  1  0.26738000  0.26738000  0.50000000  1.0 0.1984600053
Cu  Cu4  1  0.23262000  0.76738000  0.25000000  1.0 0.1984600053
H  H1  1  0.56000000  0.77800000  0.09030000  1.0 0.1105826377
H  H2  1  0.72200000  0.06000000  0.84030000  1.0 0.1105826377
H  H3  1  0.44000000  0.22200000  0.59030000  1.0 0.1105826377
H  H4  1  0.27800000  0.94000000  0.34030000  1.0 0.1105826377
H  H5  1  0.94000000  0.27800000  0.65970000  1.0 0.1105826377
H  H6  1  0.77800000  0.56000000  0.90970000  1.0 0.1105826377
H  H7  1  0.06000000  0.72200000  0.15970000  1.0 0.1105826377
H  H8  1  0.22200000  0.44000000  0.40970000  1.0 0.1105826377
H  H9  1  0.63400000  0.42100000  0.02340000  1.0 0.2555565276
H  H10  1  0.07900000  0.13400000  0.77340000  1.0 0.2555565276
H  H11  1  0.36600000  0.57900000  0.52340000  1.0 0.2555565276
H  H12  1  0.92100000  0.86600000  0.27340000  1.0 0.2555565276
H  H13  1  0.86600000  0.92100000  0.72660000  1.0 0.2555565276
H  H14  1  0.42100000  0.63400000  0.97660000  1.0 0.2555565276
H  H15  1  0.13400000  0.07900000  0.22660000  1.0 0.2555565276
H  H16  1  0.57900000  0.36600000  0.47660000  1.0 0.2555565276
H  H17  1  0.52300000  0.33700000  0.08290000  1.0 0.1105826377
H  H18  1  0.16300000  0.02300000  0.83290000  1.0 0.1105826377
H  H19  1  0.47700000  0.66300000  0.58290000  1.0 0.1105826377
H  H20  1  0.83700000  0.97700000  0.33290000  1.0 0.1105826377
H  H21  1  0.97700000  0.83700000  0.66710000  1.0 0.1105826377
H  H22  1  0.33700000  0.52300000  0.91710000  1.0 0.1105826377
H  H23  1  0.02300000  0.16300000  0.16710000  1.0 0.1105826377
H  H24  1  0.66300000  0.47700000  0.41710000  1.0 0.1105826377
H  H25  1  0.37200000  0.34100000  0.16350000  1.0 0.1105826377
H  H26  1  0.15900000  0.87200000  0.91350000  1.0 0.1105826377
H  H27  1  0.62800000  0.65900000  0.66350000  1.0 0.1105826377
H  H28  1  0.84100000  0.12800000  0.41350000  1.0 0.1105826377
H  H29  1  0.12800000  0.84100000  0.58650000  1.0 0.1105826377
H  H30  1  0.34100000  0.37200000  0.83650000  1.0 0.1105826377
H  H31  1  0.87200000  0.15900000  0.08650000  1.0 0.1105826377
H  H32  1  0.65900000  0.62800000  0.33650000  1.0 0.1105826377
H  H33  1  0.28900000  0.44800000  0.22560000  1.0 0.2486704291
H  H34  1  0.05200000  0.78900000  0.97560000  1.0 0.2486704291
H  H35  1  0.71100000  0.55200000  0.72560000  1.0 0.2486704291
H  H36  1  0.94800000  0.21100000  0.47560000  1.0 0.2486704291
H  H37  1  0.21100000  0.94800000  0.52440000  1.0 0.2486704291
H  H38  1  0.44800000  0.28900000  0.77440000  1.0 0.2486704291
H  H39  1  0.78900000  0.05200000  0.02440000  1.0 0.2486704291
H  H40  1  0.55200000  0.71100000  0.27440000  1.0 0.2486704291
H  H41  1  0.40700000  0.78000000  0.16190000  1.0 0.1150551327
H  H42  1  0.72000000  0.90700000  0.91190000  1.0 0.1150551327
H  H43  1  0.59300000  0.22000000  0.66190000  1.0 0.1150551327
H  H44  1  0.28000000  0.09300000  0.41190000  1.0 0.1150551327
H  H45  1  0.09300000  0.28000000  0.58810000  1.0 0.1150551327
H  H46  1  0.78000000  0.40700000  0.83810000  1.0 0.1150551327
H  H47  1  0.90700000  0.72000000  0.08810000  1.0 0.1150551327
H  H48  1  0.22000000  0.59300000  0.33810000  1.0 0.1150551327
C  C1  1  0.56230000  0.66380000  0.08129000  1.0 -0.0893835487
C  C2  1  0.83620000  0.06230000  0.83129000  1.0 -0.0893835487
C  C3  1  0.43770000  0.33620000  0.58129000  1.0 -0.0893835487
C  C4  1  0.16380000  0.93770000  0.33129000  1.0 -0.0893835487
C  C5  1  0.93770000  0.16380000  0.66871000  1.0 -0.0893835487
C  C6  1  0.66380000  0.56230000  0.91871000  1.0 -0.0893835487
C  C7  1  0.06230000  0.83620000  0.16871000  1.0 -0.0893835487
C  C8  1  0.33620000  0.43770000  0.41871000  1.0 -0.0893835487
C  C9  1  0.50120000  0.54420000  0.10354000  1.0 -0.0332857688
C  C10  1  0.95580000  0.00120000  0.85354000  1.0 -0.0332857688
C  C11  1  0.49880000  0.45580000  0.60354000  1.0 -0.0332857688
C  C12  1  0.04420000  0.99880000  0.35354000  1.0 -0.0332857688
C  C13  1  0.99880000  0.04420000  0.64646000  1.0 -0.0332857688
C  C14  1  0.54420000  0.50120000  0.89646000  1.0 -0.0332857688
C  C15  1  0.00120000  0.95580000  0.14646000  1.0 -0.0332857688
C  C16  1  0.45580000  0.49880000  0.39646000  1.0 -0.0332857688
C  C17  1  0.53320000  0.42380000  0.07870000  1.0 -0.1265937051
C  C18  1  0.07620000  0.03320000  0.82870000  1.0 -0.1265937051
C  C19  1  0.46680000  0.57620000  0.57870000  1.0 -0.1265937051
C  C20  1  0.92380000  0.96680000  0.32870000  1.0 -0.1265937051
C  C21  1  0.96680000  0.92380000  0.67130000  1.0 -0.1265937051
C  C22  1  0.42380000  0.53320000  0.92130000  1.0 -0.1265937051
C  C23  1  0.03320000  0.07620000  0.17130000  1.0 -0.1265937051
C  C24  1  0.57620000  0.46680000  0.42130000  1.0 -0.1265937051
C  C25  1  0.39490000  0.67530000  0.16866000  1.0 -0.0893835487
C  C26  1  0.82470000  0.89490000  0.91866000  1.0 -0.0893835487
C  C27  1  0.60510000  0.32470000  0.66866000  1.0 -0.0893835487
C  C28  1  0.17530000  0.10510000  0.41866000  1.0 -0.0893835487
C  C29  1  0.10510000  0.17530000  0.58134000  1.0 -0.0893835487
C  C30  1  0.67530000  0.39490000  0.83134000  1.0 -0.0893835487
C  C31  1  0.89490000  0.82470000  0.08134000  1.0 -0.0893835487
C  C32  1  0.32470000  0.60510000  0.33134000  1.0 -0.0893835487
C  C33  1  0.42580000  0.54960000  0.14464000  1.0 -0.0332857688
C  C34  1  0.95040000  0.92580000  0.89464000  1.0 -0.0332857688
C  C35  1  0.57420000  0.45040000  0.64464000  1.0 -0.0332857688
C  C36  1  0.04960000  0.07420000  0.39464000  1.0 -0.0332857688
C  C37  1  0.07420000  0.04960000  0.60536000  1.0 -0.0332857688
C  C38  1  0.54960000  0.42580000  0.85536000  1.0 -0.0332857688
C  C39  1  0.92580000  0.95040000  0.10536000  1.0 -0.0332857688
C  C40  1  0.45040000  0.57420000  0.35536000  1.0 -0.0332857688
C  C41  1  0.37230000  0.43540000  0.16901000  1.0 -0.1132886539
C  C42  1  0.06460000  0.87230000  0.91901000  1.0 -0.1132886539
C  C43  1  0.62770000  0.56460000  0.66901000  1.0 -0.1132886539
C  C44  1  0.93540000  0.12770000  0.41901000  1.0 -0.1132886539
C  C45  1  0.12770000  0.93540000  0.58099000  1.0 -0.1132886539
C  C46  1  0.43540000  0.37230000  0.83099000  1.0 -0.1132886539
C  C47  1  0.87230000  0.06460000  0.08099000  1.0 -0.1132886539
C  C48  1  0.56460000  0.62770000  0.33099000  1.0 -0.1132886539
N  N1  1  0.62650000  0.61840000  0.04515000  1.0 -0.1872538532
N  N2  1  0.88160000  0.12650000  0.79515000  1.0 -0.1872538532
N  N3  1  0.37350000  0.38160000  0.54515000  1.0 -0.1872538532
N  N4  1  0.11840000  0.87350000  0.29515000  1.0 -0.1872538532
N  N5  1  0.87350000  0.11840000  0.70485000  1.0 -0.1872538532
N  N6  1  0.61840000  0.62650000  0.95485000  1.0 -0.1872538532
N  N7  1  0.12650000  0.88160000  0.20485000  1.0 -0.1872538532
N  N8  1  0.38160000  0.37350000  0.45485000  1.0 -0.1872538532
N  N9  1  0.60700000  0.47100000  0.04427000  1.0 -0.1011477559
N  N10  1  0.02900000  0.10700000  0.79427000  1.0 -0.1011477559
N  N11  1  0.39300000  0.52900000  0.54427000  1.0 -0.1011477559
N  N12  1  0.97100000  0.89300000  0.29427000  1.0 -0.1011477559
N  N13  1  0.89300000  0.97100000  0.70573000  1.0 -0.1011477559
N  N14  1  0.47100000  0.60700000  0.95573000  1.0 -0.1011477559
N  N15  1  0.10700000  0.02900000  0.20573000  1.0 -0.1011477559
N  N16  1  0.52900000  0.39300000  0.45573000  1.0 -0.1011477559
N  N17  1  0.32650000  0.64060000  0.20510000  1.0 -0.1872538532
N  N18  1  0.85940000  0.82650000  0.95510000  1.0 -0.1872538532
N  N19  1  0.67350000  0.35940000  0.70510000  1.0 -0.1872538532
N  N20  1  0.14060000  0.17350000  0.45510000  1.0 -0.1872538532
N  N21  1  0.17350000  0.14060000  0.54490000  1.0 -0.1872538532
N  N22  1  0.64060000  0.32650000  0.79490000  1.0 -0.1872538532
N  N23  1  0.82650000  0.85940000  0.04490000  1.0 -0.1872538532
N  N24  1  0.35940000  0.67350000  0.29490000  1.0 -0.1872538532
N  N25  1  0.31460000  0.49210000  0.20437000  1.0 -0.0893835487
N  N26  1  0.00790000  0.81460000  0.95437000  1.0 -0.0893835487
N  N27  1  0.68540000  0.50790000  0.70437000  1.0 -0.0893835487
N  N28  1  0.99210000  0.18540000  0.45437000  1.0 -0.0893835487
N  N29  1  0.18540000  0.99210000  0.54563000  1.0 -0.0893835487
N  N30  1  0.49210000  0.31460000  0.79563000  1.0 -0.0893835487
N  N31  1  0.81460000  0.00790000  0.04563000  1.0 -0.0893835487
N  N32  1  0.50790000  0.68540000  0.29563000  1.0 -0.0893835487
