# DDEC6 charges by PACMAN v1.1 (https://github.com/mtap-research/PACMAN-charge/)
data_HULCOI_ASR_pacman
_symmetry_space_group_name_H-M   'P 1'
_cell_length_a   31.31110000
_cell_length_b   31.31110000
_cell_length_c   31.31110000
_cell_angle_alpha   120.47400000
_cell_angle_beta   120.47400000
_cell_angle_gamma   89.18090000
_symmetry_Int_Tables_number   1
_chemical_formula_structural   Cu3H20C33N6O17
_chemical_formula_sum   'Cu24 H160 C264 N48 O136'
_cell_volume   21548.11824534
_cell_formula_units_Z   8
loop_
 _symmetry_equiv_pos_site_id
 _symmetry_equiv_pos_as_xyz
  1  'x, y, z'
loop_
 _atom_site_type_symbol
 _atom_site_label
 _atom_site_symmetry_multiplicity
 _atom_site_fract_x
 _atom_site_fract_y
 _atom_site_fract_z
 _atom_site_occupancy
 _atom_site_charge
Cu  Cu1  1  0.24750000  0.54447000  0.79197000  1.0 0.8560357373
Cu  Cu2  1  0.54447000  0.75250000  0.29697000  1.0 0.8546131532
Cu  Cu3  1  0.75250000  0.45553000  0.20803000  1.0 0.8560357373
Cu  Cu4  1  0.45553000  0.24750000  0.70303000  1.0 0.8560357373
Cu  Cu5  1  0.16367000  0.55850000  0.72217000  1.0 0.8307478707
Cu  Cu6  1  0.55850000  0.83633000  0.39483000  1.0 0.8307478707
Cu  Cu7  1  0.83633000  0.44150000  0.27783000  1.0 0.8307478707
Cu  Cu8  1  0.44150000  0.16367000  0.60517000  1.0 0.8307478707
Cu  Cu9  1  0.46999000  0.53099000  0.66388000  1.0 0.8731126282
Cu  Cu10  1  0.53099000  0.86711000  0.06100000  1.0 0.8731126282
Cu  Cu11  1  0.86711000  0.80611000  0.33612000  1.0 0.8731126282
Cu  Cu12  1  0.80611000  0.46999000  0.93900000  1.0 0.8731126282
Cu  Cu13  1  0.53001000  0.46901000  0.33612000  1.0 0.8731126282
Cu  Cu14  1  0.46901000  0.13289000  0.93900000  1.0 0.8731126282
Cu  Cu15  1  0.13289000  0.19389000  0.66388000  1.0 0.8731126282
Cu  Cu16  1  0.19389000  0.53001000  0.06100000  1.0 0.8731126282
Cu  Cu17  1  0.47758000  0.52360000  0.74750000  1.0 0.8731126282
Cu  Cu18  1  0.52360000  0.77610000  0.04602000  1.0 0.8731126282
Cu  Cu19  1  0.77610000  0.73008000  0.25250000  1.0 0.8731126282
Cu  Cu20  1  0.73008000  0.47758000  0.95398000  1.0 0.8731126282
Cu  Cu21  1  0.52242000  0.47640000  0.25250000  1.0 0.8731126282
Cu  Cu22  1  0.47640000  0.22390000  0.95398000  1.0 0.8731126282
Cu  Cu23  1  0.22390000  0.26992000  0.74750000  1.0 0.8731126282
Cu  Cu24  1  0.26992000  0.52242000  0.04602000  1.0 0.8731126282
H  H1  1  0.08070000  0.44750000  0.31060000  1.0 0.1513153073
H  H2  1  0.44750000  0.13690000  0.36680000  1.0 0.1513153073
H  H3  1  0.13690000  0.77010000  0.68940000  1.0 0.1513153073
H  H4  1  0.77010000  0.08070000  0.63320000  1.0 0.1513153073
H  H5  1  0.91930000  0.55250000  0.68940000  1.0 0.1513153073
H  H6  1  0.55250000  0.86310000  0.63320000  1.0 0.1513153073
H  H7  1  0.86310000  0.22990000  0.31060000  1.0 0.1513153073
H  H8  1  0.22990000  0.91930000  0.36680000  1.0 0.1513153073
H  H9  1  0.23570000  0.48340000  0.38790000  1.0 0.1513153073
H  H10  1  0.48340000  0.09550000  0.24770000  1.0 0.1513153073
H  H11  1  0.09550000  0.84780000  0.61210000  1.0 0.1513153073
H  H12  1  0.84780000  0.23570000  0.75230000  1.0 0.1513153073
H  H13  1  0.76430000  0.51660000  0.61210000  1.0 0.1513153073
H  H14  1  0.51660000  0.90450000  0.75230000  1.0 0.1513153073
H  H15  1  0.90450000  0.15220000  0.38790000  1.0 0.1513153073
H  H16  1  0.15220000  0.76430000  0.24770000  1.0 0.1513153073
H  H17  1  0.13630000  0.44780000  0.21990000  1.0 0.1513153073
H  H18  1  0.44780000  0.22790000  0.31150000  1.0 0.1513153073
H  H19  1  0.22790000  0.91640000  0.78010000  1.0 0.1513153073
H  H20  1  0.91640000  0.13630000  0.68850000  1.0 0.1513153073
H  H21  1  0.86370000  0.55220000  0.78010000  1.0 0.1513153073
H  H22  1  0.55220000  0.77210000  0.68850000  1.0 0.1513153073
H  H23  1  0.77210000  0.08360000  0.21990000  1.0 0.1513153073
H  H24  1  0.08360000  0.86370000  0.31150000  1.0 0.1513153073
H  H25  1  0.96860000  0.40870000  0.11830000  1.0 0.2829104138
H  H26  1  0.40870000  0.29040000  0.44010000  1.0 0.2829104138
H  H27  1  0.29040000  0.85030000  0.88170000  1.0 0.2829104138
H  H28  1  0.85030000  0.96860000  0.55990000  1.0 0.2829104138
H  H29  1  0.03140000  0.59130000  0.88170000  1.0 0.2829104138
H  H30  1  0.59130000  0.70960000  0.55990000  1.0 0.2829104138
H  H31  1  0.70960000  0.14970000  0.11830000  1.0 0.2829104138
H  H32  1  0.14970000  0.03140000  0.44010000  1.0 0.2829104138
H  H33  1  0.04620000  0.41390000  0.17190000  1.0 0.2829104138
H  H34  1  0.41390000  0.24200000  0.36770000  1.0 0.2829104138
H  H35  1  0.24200000  0.87430000  0.82810000  1.0 0.2829104138
H  H36  1  0.87430000  0.04620000  0.63230000  1.0 0.2829104138
H  H37  1  0.95380000  0.58610000  0.82810000  1.0 0.2829104138
H  H38  1  0.58610000  0.75800000  0.63230000  1.0 0.2829104138
H  H39  1  0.75800000  0.12570000  0.17190000  1.0 0.2829104138
H  H40  1  0.12570000  0.95380000  0.36770000  1.0 0.2829104138
H  H41  1  0.91410000  0.42480000  0.19530000  1.0 0.1513153073
H  H42  1  0.42480000  0.22950000  0.51070000  1.0 0.1513153073
H  H43  1  0.22950000  0.71880000  0.80470000  1.0 0.1513153073
H  H44  1  0.71880000  0.91410000  0.48930000  1.0 0.1513153073
H  H45  1  0.08590000  0.57520000  0.80470000  1.0 0.1513153073
H  H46  1  0.57520000  0.77050000  0.48930000  1.0 0.1582933461
H  H47  1  0.77050000  0.28120000  0.19530000  1.0 0.1513153073
H  H48  1  0.28120000  0.08590000  0.51070000  1.0 0.1513153073
H  H49  1  0.48770000  0.56200000  0.60970000  1.0 0.4337610753
H  H50  1  0.56200000  0.95230000  0.07430000  1.0 0.4337610753
H  H51  1  0.95230000  0.87800000  0.39030000  1.0 0.4337610753
H  H52  1  0.87800000  0.48770000  0.92570000  1.0 0.4337610753
H  H53  1  0.51230000  0.43800000  0.39030000  1.0 0.4337610753
H  H54  1  0.43800000  0.04770000  0.92570000  1.0 0.4337610753
H  H55  1  0.04770000  0.12200000  0.60970000  1.0 0.4337610753
H  H56  1  0.12200000  0.51230000  0.07430000  1.0 0.4357819538
H  H57  1  0.26570000  0.46990000  0.32980000  1.0 0.2899485223
H  H58  1  0.46990000  0.14010000  0.20420000  1.0 0.2899485223
H  H59  1  0.14010000  0.93590000  0.67020000  1.0 0.2899485223
H  H60  1  0.93590000  0.26570000  0.79580000  1.0 0.2899485223
H  H61  1  0.73430000  0.53010000  0.67020000  1.0 0.2899485223
H  H62  1  0.53010000  0.85990000  0.79580000  1.0 0.2899485223
H  H63  1  0.85990000  0.06410000  0.32980000  1.0 0.2899485223
H  H64  1  0.06410000  0.73430000  0.20420000  1.0 0.2899485223
H  H65  1  0.32530000  0.52480000  0.70670000  1.0 0.1513153073
H  H66  1  0.52480000  0.81810000  0.19950000  1.0 0.1513153073
H  H67  1  0.81810000  0.61860000  0.29330000  1.0 0.1513153073
H  H68  1  0.61860000  0.32530000  0.80050000  1.0 0.1513153073
H  H69  1  0.67470000  0.47520000  0.29330000  1.0 0.1513153073
H  H70  1  0.47520000  0.18190000  0.80050000  1.0 0.1513153073
H  H71  1  0.18190000  0.38140000  0.70670000  1.0 0.1513153073
H  H72  1  0.38140000  0.67470000  0.19950000  1.0 0.1513153073
H  H73  1  0.37430000  0.45850000  0.28680000  1.0 0.1513153073
H  H74  1  0.45850000  0.17170000  0.08420000  1.0 0.1513153073
H  H75  1  0.17170000  0.08750000  0.71320000  1.0 0.1513153073
H  H76  1  0.08750000  0.37430000  0.91580000  1.0 0.1513153073
H  H77  1  0.62570000  0.54150000  0.71320000  1.0 0.1513153073
H  H78  1  0.54150000  0.82830000  0.91580000  1.0 0.1513153073
H  H79  1  0.82830000  0.91250000  0.28680000  1.0 0.1513153073
H  H80  1  0.91250000  0.62570000  0.08420000  1.0 0.1513153073
H  H81  1  0.18920000  0.52220000  0.58480000  1.0 0.1370700821
H  H82  1  0.52220000  0.93740000  0.33300000  1.0 0.1370700821
H  H83  1  0.93740000  0.60440000  0.41520000  1.0 0.1370700821
H  H84  1  0.60440000  0.18920000  0.66700000  1.0 0.1370700821
H  H85  1  0.81080000  0.47780000  0.41520000  1.0 0.1370700821
H  H86  1  0.47780000  0.06260000  0.66700000  1.0 0.1370700821
H  H87  1  0.06260000  0.39560000  0.58480000  1.0 0.1370700821
H  H88  1  0.39560000  0.81080000  0.33300000  1.0 0.1370700821
H  H89  1  0.78620000  0.44300000  0.08540000  1.0 0.1513153073
H  H90  1  0.44300000  0.35760000  0.65680000  1.0 0.1513153073
H  H91  1  0.35760000  0.70080000  0.91460000  1.0 0.1513153073
H  H92  1  0.70080000  0.78620000  0.34320000  1.0 0.1513153073
H  H93  1  0.21380000  0.55700000  0.91460000  1.0 0.1513153073
H  H94  1  0.55700000  0.64240000  0.34320000  1.0 0.1513153073
H  H95  1  0.64240000  0.29920000  0.08540000  1.0 0.1513153073
H  H96  1  0.29920000  0.21380000  0.65680000  1.0 0.1513153073
H  H97  1  0.17330000  0.50470000  0.49860000  1.0 0.2829104138
H  H98  1  0.50470000  0.00610000  0.33140000  1.0 0.2829104138
H  H99  1  0.00610000  0.67470000  0.50140000  1.0 0.2829104138
H  H100  1  0.67470000  0.17330000  0.66860000  1.0 0.2829104138
H  H101  1  0.82670000  0.49530000  0.50140000  1.0 0.2829104138
H  H102  1  0.49530000  0.99390000  0.66860000  1.0 0.2829104138
H  H103  1  0.99390000  0.32530000  0.49860000  1.0 0.2829104138
H  H104  1  0.32530000  0.82670000  0.33140000  1.0 0.2829104138
H  H105  1  0.90240000  0.43220000  0.06540000  1.0 0.1513153073
H  H106  1  0.43220000  0.36680000  0.52980000  1.0 0.1513153073
H  H107  1  0.36680000  0.83700000  0.93460000  1.0 0.1513153073
H  H108  1  0.83700000  0.90240000  0.47020000  1.0 0.1513153073
H  H109  1  0.09760000  0.56780000  0.93460000  1.0 0.1513153073
H  H110  1  0.56780000  0.63320000  0.47020000  1.0 0.1513153073
H  H111  1  0.63320000  0.16300000  0.06540000  1.0 0.1513153073
H  H112  1  0.16300000  0.09760000  0.52980000  1.0 0.1513153073
H  H113  1  0.36550000  0.48070000  0.16880000  1.0 0.1582933461
H  H114  1  0.48070000  0.31190000  0.11520000  1.0 0.1582933461
H  H115  1  0.31190000  0.19670000  0.83120000  1.0 0.1582933461
H  H116  1  0.19670000  0.36550000  0.88480000  1.0 0.1582933461
H  H117  1  0.63450000  0.51930000  0.83120000  1.0 0.1582933461
H  H118  1  0.51930000  0.68810000  0.88480000  1.0 0.1582933461
H  H119  1  0.68810000  0.80330000  0.16880000  1.0 0.1582933461
H  H120  1  0.80330000  0.63450000  0.11520000  1.0 0.1582933461
H  H121  1  0.31710000  0.48430000  0.31080000  1.0 0.2829104138
H  H122  1  0.48430000  0.17350000  0.16720000  1.0 0.2829104138
H  H123  1  0.17350000  0.00630000  0.68920000  1.0 0.2829104138
H  H124  1  0.00630000  0.31710000  0.83280000  1.0 0.2829104138
H  H125  1  0.68290000  0.51570000  0.68920000  1.0 0.2829104138
H  H126  1  0.51570000  0.82650000  0.83280000  1.0 0.2829104138
H  H127  1  0.82650000  0.99370000  0.31080000  1.0 0.2829104138
H  H128  1  0.99370000  0.68290000  0.16720000  1.0 0.2829104138
H  H129  1  0.46500000  0.53300000  0.82720000  1.0 0.4468020107
H  H130  1  0.53300000  0.70580000  0.06800000  1.0 0.4468020107
H  H131  1  0.70580000  0.63780000  0.17280000  1.0 0.4468020107
H  H132  1  0.63780000  0.46500000  0.93200000  1.0 0.4468020107
H  H133  1  0.53500000  0.46700000  0.17280000  1.0 0.4468020107
H  H134  1  0.46700000  0.29420000  0.93200000  1.0 0.4468020107
H  H135  1  0.29420000  0.36220000  0.82720000  1.0 0.4468020107
H  H136  1  0.36220000  0.53500000  0.06800000  1.0 0.4468020107
H  H137  1  0.30250000  0.50750000  0.56100000  1.0 0.1582933461
H  H138  1  0.50750000  0.94650000  0.20500000  1.0 0.1582933461
H  H139  1  0.94650000  0.74150000  0.43900000  1.0 0.1582933461
H  H140  1  0.74150000  0.30250000  0.79500000  1.0 0.1582933461
H  H141  1  0.69750000  0.49250000  0.43900000  1.0 0.1582933461
H  H142  1  0.49250000  0.05350000  0.79500000  1.0 0.1582933461
H  H143  1  0.05350000  0.25850000  0.56100000  1.0 0.1582933461
H  H144  1  0.25850000  0.69750000  0.20500000  1.0 0.1582933461
H  H145  1  0.24450000  0.48110000  0.18340000  1.0 0.1582933461
H  H146  1  0.48110000  0.29770000  0.23660000  1.0 0.1582933461
H  H147  1  0.29770000  0.06110000  0.81660000  1.0 0.1582933461
H  H148  1  0.06110000  0.24450000  0.76340000  1.0 0.1582933461
H  H149  1  0.75550000  0.51890000  0.81660000  1.0 0.1582933461
H  H150  1  0.51890000  0.70230000  0.76340000  1.0 0.1582933461
H  H151  1  0.70230000  0.93890000  0.18340000  1.0 0.1582933461
H  H152  1  0.93890000  0.75550000  0.23660000  1.0 0.1582933461
H  H153  1  0.13880000  0.48750000  0.41590000  1.0 0.2829104138
H  H154  1  0.48750000  0.07160000  0.34870000  1.0 0.2829104138
H  H155  1  0.07160000  0.72290000  0.58410000  1.0 0.2829104138
H  H156  1  0.72290000  0.13880000  0.65130000  1.0 0.2829104138
H  H157  1  0.86120000  0.51250000  0.58410000  1.0 0.2829104138
H  H158  1  0.51250000  0.92840000  0.65130000  1.0 0.2829104138
H  H159  1  0.92840000  0.27710000  0.41590000  1.0 0.2829104138
H  H160  1  0.27710000  0.86120000  0.34870000  1.0 0.2829104138
C  C1  1  0.10010000  0.44530000  0.25720000  1.0 0.2899485223
C  C2  1  0.44530000  0.18810000  0.34520000  1.0 0.2899485223
C  C3  1  0.18810000  0.84290000  0.74280000  1.0 0.2899485223
C  C4  1  0.84290000  0.10010000  0.65480000  1.0 0.2899485223
C  C5  1  0.89990000  0.55470000  0.74280000  1.0 0.2899485223
C  C6  1  0.55470000  0.81190000  0.65480000  1.0 0.2899485223
C  C7  1  0.81190000  0.15710000  0.25720000  1.0 0.2899485223
C  C8  1  0.15710000  0.89990000  0.34520000  1.0 0.2899485223
C  C9  1  0.10880000  0.45240000  0.30880000  1.0 -0.2833180168
C  C10  1  0.45240000  0.14360000  0.34360000  1.0 -0.2833180168
C  C11  1  0.14360000  0.80000000  0.69120000  1.0 -0.2833180168
C  C12  1  0.80000000  0.10880000  0.65640000  1.0 -0.2833180168
C  C13  1  0.89120000  0.54760000  0.69120000  1.0 -0.2833180168
C  C14  1  0.54760000  0.85640000  0.65640000  1.0 -0.2833180168
C  C15  1  0.85640000  0.20000000  0.30880000  1.0 -0.2833180168
C  C16  1  0.20000000  0.89120000  0.34360000  1.0 -0.287133275
C  C17  1  0.15960000  0.46660000  0.35780000  1.0 0.2899485223
C  C18  1  0.46660000  0.10880000  0.30700000  1.0 0.2899485223
C  C19  1  0.10880000  0.80180000  0.64220000  1.0 0.2899485223
C  C20  1  0.80180000  0.15960000  0.69300000  1.0 0.2899485223
C  C21  1  0.84040000  0.53340000  0.64220000  1.0 0.2899485223
C  C22  1  0.53340000  0.89120000  0.69300000  1.0 0.2899485223
C  C23  1  0.89120000  0.19820000  0.35780000  1.0 0.2899485223
C  C24  1  0.19820000  0.84040000  0.30700000  1.0 0.2899485223
C  C25  1  0.20170000  0.47390000  0.35520000  1.0 -0.2833180168
C  C26  1  0.47390000  0.11870000  0.27220000  1.0 -0.2833180168
C  C27  1  0.11870000  0.84650000  0.64480000  1.0 -0.2833180168
C  C28  1  0.84650000  0.20170000  0.72780000  1.0 -0.2833180168
C  C29  1  0.79830000  0.52610000  0.64480000  1.0 -0.2833180168
C  C30  1  0.52610000  0.88130000  0.72780000  1.0 -0.2833180168
C  C31  1  0.88130000  0.15350000  0.35520000  1.0 -0.2833180168
C  C32  1  0.15350000  0.79830000  0.27220000  1.0 -0.2833180168
C  C33  1  0.19290000  0.46670000  0.30340000  1.0 0.2829104138
C  C34  1  0.46670000  0.16330000  0.27380000  1.0 0.2829104138
C  C35  1  0.16330000  0.88950000  0.69660000  1.0 0.2829104138
C  C36  1  0.88950000  0.19290000  0.72620000  1.0 0.2899485223
C  C37  1  0.80710000  0.53330000  0.69660000  1.0 0.2829104138
C  C38  1  0.53330000  0.83670000  0.72620000  1.0 0.2829104138
C  C39  1  0.83670000  0.11050000  0.30340000  1.0 0.2829104138
C  C40  1  0.11050000  0.80710000  0.27380000  1.0 0.2899485223
C  C41  1  0.14210000  0.45250000  0.25440000  1.0 -0.287133275
C  C42  1  0.45250000  0.19810000  0.31040000  1.0 -0.287133275
C  C43  1  0.19810000  0.88770000  0.74560000  1.0 -0.287133275
C  C44  1  0.88770000  0.14210000  0.68960000  1.0 -0.287133275
C  C45  1  0.85790000  0.54750000  0.74560000  1.0 -0.287133275
C  C46  1  0.54750000  0.80190000  0.68960000  1.0 -0.287133275
C  C47  1  0.80190000  0.11230000  0.25440000  1.0 -0.287133275
C  C48  1  0.11230000  0.85790000  0.31040000  1.0 -0.287133275
C  C49  1  0.30370000  0.48850000  0.17180000  1.0 0.0264299721
C  C50  1  0.48850000  0.31670000  0.18480000  1.0 0.0264299721
C  C51  1  0.31670000  0.13190000  0.82820000  1.0 0.0264299721
C  C52  1  0.13190000  0.30370000  0.81520000  1.0 0.0264299721
C  C53  1  0.69630000  0.51150000  0.82820000  1.0 0.0264299721
C  C54  1  0.51150000  0.68330000  0.81520000  1.0 0.0264299721
C  C55  1  0.68330000  0.86810000  0.17180000  1.0 0.0264299721
C  C56  1  0.86810000  0.69630000  0.18480000  1.0 0.0264299721
C  C57  1  0.84610000  0.43090000  0.14340000  1.0 -0.0068273149
C  C58  1  0.43090000  0.28750000  0.58480000  1.0 -0.0068273149
C  C59  1  0.28750000  0.70270000  0.85660000  1.0 -0.0068273149
C  C60  1  0.70270000  0.84610000  0.41520000  1.0 -0.0068273149
C  C61  1  0.15390000  0.56910000  0.85660000  1.0 -0.0068273149
C  C62  1  0.56910000  0.71250000  0.41520000  1.0 -0.0068273149
C  C63  1  0.71250000  0.29730000  0.14340000  1.0 -0.0068273149
C  C64  1  0.29730000  0.15390000  0.58480000  1.0 -0.0068273149
C  C65  1  0.01120000  0.44170000  0.20870000  1.0 0.6089052539
C  C66  1  0.44170000  0.23300000  0.43050000  1.0 0.6089052539
C  C67  1  0.23300000  0.80250000  0.79130000  1.0 0.6089052539
C  C68  1  0.80250000  0.01120000  0.56950000  1.0 0.6089052539
C  C69  1  0.98880000  0.55830000  0.79130000  1.0 0.6089052539
C  C70  1  0.55830000  0.76700000  0.56950000  1.0 0.6089052539
C  C71  1  0.76700000  0.19750000  0.20870000  1.0 0.6089052539
C  C72  1  0.19750000  0.98880000  0.43050000  1.0 0.6089052539
C  C73  1  0.38300000  0.52410000  0.66550000  1.0 0.569049118
C  C74  1  0.52410000  0.85860000  0.14110000  1.0 0.562958873
C  C75  1  0.85860000  0.71750000  0.33450000  1.0 0.562958873
C  C76  1  0.71750000  0.38300000  0.85890000  1.0 0.569049118
C  C77  1  0.61700000  0.47590000  0.33450000  1.0 0.569049118
C  C78  1  0.47590000  0.14140000  0.85890000  1.0 0.569049118
C  C79  1  0.14140000  0.28250000  0.66550000  1.0 0.569049118
C  C80  1  0.28250000  0.61700000  0.14110000  1.0 0.569049118
C  C81  1  0.43550000  0.47150000  0.25500000  1.0 0.569049118
C  C82  1  0.47150000  0.21650000  0.03600000  1.0 0.569049118
C  C83  1  0.21650000  0.18050000  0.74500000  1.0 0.569049118
C  C84  1  0.18050000  0.43550000  0.96400000  1.0 0.562958873
C  C85  1  0.56450000  0.52850000  0.74500000  1.0 0.569049118
C  C86  1  0.52850000  0.78350000  0.96400000  1.0 0.562958873
C  C87  1  0.78350000  0.81950000  0.25500000  1.0 0.562958873
C  C88  1  0.81950000  0.56450000  0.03600000  1.0 0.562958873
C  C89  1  0.81230000  0.45130000  0.01960000  1.0 0.569049118
C  C90  1  0.45130000  0.43170000  0.63900000  1.0 0.569049118
C  C91  1  0.43170000  0.79270000  0.98040000  1.0 0.569049118
C  C92  1  0.79270000  0.81230000  0.36100000  1.0 0.569049118
C  C93  1  0.18770000  0.54870000  0.98040000  1.0 0.569049118
C  C94  1  0.54870000  0.56830000  0.36100000  1.0 0.569049118
C  C95  1  0.56830000  0.20730000  0.01960000  1.0 0.569049118
C  C96  1  0.20730000  0.18770000  0.63900000  1.0 0.569049118
C  C97  1  0.27500000  0.50120000  0.12500000  1.0 0.562958873
C  C98  1  0.50120000  0.37620000  0.22620000  1.0 0.562958873
C  C99  1  0.37620000  0.15000000  0.87500000  1.0 0.562958873
C  C100  1  0.15000000  0.27500000  0.77380000  1.0 0.562958873
C  C101  1  0.72500000  0.49880000  0.87500000  1.0 0.562958873
C  C102  1  0.49880000  0.62380000  0.77380000  1.0 0.562958873
C  C103  1  0.62380000  0.85000000  0.12500000  1.0 0.562958873
C  C104  1  0.85000000  0.72500000  0.22620000  1.0 0.562958873
C  C105  1  0.23310000  0.53630000  0.69040000  1.0 0.569049118
C  C106  1  0.53630000  0.84590000  0.30320000  1.0 0.569049118
C  C107  1  0.84590000  0.54270000  0.30960000  1.0 0.569049118
C  C108  1  0.54270000  0.23310000  0.69680000  1.0 0.569049118
C  C109  1  0.76690000  0.46370000  0.30960000  1.0 0.569049118
C  C110  1  0.46370000  0.15410000  0.69680000  1.0 0.569049118
C  C111  1  0.15410000  0.45730000  0.69040000  1.0 0.569049118
C  C112  1  0.45730000  0.76690000  0.30320000  1.0 0.569049118
C  C113  1  0.32500000  0.52130000  0.63950000  1.0 0.0188815568
C  C114  1  0.52130000  0.88180000  0.19630000  1.0 0.0188815568
C  C115  1  0.88180000  0.68550000  0.36050000  1.0 0.0117134155
C  C116  1  0.68550000  0.32500000  0.80370000  1.0 0.0188815568
C  C117  1  0.67500000  0.47870000  0.36050000  1.0 0.0188815568
C  C118  1  0.47870000  0.11820000  0.80370000  1.0 0.0188815568
C  C119  1  0.11820000  0.31450000  0.63950000  1.0 0.0188815568
C  C120  1  0.31450000  0.67500000  0.19630000  1.0 0.0188815568
C  C121  1  0.82520000  0.43520000  0.17900000  1.0 0.569049118
C  C122  1  0.43520000  0.25620000  0.61000000  1.0 0.5796689995
C  C123  1  0.25620000  0.64620000  0.82100000  1.0 0.5796689995
C  C124  1  0.64620000  0.82520000  0.39000000  1.0 0.569049118
C  C125  1  0.17480000  0.56480000  0.82100000  1.0 0.5796689995
C  C126  1  0.56480000  0.74380000  0.39000000  1.0 0.569049118
C  C127  1  0.74380000  0.35380000  0.17900000  1.0 0.569049118
C  C128  1  0.35380000  0.17480000  0.61000000  1.0 0.5796689995
C  C129  1  0.37900000  0.47300000  0.23280000  1.0 0.0188815568
C  C130  1  0.47300000  0.24020000  0.09400000  1.0 0.0188815568
C  C131  1  0.24020000  0.14620000  0.76720000  1.0 0.0188815568
C  C132  1  0.14620000  0.37900000  0.90600000  1.0 0.0188815568
C  C133  1  0.62100000  0.52700000  0.76720000  1.0 0.0188815568
C  C134  1  0.52700000  0.75980000  0.90600000  1.0 0.0188815568
C  C135  1  0.75980000  0.85380000  0.23280000  1.0 0.0188815568
C  C136  1  0.85380000  0.62100000  0.09400000  1.0 0.0188815568
C  C137  1  0.83990000  0.44060000  0.06770000  1.0 0.0117134155
C  C138  1  0.44060000  0.37290000  0.60070000  1.0 0.0117134155
C  C139  1  0.37290000  0.77220000  0.93230000  1.0 0.0117134155
C  C140  1  0.77220000  0.83990000  0.39930000  1.0 0.0117134155
C  C141  1  0.16010000  0.55940000  0.93230000  1.0 0.0117134155
C  C142  1  0.55940000  0.62710000  0.39930000  1.0 0.0117134155
C  C143  1  0.62710000  0.22780000  0.06770000  1.0 0.0117134155
C  C144  1  0.22780000  0.16010000  0.60070000  1.0 0.0117134155
C  C145  1  0.25400000  0.52730000  0.65430000  1.0 -0.0068273149
C  C146  1  0.52730000  0.87300000  0.27330000  1.0 -0.0068273149
C  C147  1  0.87300000  0.59970000  0.34570000  1.0 -0.0068273149
C  C148  1  0.59970000  0.25400000  0.72670000  1.0 -0.0068273149
C  C149  1  0.74600000  0.47270000  0.34570000  1.0 -0.0068273149
C  C150  1  0.47270000  0.12700000  0.72670000  1.0 -0.0068273149
C  C151  1  0.12700000  0.40030000  0.65430000  1.0 -0.0068273149
C  C152  1  0.40030000  0.74600000  0.27330000  1.0 -0.0068273149
C  C153  1  0.89510000  0.42750000  0.16280000  1.0 -0.1435187286
C  C154  1  0.42750000  0.26470000  0.53240000  1.0 -0.1435187286
C  C155  1  0.26470000  0.73230000  0.83720000  1.0 -0.1435187286
C  C156  1  0.73230000  0.89510000  0.46760000  1.0 -0.1461583428
C  C157  1  0.10490000  0.57250000  0.83720000  1.0 -0.1435187286
C  C158  1  0.57250000  0.73530000  0.46760000  1.0 -0.1461583428
C  C159  1  0.73530000  0.26770000  0.16280000  1.0 -0.1435187286
C  C160  1  0.26770000  0.10490000  0.53240000  1.0 -0.1435187286
C  C161  1  0.30450000  0.52460000  0.67230000  1.0 -0.1020430088
C  C162  1  0.52460000  0.85230000  0.22010000  1.0 -0.1020430088
C  C163  1  0.85230000  0.63220000  0.32770000  1.0 -0.1020430088
C  C164  1  0.63220000  0.30450000  0.77990000  1.0 -0.1020430088
C  C165  1  0.69550000  0.47540000  0.32770000  1.0 -0.1020430088
C  C166  1  0.47540000  0.14770000  0.77990000  1.0 -0.1020430088
C  C167  1  0.14770000  0.36780000  0.67230000  1.0 -0.1020430088
C  C168  1  0.36780000  0.69550000  0.22010000  1.0 -0.1020430088
C  C169  1  0.35650000  0.46640000  0.25870000  1.0 -0.2474535686
C  C170  1  0.46640000  0.20770000  0.10990000  1.0 -0.2474535686
C  C171  1  0.20770000  0.09780000  0.74130000  1.0 -0.2474535686
C  C172  1  0.09780000  0.35650000  0.89010000  1.0 -0.2474535686
C  C173  1  0.64350000  0.53360000  0.74130000  1.0 -0.2474535686
C  C174  1  0.53360000  0.79230000  0.89010000  1.0 -0.2474535686
C  C175  1  0.79230000  0.90220000  0.25870000  1.0 -0.2474535686
C  C176  1  0.90220000  0.64350000  0.10990000  1.0 -0.2474535686
C  C177  1  0.22300000  0.52050000  0.59850000  1.0 -0.1815574635
C  C178  1  0.52050000  0.92200000  0.29750000  1.0 -0.1815574635
C  C179  1  0.92200000  0.62450000  0.40150000  1.0 -0.1815574635
C  C180  1  0.62450000  0.22300000  0.70250000  1.0 -0.1815574635
C  C181  1  0.77700000  0.47950000  0.40150000  1.0 -0.1815574635
C  C182  1  0.47950000  0.07800000  0.70250000  1.0 -0.1815574635
C  C183  1  0.07800000  0.37550000  0.59850000  1.0 -0.1815574635
C  C184  1  0.37550000  0.77700000  0.29750000  1.0 -0.1815574635
C  C185  1  0.81900000  0.43900000  0.09680000  1.0 -0.1020430088
C  C186  1  0.43900000  0.34220000  0.62000000  1.0 -0.1020430088
C  C187  1  0.34220000  0.72220000  0.90320000  1.0 -0.1020430088
C  C188  1  0.72220000  0.81900000  0.38000000  1.0 -0.1020430088
C  C189  1  0.18100000  0.56100000  0.90320000  1.0 -0.1020430088
C  C190  1  0.56100000  0.65780000  0.38000000  1.0 -0.1020430088
C  C191  1  0.65780000  0.27780000  0.09680000  1.0 -0.1020430088
C  C192  1  0.27780000  0.18100000  0.62000000  1.0 -0.1020430088
C  C193  1  0.88780000  0.43350000  0.08530000  1.0 -0.1859312523
C  C194  1  0.43350000  0.34820000  0.54570000  1.0 -0.1859312523
C  C195  1  0.34820000  0.80250000  0.91470000  1.0 -0.1859312523
C  C196  1  0.80250000  0.88780000  0.45430000  1.0 -0.1859312523
C  C197  1  0.11220000  0.56650000  0.91470000  1.0 -0.1859312523
C  C198  1  0.56650000  0.65180000  0.45430000  1.0 -0.1859312523
C  C199  1  0.65180000  0.19750000  0.08530000  1.0 -0.1859312523
C  C200  1  0.19750000  0.11220000  0.54570000  1.0 -0.1859312523
C  C201  1  0.35150000  0.48080000  0.18890000  1.0 -0.1020430088
C  C202  1  0.48080000  0.29190000  0.12930000  1.0 -0.1020430088
C  C203  1  0.29190000  0.16260000  0.81110000  1.0 -0.1020430088
C  C204  1  0.16260000  0.35150000  0.87070000  1.0 -0.1020430088
C  C205  1  0.64850000  0.51920000  0.81110000  1.0 -0.1020430088
C  C206  1  0.51920000  0.70810000  0.87070000  1.0 -0.1020430088
C  C207  1  0.70810000  0.83740000  0.18890000  1.0 -0.1020430088
C  C208  1  0.83740000  0.64850000  0.12930000  1.0 -0.1020430088
C  C209  1  0.30590000  0.47160000  0.24210000  1.0 0.2984496895
C  C210  1  0.47160000  0.22950000  0.16570000  1.0 0.2984496895
C  C211  1  0.22950000  0.06380000  0.75790000  1.0 0.2984496895
C  C212  1  0.06380000  0.30590000  0.83430000  1.0 0.2984496895
C  C213  1  0.69410000  0.52840000  0.75790000  1.0 0.2984496895
C  C214  1  0.52840000  0.77050000  0.83430000  1.0 0.2984496895
C  C215  1  0.77050000  0.93620000  0.24210000  1.0 0.2984496895
C  C216  1  0.93620000  0.69410000  0.16570000  1.0 0.2984496895
C  C217  1  0.91560000  0.42810000  0.13470000  1.0 0.2200357988
C  C218  1  0.42810000  0.29340000  0.51250000  1.0 0.2200357988
C  C219  1  0.29340000  0.78090000  0.86530000  1.0 0.2200357988
C  C220  1  0.78090000  0.91560000  0.48750000  1.0 0.2200357988
C  C221  1  0.08440000  0.57190000  0.86530000  1.0 0.2200357988
C  C222  1  0.57190000  0.70660000  0.48750000  1.0 0.2200357988
C  C223  1  0.70660000  0.21910000  0.13470000  1.0 0.2200357988
C  C224  1  0.21910000  0.08440000  0.51250000  1.0 0.2200357988
C  C225  1  0.29120000  0.51280000  0.58520000  1.0 -0.1461583428
C  C226  1  0.51280000  0.92760000  0.22160000  1.0 -0.1461583428
C  C227  1  0.92760000  0.70600000  0.41480000  1.0 -0.1461583428
C  C228  1  0.70600000  0.29120000  0.77840000  1.0 -0.1435187286
C  C229  1  0.70880000  0.48720000  0.41480000  1.0 -0.1461583428
C  C230  1  0.48720000  0.07240000  0.77840000  1.0 -0.1461583428
C  C231  1  0.07240000  0.29400000  0.58520000  1.0 -0.1461583428
C  C232  1  0.29400000  0.70880000  0.22160000  1.0 -0.1461583428
C  C233  1  0.27850000  0.48030000  0.19720000  1.0 -0.221010847
C  C234  1  0.48030000  0.28310000  0.20180000  1.0 -0.221010847
C  C235  1  0.28310000  0.08130000  0.80280000  1.0 -0.221010847
C  C236  1  0.08130000  0.27850000  0.79820000  1.0 -0.221010847
C  C237  1  0.72150000  0.51970000  0.80280000  1.0 -0.221010847
C  C238  1  0.51970000  0.71690000  0.79820000  1.0 -0.221010847
C  C239  1  0.71690000  0.91870000  0.19720000  1.0 -0.221010847
C  C240  1  0.91870000  0.72150000  0.20180000  1.0 -0.221010847
C  C241  1  0.23980000  0.46560000  0.25900000  1.0 0.5796689995
C  C242  1  0.46560000  0.20660000  0.22580000  1.0 0.5796689995
C  C243  1  0.20660000  0.98080000  0.74100000  1.0 0.5796689995
C  C244  1  0.98080000  0.23980000  0.77420000  1.0 0.5796689995
C  C245  1  0.76020000  0.53440000  0.74100000  1.0 0.5796689995
C  C246  1  0.53440000  0.79340000  0.77420000  1.0 0.5854249876
C  C247  1  0.79340000  0.01920000  0.25900000  1.0 0.5796689995
C  C248  1  0.01920000  0.76020000  0.22580000  1.0 0.5796689995
C  C249  1  0.21170000  0.49180000  0.46310000  1.0 0.62026578
C  C250  1  0.49180000  0.02870000  0.28010000  1.0 0.62026578
C  C251  1  0.02870000  0.74860000  0.53690000  1.0 0.62026578
C  C252  1  0.74860000  0.21170000  0.71990000  1.0 0.62026578
C  C253  1  0.78830000  0.50820000  0.53690000  1.0 0.62026578
C  C254  1  0.50820000  0.97130000  0.71990000  1.0 0.62026578
C  C255  1  0.97130000  0.25140000  0.46310000  1.0 0.62026578
C  C256  1  0.25140000  0.78830000  0.28010000  1.0 0.62026578
C  C257  1  0.23930000  0.51170000  0.56420000  1.0 0.2116303276
C  C258  1  0.51170000  0.94750000  0.27240000  1.0 0.2116303276
C  C259  1  0.94750000  0.67510000  0.43580000  1.0 0.2116303276
C  C260  1  0.67510000  0.23930000  0.72760000  1.0 0.2116303276
C  C261  1  0.76070000  0.48830000  0.43580000  1.0 0.2116303276
C  C262  1  0.48830000  0.05250000  0.72760000  1.0 0.2116303276
C  C263  1  0.05250000  0.32490000  0.56420000  1.0 0.2116303276
C  C264  1  0.32490000  0.76070000  0.27240000  1.0 0.2116303276
N  N1  1  0.96520000  0.42330000  0.14770000  1.0 -0.4262414951
N  N2  1  0.42330000  0.27560000  0.45810000  1.0 -0.4262414951
N  N3  1  0.27560000  0.81750000  0.85230000  1.0 -0.4262414951
N  N4  1  0.81750000  0.96520000  0.54190000  1.0 -0.4262414951
N  N5  1  0.03480000  0.57670000  0.85230000  1.0 -0.4262414951
N  N6  1  0.57670000  0.72440000  0.54190000  1.0 -0.4262414951
N  N7  1  0.72440000  0.18250000  0.14770000  1.0 -0.4262414951
N  N8  1  0.18250000  0.03480000  0.45810000  1.0 -0.4262414951
N  N9  1  0.05100000  0.43090000  0.20670000  1.0 -0.4217345944
N  N10  1  0.43090000  0.22420000  0.37990000  1.0 -0.4217345944
N  N11  1  0.22420000  0.84430000  0.79330000  1.0 -0.4262414951
N  N12  1  0.84430000  0.05100000  0.62010000  1.0 -0.4217345944
N  N13  1  0.94900000  0.56910000  0.79330000  1.0 -0.4217345944
N  N14  1  0.56910000  0.77580000  0.62010000  1.0 -0.4217345944
N  N15  1  0.77580000  0.15570000  0.20670000  1.0 -0.4217345944
N  N16  1  0.15570000  0.94900000  0.37990000  1.0 -0.4217345944
N  N17  1  0.23740000  0.46770000  0.30070000  1.0 -0.4217345944
N  N18  1  0.46770000  0.16700000  0.23030000  1.0 -0.4217345944
N  N19  1  0.16700000  0.93670000  0.69930000  1.0 -0.4217345944
N  N20  1  0.93670000  0.23740000  0.76970000  1.0 -0.4217345944
N  N21  1  0.76260000  0.53230000  0.69930000  1.0 -0.4217345944
N  N22  1  0.53230000  0.83300000  0.76970000  1.0 -0.4217345944
N  N23  1  0.83300000  0.06330000  0.30070000  1.0 -0.4217345944
N  N24  1  0.06330000  0.76260000  0.23030000  1.0 -0.4217345944
N  N25  1  0.20380000  0.50300000  0.50720000  1.0 -0.4217345944
N  N26  1  0.50300000  0.99580000  0.29920000  1.0 -0.4262414951
N  N27  1  0.99580000  0.69660000  0.49280000  1.0 -0.4217345944
N  N28  1  0.69660000  0.20380000  0.70080000  1.0 -0.4262414951
N  N29  1  0.79620000  0.49700000  0.49280000  1.0 -0.4262414951
N  N30  1  0.49700000  0.00420000  0.70080000  1.0 -0.4262414951
N  N31  1  0.00420000  0.30340000  0.50720000  1.0 -0.4262414951
N  N32  1  0.30340000  0.79620000  0.29920000  1.0 -0.4262414951
N  N33  1  0.29240000  0.47520000  0.27500000  1.0 -0.368677741
N  N34  1  0.47520000  0.20020000  0.18280000  1.0 -0.368677741
N  N35  1  0.20020000  0.01740000  0.72500000  1.0 -0.368677741
N  N36  1  0.01740000  0.29240000  0.81720000  1.0 -0.368677741
N  N37  1  0.70760000  0.52480000  0.72500000  1.0 -0.368677741
N  N38  1  0.52480000  0.79980000  0.81720000  1.0 -0.368677741
N  N39  1  0.79980000  0.98260000  0.27500000  1.0 -0.368677741
N  N40  1  0.98260000  0.70760000  0.18280000  1.0 -0.368677741
N  N41  1  0.16500000  0.48320000  0.41380000  1.0 -0.4402154852
N  N42  1  0.48320000  0.06940000  0.31820000  1.0 -0.4402154852
N  N43  1  0.06940000  0.75120000  0.58620000  1.0 -0.4402154852
N  N44  1  0.75120000  0.16500000  0.68180000  1.0 -0.4402154852
N  N45  1  0.83500000  0.51680000  0.58620000  1.0 -0.4402154852
N  N46  1  0.51680000  0.93060000  0.68180000  1.0 -0.4402154852
N  N47  1  0.93060000  0.24880000  0.41380000  1.0 -0.4402154852
N  N48  1  0.24880000  0.83500000  0.31820000  1.0 -0.4402154852
O  O1  1  0.83470000  0.45150000  0.99680000  1.0 -0.4798146803
O  O2  1  0.45150000  0.45470000  0.61680000  1.0 -0.4798146803
O  O3  1  0.45470000  0.83790000  0.00320000  1.0 -0.4798146803
O  O4  1  0.83790000  0.83470000  0.38320000  1.0 -0.4798146803
O  O5  1  0.16530000  0.54850000  0.00320000  1.0 -0.4798146803
O  O6  1  0.54850000  0.54530000  0.38320000  1.0 -0.4798146803
O  O7  1  0.54530000  0.16210000  0.99680000  1.0 -0.4798146803
O  O8  1  0.16210000  0.16530000  0.61680000  1.0 -0.4798146803
O  O9  1  0.00120000  0.44570000  0.24450000  1.0 -0.5179174636
O  O10  1  0.44570000  0.20120000  0.44450000  1.0 -0.5179174636
O  O11  1  0.20120000  0.75670000  0.75550000  1.0 -0.5179174636
O  O12  1  0.75670000  0.00120000  0.55550000  1.0 -0.5179174636
O  O13  1  0.99880000  0.55430000  0.75550000  1.0 -0.5179174636
O  O14  1  0.55430000  0.79880000  0.55550000  1.0 -0.5179174636
O  O15  1  0.79880000  0.24330000  0.24450000  1.0 -0.5179174636
O  O16  1  0.24330000  0.99880000  0.44450000  1.0 -0.5179174636
O  O17  1  0.39610000  0.52360000  0.63550000  1.0 -0.4402154852
O  O18  1  0.52360000  0.88810000  0.12750000  1.0 -0.4402154852
O  O19  1  0.88810000  0.76060000  0.36450000  1.0 -0.4402154852
O  O20  1  0.76060000  0.39610000  0.87250000  1.0 -0.4402154852
O  O21  1  0.60390000  0.47640000  0.36450000  1.0 -0.4402154852
O  O22  1  0.47640000  0.11190000  0.87250000  1.0 -0.4402154852
O  O23  1  0.11190000  0.23940000  0.63550000  1.0 -0.4402154852
O  O24  1  0.23940000  0.60390000  0.12750000  1.0 -0.4402154852
O  O25  1  0.45580000  0.46460000  0.29640000  1.0 -0.5088602664
O  O26  1  0.46460000  0.16820000  0.00880000  1.0 -0.5088602664
O  O27  1  0.16820000  0.15940000  0.70360000  1.0 -0.5088602664
O  O28  1  0.15940000  0.45580000  0.99120000  1.0 -0.5088602664
O  O29  1  0.54420000  0.53540000  0.70360000  1.0 -0.5088602664
O  O30  1  0.53540000  0.83180000  0.99120000  1.0 -0.5088602664
O  O31  1  0.83180000  0.84060000  0.29640000  1.0 -0.5088602664
O  O32  1  0.84060000  0.54420000  0.00880000  1.0 -0.5088602664
O  O33  1  0.19140000  0.54380000  0.67400000  1.0 -0.4681879748
O  O34  1  0.54380000  0.86980000  0.35240000  1.0 -0.4681879748
O  O35  1  0.86980000  0.51740000  0.32600000  1.0 -0.4681879748
O  O36  1  0.51740000  0.19140000  0.64760000  1.0 -0.4681879748
O  O37  1  0.80860000  0.45620000  0.32600000  1.0 -0.4681879748
O  O38  1  0.45620000  0.13020000  0.64760000  1.0 -0.4681879748
O  O39  1  0.13020000  0.48260000  0.67400000  1.0 -0.4681879748
O  O40  1  0.48260000  0.80860000  0.35240000  1.0 -0.4681879748
O  O41  1  0.44960000  0.47280000  0.22580000  1.0 -0.4626416732
O  O42  1  0.47280000  0.24700000  0.02320000  1.0 -0.4626416732
O  O43  1  0.24700000  0.22380000  0.77420000  1.0 -0.4626416732
O  O44  1  0.22380000  0.44960000  0.97680000  1.0 -0.4626416732
O  O45  1  0.55040000  0.52720000  0.77420000  1.0 -0.4626416732
O  O46  1  0.52720000  0.75300000  0.97680000  1.0 -0.4626416732
O  O47  1  0.75300000  0.77620000  0.22580000  1.0 -0.4626416732
O  O48  1  0.77620000  0.55040000  0.02320000  1.0 -0.4626416732
O  O49  1  0.40400000  0.52010000  0.70890000  1.0 -0.5027610778
O  O50  1  0.52010000  0.81120000  0.11610000  1.0 -0.5027610778
O  O51  1  0.81120000  0.69510000  0.29110000  1.0 -0.5027610778
O  O52  1  0.69510000  0.40400000  0.88390000  1.0 -0.5027610778
O  O53  1  0.59600000  0.47990000  0.29110000  1.0 -0.5027610778
O  O54  1  0.47990000  0.18880000  0.88390000  1.0 -0.5027610778
O  O55  1  0.18880000  0.30490000  0.70890000  1.0 -0.5027610778
O  O56  1  0.30490000  0.59600000  0.11610000  1.0 -0.5027610778
O  O57  1  0.29540000  0.49900000  0.10020000  1.0 -0.4798146803
O  O58  1  0.49900000  0.39880000  0.20360000  1.0 -0.4798146803
O  O59  1  0.39880000  0.19520000  0.89980000  1.0 -0.4798146803
O  O60  1  0.19520000  0.29540000  0.79640000  1.0 -0.4798146803
O  O61  1  0.70460000  0.50100000  0.89980000  1.0 -0.4798146803
O  O62  1  0.50100000  0.60120000  0.79640000  1.0 -0.4798146803
O  O63  1  0.60120000  0.80480000  0.10020000  1.0 -0.4798146803
O  O64  1  0.80480000  0.70460000  0.20360000  1.0 -0.4798146803
O  O65  1  0.76670000  0.45310000  0.00600000  1.0 -0.5027610778
O  O66  1  0.45310000  0.44710000  0.68640000  1.0 -0.5027610778
O  O67  1  0.44710000  0.76070000  0.99400000  1.0 -0.5027610778
O  O68  1  0.76070000  0.76670000  0.31360000  1.0 -0.5027610778
O  O69  1  0.23330000  0.54690000  0.99400000  1.0 -0.5027610778
O  O70  1  0.54690000  0.55290000  0.31360000  1.0 -0.5027610778
O  O71  1  0.55290000  0.23930000  0.00600000  1.0 -0.5027610778
O  O72  1  0.23930000  0.23330000  0.68640000  1.0 -0.5027610778
O  O73  1  0.78250000  0.44200000  0.16190000  1.0 -0.4870446641
O  O74  1  0.44200000  0.28010000  0.65950000  1.0 -0.4870446641
O  O75  1  0.28010000  0.62060000  0.83810000  1.0 -0.4870446641
O  O76  1  0.62060000  0.78250000  0.34050000  1.0 -0.4870446641
O  O77  1  0.21750000  0.55800000  0.83810000  1.0 -0.4870446641
O  O78  1  0.55800000  0.71990000  0.34050000  1.0 -0.4870446641
O  O79  1  0.71990000  0.37940000  0.16190000  1.0 -0.4870446641
O  O80  1  0.37940000  0.21750000  0.65950000  1.0 -0.4870446641
O  O81  1  0.26240000  0.53230000  0.73470000  1.0 -0.5316472966
O  O82  1  0.53230000  0.79760000  0.26990000  1.0 -0.5316472966
O  O83  1  0.79760000  0.52770000  0.26530000  1.0 -0.5316472966
O  O84  1  0.52770000  0.26240000  0.73010000  1.0 -0.5316472966
O  O85  1  0.73760000  0.46770000  0.26530000  1.0 -0.5316472966
O  O86  1  0.46770000  0.20240000  0.73010000  1.0 -0.5316472966
O  O87  1  0.20240000  0.47230000  0.73470000  1.0 -0.5316472966
O  O88  1  0.47230000  0.73760000  0.26990000  1.0 -0.5316472966
O  O89  1  0.23210000  0.50870000  0.11640000  1.0 -0.5179174636
O  O90  1  0.50870000  0.39230000  0.27660000  1.0 -0.5179174636
O  O91  1  0.39230000  0.11570000  0.88360000  1.0 -0.5179174636
O  O92  1  0.11570000  0.23210000  0.72340000  1.0 -0.5179174636
O  O93  1  0.76790000  0.49130000  0.88360000  1.0 -0.5179174636
O  O94  1  0.49130000  0.60770000  0.72340000  1.0 -0.5179174636
O  O95  1  0.60770000  0.88430000  0.11640000  1.0 -0.5179174636
O  O96  1  0.88430000  0.76790000  0.27660000  1.0 -0.5179174636
O  O97  1  0.85180000  0.43120000  0.22020000  1.0 -0.4626416732
O  O98  1  0.43120000  0.21100000  0.57940000  1.0 -0.4626416732
O  O99  1  0.21100000  0.63160000  0.77980000  1.0 -0.4626416732
O  O100  1  0.63160000  0.85180000  0.42060000  1.0 -0.4626416732
O  O101  1  0.14820000  0.56880000  0.77980000  1.0 -0.4626416732
O  O102  1  0.56880000  0.78900000  0.42060000  1.0 -0.4626416732
O  O103  1  0.78900000  0.36840000  0.22020000  1.0 -0.4626416732
O  O104  1  0.36840000  0.14820000  0.57940000  1.0 -0.4626416732
O  O105  1  0.25380000  0.49020000  0.46780000  1.0 -0.5027610778
O  O106  1  0.49020000  0.02240000  0.23640000  1.0 -0.5088602664
O  O107  1  0.02240000  0.78600000  0.53220000  1.0 -0.5027610778
O  O108  1  0.78600000  0.25380000  0.76360000  1.0 -0.5088602664
O  O109  1  0.74620000  0.50980000  0.53220000  1.0 -0.5088602664
O  O110  1  0.50980000  0.97760000  0.76360000  1.0 -0.5088602664
O  O111  1  0.97760000  0.21400000  0.46780000  1.0 -0.5088602664
O  O112  1  0.21400000  0.74620000  0.23640000  1.0 -0.5088602664
O  O113  1  0.46240000  0.53830000  0.59390000  1.0 -0.8640872781
O  O114  1  0.53830000  0.94440000  0.07590000  1.0 -0.8640872781
O  O115  1  0.94440000  0.86850000  0.40610000  1.0 -0.8640872781
O  O116  1  0.86850000  0.46240000  0.92410000  1.0 -0.8640872781
O  O117  1  0.53760000  0.46170000  0.40610000  1.0 -0.8640872781
O  O118  1  0.46170000  0.05560000  0.92410000  1.0 -0.8640872781
O  O119  1  0.05560000  0.13150000  0.59390000  1.0 -0.8640872781
O  O120  1  0.13150000  0.53760000  0.07590000  1.0 -0.8640872781
O  O121  1  0.20430000  0.46530000  0.21680000  1.0 -0.4798146803
O  O122  1  0.46530000  0.24850000  0.26100000  1.0 -0.4798146803
O  O123  1  0.24850000  0.98750000  0.78320000  1.0 -0.4798146803
O  O124  1  0.98750000  0.20430000  0.73900000  1.0 -0.4798146803
O  O125  1  0.79570000  0.53470000  0.78320000  1.0 -0.4798146803
O  O126  1  0.53470000  0.75150000  0.73900000  1.0 -0.4798146803
O  O127  1  0.75150000  0.01250000  0.21680000  1.0 -0.4798146803
O  O128  1  0.01250000  0.79570000  0.26100000  1.0 -0.4798146803
O  O129  1  0.48170000  0.51620000  0.81570000  1.0 -0.8685649205
O  O130  1  0.51620000  0.70050000  0.03450000  1.0 -0.8685649205
O  O131  1  0.70050000  0.66600000  0.18430000  1.0 -0.8685649205
O  O132  1  0.66600000  0.48170000  0.96550000  1.0 -0.8685649205
O  O133  1  0.51830000  0.48380000  0.18430000  1.0 -0.8685649205
O  O134  1  0.48380000  0.29950000  0.96550000  1.0 -0.8685649205
O  O135  1  0.29950000  0.33400000  0.81570000  1.0 -0.8685649205
O  O136  1  0.33400000  0.51830000  0.03450000  1.0 -0.8685649205
