# DDEC6 charges by PACMAN v1.1 (https://github.com/mtap-research/PACMAN-charge/)
data_HUNCIE_ASR_pacman
_symmetry_space_group_name_H-M   'P 1'
_cell_length_a   31.17040000
_cell_length_b   31.17040000
_cell_length_c   31.17040000
_cell_angle_alpha   101.17500000
_cell_angle_beta   101.17500000
_cell_angle_gamma   127.76100000
_symmetry_Int_Tables_number   1
_chemical_formula_structural   CuH11C25O6
_chemical_formula_sum   'Cu8 H88 C200 O48'
_cell_volume   21497.63723473
_cell_formula_units_Z   8
loop_
 _symmetry_equiv_pos_site_id
 _symmetry_equiv_pos_as_xyz
  1  'x, y, z'
loop_
 _atom_site_type_symbol
 _atom_site_label
 _atom_site_symmetry_multiplicity
 _atom_site_fract_x
 _atom_site_fract_y
 _atom_site_fract_z
 _atom_site_occupancy
 _atom_site_charge
Cu  Cu1  1  0.50000000  0.79278000  0.29278000  1.0 0.8622786752
Cu  Cu2  1  0.50000000  0.20722000  0.70722000  1.0 0.8622786752
Cu  Cu3  1  0.20722000  0.50000000  0.70722000  1.0 0.8622786752
Cu  Cu4  1  0.79278000  0.50000000  0.29278000  1.0 0.8622786752
Cu  Cu5  1  0.50000000  0.85973000  0.35973000  1.0 0.8682726971
Cu  Cu6  1  0.50000000  0.14027000  0.64027000  1.0 0.8682726971
Cu  Cu7  1  0.14027000  0.50000000  0.64027000  1.0 0.8682726971
Cu  Cu8  1  0.85973000  0.50000000  0.35973000  1.0 0.8682726971
H  H1  1  0.11800000  0.61800000  0.23600000  1.0 0.1098006102
H  H2  1  0.38200000  0.88200000  0.76400000  1.0 0.1098006102
H  H3  1  0.88200000  0.11800000  0.50000000  1.0 0.1098006102
H  H4  1  0.61800000  0.38200000  0.50000000  1.0 0.1098006102
H  H5  1  0.88200000  0.38200000  0.76400000  1.0 0.1098006102
H  H6  1  0.61800000  0.11800000  0.23600000  1.0 0.1098006102
H  H7  1  0.11800000  0.88200000  0.50000000  1.0 0.1098006102
H  H8  1  0.38200000  0.61800000  0.50000000  1.0 0.1098006102
H  H9  1  0.31370000  0.66550000  0.19940000  1.0 0.128098629
H  H10  1  0.46610000  0.11430000  0.80060000  1.0 0.128098629
H  H11  1  0.11430000  0.31370000  0.64820000  1.0 0.128098629
H  H12  1  0.66550000  0.46610000  0.35180000  1.0 0.128098629
H  H13  1  0.68630000  0.88570000  0.35180000  1.0 0.128098629
H  H14  1  0.53390000  0.33450000  0.64820000  1.0 0.128098629
H  H15  1  0.88570000  0.53390000  0.19940000  1.0 0.128098629
H  H16  1  0.33450000  0.68630000  0.80060000  1.0 0.128098629
H  H17  1  0.68630000  0.33450000  0.80060000  1.0 0.128098629
H  H18  1  0.53390000  0.88570000  0.19940000  1.0 0.128098629
H  H19  1  0.88570000  0.68630000  0.35180000  1.0 0.128098629
H  H20  1  0.33450000  0.53390000  0.64820000  1.0 0.128098629
H  H21  1  0.31370000  0.11430000  0.64820000  1.0 0.128098629
H  H22  1  0.46610000  0.66550000  0.35180000  1.0 0.128098629
H  H23  1  0.11430000  0.46610000  0.80060000  1.0 0.128098629
H  H24  1  0.66550000  0.31370000  0.19940000  1.0 0.128098629
H  H25  1  0.21290000  0.60770000  0.15860000  1.0 0.1098006102
H  H26  1  0.44910000  0.05430000  0.84140000  1.0 0.1098006102
H  H27  1  0.05430000  0.21290000  0.60520000  1.0 0.1098006102
H  H28  1  0.60770000  0.44910000  0.39480000  1.0 0.1098006102
H  H29  1  0.78710000  0.94570000  0.39480000  1.0 0.1098006102
H  H30  1  0.55090000  0.39230000  0.60520000  1.0 0.1098006102
H  H31  1  0.94570000  0.55090000  0.15860000  1.0 0.1098006102
H  H32  1  0.39230000  0.78710000  0.84140000  1.0 0.1098006102
H  H33  1  0.78710000  0.39230000  0.84140000  1.0 0.1098006102
H  H34  1  0.55090000  0.94570000  0.15860000  1.0 0.1098006102
H  H35  1  0.94570000  0.78710000  0.39480000  1.0 0.1098006102
H  H36  1  0.39230000  0.55090000  0.60520000  1.0 0.1098006102
H  H37  1  0.21290000  0.05430000  0.60520000  1.0 0.1098006102
H  H38  1  0.44910000  0.60770000  0.39480000  1.0 0.1098006102
H  H39  1  0.05430000  0.44910000  0.84140000  1.0 0.1098006102
H  H40  1  0.60770000  0.21290000  0.15860000  1.0 0.1098006102
H  H41  1  0.21380000  0.70720000  0.26080000  1.0 0.1098006102
H  H42  1  0.44640000  0.95300000  0.73920000  1.0 0.1098006102
H  H43  1  0.95300000  0.21380000  0.50660000  1.0 0.1098006102
H  H44  1  0.70720000  0.44640000  0.49340000  1.0 0.1098006102
H  H45  1  0.78620000  0.04700000  0.49340000  1.0 0.1098006102
H  H46  1  0.55360000  0.29280000  0.50660000  1.0 0.1098006102
H  H47  1  0.04700000  0.55360000  0.26080000  1.0 0.1098006102
H  H48  1  0.29280000  0.78620000  0.73920000  1.0 0.1098006102
H  H49  1  0.78620000  0.29280000  0.73920000  1.0 0.1098006102
H  H50  1  0.55360000  0.04700000  0.26080000  1.0 0.1098006102
H  H51  1  0.04700000  0.78620000  0.49340000  1.0 0.1098006102
H  H52  1  0.29280000  0.55360000  0.50660000  1.0 0.1098006102
H  H53  1  0.21380000  0.95300000  0.50660000  1.0 0.1098006102
H  H54  1  0.44640000  0.70720000  0.49340000  1.0 0.1098006102
H  H55  1  0.95300000  0.44640000  0.73920000  1.0 0.1098006102
H  H56  1  0.70720000  0.21380000  0.26080000  1.0 0.1098006102
H  H57  1  0.31390000  0.76760000  0.30050000  1.0 0.128098629
H  H58  1  0.46710000  0.01340000  0.69950000  1.0 0.128098629
H  H59  1  0.01340000  0.31390000  0.54630000  1.0 0.128098629
H  H60  1  0.76760000  0.46710000  0.45370000  1.0 0.128098629
H  H61  1  0.68610000  0.98660000  0.45370000  1.0 0.128098629
H  H62  1  0.53290000  0.23240000  0.54630000  1.0 0.128098629
H  H63  1  0.98660000  0.53290000  0.30050000  1.0 0.128098629
H  H64  1  0.23240000  0.68610000  0.69950000  1.0 0.128098629
H  H65  1  0.68610000  0.23240000  0.69950000  1.0 0.128098629
H  H66  1  0.53290000  0.98660000  0.30050000  1.0 0.128098629
H  H67  1  0.98660000  0.68610000  0.45370000  1.0 0.128098629
H  H68  1  0.23240000  0.53290000  0.54630000  1.0 0.128098629
H  H69  1  0.31390000  0.01340000  0.54630000  1.0 0.128098629
H  H70  1  0.46710000  0.76760000  0.45370000  1.0 0.128098629
H  H71  1  0.01340000  0.46710000  0.69950000  1.0 0.128098629
H  H72  1  0.76760000  0.31390000  0.30050000  1.0 0.128098629
H  H73  1  0.13710000  0.59570000  0.11260000  1.0 0.1202789326
H  H74  1  0.48310000  0.02450000  0.88740000  1.0 0.1202789326
H  H75  1  0.02450000  0.13710000  0.54140000  1.0 0.1202789326
H  H76  1  0.59570000  0.48310000  0.45860000  1.0 0.1202789326
H  H77  1  0.86290000  0.97550000  0.45860000  1.0 0.1202789326
H  H78  1  0.51690000  0.40430000  0.54140000  1.0 0.1202789326
H  H79  1  0.97550000  0.51690000  0.11260000  1.0 0.1202789326
H  H80  1  0.40430000  0.86290000  0.88740000  1.0 0.1202789326
H  H81  1  0.86290000  0.40430000  0.88740000  1.0 0.1202789326
H  H82  1  0.51690000  0.97550000  0.11260000  1.0 0.1202789326
H  H83  1  0.97550000  0.86290000  0.45860000  1.0 0.1202789326
H  H84  1  0.40430000  0.51690000  0.54140000  1.0 0.1202789326
H  H85  1  0.13710000  0.02450000  0.54140000  1.0 0.1202789326
H  H86  1  0.48310000  0.59570000  0.45860000  1.0 0.1202789326
H  H87  1  0.02450000  0.48310000  0.88740000  1.0 0.1202789326
H  H88  1  0.59570000  0.13710000  0.11260000  1.0 0.1202789326
C  C1  1  0.10143000  0.60143000  0.20286000  1.0 -0.2039262992
C  C2  1  0.39857000  0.89857000  0.79714000  1.0 -0.2039262992
C  C3  1  0.89857000  0.10143000  0.50000000  1.0 -0.2039262992
C  C4  1  0.60143000  0.39857000  0.50000000  1.0 -0.2039262992
C  C5  1  0.89857000  0.39857000  0.79714000  1.0 -0.2039262992
C  C6  1  0.60143000  0.10143000  0.20286000  1.0 -0.2039262992
C  C7  1  0.10143000  0.89857000  0.50000000  1.0 -0.2039262992
C  C8  1  0.39857000  0.60143000  0.50000000  1.0 -0.2039262992
C  C9  1  0.39054000  0.76159000  0.28081000  1.0 0.5757473162
C  C10  1  0.48078000  0.10973000  0.71919000  1.0 0.5757473162
C  C11  1  0.10973000  0.39054000  0.62895000  1.0 0.5757473162
C  C12  1  0.76159000  0.48078000  0.37105000  1.0 0.5757473162
C  C13  1  0.60946000  0.89027000  0.37105000  1.0 0.5757473162
C  C14  1  0.51922000  0.23841000  0.62895000  1.0 0.5757473162
C  C15  1  0.89027000  0.51922000  0.28081000  1.0 0.5757473162
C  C16  1  0.23841000  0.60946000  0.71919000  1.0 0.5757473162
C  C17  1  0.60946000  0.23841000  0.71919000  1.0 0.5757473162
C  C18  1  0.51922000  0.89027000  0.28081000  1.0 0.5757473162
C  C19  1  0.89027000  0.60946000  0.37105000  1.0 0.5757473162
C  C20  1  0.23841000  0.51922000  0.62895000  1.0 0.5757473162
C  C21  1  0.39054000  0.10973000  0.62895000  1.0 0.5757473162
C  C22  1  0.48078000  0.76159000  0.37105000  1.0 0.5757473162
C  C23  1  0.10973000  0.48078000  0.71919000  1.0 0.5757473162
C  C24  1  0.76159000  0.39054000  0.28081000  1.0 0.5757473162
C  C25  1  0.32440000  0.72273000  0.25423000  1.0 -0.0305905813
C  C26  1  0.46850000  0.07017000  0.74577000  1.0 -0.0305905813
C  C27  1  0.07017000  0.32440000  0.60167000  1.0 -0.0305905813
C  C28  1  0.72273000  0.46850000  0.39833000  1.0 -0.0305905813
C  C29  1  0.67560000  0.92983000  0.39833000  1.0 -0.0305905813
C  C30  1  0.53150000  0.27727000  0.60167000  1.0 -0.0305905813
C  C31  1  0.92983000  0.53150000  0.25423000  1.0 -0.0305905813
C  C32  1  0.27727000  0.67560000  0.74577000  1.0 -0.0305905813
C  C33  1  0.67560000  0.27727000  0.74577000  1.0 -0.0305905813
C  C34  1  0.53150000  0.92983000  0.25423000  1.0 -0.0305905813
C  C35  1  0.92983000  0.67560000  0.39833000  1.0 -0.0305905813
C  C36  1  0.27727000  0.53150000  0.60167000  1.0 -0.0305905813
C  C37  1  0.32440000  0.07017000  0.60167000  1.0 -0.0305905813
C  C38  1  0.46850000  0.72273000  0.39833000  1.0 -0.0305905813
C  C39  1  0.07017000  0.46850000  0.74577000  1.0 -0.0305905813
C  C40  1  0.72273000  0.32440000  0.25423000  1.0 -0.0305905813
C  C41  1  0.29400000  0.67447000  0.21167000  1.0 -0.091488993
C  C42  1  0.46280000  0.08233000  0.78833000  1.0 -0.091488993
C  C43  1  0.08233000  0.29400000  0.61953000  1.0 -0.091488993
C  C44  1  0.67447000  0.46280000  0.38047000  1.0 -0.091488993
C  C45  1  0.70600000  0.91767000  0.38047000  1.0 -0.091488993
C  C46  1  0.53720000  0.32553000  0.61953000  1.0 -0.091488993
C  C47  1  0.91767000  0.53720000  0.21167000  1.0 -0.091488993
C  C48  1  0.32553000  0.70600000  0.78833000  1.0 -0.091488993
C  C49  1  0.70600000  0.32553000  0.78833000  1.0 -0.091488993
C  C50  1  0.53720000  0.91767000  0.21167000  1.0 -0.091488993
C  C51  1  0.91767000  0.70600000  0.38047000  1.0 -0.091488993
C  C52  1  0.32553000  0.53720000  0.61953000  1.0 -0.091488993
C  C53  1  0.29400000  0.08233000  0.61953000  1.0 -0.091488993
C  C54  1  0.46280000  0.67447000  0.38047000  1.0 -0.091488993
C  C55  1  0.08233000  0.46280000  0.78833000  1.0 -0.091488993
C  C56  1  0.67447000  0.29400000  0.21167000  1.0 -0.091488993
C  C57  1  0.23337000  0.63969000  0.18756000  1.0 -0.1575038015
C  C58  1  0.45213000  0.04581000  0.81244000  1.0 -0.1575038015
C  C59  1  0.04581000  0.23337000  0.59368000  1.0 -0.1575038015
C  C60  1  0.63969000  0.45213000  0.40632000  1.0 -0.1575038015
C  C61  1  0.76663000  0.95419000  0.40632000  1.0 -0.1514846673
C  C62  1  0.54787000  0.36031000  0.59368000  1.0 -0.1575038015
C  C63  1  0.95419000  0.54787000  0.18756000  1.0 -0.1575038015
C  C64  1  0.36031000  0.76663000  0.81244000  1.0 -0.1575038015
C  C65  1  0.76663000  0.36031000  0.81244000  1.0 -0.1514846673
C  C66  1  0.54787000  0.95419000  0.18756000  1.0 -0.1575038015
C  C67  1  0.95419000  0.76663000  0.40632000  1.0 -0.1575038015
C  C68  1  0.36031000  0.54787000  0.59368000  1.0 -0.1575038015
C  C69  1  0.23337000  0.04581000  0.59368000  1.0 -0.1575038015
C  C70  1  0.45213000  0.63969000  0.40632000  1.0 -0.1575038015
C  C71  1  0.04581000  0.45213000  0.81244000  1.0 -0.1575038015
C  C72  1  0.63969000  0.23337000  0.18756000  1.0 -0.1575038015
C  C73  1  0.20292000  0.65116000  0.20522000  1.0 0.0709767225
C  C74  1  0.44594000  0.99770000  0.79478000  1.0 0.0709767225
C  C75  1  0.99770000  0.20292000  0.55176000  1.0 0.0709767225
C  C76  1  0.65116000  0.44594000  0.44824000  1.0 0.0709767225
C  C77  1  0.79708000  0.00230000  0.44824000  1.0 0.0709767225
C  C78  1  0.55406000  0.34884000  0.55176000  1.0 0.0709767225
C  C79  1  0.00230000  0.55406000  0.20522000  1.0 0.0709767225
C  C80  1  0.34884000  0.79708000  0.79478000  1.0 0.0709767225
C  C81  1  0.79708000  0.34884000  0.79478000  1.0 0.0709767225
C  C82  1  0.55406000  0.00230000  0.20522000  1.0 0.0709767225
C  C83  1  0.00230000  0.79708000  0.44824000  1.0 0.0709767225
C  C84  1  0.34884000  0.55406000  0.55176000  1.0 0.0709767225
C  C85  1  0.20292000  0.99770000  0.55176000  1.0 0.0709767225
C  C86  1  0.44594000  0.65116000  0.44824000  1.0 0.0709767225
C  C87  1  0.99770000  0.44594000  0.79478000  1.0 0.0709767225
C  C88  1  0.65116000  0.20292000  0.20522000  1.0 0.0709767225
C  C89  1  0.23399000  0.69914000  0.24811000  1.0 -0.1514846673
C  C90  1  0.45103000  0.98588000  0.75189000  1.0 -0.1514846673
C  C91  1  0.98588000  0.23399000  0.53485000  1.0 -0.1514846673
C  C92  1  0.69914000  0.45103000  0.46515000  1.0 -0.1514846673
C  C93  1  0.76601000  0.01412000  0.46515000  1.0 -0.1514846673
C  C94  1  0.54897000  0.30086000  0.53485000  1.0 -0.1514846673
C  C95  1  0.01412000  0.54897000  0.24811000  1.0 -0.1514846673
C  C96  1  0.30086000  0.76601000  0.75189000  1.0 -0.1514846673
C  C97  1  0.76601000  0.30086000  0.75189000  1.0 -0.1514846673
C  C98  1  0.54897000  0.01412000  0.24811000  1.0 -0.1514846673
C  C99  1  0.01412000  0.76601000  0.46515000  1.0 -0.1514846673
C  C100  1  0.30086000  0.54897000  0.53485000  1.0 -0.1514846673
C  C101  1  0.23399000  0.98588000  0.53485000  1.0 -0.1514846673
C  C102  1  0.45103000  0.69914000  0.46515000  1.0 -0.1514846673
C  C103  1  0.98588000  0.45103000  0.75189000  1.0 -0.1514846673
C  C104  1  0.69914000  0.23399000  0.24811000  1.0 -0.1514846673
C  C105  1  0.29363000  0.73495000  0.27214000  1.0 -0.091488993
C  C106  1  0.46281000  0.02149000  0.72786000  1.0 -0.091488993
C  C107  1  0.02149000  0.29363000  0.55868000  1.0 -0.091488993
C  C108  1  0.73495000  0.46281000  0.44132000  1.0 -0.091488993
C  C109  1  0.70637000  0.97851000  0.44132000  1.0 -0.091488993
C  C110  1  0.53719000  0.26505000  0.55868000  1.0 -0.091488993
C  C111  1  0.97851000  0.53719000  0.27214000  1.0 -0.091488993
C  C112  1  0.26505000  0.70637000  0.72786000  1.0 -0.091488993
C  C113  1  0.70637000  0.26505000  0.72786000  1.0 -0.091488993
C  C114  1  0.53719000  0.97851000  0.27214000  1.0 -0.091488993
C  C115  1  0.97851000  0.70637000  0.44132000  1.0 -0.091488993
C  C116  1  0.26505000  0.53719000  0.55868000  1.0 -0.091488993
C  C117  1  0.29363000  0.02149000  0.55868000  1.0 -0.091488993
C  C118  1  0.46281000  0.73495000  0.44132000  1.0 -0.091488993
C  C119  1  0.02149000  0.46281000  0.72786000  1.0 -0.091488993
C  C120  1  0.73495000  0.29363000  0.27214000  1.0 -0.091488993
C  C121  1  0.13809000  0.61275000  0.17880000  1.0 0.0709767225
C  C122  1  0.43395000  0.95929000  0.82120000  1.0 0.0709767225
C  C123  1  0.95929000  0.13809000  0.52534000  1.0 0.0709767225
C  C124  1  0.61275000  0.43395000  0.47466000  1.0 0.0709767225
C  C125  1  0.86191000  0.04071000  0.47466000  1.0 0.0709767225
C  C126  1  0.56605000  0.38725000  0.52534000  1.0 0.0709767225
C  C127  1  0.04071000  0.56605000  0.17880000  1.0 0.0709767225
C  C128  1  0.38725000  0.86191000  0.82120000  1.0 0.0709767225
C  C129  1  0.86191000  0.38725000  0.82120000  1.0 0.0709767225
C  C130  1  0.56605000  0.04071000  0.17880000  1.0 0.0709767225
C  C131  1  0.04071000  0.86191000  0.47466000  1.0 0.0709767225
C  C132  1  0.38725000  0.56605000  0.52534000  1.0 0.0709767225
C  C133  1  0.13809000  0.95929000  0.52534000  1.0 0.0709767225
C  C134  1  0.43395000  0.61275000  0.47466000  1.0 0.0709767225
C  C135  1  0.95929000  0.43395000  0.82120000  1.0 0.0709767225
C  C136  1  0.61275000  0.13809000  0.17880000  1.0 0.0709767225
C  C137  1  0.11293000  0.58803000  0.12906000  1.0 -0.2039262992
C  C138  1  0.45897000  0.98387000  0.87094000  1.0 -0.2039262992
C  C139  1  0.98387000  0.11293000  0.52490000  1.0 -0.2039262992
C  C140  1  0.58803000  0.45897000  0.47510000  1.0 -0.2039262992
C  C141  1  0.88707000  0.01613000  0.47510000  1.0 -0.2039262992
C  C142  1  0.54103000  0.41197000  0.52490000  1.0 -0.2039262992
C  C143  1  0.01613000  0.54103000  0.12906000  1.0 -0.2039262992
C  C144  1  0.41197000  0.88707000  0.87094000  1.0 -0.2039262992
C  C145  1  0.88707000  0.41197000  0.87094000  1.0 -0.2039262992
C  C146  1  0.54103000  0.01613000  0.12906000  1.0 -0.2039262992
C  C147  1  0.01613000  0.88707000  0.47510000  1.0 -0.2039262992
C  C148  1  0.41197000  0.54103000  0.52490000  1.0 -0.2039262992
C  C149  1  0.11293000  0.98387000  0.52490000  1.0 -0.2039262992
C  C150  1  0.45897000  0.58803000  0.47510000  1.0 -0.2039262992
C  C151  1  0.98387000  0.45897000  0.87094000  1.0 -0.2039262992
C  C152  1  0.58803000  0.11293000  0.12906000  1.0 -0.2039262992
C  C153  1  0.05150000  0.55150000  0.10300000  1.0 0.1098006102
C  C154  1  0.44850000  0.94850000  0.89700000  1.0 0.1098006102
C  C155  1  0.94850000  0.05150000  0.50000000  1.0 0.1098006102
C  C156  1  0.55150000  0.44850000  0.50000000  1.0 0.1098006102
C  C157  1  0.94850000  0.44850000  0.89700000  1.0 0.1098006102
C  C158  1  0.55150000  0.05150000  0.10300000  1.0 0.1098006102
C  C159  1  0.05150000  0.94850000  0.50000000  1.0 0.1098006102
C  C160  1  0.44850000  0.55150000  0.50000000  1.0 0.1098006102
C  C161  1  0.02502000  0.52502000  0.05004000  1.0 -0.1044912603
C  C162  1  0.47498000  0.97498000  0.94996000  1.0 -0.1044912603
C  C163  1  0.97498000  0.02502000  0.50000000  1.0 -0.1044912603
C  C164  1  0.52502000  0.47498000  0.50000000  1.0 -0.1044912603
C  C165  1  0.97498000  0.47498000  0.94996000  1.0 -0.1044912603
C  C166  1  0.52502000  0.02502000  0.05004000  1.0 -0.1044912603
C  C167  1  0.02502000  0.97498000  0.50000000  1.0 -0.1044912603
C  C168  1  0.47498000  0.52502000  0.50000000  1.0 -0.1044912603
C  C169  1  0.05175000  0.55984000  0.02535000  1.0 0.1360433535
C  C170  1  0.53449000  0.02640000  0.97465000  1.0 0.1360433535
C  C171  1  0.02640000  0.05175000  0.49191000  1.0 0.1360433535
C  C172  1  0.55984000  0.53449000  0.50809000  1.0 0.1360433535
C  C173  1  0.94825000  0.97360000  0.50809000  1.0 0.1360433535
C  C174  1  0.46551000  0.44016000  0.49191000  1.0 0.1360433535
C  C175  1  0.97360000  0.46551000  0.02535000  1.0 0.1360433535
C  C176  1  0.44016000  0.94825000  0.97465000  1.0 0.1360433535
C  C177  1  0.94825000  0.44016000  0.97465000  1.0 0.1360433535
C  C178  1  0.46551000  0.97360000  0.02535000  1.0 0.1360433535
C  C179  1  0.97360000  0.94825000  0.50809000  1.0 0.1360433535
C  C180  1  0.44016000  0.46551000  0.49191000  1.0 0.1360433535
C  C181  1  0.05175000  0.02640000  0.49191000  1.0 0.1360433535
C  C182  1  0.53449000  0.55984000  0.50809000  1.0 0.1360433535
C  C183  1  0.02640000  0.53449000  0.97465000  1.0 0.1360433535
C  C184  1  0.55984000  0.05175000  0.02535000  1.0 0.1360433535
C  C185  1  0.12460000  0.65270000  0.01810000  1.0 0.1098006102
C  C186  1  0.63460000  0.10650000  0.98190000  1.0 0.1098006102
C  C187  1  0.10650000  0.12460000  0.47190000  1.0 0.1098006102
C  C188  1  0.65270000  0.63460000  0.52810000  1.0 0.1098006102
C  C189  1  0.87540000  0.89350000  0.52810000  1.0 0.1098006102
C  C190  1  0.36540000  0.34730000  0.47190000  1.0 0.1098006102
C  C191  1  0.89350000  0.36540000  0.01810000  1.0 0.1098006102
C  C192  1  0.34730000  0.87540000  0.98190000  1.0 0.1098006102
C  C193  1  0.87540000  0.34730000  0.98190000  1.0 0.1098006102
C  C194  1  0.36540000  0.89350000  0.01810000  1.0 0.1098006102
C  C195  1  0.89350000  0.87540000  0.52810000  1.0 0.1098006102
C  C196  1  0.34730000  0.36540000  0.47190000  1.0 0.1098006102
C  C197  1  0.12460000  0.10650000  0.47190000  1.0 0.1098006102
C  C198  1  0.63460000  0.65270000  0.52810000  1.0 0.1098006102
C  C199  1  0.10650000  0.63460000  0.98190000  1.0 0.1098006102
C  C200  1  0.65270000  0.12460000  0.01810000  1.0 0.1098006102
O  O1  1  0.41551000  0.80486000  0.32015000  1.0 -0.5374241792
O  O2  1  0.48471000  0.09536000  0.67985000  1.0 -0.5374241792
O  O3  1  0.09536000  0.41551000  0.61065000  1.0 -0.5374241792
O  O4  1  0.80486000  0.48471000  0.38935000  1.0 -0.5374241792
O  O5  1  0.58449000  0.90464000  0.38935000  1.0 -0.5374241792
O  O6  1  0.51529000  0.19514000  0.61065000  1.0 -0.5374241792
O  O7  1  0.90464000  0.51529000  0.32015000  1.0 -0.5374241792
O  O8  1  0.19514000  0.58449000  0.67985000  1.0 -0.5374241792
O  O9  1  0.58449000  0.19514000  0.67985000  1.0 -0.5374241792
O  O10  1  0.51529000  0.90464000  0.32015000  1.0 -0.5374241792
O  O11  1  0.90464000  0.58449000  0.38935000  1.0 -0.5374241792
O  O12  1  0.19514000  0.51529000  0.61065000  1.0 -0.5374241792
O  O13  1  0.41551000  0.09536000  0.61065000  1.0 -0.5374241792
O  O14  1  0.48471000  0.80486000  0.38935000  1.0 -0.5374241792
O  O15  1  0.09536000  0.48471000  0.67985000  1.0 -0.5374241792
O  O16  1  0.80486000  0.41551000  0.32015000  1.0 -0.5374241792
O  O17  1  0.41536000  0.74752000  0.26280000  1.0 -0.5271928855
O  O18  1  0.48472000  0.15256000  0.73720000  1.0 -0.5271928855
O  O19  1  0.15256000  0.41536000  0.66784000  1.0 -0.5271928855
O  O20  1  0.74752000  0.48472000  0.33216000  1.0 -0.5271928855
O  O21  1  0.58464000  0.84744000  0.33216000  1.0 -0.5271928855
O  O22  1  0.51528000  0.25248000  0.66784000  1.0 -0.5271928855
O  O23  1  0.84744000  0.51528000  0.26280000  1.0 -0.5271928855
O  O24  1  0.25248000  0.58464000  0.73720000  1.0 -0.5271928855
O  O25  1  0.58464000  0.25248000  0.73720000  1.0 -0.5271928855
O  O26  1  0.51528000  0.84744000  0.26280000  1.0 -0.5271928855
O  O27  1  0.84744000  0.58464000  0.33216000  1.0 -0.5271928855
O  O28  1  0.25248000  0.51528000  0.66784000  1.0 -0.5271928855
O  O29  1  0.41536000  0.15256000  0.66784000  1.0 -0.5271928855
O  O30  1  0.48472000  0.74752000  0.33216000  1.0 -0.5271928855
O  O31  1  0.15256000  0.48472000  0.73720000  1.0 -0.5271928855
O  O32  1  0.74752000  0.41536000  0.26280000  1.0 -0.5271928855
O  O33  1  0.10195000  0.61930000  0.04703000  1.0 -0.1575038015
O  O34  1  0.57227000  0.05492000  0.95297000  1.0 -0.1575038015
O  O35  1  0.05492000  0.10195000  0.48265000  1.0 -0.1575038015
O  O36  1  0.61930000  0.57227000  0.51735000  1.0 -0.1575038015
O  O37  1  0.89805000  0.94508000  0.51735000  1.0 -0.1575038015
O  O38  1  0.42773000  0.38070000  0.48265000  1.0 -0.1575038015
O  O39  1  0.94508000  0.42773000  0.04703000  1.0 -0.1575038015
O  O40  1  0.38070000  0.89805000  0.95297000  1.0 -0.1575038015
O  O41  1  0.89805000  0.38070000  0.95297000  1.0 -0.1575038015
O  O42  1  0.42773000  0.94508000  0.04703000  1.0 -0.1575038015
O  O43  1  0.94508000  0.89805000  0.51735000  1.0 -0.1575038015
O  O44  1  0.38070000  0.42773000  0.48265000  1.0 -0.1575038015
O  O45  1  0.10195000  0.05492000  0.48265000  1.0 -0.1575038015
O  O46  1  0.57227000  0.61930000  0.51735000  1.0 -0.1575038015
O  O47  1  0.05492000  0.57227000  0.95297000  1.0 -0.1575038015
O  O48  1  0.61930000  0.10195000  0.04703000  1.0 -0.1575038015
