# DDEC6 charges by PACMAN v1.1 (https://github.com/mtap-research/PACMAN-charge/)
data_HUQHAE_ASR_pacman
_symmetry_space_group_name_H-M   'P 1'
_cell_length_a   19.60800000
_cell_length_b   21.13300000
_cell_length_c   22.17980000
_cell_angle_alpha   120.31900000
_cell_angle_beta   109.15900000
_cell_angle_gamma   80.93300000
_symmetry_Int_Tables_number   1
_chemical_formula_structural   Zn3H58C90(NO3)4
_chemical_formula_sum   'Zn6 H116 C180 N8 O24'
_cell_volume   7493.92859249
_cell_formula_units_Z   2
loop_
 _symmetry_equiv_pos_site_id
 _symmetry_equiv_pos_as_xyz
  1  'x, y, z'
loop_
 _atom_site_type_symbol
 _atom_site_label
 _atom_site_symmetry_multiplicity
 _atom_site_fract_x
 _atom_site_fract_y
 _atom_site_fract_z
 _atom_site_occupancy
 _atom_site_charge
Zn  Zn1  1  0.59857000  0.96539000  0.09704000  1.0 0.84824442
Zn  Zn2  1  0.76627000  0.88592000  0.09345000  1.0 0.9705047969
Zn  Zn3  1  0.92080000  0.88583000  0.05586000  1.0 0.84824442
Zn  Zn4  1  0.40143000  0.03461000  0.90296000  1.0 0.84824442
Zn  Zn5  1  0.23373000  0.11408000  0.90655000  1.0 0.9705047969
Zn  Zn6  1  0.07920000  0.11417000  0.94414000  1.0 0.84824442
H  H1  1  0.50060000  0.98020000  0.18260000  1.0 0.1294602101
H  H2  1  0.51230000  0.81180000  0.73740000  1.0 0.1109704683
H  H3  1  0.74400000  0.86630000  0.89530000  1.0 0.1294602101
H  H4  1  0.63580000  0.20320000  0.34710000  1.0 0.1294602101
H  H5  1  0.60050000  0.31590000  0.20360000  1.0 0.1109704683
H  H6  1  0.71050000  0.68200000  0.30980000  1.0 0.1109704683
H  H7  1  0.75680000  0.78030000  0.32270000  1.0 0.1109704683
H  H8  1  0.38760000  0.96170000  0.16900000  1.0 0.137539665
H  H9  1  0.66050000  0.56950000  0.49780000  1.0 0.1294602101
H  H10  1  0.55380000  0.42380000  0.24730000  1.0 0.1192448435
H  H11  1  0.69350000  0.82070000  0.66810000  1.0 0.1109704683
H  H12  1  0.53600000  0.76740000  0.43130000  1.0 0.137539665
H  H13  1  0.55410000  0.55350000  0.30410000  1.0 0.1294602101
H  H14  1  0.53850000  0.87570000  0.87370000  1.0 0.1192448435
H  H15  1  0.45140000  0.93820000  0.97780000  1.0 0.1109704683
H  H16  1  0.73230000  0.81530000  0.77320000  1.0 0.1109704683
H  H17  1  0.66440000  0.44040000  0.44520000  1.0 0.1109704683
H  H18  1  0.61020000  0.18800000  0.15020000  1.0 0.1192448435
H  H19  1  0.33050000  0.91970000  0.96220000  1.0 0.1464637347
H  H20  1  0.52080000  0.70550000  0.62830000  1.0 0.1192448435
H  H21  1  0.50950000  0.64230000  0.50400000  1.0 0.1294602101
H  H22  1  0.63470000  0.32900000  0.40280000  1.0 0.1192448435
H  H23  1  0.78050000  0.84670000  0.26950000  1.0 0.1192448435
H  H24  1  0.56290000  0.87470000  0.20380000  1.0 0.1192448435
H  H25  1  0.22460000  0.96110000  0.01840000  1.0 0.1464637347
H  H26  1  0.56420000  0.83290000  0.38570000  1.0 0.1192448435
H  H27  1  0.69360000  0.61950000  0.36640000  1.0 0.1192448435
H  H28  1  0.54720000  0.82400000  0.27190000  1.0 0.1109704683
H  H29  1  0.68740000  0.75960000  0.54850000  1.0 0.1192448435
H  H30  1  0.99340000  0.98720000  0.04220000  1.0 0.090754709
H  H31  1  0.10950000  0.01240000  0.04670000  1.0 0.137539665
H  H32  1  0.07060000  0.83440000  0.10530000  1.0 0.1294602101
H  H33  1  0.29040000  0.92570000  0.12730000  1.0 0.1294602101
H  H34  1  0.19100000  0.84990000  0.10720000  1.0 0.137539665
H  H35  1  0.78210000  0.24880000  0.29280000  1.0 0.1109704683
H  H36  1  0.78970000  0.68700000  0.46800000  1.0 0.1192448435
H  H37  1  0.94210000  0.47320000  0.31350000  1.0 0.1294602101
H  H38  1  0.91790000  0.69550000  0.44330000  1.0 0.1294602101
H  H39  1  0.77210000  0.12250000  0.23060000  1.0 0.1294602101
H  H40  1  0.93480000  0.34370000  0.25030000  1.0 0.1192448435
H  H41  1  0.94450000  0.57550000  0.60350000  1.0 0.1109704683
H  H42  1  0.81470000  0.73060000  0.09250000  1.0 0.1192448435
H  H43  1  0.92390000  0.76140000  0.38840000  1.0 0.1192448435
H  H44  1  0.76230000  0.35930000  0.31630000  1.0 0.1109704683
H  H45  1  0.81350000  0.53010000  0.24980000  1.0 0.1294602101
H  H46  1  0.97220000  0.78270000  0.32480000  1.0 0.1109704683
H  H47  1  0.79950000  0.67550000  0.15500000  1.0 0.1192448435
H  H48  1  0.90310000  0.23640000  0.17310000  1.0 0.1192448435
H  H49  1  0.82070000  0.59180000  0.18830000  1.0 0.1192448435
H  H50  1  0.91560000  0.60410000  0.70090000  1.0 0.1109704683
H  H51  1  0.99060000  0.84730000  0.27030000  1.0 0.1192448435
H  H52  1  0.76350000  0.48290000  0.36770000  1.0 0.1294602101
H  H53  1  0.92820000  0.52250000  0.47790000  1.0 0.1192448435
H  H54  1  0.85620000  0.79830000  0.70630000  1.0 0.1109704683
H  H55  1  0.80900000  0.73720000  0.59330000  1.0 0.1109704683
H  H56  1  0.91090000  0.11070000  0.12330000  1.0 0.1192448435
H  H57  1  0.87980000  0.85810000  0.83510000  1.0 0.1109704683
H  H58  1  0.92800000  0.65830000  0.82660000  1.0 0.1192448435
H  H59  1  0.49940000  0.01980000  0.81740000  1.0 0.1294602101
H  H60  1  0.48770000  0.18820000  0.26260000  1.0 0.1109704683
H  H61  1  0.25600000  0.13370000  0.10470000  1.0 0.1294602101
H  H62  1  0.36420000  0.79680000  0.65290000  1.0 0.1294602101
H  H63  1  0.39950000  0.68410000  0.79640000  1.0 0.1109704683
H  H64  1  0.28950000  0.31800000  0.69020000  1.0 0.1109704683
H  H65  1  0.24320000  0.21970000  0.67730000  1.0 0.1109704683
H  H66  1  0.61240000  0.03830000  0.83100000  1.0 0.137539665
H  H67  1  0.33950000  0.43050000  0.50220000  1.0 0.1294602101
H  H68  1  0.44620000  0.57620000  0.75270000  1.0 0.1192448435
H  H69  1  0.30650000  0.17930000  0.33190000  1.0 0.1109704683
H  H70  1  0.46400000  0.23260000  0.56870000  1.0 0.137539665
H  H71  1  0.44590000  0.44650000  0.69590000  1.0 0.1294602101
H  H72  1  0.46150000  0.12430000  0.12630000  1.0 0.1192448435
H  H73  1  0.54860000  0.06180000  0.02220000  1.0 0.1109704683
H  H74  1  0.26770000  0.18470000  0.22680000  1.0 0.1109704683
H  H75  1  0.33560000  0.55960000  0.55480000  1.0 0.1109704683
H  H76  1  0.38980000  0.81200000  0.84980000  1.0 0.1192448435
H  H77  1  0.66950000  0.08030000  0.03780000  1.0 0.1464637347
H  H78  1  0.47920000  0.29450000  0.37170000  1.0 0.1192448435
H  H79  1  0.49050000  0.35770000  0.49600000  1.0 0.1294602101
H  H80  1  0.36530000  0.67100000  0.59720000  1.0 0.1192448435
H  H81  1  0.21950000  0.15330000  0.73050000  1.0 0.1109704683
H  H82  1  0.43710000  0.12530000  0.79620000  1.0 0.1192448435
H  H83  1  0.77540000  0.03890000  0.98160000  1.0 0.1464637347
H  H84  1  0.43580000  0.16710000  0.61430000  1.0 0.1192448435
H  H85  1  0.30640000  0.38050000  0.63360000  1.0 0.1192448435
H  H86  1  0.45280000  0.17600000  0.72810000  1.0 0.1109704683
H  H87  1  0.31260000  0.24040000  0.45150000  1.0 0.1192448435
H  H88  1  0.00660000  0.01280000  0.95780000  1.0 0.090754709
H  H89  1  0.89050000  0.98760000  0.95330000  1.0 0.1464637347
H  H90  1  0.92940000  0.16560000  0.89470000  1.0 0.1294602101
H  H91  1  0.70960000  0.07430000  0.87270000  1.0 0.1294602101
H  H92  1  0.80900000  0.15010000  0.89280000  1.0 0.1294602101
H  H93  1  0.21790000  0.75120000  0.70720000  1.0 0.1109704683
H  H94  1  0.21030000  0.31300000  0.53200000  1.0 0.1192448435
H  H95  1  0.05790000  0.52680000  0.68650000  1.0 0.1294602101
H  H96  1  0.08210000  0.30450000  0.55670000  1.0 0.1294602101
H  H97  1  0.22790000  0.87750000  0.76940000  1.0 0.1294602101
H  H98  1  0.06520000  0.65630000  0.74970000  1.0 0.1192448435
H  H99  1  0.05550000  0.42450000  0.39650000  1.0 0.1109704683
H  H100  1  0.18530000  0.26940000  0.90750000  1.0 0.1192448435
H  H101  1  0.07610000  0.23860000  0.61160000  1.0 0.1192448435
H  H102  1  0.23770000  0.64070000  0.68370000  1.0 0.1109704683
H  H103  1  0.18650000  0.46990000  0.75020000  1.0 0.1294602101
H  H104  1  0.02780000  0.21730000  0.67520000  1.0 0.1109704683
H  H105  1  0.20050000  0.32450000  0.84500000  1.0 0.1192448435
H  H106  1  0.09690000  0.76360000  0.82690000  1.0 0.1192448435
H  H107  1  0.17930000  0.40820000  0.81170000  1.0 0.1192448435
H  H108  1  0.08440000  0.39590000  0.29910000  1.0 0.1109704683
H  H109  1  0.00940000  0.15270000  0.72970000  1.0 0.1192448435
H  H110  1  0.23650000  0.51710000  0.63230000  1.0 0.1294602101
H  H111  1  0.07180000  0.47750000  0.52210000  1.0 0.1192448435
H  H112  1  0.14380000  0.20170000  0.29370000  1.0 0.1109704683
H  H113  1  0.19100000  0.26280000  0.40670000  1.0 0.1109704683
H  H114  1  0.08910000  0.88930000  0.87670000  1.0 0.1192448435
H  H115  1  0.12020000  0.14190000  0.16490000  1.0 0.1109704683
H  H116  1  0.07200000  0.34170000  0.17340000  1.0 0.1192448435
C  C1  1  0.46620000  0.96740000  0.13640000  1.0 0.0706147354
C  C2  1  0.65130000  0.90310000  0.97150000  1.0 0.5994024042
C  C3  1  0.56000000  0.82400000  0.76960000  1.0 -0.1202178095
C  C4  1  0.61820000  0.33780000  0.31250000  1.0 0.0797953428
C  C5  1  0.62290000  0.80970000  0.74440000  1.0 0.060706841
C  C6  1  0.69650000  0.85480000  0.86250000  1.0 -0.0885370981
C  C7  1  0.63030000  0.22650000  0.31870000  1.0 -0.0985060681
C  C8  1  0.61100000  0.76910000  0.66360000  1.0 0.0797953428
C  C9  1  0.61010000  0.42010000  0.34140000  1.0 0.052285672
C  C10  1  0.60930000  0.29270000  0.23260000  1.0 -0.158828414
C  C11  1  0.65140000  0.79840000  0.30380000  1.0 0.0797953428
C  C12  1  0.66790000  0.85560000  0.21910000  1.0 -0.0307635723
C  C13  1  0.67690000  0.70040000  0.33730000  1.0 -0.1330876337
C  C14  1  0.71800000  0.80180000  0.30040000  1.0 -0.158828414
C  C15  1  0.39960000  0.95940000  0.12980000  1.0 -0.181341894
C  C16  1  0.64280000  0.87010000  0.89290000  1.0 -0.0393734884
C  C17  1  0.63710000  0.53960000  0.44740000  1.0 -0.1912058529
C  C18  1  0.57550000  0.45260000  0.29830000  1.0 -0.1400376884
C  C19  1  0.65750000  0.78370000  0.63510000  1.0 -0.1202178095
C  C20  1  0.64200000  0.76230000  0.34400000  1.0 0.060706841
C  C21  1  0.59780000  0.69310000  0.51260000  1.0 0.1763064478
C  C22  1  0.61110000  0.68800000  0.40590000  1.0 0.1610202145
C  C23  1  0.62430000  0.18360000  0.24500000  1.0 -0.0521386221
C  C24  1  0.57370000  0.75070000  0.40880000  1.0 -0.181341894
C  C25  1  0.57390000  0.53030000  0.33320000  1.0 -0.181341894
C  C26  1  0.62160000  0.10340000  0.20960000  1.0 0.5338976744
C  C27  1  0.57680000  0.86020000  0.85210000  1.0 -0.0885370981
C  C28  1  0.43820000  0.94320000  0.01750000  1.0 0.090754709
C  C29  1  0.69120000  0.82480000  0.79010000  1.0 -0.1400376884
C  C30  1  0.64090000  0.46270000  0.41580000  1.0 -0.1400376884
C  C31  1  0.61390000  0.21710000  0.20070000  1.0 -0.0885370981
C  C32  1  0.59890000  0.57190000  0.40480000  1.0 0.1610202145
C  C33  1  0.36530000  0.93460000  0.00860000  1.0 -0.1912058529
C  C34  1  0.55430000  0.71530000  0.61120000  1.0 -0.1400376884
C  C35  1  0.67780000  0.88670000  0.17500000  1.0 0.6063537959
C  C36  1  0.54710000  0.67760000  0.53740000  1.0 -0.1912058529
C  C37  1  0.62860000  0.30140000  0.35170000  1.0 -0.1684763189
C  C38  1  0.73280000  0.83660000  0.26450000  1.0 -0.0885370981
C  C39  1  0.60320000  0.85500000  0.22670000  1.0 -0.0885370981
C  C40  1  0.26090000  0.94980000  0.05220000  1.0 -0.0731549051
C  C41  1  0.58900000  0.78880000  0.38060000  1.0 -0.1202178095
C  C42  1  0.66600000  0.66150000  0.36910000  1.0 -0.181341894
C  C43  1  0.34540000  0.94750000  0.06610000  1.0 0.1192448435
C  C44  1  0.59390000  0.82520000  0.26840000  1.0 -0.1506002557
C  C45  1  0.65390000  0.74860000  0.56470000  1.0 -0.181341894
C  C46  1  0.03400000  0.96100000  0.05580000  1.0 0.1294602101
C  C47  1  0.10320000  0.97510000  0.05640000  1.0 -0.2593675491
C  C48  1  0.08070000  0.86830000  0.09310000  1.0 0.090754709
C  C49  1  0.16190000  0.93230000  0.07170000  1.0 0.137539665
C  C50  1  0.25430000  0.93480000  0.09180000  1.0 -0.1400376884
C  C51  1  0.15160000  0.87720000  0.09370000  1.0 -0.2004546814
C  C52  1  0.84350000  0.25230000  0.23790000  1.0 0.0797953428
C  C53  1  0.84280000  0.02020000  0.13530000  1.0 0.5946044687
C  C54  1  0.80580000  0.22000000  0.25620000  1.0 -0.1330876337
C  C55  1  0.90450000  0.79460000  0.17460000  1.0 0.0113523777
C  C56  1  0.88990000  0.69650000  0.69220000  1.0 0.0797953428
C  C57  1  0.84370000  0.09980000  0.17000000  1.0 -0.0616478484
C  C58  1  0.85350000  0.49050000  0.34710000  1.0 0.1464637347
C  C59  1  0.84820000  0.33680000  0.27710000  1.0 0.0797953428
C  C60  1  0.86200000  0.60650000  0.35180000  1.0 0.1732765648
C  C61  1  0.88690000  0.72150000  0.24280000  1.0 0.060706841
C  C62  1  0.87760000  0.68310000  0.28320000  1.0 0.0706147354
C  C63  1  0.82250000  0.66540000  0.49470000  1.0 -0.2004546814
C  C64  1  0.90420000  0.44940000  0.31270000  1.0 -0.1684763189
C  C65  1  0.86370000  0.60120000  0.46090000  1.0 0.1857337419
C  C66  1  0.89740000  0.67530000  0.39200000  1.0 -0.181341894
C  C67  1  0.80230000  0.14550000  0.22130000  1.0 -0.0885370981
C  C68  1  0.90070000  0.37170000  0.27590000  1.0 -0.1400376884
C  C69  1  0.91450000  0.59880000  0.57720000  1.0 -0.1400376884
C  C70  1  0.84650000  0.74180000  0.13950000  1.0 -0.1202178095
C  C71  1  0.90280000  0.71370000  0.35930000  1.0 -0.1506002557
C  C72  1  0.79880000  0.38180000  0.31380000  1.0 -0.1202178095
C  C73  1  0.83600000  0.57720000  0.27750000  1.0 -0.2004546814
C  C74  1  0.94150000  0.77310000  0.27780000  1.0 -0.1506002557
C  C75  1  0.87880000  0.66490000  0.61400000  1.0 0.052285672
C  C76  1  0.83880000  0.70850000  0.17600000  1.0 -0.1400376884
C  C77  1  0.87950000  0.21210000  0.18700000  1.0 -0.1400376884
C  C78  1  0.84070000  0.61280000  0.23970000  1.0 -0.1506002557
C  C79  1  0.90770000  0.65520000  0.72770000  1.0 -0.1684763189
C  C80  1  0.95300000  0.81180000  0.24620000  1.0 -0.1142886814
C  C81  1  0.80010000  0.45530000  0.34580000  1.0 -0.1684763189
C  C82  1  0.90540000  0.56760000  0.50180000  1.0 -0.2004546814
C  C83  1  0.87400000  0.77090000  0.73140000  1.0 -0.1684763189
C  C84  1  0.83410000  0.69370000  0.56980000  1.0 -0.1330876337
C  C85  1  0.88220000  0.13720000  0.15550000  1.0 -0.0885370981
C  C86  1  0.88400000  0.80640000  0.80790000  1.0 -0.0985060681
C  C87  1  0.91420000  0.68760000  0.80330000  1.0 -0.0885370981
C  C88  1  0.90050000  0.76180000  0.84330000  1.0 -0.0616478484
C  C89  1  0.91440000  0.83310000  0.13550000  1.0 0.5475337271
C  C90  1  0.90760000  0.79770000  0.92070000  1.0 0.5475337271
C  C91  1  0.53380000  0.03260000  0.86360000  1.0 0.0706147354
C  C92  1  0.34870000  0.09690000  0.02850000  1.0 0.5994024042
C  C93  1  0.44000000  0.17600000  0.23040000  1.0 -0.1202178095
C  C94  1  0.38180000  0.66220000  0.68750000  1.0 0.0797953428
C  C95  1  0.37710000  0.19030000  0.25560000  1.0 0.060706841
C  C96  1  0.30350000  0.14520000  0.13750000  1.0 -0.0885370981
C  C97  1  0.36970000  0.77350000  0.68130000  1.0 -0.0985060681
C  C98  1  0.38900000  0.23090000  0.33640000  1.0 0.0797953428
C  C99  1  0.38990000  0.57990000  0.65860000  1.0 0.052285672
C  C100  1  0.39070000  0.70730000  0.76740000  1.0 -0.158828414
C  C101  1  0.34860000  0.20160000  0.69620000  1.0 0.0797953428
C  C102  1  0.33210000  0.14440000  0.78090000  1.0 -0.0307635723
C  C103  1  0.32310000  0.29960000  0.66270000  1.0 -0.1330876337
C  C104  1  0.28200000  0.19820000  0.69960000  1.0 -0.158828414
C  C105  1  0.60040000  0.04060000  0.87020000  1.0 -0.181341894
C  C106  1  0.35720000  0.12990000  0.10710000  1.0 -0.0393734884
C  C107  1  0.36290000  0.46040000  0.55260000  1.0 -0.1912058529
C  C108  1  0.42450000  0.54740000  0.70170000  1.0 -0.1400376884
C  C109  1  0.34250000  0.21630000  0.36490000  1.0 -0.1202178095
C  C110  1  0.35800000  0.23770000  0.65600000  1.0 0.060706841
C  C111  1  0.40220000  0.30690000  0.48740000  1.0 0.1763064478
C  C112  1  0.38890000  0.31200000  0.59410000  1.0 0.1610202145
C  C113  1  0.37570000  0.81640000  0.75500000  1.0 -0.0521386221
C  C114  1  0.42630000  0.24930000  0.59120000  1.0 -0.181341894
C  C115  1  0.42610000  0.46970000  0.66680000  1.0 -0.181341894
C  C116  1  0.37840000  0.89660000  0.79040000  1.0 0.5338976744
C  C117  1  0.42320000  0.13980000  0.14790000  1.0 -0.0885370981
C  C118  1  0.56180000  0.05680000  0.98250000  1.0 0.090754709
C  C119  1  0.30880000  0.17520000  0.20990000  1.0 -0.1400376884
C  C120  1  0.35910000  0.53730000  0.58420000  1.0 -0.1400376884
C  C121  1  0.38610000  0.78290000  0.79930000  1.0 -0.0885370981
C  C122  1  0.40110000  0.42810000  0.59520000  1.0 0.1610202145
C  C123  1  0.63470000  0.06540000  0.99140000  1.0 -0.1912058529
C  C124  1  0.44570000  0.28470000  0.38880000  1.0 -0.1400376884
C  C125  1  0.32220000  0.11330000  0.82500000  1.0 0.6063537959
C  C126  1  0.45290000  0.32240000  0.46260000  1.0 -0.1912058529
C  C127  1  0.37140000  0.69860000  0.64830000  1.0 -0.1684763189
C  C128  1  0.26720000  0.16340000  0.73550000  1.0 -0.0885370981
C  C129  1  0.39680000  0.14500000  0.77330000  1.0 -0.0885370981
C  C130  1  0.73910000  0.05020000  0.94780000  1.0 -0.0731549051
C  C131  1  0.41100000  0.21120000  0.61940000  1.0 -0.1202178095
C  C132  1  0.33400000  0.33850000  0.63090000  1.0 -0.181341894
C  C133  1  0.65460000  0.05250000  0.93390000  1.0 0.1192448435
C  C134  1  0.40610000  0.17480000  0.73160000  1.0 -0.1506002557
C  C135  1  0.34610000  0.25140000  0.43530000  1.0 -0.181341894
C  C136  1  0.96600000  0.03900000  0.94420000  1.0 0.1294602101
C  C137  1  0.89680000  0.02490000  0.94360000  1.0 -0.2593675491
C  C138  1  0.91930000  0.13170000  0.90690000  1.0 0.0797953428
C  C139  1  0.83810000  0.06770000  0.92830000  1.0 0.137539665
C  C140  1  0.74570000  0.06520000  0.90820000  1.0 -0.1400376884
C  C141  1  0.84840000  0.12280000  0.90630000  1.0 -0.2004546814
C  C142  1  0.15650000  0.74770000  0.76210000  1.0 0.0797953428
C  C143  1  0.15720000  0.97980000  0.86470000  1.0 0.5946044687
C  C144  1  0.19420000  0.78000000  0.74380000  1.0 -0.1330876337
C  C145  1  0.09550000  0.20540000  0.82540000  1.0 0.0113523777
C  C146  1  0.11010000  0.30350000  0.30780000  1.0 0.0797953428
C  C147  1  0.15630000  0.90020000  0.83000000  1.0 -0.0616478484
C  C148  1  0.14650000  0.50950000  0.65290000  1.0 0.1464637347
C  C149  1  0.15180000  0.66320000  0.72290000  1.0 0.0797953428
C  C150  1  0.13800000  0.39350000  0.64820000  1.0 0.1732765648
C  C151  1  0.11310000  0.27850000  0.75720000  1.0 0.060706841
C  C152  1  0.12240000  0.31690000  0.71680000  1.0 0.0706147354
C  C153  1  0.17750000  0.33460000  0.50530000  1.0 -0.2004546814
C  C154  1  0.09580000  0.55060000  0.68730000  1.0 -0.181341894
C  C155  1  0.13630000  0.39880000  0.53910000  1.0 0.1857337419
C  C156  1  0.10260000  0.32470000  0.60800000  1.0 -0.181341894
C  C157  1  0.19770000  0.85450000  0.77870000  1.0 -0.0885370981
C  C158  1  0.09930000  0.62830000  0.72410000  1.0 -0.1400376884
C  C159  1  0.08550000  0.40120000  0.42280000  1.0 -0.1400376884
C  C160  1  0.15350000  0.25820000  0.86050000  1.0 -0.1202178095
C  C161  1  0.09720000  0.28630000  0.64070000  1.0 -0.1506002557
C  C162  1  0.20120000  0.61820000  0.68620000  1.0 -0.1202178095
C  C163  1  0.16400000  0.42280000  0.72250000  1.0 -0.2004546814
C  C164  1  0.05850000  0.22690000  0.72220000  1.0 -0.1506002557
C  C165  1  0.12120000  0.33510000  0.38600000  1.0 0.052285672
C  C166  1  0.16120000  0.29150000  0.82400000  1.0 -0.1400376884
C  C167  1  0.12050000  0.78790000  0.81300000  1.0 -0.1400376884
C  C168  1  0.15930000  0.38720000  0.76030000  1.0 -0.1506002557
C  C169  1  0.09230000  0.34480000  0.27230000  1.0 -0.1684763189
C  C170  1  0.04700000  0.18820000  0.75380000  1.0 -0.1142886814
C  C171  1  0.19990000  0.54470000  0.65420000  1.0 -0.1684763189
C  C172  1  0.09460000  0.43240000  0.49820000  1.0 -0.2004546814
C  C173  1  0.12600000  0.22910000  0.26860000  1.0 -0.1684763189
C  C174  1  0.16590000  0.30630000  0.43020000  1.0 -0.1330876337
C  C175  1  0.11780000  0.86280000  0.84450000  1.0 -0.0885370981
C  C176  1  0.11600000  0.19360000  0.19210000  1.0 -0.0985060681
C  C177  1  0.08580000  0.31240000  0.19670000  1.0 -0.0885370981
C  C178  1  0.09950000  0.23820000  0.15670000  1.0 -0.0616478484
C  C179  1  0.08560000  0.16690000  0.86450000  1.0 0.5475337271
C  C180  1  0.09240000  0.20230000  0.07930000  1.0 0.5475337271
N  N1  1  0.02510000  0.91380000  0.07300000  1.0 -0.2125953075
N  N2  1  0.59410000  0.64920000  0.43730000  1.0 -0.158828414
N  N3  1  0.49040000  0.95860000  0.08170000  1.0 -0.2542708751
N  N4  1  0.85590000  0.56820000  0.38570000  1.0 -0.158828414
N  N5  1  0.97490000  0.08620000  0.92700000  1.0 -0.2125953075
N  N6  1  0.40590000  0.35080000  0.56270000  1.0 -0.1684763189
N  N7  1  0.50960000  0.04140000  0.91830000  1.0 -0.2542708751
N  N8  1  0.14410000  0.43180000  0.61430000  1.0 -0.158828414
O  O1  1  0.71580000  0.90940000  0.01360000  1.0 -0.5729580756
O  O2  1  0.62290000  0.89980000  0.13410000  1.0 -0.5519142556
O  O3  1  0.59560000  0.91400000  0.99400000  1.0 -0.5519142556
O  O4  1  0.74480000  0.88930000  0.17480000  1.0 -0.5587150888
O  O5  1  0.62280000  0.06740000  0.14080000  1.0 -0.5729580756
O  O6  1  0.61430000  0.07070000  0.23900000  1.0 -0.510899299
O  O7  1  0.81000000  0.98830000  0.15600000  1.0 -0.5587150888
O  O8  1  0.88570000  0.98770000  0.09610000  1.0 -0.5587150888
O  O9  1  0.88260000  0.86120000  0.95320000  1.0 -0.5519142556
O  O10  1  0.85720000  0.83500000  0.07990000  1.0 -0.6373952266
O  O11  1  0.97360000  0.86290000  0.15370000  1.0 -0.5296980675
O  O12  1  0.94250000  0.76550000  0.95760000  1.0 -0.5519142556
O  O13  1  0.28420000  0.09060000  0.98640000  1.0 -0.5729580756
O  O14  1  0.37710000  0.10020000  0.86590000  1.0 -0.5519142556
O  O15  1  0.40440000  0.08600000  0.00600000  1.0 -0.5519142556
O  O16  1  0.25520000  0.11070000  0.82520000  1.0 -0.5587150888
O  O17  1  0.37720000  0.93260000  0.85920000  1.0 -0.5729580756
O  O18  1  0.38570000  0.92930000  0.76100000  1.0 -0.510899299
O  O19  1  0.19000000  0.01170000  0.84400000  1.0 -0.5587150888
O  O20  1  0.11430000  0.01230000  0.90390000  1.0 -0.5587150888
O  O21  1  0.11740000  0.13880000  0.04680000  1.0 -0.5447312232
O  O22  1  0.14280000  0.16500000  0.92010000  1.0 -0.6373952266
O  O23  1  0.02640000  0.13710000  0.84630000  1.0 -0.5296980675
O  O24  1  0.05750000  0.23450000  0.04240000  1.0 -0.5519142556
