# DDEC6 charges by PACMAN v1.1 (https://github.com/mtap-research/PACMAN-charge/)
data_HUQHUY_ASR_pacman
_symmetry_space_group_name_H-M   'P 1'
_cell_length_a   21.35090000
_cell_length_b   21.35090000
_cell_length_c   44.65000000
_cell_angle_alpha   81.05020000
_cell_angle_beta   98.94980000
_cell_angle_gamma   119.03700000
_symmetry_Int_Tables_number   1
_chemical_formula_structural   Zn3H60C94(NO3)4
_chemical_formula_sum   'Zn12 H240 C376 N16 O48'
_cell_volume   17503.44539849
_cell_formula_units_Z   4
loop_
 _symmetry_equiv_pos_site_id
 _symmetry_equiv_pos_as_xyz
  1  'x, y, z'
loop_
 _atom_site_type_symbol
 _atom_site_label
 _atom_site_symmetry_multiplicity
 _atom_site_fract_x
 _atom_site_fract_y
 _atom_site_fract_z
 _atom_site_occupancy
 _atom_site_charge
Zn  Zn1  1  0.90451000  0.04645000  0.52626000  1.0 0.8098494218
Zn  Zn2  1  0.95355000  0.09549000  0.02626000  1.0 0.8098494218
Zn  Zn3  1  0.87250000  0.01938000  0.18204000  1.0 0.8098494218
Zn  Zn4  1  0.98062000  0.12750000  0.68204000  1.0 0.8098494218
Zn  Zn5  1  0.86197000  0.04115000  0.10123000  1.0 1.0104935945
Zn  Zn6  1  0.95885000  0.13803000  0.60123000  1.0 1.0104935945
Zn  Zn7  1  0.04645000  0.90451000  0.97374000  1.0 0.8098494218
Zn  Zn8  1  0.09549000  0.95355000  0.47374000  1.0 0.8098494218
Zn  Zn9  1  0.01938000  0.87250000  0.31796000  1.0 0.8098494218
Zn  Zn10  1  0.12750000  0.98062000  0.81796000  1.0 0.8098494218
Zn  Zn11  1  0.04115000  0.86197000  0.39877000  1.0 1.0104935945
Zn  Zn12  1  0.13803000  0.95885000  0.89877000  1.0 1.0104935945
H  H1  1  0.97760000  0.04220000  0.23730000  1.0 0.1108261518
H  H2  1  0.95780000  0.02240000  0.73730000  1.0 0.1108261518
H  H3  1  0.77720000  0.99900000  0.22840000  1.0 0.1191870224
H  H4  1  0.00100000  0.22280000  0.72840000  1.0 0.1191870224
H  H5  1  0.96510000  0.98970000  0.38770000  1.0 0.1289533086
H  H6  1  0.01030000  0.03490000  0.88770000  1.0 0.1289533086
H  H7  1  0.12500000  0.16180000  0.50930000  1.0 0.1191870224
H  H8  1  0.83820000  0.87500000  0.00930000  1.0 0.1191870224
H  H9  1  0.75870000  0.59490000  0.57670000  1.0 0.1108261518
H  H10  1  0.40510000  0.24130000  0.07670000  1.0 0.1108261518
H  H11  1  0.99480000  0.04680000  0.42910000  1.0 0.1471446386
H  H12  1  0.95320000  0.00520000  0.92910000  1.0 0.1471446386
H  H13  1  0.35770000  0.22290000  0.52030000  1.0 0.1191870224
H  H14  1  0.77710000  0.64230000  0.02030000  1.0 0.1191870224
H  H15  1  0.87360000  0.82860000  0.55380000  1.0 0.1191870224
H  H16  1  0.17140000  0.12640000  0.05380000  1.0 0.1191870224
H  H17  1  0.14340000  0.15240000  0.60010000  1.0 0.1108261518
H  H18  1  0.84760000  0.85660000  0.10010000  1.0 0.1108261518
H  H19  1  0.81740000  0.70620000  0.55620000  1.0 0.1108261518
H  H20  1  0.29380000  0.18260000  0.05620000  1.0 0.1108261518
H  H21  1  0.00380000  0.05840000  0.47960000  1.0 0.1108261518
H  H22  1  0.94160000  0.99620000  0.97960000  1.0 0.1108261518
H  H23  1  0.53340000  0.47160000  0.52750000  1.0 0.1289533086
H  H24  1  0.52840000  0.46660000  0.02750000  1.0 0.1289533086
H  H25  1  0.69480000  0.16140000  0.58630000  1.0 0.1108261518
H  H26  1  0.83860000  0.30520000  0.08630000  1.0 0.1108261518
H  H27  1  0.80900000  0.05480000  0.32430000  1.0 0.1191870224
H  H28  1  0.94520000  0.19100000  0.82430000  1.0 0.1191870224
H  H29  1  0.25210000  0.22510000  0.51080000  1.0 0.102872369
H  H30  1  0.77490000  0.74790000  0.01080000  1.0 0.102872369
H  H31  1  0.37660000  0.32560000  0.59060000  1.0 0.1108261518
H  H32  1  0.67440000  0.62340000  0.09060000  1.0 0.1108261518
H  H33  1  0.27410000  0.22310000  0.59840000  1.0 0.1108261518
H  H34  1  0.77690000  0.72590000  0.09840000  1.0 0.1108261518
H  H35  1  0.62290000  0.69730000  0.54390000  1.0 0.1108261518
H  H36  1  0.30270000  0.37710000  0.04390000  1.0 0.1108261518
H  H37  1  0.98910000  0.05390000  0.28850000  1.0 0.1289533086
H  H38  1  0.94610000  0.01090000  0.78850000  1.0 0.1289533086
H  H39  1  0.76440000  0.10300000  0.58610000  1.0 0.1191870224
H  H40  1  0.89700000  0.23560000  0.08610000  1.0 0.1191870224
H  H41  1  0.69790000  0.47170000  0.57960000  1.0 0.1289533086
H  H42  1  0.52830000  0.30210000  0.07960000  1.0 0.1289533086
H  H43  1  0.69510000  0.42370000  0.53010000  1.0 0.1289533086
H  H44  1  0.57630000  0.30490000  0.03010000  1.0 0.1289533086
H  H45  1  0.58320000  0.59040000  0.52620000  1.0 0.1108261518
H  H46  1  0.40960000  0.41680000  0.02620000  1.0 0.1108261518
H  H47  1  0.67980000  0.82080000  0.53970000  1.0 0.1191870224
H  H48  1  0.17920000  0.32020000  0.03970000  1.0 0.1191870224
H  H49  1  0.54600000  0.24940000  0.57350000  1.0 0.1289533086
H  H50  1  0.75060000  0.45400000  0.07350000  1.0 0.1289533086
H  H51  1  0.81840000  0.05200000  0.37490000  1.0 0.1191870224
H  H52  1  0.94800000  0.18160000  0.87490000  1.0 0.1191870224
H  H53  1  0.47960000  0.28880000  0.51690000  1.0 0.1289533086
H  H54  1  0.71120000  0.52040000  0.01690000  1.0 0.1289533086
H  H55  1  0.75370000  0.35450000  0.52400000  1.0 0.1108261518
H  H56  1  0.64550000  0.24630000  0.02400000  1.0 0.1108261518
H  H57  1  0.49860000  0.38740000  0.59010000  1.0 0.1289533086
H  H58  1  0.61260000  0.50140000  0.09010000  1.0 0.1289533086
H  H59  1  0.60710000  0.19010000  0.57330000  1.0 0.1108261518
H  H60  1  0.80990000  0.39290000  0.07330000  1.0 0.1108261518
H  H61  1  0.83600000  0.21720000  0.50720000  1.0 0.1289533086
H  H62  1  0.78280000  0.16400000  0.00720000  1.0 0.1289533086
H  H63  1  0.95740000  0.98480000  0.33550000  1.0 0.1191870224
H  H64  1  0.01520000  0.04260000  0.83550000  1.0 0.1191870224
H  H65  1  0.76970000  0.27410000  0.50820000  1.0 0.1108261518
H  H66  1  0.72590000  0.23030000  0.00820000  1.0 0.1108261518
H  H67  1  0.77600000  0.98500000  0.27830000  1.0 0.1418504786
H  H68  1  0.01500000  0.22400000  0.77830000  1.0 0.1418504786
H  H69  1  0.78800000  0.99060000  0.42140000  1.0 0.1289533086
H  H70  1  0.00940000  0.21200000  0.92140000  1.0 0.1289533086
H  H71  1  0.79850000  0.00210000  0.47160000  1.0 0.1191870224
H  H72  1  0.99790000  0.20150000  0.97160000  1.0 0.1191870224
H  H73  1  0.73140000  0.08960000  0.19140000  1.0 0.1191870224
H  H74  1  0.91040000  0.26860000  0.69140000  1.0 0.1191870224
H  H75  1  0.09170000  0.16170000  0.19470000  1.0 0.1191870224
H  H76  1  0.83830000  0.90830000  0.69470000  1.0 0.1191870224
H  H77  1  0.21370000  0.22550000  0.19840000  1.0 0.1108261518
H  H78  1  0.77450000  0.78630000  0.69840000  1.0 0.1108261518
H  H79  1  0.21030000  0.19750000  0.11090000  1.0 0.102872369
H  H80  1  0.80250000  0.78970000  0.61090000  1.0 0.102872369
H  H81  1  0.67540000  0.20620000  0.10430000  1.0 0.1108261518
H  H82  1  0.79380000  0.32460000  0.60430000  1.0 0.1108261518
H  H83  1  0.08290000  0.13150000  0.10900000  1.0 0.1289533086
H  H84  1  0.86850000  0.91710000  0.60900000  1.0 0.1289533086
H  H85  1  0.74480000  0.15060000  0.10570000  1.0 0.1191870224
H  H86  1  0.84940000  0.25520000  0.60570000  1.0 0.1191870224
H  H87  1  0.65760000  0.14220000  0.19350000  1.0 0.1108261518
H  H88  1  0.85780000  0.34240000  0.69350000  1.0 0.1108261518
H  H89  1  0.63740000  0.38740000  0.12740000  1.0 0.1191870224
H  H90  1  0.61260000  0.36260000  0.62740000  1.0 0.1191870224
H  H91  1  0.43940000  0.25360000  0.13350000  1.0 0.1191870224
H  H92  1  0.74640000  0.56060000  0.63350000  1.0 0.1191870224
H  H93  1  0.83380000  0.80040000  0.18780000  1.0 0.1191870224
H  H94  1  0.19960000  0.16620000  0.68780000  1.0 0.1191870224
H  H95  1  0.62350000  0.69130000  0.12590000  1.0 0.1108261518
H  H96  1  0.30870000  0.37650000  0.62590000  1.0 0.1108261518
H  H97  1  0.77750000  0.67330000  0.18540000  1.0 0.1108261518
H  H98  1  0.32670000  0.22250000  0.68540000  1.0 0.1108261518
H  H99  1  0.32380000  0.32520000  0.18740000  1.0 0.1108261518
H  H100  1  0.67480000  0.67620000  0.68740000  1.0 0.1108261518
H  H101  1  0.72090000  0.56370000  0.18850000  1.0 0.1108261518
H  H102  1  0.43630000  0.27910000  0.68850000  1.0 0.1108261518
H  H103  1  0.69310000  0.81810000  0.12240000  1.0 0.1289533086
H  H104  1  0.18190000  0.30690000  0.62240000  1.0 0.1289533086
H  H105  1  0.49790000  0.45230000  0.13320000  1.0 0.1289533086
H  H106  1  0.54770000  0.50210000  0.63320000  1.0 0.1289533086
H  H107  1  0.66410000  0.44410000  0.18370000  1.0 0.1289533086
H  H108  1  0.55590000  0.33590000  0.68370000  1.0 0.1289533086
H  H109  1  0.56450000  0.16190000  0.18430000  1.0 0.1108261518
H  H110  1  0.83810000  0.43550000  0.68430000  1.0 0.1108261518
H  H111  1  0.31990000  0.19190000  0.13030000  1.0 0.1108261518
H  H112  1  0.80810000  0.68010000  0.63030000  1.0 0.1108261518
H  H113  1  0.44640000  0.38440000  0.18860000  1.0 0.1289533086
H  H114  1  0.61560000  0.55360000  0.68860000  1.0 0.1289533086
H  H115  1  0.56200000  0.58040000  0.13560000  1.0 0.1108261518
H  H116  1  0.41960000  0.43800000  0.63560000  1.0 0.1108261518
H  H117  1  0.51520000  0.23920000  0.19140000  1.0 0.1289533086
H  H118  1  0.76080000  0.48480000  0.69140000  1.0 0.1289533086
H  H119  1  0.68180000  0.31600000  0.12150000  1.0 0.1108261518
H  H120  1  0.68400000  0.31820000  0.62150000  1.0 0.1108261518
H  H121  1  0.04220000  0.97760000  0.26270000  1.0 0.1108261518
H  H122  1  0.02240000  0.95780000  0.76270000  1.0 0.1108261518
H  H123  1  0.99900000  0.77720000  0.27160000  1.0 0.1191870224
H  H124  1  0.22280000  0.00100000  0.77160000  1.0 0.1191870224
H  H125  1  0.98970000  0.96510000  0.11230000  1.0 0.1289533086
H  H126  1  0.03490000  0.01030000  0.61230000  1.0 0.1289533086
H  H127  1  0.16180000  0.12500000  0.99070000  1.0 0.1191870224
H  H128  1  0.87500000  0.83820000  0.49070000  1.0 0.1191870224
H  H129  1  0.59490000  0.75870000  0.92330000  1.0 0.1108261518
H  H130  1  0.24130000  0.40510000  0.42330000  1.0 0.1108261518
H  H131  1  0.04680000  0.99480000  0.07090000  1.0 0.1471446386
H  H132  1  0.00520000  0.95320000  0.57090000  1.0 0.1471446386
H  H133  1  0.22290000  0.35770000  0.97970000  1.0 0.1191870224
H  H134  1  0.64230000  0.77710000  0.47970000  1.0 0.1191870224
H  H135  1  0.82860000  0.87360000  0.94620000  1.0 0.1191870224
H  H136  1  0.12640000  0.17140000  0.44620000  1.0 0.1191870224
H  H137  1  0.15240000  0.14340000  0.89990000  1.0 0.1108261518
H  H138  1  0.85660000  0.84760000  0.39990000  1.0 0.1108261518
H  H139  1  0.70620000  0.81740000  0.94380000  1.0 0.1108261518
H  H140  1  0.18260000  0.29380000  0.44380000  1.0 0.1108261518
H  H141  1  0.05840000  0.00380000  0.02040000  1.0 0.1108261518
H  H142  1  0.99620000  0.94160000  0.52040000  1.0 0.1108261518
H  H143  1  0.47160000  0.53340000  0.97250000  1.0 0.1289533086
H  H144  1  0.46660000  0.52840000  0.47250000  1.0 0.1289533086
H  H145  1  0.16140000  0.69480000  0.91370000  1.0 0.1108261518
H  H146  1  0.30520000  0.83860000  0.41370000  1.0 0.1108261518
H  H147  1  0.05480000  0.80900000  0.17570000  1.0 0.1191870224
H  H148  1  0.19100000  0.94520000  0.67570000  1.0 0.1191870224
H  H149  1  0.22510000  0.25210000  0.98920000  1.0 0.102872369
H  H150  1  0.74790000  0.77490000  0.48920000  1.0 0.102872369
H  H151  1  0.32560000  0.37660000  0.90940000  1.0 0.1108261518
H  H152  1  0.62340000  0.67440000  0.40940000  1.0 0.1108261518
H  H153  1  0.22310000  0.27410000  0.90160000  1.0 0.1108261518
H  H154  1  0.72590000  0.77690000  0.40160000  1.0 0.1108261518
H  H155  1  0.69730000  0.62290000  0.95610000  1.0 0.1108261518
H  H156  1  0.37710000  0.30270000  0.45610000  1.0 0.1108261518
H  H157  1  0.05390000  0.98910000  0.21150000  1.0 0.1289533086
H  H158  1  0.01090000  0.94610000  0.71150000  1.0 0.1289533086
H  H159  1  0.10300000  0.76440000  0.91390000  1.0 0.1191870224
H  H160  1  0.23560000  0.89700000  0.41390000  1.0 0.1191870224
H  H161  1  0.47170000  0.69790000  0.92040000  1.0 0.1289533086
H  H162  1  0.30210000  0.52830000  0.42040000  1.0 0.1289533086
H  H163  1  0.42370000  0.69510000  0.96990000  1.0 0.1289533086
H  H164  1  0.30490000  0.57630000  0.46990000  1.0 0.1289533086
H  H165  1  0.59040000  0.58320000  0.97380000  1.0 0.1108261518
H  H166  1  0.41680000  0.40960000  0.47380000  1.0 0.1108261518
H  H167  1  0.82080000  0.67980000  0.96030000  1.0 0.1191870224
H  H168  1  0.32020000  0.17920000  0.46030000  1.0 0.1191870224
H  H169  1  0.24940000  0.54600000  0.92650000  1.0 0.1289533086
H  H170  1  0.45400000  0.75060000  0.42650000  1.0 0.1289533086
H  H171  1  0.05200000  0.81840000  0.12510000  1.0 0.1191870224
H  H172  1  0.18160000  0.94800000  0.62510000  1.0 0.1191870224
H  H173  1  0.28880000  0.47960000  0.98310000  1.0 0.1289533086
H  H174  1  0.52040000  0.71120000  0.48310000  1.0 0.1289533086
H  H175  1  0.35450000  0.75370000  0.97600000  1.0 0.1108261518
H  H176  1  0.24630000  0.64550000  0.47600000  1.0 0.1108261518
H  H177  1  0.38740000  0.49860000  0.90990000  1.0 0.1289533086
H  H178  1  0.50140000  0.61260000  0.40990000  1.0 0.1289533086
H  H179  1  0.19010000  0.60710000  0.92670000  1.0 0.1108261518
H  H180  1  0.39290000  0.80990000  0.42670000  1.0 0.1108261518
H  H181  1  0.21720000  0.83600000  0.99280000  1.0 0.1289533086
H  H182  1  0.16400000  0.78280000  0.49280000  1.0 0.1289533086
H  H183  1  0.98480000  0.95740000  0.16450000  1.0 0.1191870224
H  H184  1  0.04260000  0.01520000  0.66450000  1.0 0.1191870224
H  H185  1  0.27410000  0.76970000  0.99180000  1.0 0.102872369
H  H186  1  0.23030000  0.72590000  0.49180000  1.0 0.1108261518
H  H187  1  0.98500000  0.77600000  0.22170000  1.0 0.1418504786
H  H188  1  0.22400000  0.01500000  0.72170000  1.0 0.1418504786
H  H189  1  0.99060000  0.78800000  0.07860000  1.0 0.1289533086
H  H190  1  0.21200000  0.00940000  0.57860000  1.0 0.1289533086
H  H191  1  0.00210000  0.79850000  0.02840000  1.0 0.1191870224
H  H192  1  0.20150000  0.99790000  0.52840000  1.0 0.1191870224
H  H193  1  0.08960000  0.73140000  0.30860000  1.0 0.1191870224
H  H194  1  0.26860000  0.91040000  0.80860000  1.0 0.1191870224
H  H195  1  0.16170000  0.09170000  0.30530000  1.0 0.1191870224
H  H196  1  0.90830000  0.83830000  0.80530000  1.0 0.1191870224
H  H197  1  0.22550000  0.21370000  0.30160000  1.0 0.1108261518
H  H198  1  0.78630000  0.77450000  0.80160000  1.0 0.1108261518
H  H199  1  0.19750000  0.21030000  0.38910000  1.0 0.102872369
H  H200  1  0.78970000  0.80250000  0.88910000  1.0 0.102872369
H  H201  1  0.20620000  0.67540000  0.39570000  1.0 0.1108261518
H  H202  1  0.32460000  0.79380000  0.89570000  1.0 0.1108261518
H  H203  1  0.13150000  0.08290000  0.39100000  1.0 0.1289533086
H  H204  1  0.91710000  0.86850000  0.89100000  1.0 0.1289533086
H  H205  1  0.15060000  0.74480000  0.39430000  1.0 0.1191870224
H  H206  1  0.25520000  0.84940000  0.89430000  1.0 0.1191870224
H  H207  1  0.14220000  0.65760000  0.30650000  1.0 0.1108261518
H  H208  1  0.34240000  0.85780000  0.80650000  1.0 0.1108261518
H  H209  1  0.38740000  0.63740000  0.37260000  1.0 0.1191870224
H  H210  1  0.36260000  0.61260000  0.87260000  1.0 0.1191870224
H  H211  1  0.25360000  0.43940000  0.36650000  1.0 0.1191870224
H  H212  1  0.56060000  0.74640000  0.86650000  1.0 0.1191870224
H  H213  1  0.80040000  0.83380000  0.31220000  1.0 0.1191870224
H  H214  1  0.16620000  0.19960000  0.81220000  1.0 0.1191870224
H  H215  1  0.69130000  0.62350000  0.37410000  1.0 0.1108261518
H  H216  1  0.37650000  0.30870000  0.87410000  1.0 0.1108261518
H  H217  1  0.67330000  0.77750000  0.31460000  1.0 0.1108261518
H  H218  1  0.22250000  0.32670000  0.81460000  1.0 0.1108261518
H  H219  1  0.32520000  0.32380000  0.31260000  1.0 0.1108261518
H  H220  1  0.67620000  0.67480000  0.81260000  1.0 0.1108261518
H  H221  1  0.56370000  0.72090000  0.31150000  1.0 0.1108261518
H  H222  1  0.27910000  0.43630000  0.81150000  1.0 0.1108261518
H  H223  1  0.81810000  0.69310000  0.37760000  1.0 0.1289533086
H  H224  1  0.30690000  0.18190000  0.87760000  1.0 0.1289533086
H  H225  1  0.45230000  0.49790000  0.36680000  1.0 0.1289533086
H  H226  1  0.50210000  0.54770000  0.86680000  1.0 0.1289533086
H  H227  1  0.44410000  0.66410000  0.31630000  1.0 0.1289533086
H  H228  1  0.33590000  0.55590000  0.81630000  1.0 0.1289533086
H  H229  1  0.16190000  0.56450000  0.31570000  1.0 0.1108261518
H  H230  1  0.43550000  0.83810000  0.81570000  1.0 0.1108261518
H  H231  1  0.19190000  0.31990000  0.36970000  1.0 0.1108261518
H  H232  1  0.68010000  0.80810000  0.86970000  1.0 0.1108261518
H  H233  1  0.38440000  0.44640000  0.31140000  1.0 0.1289533086
H  H234  1  0.55360000  0.61560000  0.81140000  1.0 0.1289533086
H  H235  1  0.58040000  0.56200000  0.36440000  1.0 0.1108261518
H  H236  1  0.43800000  0.41960000  0.86440000  1.0 0.1108261518
H  H237  1  0.23920000  0.51520000  0.30860000  1.0 0.1289533086
H  H238  1  0.48480000  0.76080000  0.80860000  1.0 0.1289533086
H  H239  1  0.31600000  0.68180000  0.37850000  1.0 0.1108261518
H  H240  1  0.31820000  0.68400000  0.87850000  1.0 0.1108261518
C  C1  1  0.93677000  0.03403000  0.24570000  1.0 0.0716133577
C  C2  1  0.96597000  0.06323000  0.74570000  1.0 0.0716133577
C  C3  1  0.87653000  0.01207000  0.29015000  1.0 0.1191870224
C  C4  1  0.98793000  0.12347000  0.79015000  1.0 0.1191870224
C  C5  1  0.81937000  0.00543000  0.24032000  1.0 0.0424589282
C  C6  1  0.99457000  0.18063000  0.74032000  1.0 0.0424589282
C  C7  1  0.88330000  0.01530000  0.32421000  1.0 0.0613346064
C  C8  1  0.98470000  0.11670000  0.82421000  1.0 0.0613346064
C  C9  1  0.93330000  0.00130000  0.37442000  1.0 -0.1124957061
C  C10  1  0.99870000  0.06670000  0.87442000  1.0 -0.1124957061
C  C11  1  0.15360000  0.17300000  0.52760000  1.0 -0.0893081396
C  C12  1  0.82700000  0.84640000  0.02760000  1.0 -0.0893081396
C  C13  1  0.80859000  0.15681000  0.54480000  1.0 -0.0273134571
C  C14  1  0.84319000  0.19141000  0.04480000  1.0 -0.0273134571
C  C15  1  0.71276000  0.57104000  0.56682000  1.0 -0.1299485796
C  C16  1  0.42896000  0.28724000  0.06682000  1.0 -0.1299485796
C  C17  1  0.35485000  0.26535000  0.55560000  1.0 0.0716133577
C  C18  1  0.73465000  0.64515000  0.05560000  1.0 0.0716133577
C  C19  1  0.60970000  0.45650000  0.55350000  1.0 0.1418504786
C  C20  1  0.54350000  0.39030000  0.05350000  1.0 0.1418504786
C  C21  1  0.89076000  0.02124000  0.38470000  1.0 0.0519385622
C  C22  1  0.97876000  0.10924000  0.88470000  1.0 0.0519385622
C  C23  1  0.78328000  0.83792000  0.54596000  1.0 -0.0665534136
C  C24  1  0.16208000  0.21672000  0.04596000  1.0 -0.0665534136
C  C25  1  0.12595000  0.15545000  0.55360000  1.0 -0.0196386489
C  C26  1  0.84455000  0.87405000  0.05360000  1.0 -0.0196386489
C  C27  1  0.95441000  0.03839000  0.43785000  1.0 -0.1613158441
C  C28  1  0.96161000  0.04559000  0.93785000  1.0 -0.1613158441
C  C29  1  0.38600000  0.25620000  0.53429000  1.0 -0.1299485796
C  C30  1  0.74380000  0.61400000  0.03429000  1.0 -0.1299485796
C  C31  1  0.81930000  0.91550000  0.54080000  1.0 0.5386311294
C  C32  1  0.08450000  0.18070000  0.04080000  1.0 0.5386311294
C  C33  1  0.82369000  0.80291000  0.55145000  1.0 -0.0988871662
C  C34  1  0.19709000  0.17631000  0.05145000  1.0 -0.0988871662
C  C35  1  0.50023000  0.34137000  0.55360000  1.0 0.1603814384
C  C36  1  0.65863000  0.49977000  0.05360000  1.0 0.1603814384
C  C37  1  0.16494000  0.16806000  0.58200000  1.0 -0.0893081396
C  C38  1  0.83194000  0.83506000  0.08200000  1.0 -0.0893081396
C  C39  1  0.78883000  0.72877000  0.55337000  1.0 -0.1613158441
C  C40  1  0.27123000  0.21117000  0.05337000  1.0 -0.1613158441
C  C41  1  0.67735000  0.61045000  0.54970000  1.0 0.0519385622
C  C42  1  0.38955000  0.32265000  0.04970000  1.0 0.0519385622
C  C43  1  0.95994000  0.04446000  0.46791000  1.0 0.0424589282
C  C44  1  0.95554000  0.04006000  0.96791000  1.0 0.0424589282
C  C45  1  0.89245000  0.02075000  0.42039000  1.0 0.1108261518
C  C46  1  0.97925000  0.10755000  0.92039000  1.0 0.1108261518
C  C47  1  0.71562000  0.68558000  0.55145000  1.0 0.0613346064
C  C48  1  0.31442000  0.28438000  0.05145000  1.0 0.0613346064
C  C49  1  0.57860000  0.49600000  0.53790000  1.0 -0.1910142123
C  C50  1  0.50400000  0.42140000  0.03790000  1.0 -0.1910142123
C  C51  1  0.72320000  0.17320000  0.57040000  1.0 -0.1695896974
C  C52  1  0.82680000  0.27680000  0.07040000  1.0 -0.1695896974
C  C53  1  0.83940000  0.03980000  0.33662000  1.0 -0.1299485796
C  C54  1  0.96020000  0.16060000  0.83662000  1.0 -0.1299485796
C  C55  1  0.22943000  0.20997000  0.52871000  1.0 -0.1613158441
C  C56  1  0.79003000  0.77057000  0.02871000  1.0 -0.1613158441
C  C57  1  0.39831000  0.31709000  0.57636000  1.0 -0.1406640119
C  C58  1  0.68291000  0.60169000  0.07636000  1.0 -0.1406640119
C  C59  1  0.24377000  0.20863000  0.58062000  1.0 -0.1164523767
C  C60  1  0.79137000  0.75623000  0.08062000  1.0 -0.1164523767
C  C61  1  0.26900000  0.22320000  0.55606000  1.0 0.0716133577
C  C62  1  0.77680000  0.73100000  0.05606000  1.0 0.0716133577
C  C63  1  0.67293000  0.72307000  0.54577000  1.0 -0.1695896974
C  C64  1  0.27693000  0.32707000  0.04577000  1.0 -0.1613158441
C  C65  1  0.94485000  0.03735000  0.27696000  1.0 -0.2078660025
C  C66  1  0.96265000  0.05515000  0.77696000  1.0 -0.2078660025
C  C67  1  0.76488000  0.13752000  0.57040000  1.0 -0.0893081396
C  C68  1  0.86248000  0.23512000  0.07040000  1.0 -0.0893081396
C  C69  1  0.67560000  0.49660000  0.56793000  1.0 -0.1980915585
C  C70  1  0.50340000  0.32440000  0.06793000  1.0 -0.1980915585
C  C71  1  0.67635000  0.37585000  0.53810000  1.0 -0.1980915585
C  C72  1  0.62415000  0.32365000  0.03810000  1.0 -0.1980915585
C  C73  1  0.60930000  0.56790000  0.53660000  1.0 -0.1299485796
C  C74  1  0.43210000  0.39070000  0.03660000  1.0 -0.1299485796
C  C75  1  0.70730000  0.79690000  0.54327000  1.0 -0.0988871662
C  C76  1  0.20310000  0.29270000  0.04327000  1.0 -0.0988871662
C  C77  1  0.58917000  0.27303000  0.56460000  1.0 -0.179204434
C  C78  1  0.72697000  0.41083000  0.06460000  1.0 -0.179204434
C  C79  1  0.84681000  0.03899000  0.36624000  1.0 -0.1164523767
C  C80  1  0.96101000  0.15319000  0.86624000  1.0 -0.1164523767
C  C81  1  0.04004000  0.11916000  0.55320000  1.0 0.5700299771
C  C82  1  0.88084000  0.95996000  0.05320000  1.0 0.5700299771
C  C83  1  0.84960000  0.11500000  0.54760000  1.0 0.5700299771
C  C84  1  0.88500000  0.15040000  0.04760000  1.0 0.5700299771
C  C85  1  0.68669000  0.26571000  0.54835000  1.0 0.0424589282
C  C86  1  0.73429000  0.31331000  0.04835000  1.0 0.0424589282
C  C87  1  0.45882000  0.29458000  0.53242000  1.0 -0.179204434
C  C88  1  0.70542000  0.54118000  0.03242000  1.0 -0.179204434
C  C89  1  0.61290000  0.34370000  0.55310000  1.0 0.1603814384
C  C90  1  0.65630000  0.38710000  0.05310000  1.0 0.1471446386
C  C91  1  0.71341000  0.33439000  0.53490000  1.0 -0.1406640119
C  C92  1  0.66561000  0.28659000  0.03490000  1.0 -0.1406640119
C  C93  1  0.47017000  0.35443000  0.57610000  1.0 -0.1695896974
C  C94  1  0.64557000  0.52983000  0.07610000  1.0 -0.1695896974
C  C95  1  0.62433000  0.23647000  0.56360000  1.0 -0.1299485796
C  C96  1  0.76353000  0.37567000  0.06360000  1.0 -0.1299485796
C  C97  1  0.80840000  0.20520000  0.52340000  1.0 -0.0893081396
C  C98  1  0.79480000  0.19160000  0.02340000  1.0 -0.0893081396
C  C99  1  0.92839000  0.99861000  0.34320000  1.0 -0.1299485796
C  C100  1  0.00139000  0.07161000  0.84320000  1.0 -0.1299485796
C  C101  1  0.72382000  0.22558000  0.54710000  1.0 0.0613346064
C  C102  1  0.77442000  0.27618000  0.04710000  1.0 0.0613346064
C  C103  1  0.76760000  0.23960000  0.52410000  1.0 -0.1493394344
C  C104  1  0.76040000  0.23240000  0.02410000  1.0 -0.1493394344
C  C105  1  0.81934000  0.99926000  0.27050000  1.0 -0.1695896974
C  C106  1  0.00074000  0.18066000  0.77050000  1.0 -0.1695896974
C  C107  1  0.83214000  0.00506000  0.43294000  1.0 -0.1980915585
C  C108  1  0.99494000  0.16786000  0.93294000  1.0 -0.1980915585
C  C109  1  0.83940000  0.01140000  0.46290000  1.0 0.102872369
C  C110  1  0.98860000  0.16060000  0.96290000  1.0 0.102872369
C  C111  1  0.74320000  0.11800000  0.14760000  1.0 -0.0023638932
C  C112  1  0.88200000  0.25680000  0.64760000  1.0 -0.0023638932
C  C113  1  0.72040000  0.11440000  0.17420000  1.0 -0.0988871662
C  C114  1  0.88560000  0.27960000  0.67420000  1.0 -0.0988871662
C  C115  1  0.11570000  0.16930000  0.17773000  1.0 -0.1124957061
C  C116  1  0.83070000  0.88430000  0.67773000  1.0 -0.1124957061
C  C117  1  0.07557000  0.14263000  0.15070000  1.0 -0.0093506971
C  C118  1  0.85737000  0.92443000  0.65070000  1.0 -0.0093506971
C  C119  1  0.18880000  0.20620000  0.18030000  1.0 -0.1493394344
C  C120  1  0.79380000  0.81120000  0.68030000  1.0 -0.1493394344
C  C121  1  0.18720000  0.18980000  0.12820000  1.0 -0.1493394344
C  C122  1  0.81020000  0.81280000  0.62820000  1.0 -0.1493394344
C  C123  1  0.68920000  0.18680000  0.12270000  1.0 -0.179204434
C  C124  1  0.81320000  0.31080000  0.62270000  1.0 -0.1695896974
C  C125  1  0.10930000  0.15090000  0.12692000  1.0 -0.0893081396
C  C126  1  0.84910000  0.89070000  0.62692000  1.0 -0.0893081396
C  C127  1  0.72820000  0.15080000  0.12370000  1.0 -0.081264787
C  C128  1  0.84920000  0.27180000  0.62370000  1.0 -0.081264787
C  C129  1  0.67920000  0.14900000  0.17590000  1.0 -0.1613158441
C  C130  1  0.85100000  0.32080000  0.67590000  1.0 -0.1613158441
C  C131  1  0.22696000  0.21544000  0.15528000  1.0 0.0613346064
C  C132  1  0.78456000  0.77304000  0.65528000  1.0 0.0613346064
C  C133  1  0.67070000  0.19330000  0.15090000  1.0 0.0716133577
C  C134  1  0.80670000  0.32930000  0.65090000  1.0 0.0716133577
C  C135  1  0.30399000  0.25341000  0.15652000  1.0 0.0613346064
C  C136  1  0.74659000  0.69601000  0.65652000  1.0 0.0613346064
C  C137  1  0.62190000  0.34290000  0.13870000  1.0 -0.1910142123
C  C138  1  0.65710000  0.37810000  0.63870000  1.0 -0.1910142123
C  C139  1  0.65080000  0.58620000  0.15980000  1.0 0.0519385622
C  C140  1  0.41380000  0.34920000  0.65980000  1.0 0.0519385622
C  C141  1  0.69000000  0.66940000  0.15880000  1.0 0.0716133577
C  C142  1  0.33060000  0.31000000  0.65880000  1.0 0.0716133577
C  C143  1  0.41510000  0.26770000  0.14428000  1.0 -0.1695896974
C  C144  1  0.73230000  0.58490000  0.64428000  1.0 -0.1695896974
C  C145  1  0.77010000  0.81750000  0.15540000  1.0 -0.0093506971
C  C146  1  0.18250000  0.22990000  0.65540000  1.0 -0.0093506971
C  C147  1  0.80760000  0.90300000  0.15580000  1.0 0.5700299771
C  C148  1  0.09700000  0.19240000  0.65580000  1.0 0.5700299771
C  C149  1  0.63540000  0.23760000  0.15310000  1.0 0.0519385622
C  C150  1  0.76240000  0.36460000  0.65310000  1.0 0.0519385622
C  C151  1  0.79330000  0.77810000  0.17437000  1.0 -0.0988871662
C  C152  1  0.22190000  0.20670000  0.67437000  1.0 -0.0988871662
C  C153  1  0.66647000  0.71293000  0.13820000  1.0 -0.1695896974
C  C154  1  0.28707000  0.33353000  0.63820000  1.0 -0.1695896974
C  C155  1  0.75680000  0.70080000  0.17480000  1.0 -0.1695896974
C  C156  1  0.29920000  0.24320000  0.67480000  1.0 -0.1695896974
C  C157  1  0.34660000  0.31120000  0.17570000  1.0 -0.1299485796
C  C158  1  0.68880000  0.65340000  0.67570000  1.0 -0.1299485796
C  C159  1  0.67770000  0.54310000  0.17640000  1.0 -0.1299485796
C  C160  1  0.45690000  0.32230000  0.67640000  1.0 -0.1299485796
C  C161  1  0.70750000  0.78890000  0.13610000  1.0 -0.0988871662
C  C162  1  0.21110000  0.29250000  0.63610000  1.0 -0.0988871662
C  C163  1  0.57090000  0.43510000  0.16130000  1.0 0.1603814384
C  C164  1  0.56490000  0.42910000  0.66130000  1.0 0.1603814384
C  C165  1  0.45510000  0.32350000  0.16140000  1.0 0.1418504786
C  C166  1  0.67650000  0.54490000  0.66140000  1.0 0.1418504786
C  C167  1  0.56760000  0.31900000  0.15900000  1.0 0.1603814384
C  C168  1  0.68100000  0.43240000  0.65900000  1.0 0.1603814384
C  C169  1  0.54190000  0.47390000  0.14470000  1.0 -0.1910142123
C  C170  1  0.52610000  0.45810000  0.64470000  1.0 -0.1910142123
C  C171  1  0.64130000  0.47110000  0.17510000  1.0 -0.1695896974
C  C172  1  0.52890000  0.35870000  0.67510000  1.0 -0.1695896974
C  C173  1  0.57950000  0.20730000  0.17390000  1.0 -0.1493394344
C  C174  1  0.79270000  0.42050000  0.67390000  1.0 -0.1493394344
C  C175  1  0.34380000  0.23140000  0.14171000  1.0 -0.1299485796
C  C176  1  0.76860000  0.65620000  0.64171000  1.0 -0.1299485796
C  C177  1  0.41990000  0.34550000  0.17700000  1.0 -0.1695896974
C  C178  1  0.65450000  0.58010000  0.67700000  1.0 -0.1695896974
C  C179  1  0.58310000  0.55250000  0.14540000  1.0 -0.1493394344
C  C180  1  0.44750000  0.41690000  0.64540000  1.0 -0.1493394344
C  C181  1  0.54820000  0.25340000  0.17720000  1.0 -0.2078660025
C  C182  1  0.74660000  0.45180000  0.67720000  1.0 -0.2078660025
C  C183  1  0.99242000  0.09398000  0.15060000  1.0 0.5700299771
C  C184  1  0.90602000  0.00758000  0.65060000  1.0 0.5700299771
C  C185  1  0.64960000  0.30100000  0.13620000  1.0 -0.1164523767
C  C186  1  0.69900000  0.35040000  0.63620000  1.0 -0.1164523767
C  C187  1  0.79080000  0.08260000  0.14510000  1.0 0.5939707787
C  C188  1  0.91740000  0.20920000  0.64510000  1.0 0.5939707787
C  C189  1  0.03403000  0.93677000  0.25430000  1.0 0.0716133577
C  C190  1  0.06323000  0.96597000  0.75430000  1.0 0.0716133577
C  C191  1  0.01207000  0.87653000  0.20985000  1.0 0.1191870224
C  C192  1  0.12347000  0.98793000  0.70985000  1.0 0.1191870224
C  C193  1  0.00543000  0.81937000  0.25968000  1.0 0.0424589282
C  C194  1  0.18063000  0.99457000  0.75968000  1.0 0.0424589282
C  C195  1  0.01530000  0.88330000  0.17579000  1.0 0.0613346064
C  C196  1  0.11670000  0.98470000  0.67579000  1.0 0.0613346064
C  C197  1  0.00130000  0.93330000  0.12558000  1.0 -0.1124957061
C  C198  1  0.06670000  0.99870000  0.62558000  1.0 -0.1124957061
C  C199  1  0.17300000  0.15360000  0.97240000  1.0 -0.0893081396
C  C200  1  0.84640000  0.82700000  0.47240000  1.0 -0.0893081396
C  C201  1  0.15681000  0.80859000  0.95520000  1.0 -0.0273134571
C  C202  1  0.19141000  0.84319000  0.45520000  1.0 -0.0273134571
C  C203  1  0.57104000  0.71276000  0.93318000  1.0 -0.1299485796
C  C204  1  0.28724000  0.42896000  0.43318000  1.0 -0.1299485796
C  C205  1  0.26535000  0.35485000  0.94440000  1.0 0.0716133577
C  C206  1  0.64515000  0.73465000  0.44440000  1.0 0.0716133577
C  C207  1  0.45650000  0.60970000  0.94650000  1.0 0.1418504786
C  C208  1  0.39030000  0.54350000  0.44650000  1.0 0.1418504786
C  C209  1  0.02124000  0.89076000  0.11530000  1.0 0.0519385622
C  C210  1  0.10924000  0.97876000  0.61530000  1.0 0.0519385622
C  C211  1  0.83792000  0.78328000  0.95404000  1.0 -0.0665534136
C  C212  1  0.21672000  0.16208000  0.45404000  1.0 -0.0665534136
C  C213  1  0.15545000  0.12595000  0.94640000  1.0 -0.0196386489
C  C214  1  0.87405000  0.84455000  0.44640000  1.0 -0.0196386489
C  C215  1  0.03839000  0.95441000  0.06215000  1.0 -0.1695896974
C  C216  1  0.04559000  0.96161000  0.56215000  1.0 -0.1613158441
C  C217  1  0.25620000  0.38600000  0.96571000  1.0 -0.1299485796
C  C218  1  0.61400000  0.74380000  0.46571000  1.0 -0.1299485796
C  C219  1  0.91550000  0.81930000  0.95920000  1.0 0.5386311294
C  C220  1  0.18070000  0.08450000  0.45920000  1.0 0.5386311294
C  C221  1  0.80291000  0.82369000  0.94855000  1.0 -0.0988871662
C  C222  1  0.17631000  0.19709000  0.44855000  1.0 -0.0988871662
C  C223  1  0.34137000  0.50023000  0.94640000  1.0 0.1603814384
C  C224  1  0.49977000  0.65863000  0.44640000  1.0 0.1603814384
C  C225  1  0.16806000  0.16494000  0.91800000  1.0 -0.0893081396
C  C226  1  0.83506000  0.83194000  0.41800000  1.0 -0.0893081396
C  C227  1  0.72877000  0.78883000  0.94663000  1.0 -0.1613158441
C  C228  1  0.21117000  0.27123000  0.44663000  1.0 -0.1613158441
C  C229  1  0.61045000  0.67735000  0.95030000  1.0 0.0519385622
C  C230  1  0.32265000  0.38955000  0.45030000  1.0 0.0519385622
C  C231  1  0.04446000  0.95994000  0.03209000  1.0 0.0424589282
C  C232  1  0.04006000  0.95554000  0.53209000  1.0 0.0424589282
C  C233  1  0.02075000  0.89245000  0.07961000  1.0 0.1108261518
C  C234  1  0.10755000  0.97925000  0.57961000  1.0 0.1108261518
C  C235  1  0.68558000  0.71562000  0.94855000  1.0 0.0613346064
C  C236  1  0.28438000  0.31442000  0.44855000  1.0 0.0613346064
C  C237  1  0.49600000  0.57860000  0.96210000  1.0 -0.1910142123
C  C238  1  0.42140000  0.50400000  0.46210000  1.0 -0.1910142123
C  C239  1  0.17320000  0.72320000  0.92960000  1.0 -0.1695896974
C  C240  1  0.27680000  0.82680000  0.42960000  1.0 -0.1695896974
C  C241  1  0.03980000  0.83940000  0.16338000  1.0 -0.1299485796
C  C242  1  0.16060000  0.96020000  0.66338000  1.0 -0.1299485796
C  C243  1  0.20997000  0.22943000  0.97129000  1.0 -0.1613158441
C  C244  1  0.77057000  0.79003000  0.47129000  1.0 -0.1613158441
C  C245  1  0.31709000  0.39831000  0.92364000  1.0 -0.1406640119
C  C246  1  0.60169000  0.68291000  0.42364000  1.0 -0.1406640119
C  C247  1  0.20863000  0.24377000  0.91938000  1.0 -0.1164523767
C  C248  1  0.75623000  0.79137000  0.41938000  1.0 -0.1164523767
C  C249  1  0.22320000  0.26900000  0.94394000  1.0 0.0716133577
C  C250  1  0.73100000  0.77680000  0.44394000  1.0 0.0716133577
C  C251  1  0.72307000  0.67293000  0.95423000  1.0 -0.1695896974
C  C252  1  0.32707000  0.27693000  0.45423000  1.0 -0.1695896974
C  C253  1  0.03735000  0.94485000  0.22304000  1.0 -0.2078660025
C  C254  1  0.05515000  0.96265000  0.72304000  1.0 -0.2078660025
C  C255  1  0.13752000  0.76488000  0.92960000  1.0 -0.0988871662
C  C256  1  0.23512000  0.86248000  0.42960000  1.0 -0.0893081396
C  C257  1  0.49660000  0.67560000  0.93207000  1.0 -0.1980915585
C  C258  1  0.32440000  0.50340000  0.43207000  1.0 -0.1980915585
C  C259  1  0.37585000  0.67635000  0.96190000  1.0 -0.1980915585
C  C260  1  0.32365000  0.62415000  0.46190000  1.0 -0.1980915585
C  C261  1  0.56790000  0.60930000  0.96340000  1.0 -0.1299485796
C  C262  1  0.39070000  0.43210000  0.46340000  1.0 -0.1299485796
C  C263  1  0.79690000  0.70730000  0.95673000  1.0 -0.0988871662
C  C264  1  0.29270000  0.20310000  0.45673000  1.0 -0.0988871662
C  C265  1  0.27303000  0.58917000  0.93540000  1.0 -0.179204434
C  C266  1  0.41083000  0.72697000  0.43540000  1.0 -0.179204434
C  C267  1  0.03899000  0.84681000  0.13376000  1.0 -0.1164523767
C  C268  1  0.15319000  0.96101000  0.63376000  1.0 -0.1164523767
C  C269  1  0.11916000  0.04004000  0.94680000  1.0 0.5700299771
C  C270  1  0.95996000  0.88084000  0.44680000  1.0 0.5700299771
C  C271  1  0.11500000  0.84960000  0.95240000  1.0 0.5700299771
C  C272  1  0.15040000  0.88500000  0.45240000  1.0 0.5700299771
C  C273  1  0.26571000  0.68669000  0.95165000  1.0 0.0424589282
C  C274  1  0.31331000  0.73429000  0.45165000  1.0 0.0424589282
C  C275  1  0.29458000  0.45882000  0.96758000  1.0 -0.179204434
C  C276  1  0.54118000  0.70542000  0.46758000  1.0 -0.179204434
C  C277  1  0.34370000  0.61290000  0.94690000  1.0 0.1603814384
C  C278  1  0.38710000  0.65630000  0.44690000  1.0 0.1603814384
C  C279  1  0.33439000  0.71341000  0.96510000  1.0 -0.1406640119
C  C280  1  0.28659000  0.66561000  0.46510000  1.0 -0.1406640119
C  C281  1  0.35443000  0.47017000  0.92390000  1.0 -0.1695896974
C  C282  1  0.52983000  0.64557000  0.42390000  1.0 -0.1695896974
C  C283  1  0.23647000  0.62433000  0.93640000  1.0 -0.1299485796
C  C284  1  0.37567000  0.76353000  0.43640000  1.0 -0.1299485796
C  C285  1  0.20520000  0.80840000  0.97660000  1.0 -0.0893081396
C  C286  1  0.19160000  0.79480000  0.47660000  1.0 -0.0893081396
C  C287  1  0.99861000  0.92839000  0.15680000  1.0 -0.1299485796
C  C288  1  0.07161000  0.00139000  0.65680000  1.0 -0.1299485796
C  C289  1  0.22558000  0.72382000  0.95290000  1.0 0.0613346064
C  C290  1  0.27618000  0.77442000  0.45290000  1.0 0.0613346064
C  C291  1  0.23960000  0.76760000  0.97590000  1.0 -0.1493394344
C  C292  1  0.23240000  0.76040000  0.47590000  1.0 -0.1493394344
C  C293  1  0.99926000  0.81934000  0.22950000  1.0 -0.1695896974
C  C294  1  0.18066000  0.00074000  0.72950000  1.0 -0.1695896974
C  C295  1  0.00506000  0.83214000  0.06706000  1.0 -0.1980915585
C  C296  1  0.16786000  0.99494000  0.56706000  1.0 -0.1980915585
C  C297  1  0.01140000  0.83940000  0.03710000  1.0 0.102872369
C  C298  1  0.16060000  0.98860000  0.53710000  1.0 0.102872369
C  C299  1  0.11800000  0.74320000  0.35240000  1.0 -0.0023638932
C  C300  1  0.25680000  0.88200000  0.85240000  1.0 -0.0023638932
C  C301  1  0.11440000  0.72040000  0.32580000  1.0 -0.0988871662
C  C302  1  0.27960000  0.88560000  0.82580000  1.0 -0.0988871662
C  C303  1  0.16930000  0.11570000  0.32227000  1.0 -0.1124957061
C  C304  1  0.88430000  0.83070000  0.82227000  1.0 -0.1124957061
C  C305  1  0.14263000  0.07557000  0.34930000  1.0 -0.0093506971
C  C306  1  0.92443000  0.85737000  0.84930000  1.0 -0.0093506971
C  C307  1  0.20620000  0.18880000  0.31970000  1.0 -0.1493394344
C  C308  1  0.81120000  0.79380000  0.81970000  1.0 -0.1493394344
C  C309  1  0.18980000  0.18720000  0.37180000  1.0 -0.1493394344
C  C310  1  0.81280000  0.81020000  0.87180000  1.0 -0.1493394344
C  C311  1  0.18680000  0.68920000  0.37730000  1.0 -0.179204434
C  C312  1  0.31080000  0.81320000  0.87730000  1.0 -0.1695896974
C  C313  1  0.15090000  0.10930000  0.37308000  1.0 -0.0893081396
C  C314  1  0.89070000  0.84910000  0.87308000  1.0 -0.0893081396
C  C315  1  0.15080000  0.72820000  0.37630000  1.0 -0.081264787
C  C316  1  0.27180000  0.84920000  0.87630000  1.0 -0.081264787
C  C317  1  0.14900000  0.67920000  0.32410000  1.0 -0.1613158441
C  C318  1  0.32080000  0.85100000  0.82410000  1.0 -0.1613158441
C  C319  1  0.21544000  0.22696000  0.34472000  1.0 0.0613346064
C  C320  1  0.77304000  0.78456000  0.84472000  1.0 0.0613346064
C  C321  1  0.19330000  0.67070000  0.34910000  1.0 0.0716133577
C  C322  1  0.32930000  0.80670000  0.84910000  1.0 0.0716133577
C  C323  1  0.25341000  0.30399000  0.34348000  1.0 0.0613346064
C  C324  1  0.69601000  0.74659000  0.84348000  1.0 0.0613346064
C  C325  1  0.34290000  0.62190000  0.36130000  1.0 -0.1910142123
C  C326  1  0.37810000  0.65710000  0.86130000  1.0 -0.1910142123
C  C327  1  0.58620000  0.65080000  0.34020000  1.0 0.0519385622
C  C328  1  0.34920000  0.41380000  0.84020000  1.0 0.0424589282
C  C329  1  0.66940000  0.69000000  0.34120000  1.0 0.0716133577
C  C330  1  0.31000000  0.33060000  0.84120000  1.0 0.0716133577
C  C331  1  0.26770000  0.41510000  0.35572000  1.0 -0.1695896974
C  C332  1  0.58490000  0.73230000  0.85572000  1.0 -0.1695896974
C  C333  1  0.81750000  0.77010000  0.34460000  1.0 -0.0093506971
C  C334  1  0.22990000  0.18250000  0.84460000  1.0 -0.0093506971
C  C335  1  0.90300000  0.80760000  0.34420000  1.0 0.5700299771
C  C336  1  0.19240000  0.09700000  0.84420000  1.0 0.5700299771
C  C337  1  0.23760000  0.63540000  0.34690000  1.0 0.0519385622
C  C338  1  0.36460000  0.76240000  0.84690000  1.0 0.0519385622
C  C339  1  0.77810000  0.79330000  0.32563000  1.0 -0.0988871662
C  C340  1  0.20670000  0.22190000  0.82563000  1.0 -0.0988871662
C  C341  1  0.71293000  0.66647000  0.36180000  1.0 -0.1695896974
C  C342  1  0.33353000  0.28707000  0.86180000  1.0 -0.1695896974
C  C343  1  0.70080000  0.75680000  0.32520000  1.0 -0.1695896974
C  C344  1  0.24320000  0.29920000  0.82520000  1.0 -0.1695896974
C  C345  1  0.31120000  0.34660000  0.32430000  1.0 -0.1299485796
C  C346  1  0.65340000  0.68880000  0.82430000  1.0 -0.1299485796
C  C347  1  0.54310000  0.67770000  0.32360000  1.0 -0.1299485796
C  C348  1  0.32230000  0.45690000  0.82360000  1.0 -0.1299485796
C  C349  1  0.78890000  0.70750000  0.36390000  1.0 -0.0988871662
C  C350  1  0.29250000  0.21110000  0.86390000  1.0 -0.0988871662
C  C351  1  0.43510000  0.57090000  0.33870000  1.0 0.1603814384
C  C352  1  0.42910000  0.56490000  0.83870000  1.0 0.1603814384
C  C353  1  0.32350000  0.45510000  0.33860000  1.0 0.1418504786
C  C354  1  0.54490000  0.67650000  0.83860000  1.0 0.1471446386
C  C355  1  0.31900000  0.56760000  0.34100000  1.0 0.1603814384
C  C356  1  0.43240000  0.68100000  0.84100000  1.0 0.1603814384
C  C357  1  0.47390000  0.54190000  0.35530000  1.0 -0.1910142123
C  C358  1  0.45810000  0.52610000  0.85530000  1.0 -0.1910142123
C  C359  1  0.47110000  0.64130000  0.32490000  1.0 -0.1695896974
C  C360  1  0.35870000  0.52890000  0.82490000  1.0 -0.1695896974
C  C361  1  0.20730000  0.57950000  0.32610000  1.0 -0.1493394344
C  C362  1  0.42050000  0.79270000  0.82610000  1.0 -0.1493394344
C  C363  1  0.23140000  0.34380000  0.35829000  1.0 -0.1299485796
C  C364  1  0.65620000  0.76860000  0.85829000  1.0 -0.1299485796
C  C365  1  0.34550000  0.41990000  0.32300000  1.0 -0.1695896974
C  C366  1  0.58010000  0.65450000  0.82300000  1.0 -0.1695896974
C  C367  1  0.55250000  0.58310000  0.35460000  1.0 -0.1493394344
C  C368  1  0.41690000  0.44750000  0.85460000  1.0 -0.1493394344
C  C369  1  0.25340000  0.54820000  0.32280000  1.0 -0.2078660025
C  C370  1  0.45180000  0.74660000  0.82280000  1.0 -0.2078660025
C  C371  1  0.09398000  0.99242000  0.34940000  1.0 0.5700299771
C  C372  1  0.00758000  0.90602000  0.84940000  1.0 0.5700299771
C  C373  1  0.30100000  0.64960000  0.36380000  1.0 -0.1164523767
C  C374  1  0.35040000  0.69900000  0.86380000  1.0 -0.1164523767
C  C375  1  0.08260000  0.79080000  0.35490000  1.0 0.5939707787
C  C376  1  0.20920000  0.91740000  0.85490000  1.0 0.5939707787
N  N1  1  0.87838000  0.02082000  0.22584000  1.0 -0.2507744698
N  N2  1  0.97918000  0.12162000  0.72584000  1.0 -0.2507744698
N  N3  1  0.57270000  0.38030000  0.55265000  1.0 -0.1406640119
N  N4  1  0.61970000  0.42730000  0.05265000  1.0 -0.1406640119
N  N5  1  0.89818000  0.02922000  0.48090000  1.0 -0.2229042506
N  N6  1  0.97078000  0.10182000  0.98090000  1.0 -0.2229042506
N  N7  1  0.53206000  0.35914000  0.16132000  1.0 -0.1695896974
N  N8  1  0.64086000  0.46794000  0.66132000  1.0 -0.1695896974
N  N9  1  0.02082000  0.87838000  0.27416000  1.0 -0.2507744698
N  N10  1  0.12162000  0.97918000  0.77416000  1.0 -0.2507744698
N  N11  1  0.38030000  0.57270000  0.94735000  1.0 -0.1406640119
N  N12  1  0.42730000  0.61970000  0.44735000  1.0 -0.1406640119
N  N13  1  0.02922000  0.89818000  0.01910000  1.0 -0.2229042506
N  N14  1  0.10182000  0.97078000  0.51910000  1.0 -0.2229042506
N  N15  1  0.35914000  0.53206000  0.33868000  1.0 -0.1695896974
N  N16  1  0.46794000  0.64086000  0.83868000  1.0 -0.1695896974
O  O1  1  0.88618000  0.95182000  0.54624000  1.0 -0.529171121
O  O2  1  0.04818000  0.11382000  0.04624000  1.0 -0.529171121
O  O3  1  0.00712000  0.11008000  0.52825000  1.0 -0.5000607564
O  O4  1  0.88992000  0.99288000  0.02825000  1.0 -0.5000607564
O  O5  1  0.78176000  0.94834000  0.52918000  1.0 -0.5634737946
O  O6  1  0.05166000  0.21824000  0.02918000  1.0 -0.5634737946
O  O7  1  0.86904000  0.08956000  0.57008000  1.0 -0.5000607564
O  O8  1  0.91044000  0.13096000  0.07008000  1.0 -0.5000607564
O  O9  1  0.01975000  0.10725000  0.57943000  1.0 -0.5634737946
O  O10  1  0.89275000  0.98025000  0.07943000  1.0 -0.5634737946
O  O11  1  0.86286000  0.11374000  0.51961000  1.0 -0.5463822602
O  O12  1  0.88626000  0.13714000  0.01961000  1.0 -0.544562888
O  O13  1  0.96844000  0.08516000  0.17745000  1.0 -0.5808381854
O  O14  1  0.91484000  0.03156000  0.67745000  1.0 -0.5808381854
O  O15  1  0.95939000  0.07441000  0.12658000  1.0 -0.4889342605
O  O16  1  0.92559000  0.04061000  0.62658000  1.0 -0.4889342605
O  O17  1  0.84948000  0.92152000  0.17750000  1.0 -0.4889342605
O  O18  1  0.07848000  0.15052000  0.67750000  1.0 -0.4889342605
O  O19  1  0.81628000  0.08852000  0.12321000  1.0 -0.4820655702
O  O20  1  0.91148000  0.18372000  0.62321000  1.0 -0.4820655702
O  O21  1  0.80056000  0.05104000  0.17106000  1.0 -0.5634737946
O  O22  1  0.94896000  0.19944000  0.67106000  1.0 -0.5634737946
O  O23  1  0.80284000  0.93976000  0.12991000  1.0 -0.6104742407
O  O24  1  0.06024000  0.19716000  0.62991000  1.0 -0.6104742407
O  O25  1  0.95182000  0.88618000  0.95376000  1.0 -0.529171121
O  O26  1  0.11382000  0.04818000  0.45376000  1.0 -0.529171121
O  O27  1  0.11008000  0.00712000  0.97175000  1.0 -0.5000607564
O  O28  1  0.99288000  0.88992000  0.47175000  1.0 -0.5000607564
O  O29  1  0.94834000  0.78176000  0.97082000  1.0 -0.5653012513
O  O30  1  0.21824000  0.05166000  0.47082000  1.0 -0.5634737946
O  O31  1  0.08956000  0.86904000  0.92992000  1.0 -0.5000607564
O  O32  1  0.13096000  0.91044000  0.42992000  1.0 -0.5000607564
O  O33  1  0.10725000  0.01975000  0.92057000  1.0 -0.5634737946
O  O34  1  0.98025000  0.89275000  0.42057000  1.0 -0.5634737946
O  O35  1  0.11374000  0.86286000  0.98039000  1.0 -0.544562888
O  O36  1  0.13714000  0.88626000  0.48039000  1.0 -0.5463822602
O  O37  1  0.08516000  0.96844000  0.32255000  1.0 -0.5808381854
O  O38  1  0.03156000  0.91484000  0.82255000  1.0 -0.5808381854
O  O39  1  0.07441000  0.95939000  0.37342000  1.0 -0.4889342605
O  O40  1  0.04061000  0.92559000  0.87342000  1.0 -0.4889342605
O  O41  1  0.92152000  0.84948000  0.32250000  1.0 -0.4889342605
O  O42  1  0.15052000  0.07848000  0.82250000  1.0 -0.4889342605
O  O43  1  0.08852000  0.81628000  0.37679000  1.0 -0.4820655702
O  O44  1  0.18372000  0.91148000  0.87679000  1.0 -0.4820655702
O  O45  1  0.05104000  0.80056000  0.32894000  1.0 -0.5634737946
O  O46  1  0.19944000  0.94896000  0.82894000  1.0 -0.5634737946
O  O47  1  0.93976000  0.80284000  0.37009000  1.0 -0.6104742407
O  O48  1  0.19716000  0.06024000  0.87009000  1.0 -0.6104742407
