# DDEC6 charges by PACMAN v1.1 (https://github.com/mtap-research/PACMAN-charge/)
data_HURFUX_ASR_pacman
_symmetry_space_group_name_H-M   'P 1'
_cell_length_a   15.41150000
_cell_length_b   19.18500000
_cell_length_c   25.47100000
_cell_angle_alpha   90.00000000
_cell_angle_beta   90.00000000
_cell_angle_gamma   90.00000000
_symmetry_Int_Tables_number   1
_chemical_formula_structural   Zn5H37C36N12O13
_chemical_formula_sum   'Zn20 H148 C144 N48 O52'
_cell_volume   7531.00108205
_cell_formula_units_Z   4
loop_
 _symmetry_equiv_pos_site_id
 _symmetry_equiv_pos_as_xyz
  1  'x, y, z'
loop_
 _atom_site_type_symbol
 _atom_site_label
 _atom_site_symmetry_multiplicity
 _atom_site_fract_x
 _atom_site_fract_y
 _atom_site_fract_z
 _atom_site_occupancy
 _atom_site_charge
Zn  Zn1  1  0.93733000  0.16212000  0.23122000  1.0 0.7475213534
Zn  Zn2  1  0.56267000  0.83788000  0.73122000  1.0 0.7475213534
Zn  Zn3  1  0.06267000  0.66212000  0.76878000  1.0 0.7475213534
Zn  Zn4  1  0.43733000  0.33788000  0.26878000  1.0 0.7475213534
Zn  Zn5  1  0.06267000  0.83788000  0.76878000  1.0 0.7475213534
Zn  Zn6  1  0.43733000  0.16212000  0.26878000  1.0 0.7475213534
Zn  Zn7  1  0.93733000  0.33788000  0.23122000  1.0 0.7475213534
Zn  Zn8  1  0.56267000  0.66212000  0.73122000  1.0 0.7475213534
Zn  Zn9  1  0.97166000  0.03581000  0.45095000  1.0 0.8607477448
Zn  Zn10  1  0.52834000  0.96419000  0.95095000  1.0 0.8607477448
Zn  Zn11  1  0.02834000  0.53581000  0.54905000  1.0 0.8607477448
Zn  Zn12  1  0.47166000  0.46419000  0.04905000  1.0 0.8607477448
Zn  Zn13  1  0.02834000  0.96419000  0.54905000  1.0 0.8607477448
Zn  Zn14  1  0.47166000  0.03581000  0.04905000  1.0 0.8607477448
Zn  Zn15  1  0.97166000  0.46419000  0.45095000  1.0 0.8607477448
Zn  Zn16  1  0.52834000  0.53581000  0.95095000  1.0 0.8607477448
Zn  Zn17  1  0.80809000  0.25000000  0.30813000  1.0 0.7406916446
Zn  Zn18  1  0.69191000  0.75000000  0.80813000  1.0 0.7406916446
Zn  Zn19  1  0.19191000  0.75000000  0.69187000  1.0 0.7406916446
Zn  Zn20  1  0.30809000  0.25000000  0.19187000  1.0 0.7406916446
H  H1  1  0.02770000  0.28880000  0.72930000  1.0 0.1589094529
H  H2  1  0.47230000  0.71120000  0.22930000  1.0 0.1589094529
H  H3  1  0.97230000  0.78880000  0.27070000  1.0 0.1589094529
H  H4  1  0.52770000  0.21120000  0.77070000  1.0 0.1589094529
H  H5  1  0.97230000  0.71120000  0.27070000  1.0 0.1589094529
H  H6  1  0.52770000  0.28880000  0.77070000  1.0 0.1589094529
H  H7  1  0.02770000  0.21120000  0.72930000  1.0 0.1589094529
H  H8  1  0.47230000  0.78880000  0.22930000  1.0 0.1589094529
H  H9  1  0.00640000  0.91120000  0.04050000  1.0 0.1710759304
H  H10  1  0.49360000  0.08880000  0.54050000  1.0 0.1710759304
H  H11  1  0.99360000  0.41120000  0.95950000  1.0 0.1710759304
H  H12  1  0.50640000  0.58880000  0.45950000  1.0 0.1710759304
H  H13  1  0.99360000  0.08880000  0.95950000  1.0 0.1710759304
H  H14  1  0.50640000  0.91120000  0.45950000  1.0 0.1710759304
H  H15  1  0.00640000  0.58880000  0.04050000  1.0 0.1710759304
H  H16  1  0.49360000  0.41120000  0.54050000  1.0 0.1710759304
H  H17  1  0.94300000  0.88830000  0.99990000  1.0 0.1589094529
H  H18  1  0.55700000  0.11170000  0.49990000  1.0 0.1589094529
H  H19  1  0.05700000  0.38830000  0.00010000  1.0 0.1589094529
H  H20  1  0.44300000  0.61170000  0.50010000  1.0 0.1589094529
H  H21  1  0.05700000  0.11170000  0.00010000  1.0 0.1589094529
H  H22  1  0.44300000  0.88830000  0.50010000  1.0 0.1589094529
H  H23  1  0.94300000  0.61170000  0.99990000  1.0 0.1589094529
H  H24  1  0.55700000  0.38830000  0.49990000  1.0 0.1589094529
H  H25  1  0.82400000  0.25000000  0.21370000  1.0 0.3931851498
H  H26  1  0.67600000  0.75000000  0.71370000  1.0 0.3931851498
H  H27  1  0.17600000  0.75000000  0.78630000  1.0 0.3931851498
H  H28  1  0.32400000  0.25000000  0.28630000  1.0 0.3931851498
H  H29  1  0.08410000  0.05470000  0.32290000  1.0 0.1589094529
H  H30  1  0.41590000  0.94530000  0.82290000  1.0 0.1589094529
H  H31  1  0.91590000  0.55470000  0.67710000  1.0 0.1589094529
H  H32  1  0.58410000  0.44530000  0.17710000  1.0 0.1589094529
H  H33  1  0.91590000  0.94530000  0.67710000  1.0 0.1589094529
H  H34  1  0.58410000  0.05470000  0.17710000  1.0 0.1589094529
H  H35  1  0.08410000  0.44530000  0.32290000  1.0 0.1589094529
H  H36  1  0.41590000  0.55470000  0.82290000  1.0 0.1589094529
H  H37  1  0.01910000  0.02290000  0.28210000  1.0 0.1540456838
H  H38  1  0.48090000  0.97710000  0.78210000  1.0 0.1540456838
H  H39  1  0.98090000  0.52290000  0.71790000  1.0 0.1540456838
H  H40  1  0.51910000  0.47710000  0.21790000  1.0 0.1540456838
H  H41  1  0.98090000  0.97710000  0.71790000  1.0 0.1540456838
H  H42  1  0.51910000  0.02290000  0.21790000  1.0 0.1540456838
H  H43  1  0.01910000  0.47710000  0.28210000  1.0 0.1540456838
H  H44  1  0.48090000  0.52290000  0.78210000  1.0 0.1540456838
H  H45  1  0.02520000  0.99150000  0.33880000  1.0 0.1589094529
H  H46  1  0.47480000  0.00850000  0.83880000  1.0 0.1589094529
H  H47  1  0.97480000  0.49150000  0.66120000  1.0 0.1589094529
H  H48  1  0.52520000  0.50850000  0.16120000  1.0 0.1589094529
H  H49  1  0.97480000  0.00850000  0.66120000  1.0 0.1589094529
H  H50  1  0.52520000  0.99150000  0.16120000  1.0 0.1589094529
H  H51  1  0.02520000  0.50850000  0.33880000  1.0 0.1589094529
H  H52  1  0.47480000  0.49150000  0.83880000  1.0 0.1589094529
H  H53  1  0.76250000  0.18150000  0.41490000  1.0 0.1391358042
H  H54  1  0.73750000  0.81850000  0.91490000  1.0 0.1391358042
H  H55  1  0.23750000  0.68150000  0.58510000  1.0 0.1391358042
H  H56  1  0.26250000  0.31850000  0.08510000  1.0 0.1391358042
H  H57  1  0.23750000  0.81850000  0.58510000  1.0 0.1391358042
H  H58  1  0.26250000  0.18150000  0.08510000  1.0 0.1391358042
H  H59  1  0.76250000  0.31850000  0.41490000  1.0 0.1391358042
H  H60  1  0.73750000  0.68150000  0.91490000  1.0 0.1391358042
H  H61  1  0.84400000  0.18740000  0.45140000  1.0 0.1589094529
H  H62  1  0.65600000  0.81260000  0.95140000  1.0 0.1589094529
H  H63  1  0.15600000  0.68740000  0.54860000  1.0 0.1589094529
H  H64  1  0.34400000  0.31260000  0.04860000  1.0 0.1589094529
H  H65  1  0.15600000  0.81260000  0.54860000  1.0 0.1589094529
H  H66  1  0.34400000  0.18740000  0.04860000  1.0 0.1589094529
H  H67  1  0.84400000  0.31260000  0.45140000  1.0 0.1589094529
H  H68  1  0.65600000  0.68740000  0.95140000  1.0 0.1589094529
H  H69  1  0.79370000  0.11660000  0.44720000  1.0 0.1589094529
H  H70  1  0.70630000  0.88340000  0.94720000  1.0 0.1589094529
H  H71  1  0.20630000  0.61660000  0.55280000  1.0 0.1589094529
H  H72  1  0.29370000  0.38340000  0.05280000  1.0 0.1589094529
H  H73  1  0.20630000  0.88340000  0.55280000  1.0 0.1589094529
H  H74  1  0.29370000  0.11660000  0.05280000  1.0 0.1589094529
H  H75  1  0.79370000  0.38340000  0.44720000  1.0 0.1589094529
H  H76  1  0.70630000  0.61660000  0.94720000  1.0 0.1589094529
H  H77  1  0.02470000  0.14610000  0.64780000  1.0 0.1162941305
H  H78  1  0.47530000  0.85390000  0.14780000  1.0 0.1162941305
H  H79  1  0.97530000  0.64610000  0.35220000  1.0 0.1162941305
H  H80  1  0.52470000  0.35390000  0.85220000  1.0 0.1162941305
H  H81  1  0.97530000  0.85390000  0.35220000  1.0 0.1162941305
H  H82  1  0.52470000  0.14610000  0.85220000  1.0 0.1162941305
H  H83  1  0.02470000  0.35390000  0.64780000  1.0 0.1162941305
H  H84  1  0.47530000  0.64610000  0.14780000  1.0 0.1162941305
H  H85  1  0.99130000  0.25000000  0.51300000  1.0 0.1391358042
H  H86  1  0.50870000  0.75000000  0.01300000  1.0 0.1391358042
H  H87  1  0.00870000  0.75000000  0.48700000  1.0 0.1391358042
H  H88  1  0.49130000  0.25000000  0.98700000  1.0 0.1391358042
H  H89  1  0.97260000  0.99230000  0.10450000  1.0 0.1138427085
H  H90  1  0.52740000  0.00770000  0.60450000  1.0 0.1162941305
H  H91  1  0.02740000  0.49230000  0.89550000  1.0 0.1162941305
H  H92  1  0.47260000  0.50770000  0.39550000  1.0 0.1138427085
H  H93  1  0.02740000  0.00770000  0.89550000  1.0 0.1162941305
H  H94  1  0.47260000  0.99230000  0.39550000  1.0 0.1162941305
H  H95  1  0.97260000  0.50770000  0.10450000  1.0 0.1138427085
H  H96  1  0.52740000  0.49230000  0.60450000  1.0 0.1162941305
H  H97  1  0.79090000  0.93880000  0.00030000  1.0 0.1162941305
H  H98  1  0.70910000  0.06120000  0.50030000  1.0 0.1162941305
H  H99  1  0.20910000  0.43880000  0.99970000  1.0 0.1162941305
H  H100  1  0.29090000  0.56120000  0.49970000  1.0 0.1162941305
H  H101  1  0.20910000  0.06120000  0.99970000  1.0 0.1162941305
H  H102  1  0.29090000  0.93880000  0.49970000  1.0 0.1162941305
H  H103  1  0.79090000  0.56120000  0.00030000  1.0 0.1162941305
H  H104  1  0.70910000  0.43880000  0.50030000  1.0 0.1162941305
H  H105  1  0.73340000  0.07020000  0.11590000  1.0 0.1391358042
H  H106  1  0.76660000  0.92980000  0.61590000  1.0 0.1391358042
H  H107  1  0.26660000  0.57020000  0.88410000  1.0 0.1391358042
H  H108  1  0.23340000  0.42980000  0.38410000  1.0 0.1391358042
H  H109  1  0.26660000  0.92980000  0.88410000  1.0 0.1391358042
H  H110  1  0.23340000  0.07020000  0.38410000  1.0 0.1391358042
H  H111  1  0.73340000  0.42980000  0.11590000  1.0 0.1391358042
H  H112  1  0.76660000  0.57020000  0.61590000  1.0 0.1391358042
H  H113  1  0.11120000  0.09050000  0.21080000  1.0 0.1589094529
H  H114  1  0.38880000  0.90950000  0.71080000  1.0 0.1589094529
H  H115  1  0.88880000  0.59050000  0.78920000  1.0 0.1589094529
H  H116  1  0.61120000  0.40950000  0.28920000  1.0 0.1589094529
H  H117  1  0.88880000  0.90950000  0.78920000  1.0 0.1589094529
H  H118  1  0.61120000  0.09050000  0.28920000  1.0 0.1589094529
H  H119  1  0.11120000  0.40950000  0.21080000  1.0 0.1589094529
H  H120  1  0.38880000  0.59050000  0.71080000  1.0 0.1589094529
H  H121  1  0.20300000  0.11300000  0.23120000  1.0 0.1589094529
H  H122  1  0.29700000  0.88700000  0.73120000  1.0 0.1589094529
H  H123  1  0.79700000  0.61300000  0.76880000  1.0 0.1589094529
H  H124  1  0.70300000  0.38700000  0.26880000  1.0 0.1589094529
H  H125  1  0.79700000  0.88700000  0.76880000  1.0 0.1589094529
H  H126  1  0.70300000  0.11300000  0.26880000  1.0 0.1589094529
H  H127  1  0.20300000  0.38700000  0.23120000  1.0 0.1589094529
H  H128  1  0.29700000  0.61300000  0.73120000  1.0 0.1589094529
H  H129  1  0.18340000  0.11230000  0.17080000  1.0 0.1589094529
H  H130  1  0.31660000  0.88770000  0.67080000  1.0 0.1589094529
H  H131  1  0.81660000  0.61230000  0.82920000  1.0 0.1589094529
H  H132  1  0.68340000  0.38770000  0.32920000  1.0 0.1589094529
H  H133  1  0.81660000  0.88770000  0.82920000  1.0 0.1589094529
H  H134  1  0.68340000  0.11230000  0.32920000  1.0 0.1589094529
H  H135  1  0.18340000  0.38770000  0.17080000  1.0 0.1589094529
H  H136  1  0.31660000  0.61230000  0.67080000  1.0 0.1589094529
H  H137  1  0.93010000  0.92770000  0.03340000  1.0 0.0933728344
H  H138  1  0.56990000  0.07230000  0.53340000  1.0 0.0933728344
H  H139  1  0.06990000  0.42770000  0.96660000  1.0 0.0933728344
H  H140  1  0.43010000  0.57230000  0.46660000  1.0 0.0933728344
H  H141  1  0.06990000  0.07230000  0.96660000  1.0 0.0933728344
H  H142  1  0.43010000  0.92770000  0.46660000  1.0 0.0933728344
H  H143  1  0.93010000  0.57230000  0.03340000  1.0 0.0933728344
H  H144  1  0.56990000  0.42770000  0.53340000  1.0 0.0933728344
H  H145  1  0.02310000  0.25000000  0.69340000  1.0 0.0990370359
H  H146  1  0.47690000  0.75000000  0.19340000  1.0 0.0990370359
H  H147  1  0.97690000  0.75000000  0.30660000  1.0 0.0990370359
H  H148  1  0.52310000  0.25000000  0.80660000  1.0 0.0990370359
C  C1  1  0.02810000  0.03360000  0.31850000  1.0 -0.5501403273
C  C2  1  0.47190000  0.96640000  0.81850000  1.0 -0.5501403273
C  C3  1  0.97190000  0.53360000  0.68150000  1.0 -0.5501403273
C  C4  1  0.52810000  0.46640000  0.18150000  1.0 -0.5501403273
C  C5  1  0.97190000  0.96640000  0.68150000  1.0 -0.5501403273
C  C6  1  0.52810000  0.03360000  0.18150000  1.0 -0.5501403273
C  C7  1  0.02810000  0.46640000  0.31850000  1.0 -0.5501403273
C  C8  1  0.47190000  0.53360000  0.81850000  1.0 -0.5501403273
C  C9  1  0.96030000  0.08240000  0.33648000  1.0 0.3931851498
C  C10  1  0.53970000  0.91760000  0.83648000  1.0 0.3931851498
C  C11  1  0.03970000  0.58240000  0.66352000  1.0 0.3931851498
C  C12  1  0.46030000  0.41760000  0.16352000  1.0 0.3931851498
C  C13  1  0.03970000  0.91760000  0.66352000  1.0 0.3931851498
C  C14  1  0.46030000  0.08240000  0.16352000  1.0 0.3931851498
C  C15  1  0.96030000  0.41760000  0.33648000  1.0 0.3931851498
C  C16  1  0.53970000  0.58240000  0.83648000  1.0 0.3931851498
C  C17  1  0.86910000  0.13580000  0.38382000  1.0 0.3931851498
C  C18  1  0.63090000  0.86420000  0.88382000  1.0 0.3931851498
C  C19  1  0.13090000  0.63580000  0.61618000  1.0 0.3931851498
C  C20  1  0.36910000  0.36420000  0.11618000  1.0 0.3931851498
C  C21  1  0.13090000  0.86420000  0.61618000  1.0 0.3931851498
C  C22  1  0.36910000  0.13580000  0.11618000  1.0 0.3931851498
C  C23  1  0.86910000  0.36420000  0.38382000  1.0 0.3931851498
C  C24  1  0.63090000  0.63580000  0.88382000  1.0 0.3931851498
C  C25  1  0.81230000  0.15720000  0.42830000  1.0 -0.5501403273
C  C26  1  0.68770000  0.84280000  0.92830000  1.0 -0.5501403273
C  C27  1  0.18770000  0.65720000  0.57170000  1.0 -0.5501403273
C  C28  1  0.31230000  0.34280000  0.07170000  1.0 -0.5501403273
C  C29  1  0.18770000  0.84280000  0.57170000  1.0 -0.5501403273
C  C30  1  0.31230000  0.15720000  0.07170000  1.0 -0.5501403273
C  C31  1  0.81230000  0.34280000  0.42830000  1.0 -0.5501403273
C  C32  1  0.68770000  0.65720000  0.92830000  1.0 -0.5501403273
C  C33  1  0.00690000  0.11870000  0.54710000  1.0 0.5854911973
C  C34  1  0.49310000  0.88130000  0.04710000  1.0 0.5854911973
C  C35  1  0.99310000  0.61870000  0.45290000  1.0 0.5854911973
C  C36  1  0.50690000  0.38130000  0.95290000  1.0 0.5854911973
C  C37  1  0.99310000  0.88130000  0.45290000  1.0 0.5821530249
C  C38  1  0.50690000  0.11870000  0.95290000  1.0 0.5854911973
C  C39  1  0.00690000  0.38130000  0.54710000  1.0 0.5854911973
C  C40  1  0.49310000  0.61870000  0.04710000  1.0 0.5854911973
C  C41  1  0.01000000  0.18750000  0.57600000  1.0 -0.0192568647
C  C42  1  0.49000000  0.81250000  0.07600000  1.0 -0.0192568647
C  C43  1  0.99000000  0.68750000  0.42400000  1.0 -0.0192568647
C  C44  1  0.51000000  0.31250000  0.92400000  1.0 -0.0192568647
C  C45  1  0.99000000  0.81250000  0.42400000  1.0 -0.0192568647
C  C46  1  0.51000000  0.18750000  0.92400000  1.0 -0.0192568647
C  C47  1  0.01000000  0.31250000  0.57600000  1.0 -0.0192568647
C  C48  1  0.49000000  0.68750000  0.07600000  1.0 -0.0192568647
C  C49  1  0.01940000  0.18800000  0.62970000  1.0 -0.1699634955
C  C50  1  0.48060000  0.81200000  0.12970000  1.0 -0.1699634955
C  C51  1  0.98060000  0.68800000  0.37030000  1.0 -0.1699634955
C  C52  1  0.51940000  0.31200000  0.87030000  1.0 -0.1699634955
C  C53  1  0.98060000  0.81200000  0.37030000  1.0 -0.1699634955
C  C54  1  0.51940000  0.18800000  0.87030000  1.0 -0.1699634955
C  C55  1  0.01940000  0.31200000  0.62970000  1.0 -0.1699634955
C  C56  1  0.48060000  0.68800000  0.12970000  1.0 -0.1699634955
C  C57  1  0.02100000  0.25000000  0.65690000  1.0 0.1391358042
C  C58  1  0.47900000  0.75000000  0.15690000  1.0 0.1391358042
C  C59  1  0.97900000  0.75000000  0.34310000  1.0 0.1391358042
C  C60  1  0.52100000  0.25000000  0.84310000  1.0 0.1391358042
C  C61  1  0.00200000  0.25000000  0.54890000  1.0 -0.1095873051
C  C62  1  0.49800000  0.75000000  0.04890000  1.0 -0.1175642595
C  C63  1  0.99800000  0.75000000  0.45110000  1.0 -0.1175642595
C  C64  1  0.50200000  0.25000000  0.95110000  1.0 -0.1095873051
C  C65  1  0.88330000  0.07960000  0.16430000  1.0 0.5166894025
C  C66  1  0.61670000  0.92040000  0.66430000  1.0 0.5166894025
C  C67  1  0.11670000  0.57960000  0.83570000  1.0 0.5166894025
C  C68  1  0.38330000  0.42040000  0.33570000  1.0 0.5166894025
C  C69  1  0.11670000  0.92040000  0.83570000  1.0 0.5166894025
C  C70  1  0.38330000  0.07960000  0.33570000  1.0 0.5166894025
C  C71  1  0.88330000  0.42040000  0.16430000  1.0 0.5166894025
C  C72  1  0.61670000  0.57960000  0.66430000  1.0 0.5166894025
C  C73  1  0.85610000  0.03730000  0.11710000  1.0 -0.0035216196
C  C74  1  0.64390000  0.96270000  0.61710000  1.0 -0.0035216196
C  C75  1  0.14390000  0.53730000  0.88290000  1.0 -0.0035216196
C  C76  1  0.35610000  0.46270000  0.38290000  1.0 -0.0035216196
C  C77  1  0.14390000  0.96270000  0.88290000  1.0 -0.0035216196
C  C78  1  0.35610000  0.03730000  0.38290000  1.0 -0.0035216196
C  C79  1  0.85610000  0.46270000  0.11710000  1.0 -0.0035216196
C  C80  1  0.64390000  0.53730000  0.61710000  1.0 -0.0035216196
C  C81  1  0.91590000  0.99510000  0.09220000  1.0 -0.1699634955
C  C82  1  0.58410000  0.00490000  0.59220000  1.0 -0.176210335
C  C83  1  0.08410000  0.49510000  0.90780000  1.0 -0.176210335
C  C84  1  0.41590000  0.50490000  0.40780000  1.0 -0.1699634955
C  C85  1  0.08410000  0.00490000  0.90780000  1.0 -0.176210335
C  C86  1  0.41590000  0.99510000  0.40780000  1.0 -0.1699634955
C  C87  1  0.91590000  0.50490000  0.09220000  1.0 -0.1699634955
C  C88  1  0.58410000  0.49510000  0.59220000  1.0 -0.176210335
C  C89  1  0.89100000  0.95780000  0.04960000  1.0 0.1138427085
C  C90  1  0.60900000  0.04220000  0.54960000  1.0 0.1138427085
C  C91  1  0.10900000  0.45780000  0.95040000  1.0 0.1138427085
C  C92  1  0.39100000  0.54220000  0.45040000  1.0 0.1138427085
C  C93  1  0.10900000  0.04220000  0.95040000  1.0 0.1138427085
C  C94  1  0.39100000  0.95780000  0.45040000  1.0 0.1138427085
C  C95  1  0.89100000  0.54220000  0.04960000  1.0 0.1138427085
C  C96  1  0.60900000  0.45780000  0.54960000  1.0 0.1138427085
C  C97  1  0.80680000  0.96430000  0.02980000  1.0 -0.1699634955
C  C98  1  0.69320000  0.03570000  0.52980000  1.0 -0.1699634955
C  C99  1  0.19320000  0.46430000  0.97020000  1.0 -0.1699634955
C  C100  1  0.30680000  0.53570000  0.47020000  1.0 -0.1699634955
C  C101  1  0.19320000  0.03570000  0.97020000  1.0 -0.1699634955
C  C102  1  0.30680000  0.96430000  0.47020000  1.0 -0.1699634955
C  C103  1  0.80680000  0.53570000  0.02980000  1.0 -0.1699634955
C  C104  1  0.69320000  0.46430000  0.52980000  1.0 -0.1699634955
C  C105  1  0.74770000  0.00710000  0.05290000  1.0 -0.0265687243
C  C106  1  0.75230000  0.99290000  0.55290000  1.0 -0.0265687243
C  C107  1  0.25230000  0.50710000  0.94710000  1.0 -0.0265687243
C  C108  1  0.24770000  0.49290000  0.44710000  1.0 -0.0265687243
C  C109  1  0.25230000  0.99290000  0.94710000  1.0 -0.0265687243
C  C110  1  0.24770000  0.00710000  0.44710000  1.0 -0.0265687243
C  C111  1  0.74770000  0.49290000  0.05290000  1.0 -0.0265687243
C  C112  1  0.75230000  0.50710000  0.55290000  1.0 -0.0265687243
C  C113  1  0.77340000  0.04250000  0.09820000  1.0 -0.1095873051
C  C114  1  0.72660000  0.95750000  0.59820000  1.0 -0.1095873051
C  C115  1  0.22660000  0.54250000  0.90180000  1.0 -0.1095873051
C  C116  1  0.27340000  0.45750000  0.40180000  1.0 -0.1095873051
C  C117  1  0.22660000  0.95750000  0.90180000  1.0 -0.1095873051
C  C118  1  0.27340000  0.04250000  0.40180000  1.0 -0.1095873051
C  C119  1  0.77340000  0.45750000  0.09820000  1.0 -0.1095873051
C  C120  1  0.72660000  0.54250000  0.59820000  1.0 -0.1095873051
C  C121  1  0.65670000  0.01080000  0.03290000  1.0 0.5821530249
C  C122  1  0.84330000  0.98920000  0.53290000  1.0 0.5821530249
C  C123  1  0.34330000  0.51080000  0.96710000  1.0 0.5821530249
C  C124  1  0.15670000  0.48920000  0.46710000  1.0 0.5821530249
C  C125  1  0.34330000  0.98920000  0.96710000  1.0 0.5821530249
C  C126  1  0.15670000  0.01080000  0.46710000  1.0 0.5821530249
C  C127  1  0.65670000  0.48920000  0.03290000  1.0 0.5821530249
C  C128  1  0.84330000  0.51080000  0.53290000  1.0 0.5821530249
C  C129  1  0.15940000  0.12110000  0.20490000  1.0 -0.5359463193
C  C130  1  0.34060000  0.87890000  0.70490000  1.0 -0.5359463193
C  C131  1  0.84060000  0.62110000  0.79510000  1.0 -0.5359463193
C  C132  1  0.65940000  0.37890000  0.29510000  1.0 -0.5359463193
C  C133  1  0.84060000  0.87890000  0.79510000  1.0 -0.5359463193
C  C134  1  0.65940000  0.12110000  0.29510000  1.0 -0.5359463193
C  C135  1  0.15940000  0.37890000  0.20490000  1.0 -0.5359463193
C  C136  1  0.34060000  0.62110000  0.70490000  1.0 -0.5359463193
C  C137  1  0.12960000  0.19460000  0.20790000  1.0 0.3974697045
C  C138  1  0.37040000  0.80540000  0.70790000  1.0 0.3974697045
C  C139  1  0.87040000  0.69460000  0.79210000  1.0 0.3974697045
C  C140  1  0.62960000  0.30540000  0.29210000  1.0 0.3974697045
C  C141  1  0.87040000  0.80540000  0.79210000  1.0 0.3974697045
C  C142  1  0.62960000  0.19460000  0.29210000  1.0 0.3974697045
C  C143  1  0.12960000  0.30540000  0.20790000  1.0 0.3974697045
C  C144  1  0.37040000  0.69460000  0.70790000  1.0 0.3974697045
N  N1  1  0.92450000  0.13090000  0.30655000  1.0 -0.2856318229
N  N2  1  0.57550000  0.86910000  0.80655000  1.0 -0.2856318229
N  N3  1  0.07550000  0.63090000  0.69345000  1.0 -0.2847231799
N  N4  1  0.42450000  0.36910000  0.19345000  1.0 -0.2856318229
N  N5  1  0.07550000  0.86910000  0.69345000  1.0 -0.2847231799
N  N6  1  0.42450000  0.13090000  0.19345000  1.0 -0.2856318229
N  N7  1  0.92450000  0.36910000  0.30655000  1.0 -0.2856318229
N  N8  1  0.57550000  0.63090000  0.80655000  1.0 -0.2856318229
N  N9  1  0.86500000  0.16530000  0.33750000  1.0 -0.2856318229
N  N10  1  0.63500000  0.83470000  0.83750000  1.0 -0.2856318229
N  N11  1  0.13500000  0.66530000  0.66250000  1.0 -0.2856318229
N  N12  1  0.36500000  0.33470000  0.16250000  1.0 -0.2856318229
N  N13  1  0.13500000  0.83470000  0.66250000  1.0 -0.2856318229
N  N14  1  0.36500000  0.16530000  0.16250000  1.0 -0.2856318229
N  N15  1  0.86500000  0.33470000  0.33750000  1.0 -0.2856318229
N  N16  1  0.63500000  0.66530000  0.83750000  1.0 -0.2856318229
N  N17  1  0.92820000  0.08480000  0.38542000  1.0 -0.3978832536
N  N18  1  0.57180000  0.91520000  0.88542000  1.0 -0.3978832536
N  N19  1  0.07180000  0.58480000  0.61458000  1.0 -0.3978832536
N  N20  1  0.42820000  0.41520000  0.11458000  1.0 -0.3978832536
N  N21  1  0.07180000  0.91520000  0.61458000  1.0 -0.3978832536
N  N22  1  0.42820000  0.08480000  0.11458000  1.0 -0.3978832536
N  N23  1  0.92820000  0.41520000  0.38542000  1.0 -0.3978832536
N  N24  1  0.57180000  0.58480000  0.88542000  1.0 -0.3978832536
N  N25  1  0.05050000  0.21370000  0.21981000  1.0 -0.2744049677
N  N26  1  0.44950000  0.78630000  0.71981000  1.0 -0.2744049677
N  N27  1  0.94950000  0.71370000  0.78019000  1.0 -0.2744049677
N  N28  1  0.55050000  0.28630000  0.28019000  1.0 -0.2744049677
N  N29  1  0.94950000  0.78630000  0.78019000  1.0 -0.2744049677
N  N30  1  0.55050000  0.21370000  0.28019000  1.0 -0.2744049677
N  N31  1  0.05050000  0.28630000  0.21981000  1.0 -0.2744049677
N  N32  1  0.44950000  0.71370000  0.71981000  1.0 -0.2744049677
N  N33  1  0.18210000  0.25000000  0.19970000  1.0 -0.4504460393
N  N34  1  0.31790000  0.75000000  0.69970000  1.0 -0.4504460393
N  N35  1  0.81790000  0.75000000  0.80030000  1.0 -0.4504460393
N  N36  1  0.68210000  0.25000000  0.30030000  1.0 -0.4504460393
N  N37  1  0.02600000  0.25000000  0.71240000  1.0 -0.3887992897
N  N38  1  0.47400000  0.75000000  0.21240000  1.0 -0.3887992897
N  N39  1  0.97400000  0.75000000  0.28760000  1.0 -0.3887992897
N  N40  1  0.52600000  0.25000000  0.78760000  1.0 -0.3887992897
N  N41  1  0.95530000  0.91320000  0.02700000  1.0 -0.4504460393
N  N42  1  0.54470000  0.08680000  0.52700000  1.0 -0.4504460393
N  N43  1  0.04470000  0.41320000  0.97300000  1.0 -0.4504460393
N  N44  1  0.45530000  0.58680000  0.47300000  1.0 -0.4504460393
N  N45  1  0.04470000  0.08680000  0.97300000  1.0 -0.4504460393
N  N46  1  0.45530000  0.91320000  0.47300000  1.0 -0.4504460393
N  N47  1  0.95530000  0.58680000  0.02700000  1.0 -0.4504460393
N  N48  1  0.54470000  0.41320000  0.52700000  1.0 -0.4504460393
O  O1  1  0.98610000  0.12080000  0.49941000  1.0 -0.5283739519
O  O2  1  0.51390000  0.87920000  0.99941000  1.0 -0.5283739519
O  O3  1  0.01390000  0.62080000  0.50059000  1.0 -0.5283739519
O  O4  1  0.48610000  0.37920000  0.00059000  1.0 -0.5283739519
O  O5  1  0.01390000  0.87920000  0.50059000  1.0 -0.5283739519
O  O6  1  0.48610000  0.12080000  0.00059000  1.0 -0.5283739519
O  O7  1  0.98610000  0.37920000  0.49941000  1.0 -0.5283739519
O  O8  1  0.51390000  0.62080000  0.99941000  1.0 -0.5283739519
O  O9  1  0.02360000  0.06570000  0.57236000  1.0 -0.5202879253
O  O10  1  0.47640000  0.93430000  0.07236000  1.0 -0.5283739519
O  O11  1  0.97640000  0.56570000  0.42764000  1.0 -0.5283739519
O  O12  1  0.52360000  0.43430000  0.92764000  1.0 -0.5202879253
O  O13  1  0.97640000  0.93430000  0.42764000  1.0 -0.5283739519
O  O14  1  0.52360000  0.06570000  0.92764000  1.0 -0.5202879253
O  O15  1  0.02360000  0.43430000  0.57236000  1.0 -0.5202879253
O  O16  1  0.47640000  0.56570000  0.07236000  1.0 -0.5202879253
O  O17  1  0.60180000  0.03990000  0.06167000  1.0 -0.5202879253
O  O18  1  0.89820000  0.96010000  0.56167000  1.0 -0.5202879253
O  O19  1  0.39820000  0.53990000  0.93833000  1.0 -0.5202879253
O  O20  1  0.10180000  0.46010000  0.43833000  1.0 -0.5202879253
O  O21  1  0.39820000  0.96010000  0.93833000  1.0 -0.5202879253
O  O22  1  0.10180000  0.03990000  0.43833000  1.0 -0.5202879253
O  O23  1  0.60180000  0.46010000  0.06167000  1.0 -0.5202879253
O  O24  1  0.89820000  0.53990000  0.56167000  1.0 -0.5202879253
O  O25  1  0.64240000  0.98340000  0.98978000  1.0 -0.5283739519
O  O26  1  0.85760000  0.01660000  0.48978000  1.0 -0.5283739519
O  O27  1  0.35760000  0.48340000  0.01022000  1.0 -0.5283739519
O  O28  1  0.14240000  0.51660000  0.51022000  1.0 -0.5283739519
O  O29  1  0.35760000  0.01660000  0.01022000  1.0 -0.5283739519
O  O30  1  0.14240000  0.98340000  0.51022000  1.0 -0.5283739519
O  O31  1  0.64240000  0.51660000  0.98978000  1.0 -0.5283739519
O  O32  1  0.85760000  0.48340000  0.48978000  1.0 -0.5283739519
O  O33  1  0.83420000  0.11490000  0.18610000  1.0 -0.4152321689
O  O34  1  0.66580000  0.88510000  0.68610000  1.0 -0.4152321689
O  O35  1  0.16580000  0.61490000  0.81390000  1.0 -0.4152321689
O  O36  1  0.33420000  0.38510000  0.31390000  1.0 -0.4152321689
O  O37  1  0.16580000  0.88510000  0.81390000  1.0 -0.4152321689
O  O38  1  0.33420000  0.11490000  0.31390000  1.0 -0.4152321689
O  O39  1  0.83420000  0.38510000  0.18610000  1.0 -0.4152321689
O  O40  1  0.66580000  0.61490000  0.68610000  1.0 -0.4152321689
O  O41  1  0.95770000  0.07760000  0.18040000  1.0 -0.4426833079
O  O42  1  0.54230000  0.92240000  0.68040000  1.0 -0.4426833079
O  O43  1  0.04230000  0.57760000  0.81960000  1.0 -0.4426833079
O  O44  1  0.45770000  0.42240000  0.31960000  1.0 -0.4426833079
O  O45  1  0.04230000  0.92240000  0.81960000  1.0 -0.4426833079
O  O46  1  0.45770000  0.07760000  0.31960000  1.0 -0.4426833079
O  O47  1  0.95770000  0.42240000  0.18040000  1.0 -0.4426833079
O  O48  1  0.54230000  0.57760000  0.68040000  1.0 -0.4426833079
O  O49  1  0.86480000  0.25000000  0.23850000  1.0 -0.7674938761
O  O50  1  0.63520000  0.75000000  0.73850000  1.0 -0.7674938761
O  O51  1  0.13520000  0.75000000  0.76150000  1.0 -0.7674938761
O  O52  1  0.36480000  0.25000000  0.26150000  1.0 -0.7674938761
