# DDEC6 charges by PACMAN v1.1 (https://github.com/mtap-research/PACMAN-charge/)
data_HURFIL_FSR_pacman
_symmetry_space_group_name_H-M   'P 1'
_cell_length_a   15.17960000
_cell_length_b   19.30300000
_cell_length_c   25.80600000
_cell_angle_alpha   90.00000000
_cell_angle_beta   90.00000000
_cell_angle_gamma   90.00000000
_symmetry_Int_Tables_number   1
_chemical_formula_structural   Zn5H48C44N9O16
_chemical_formula_sum   'Zn20 H192 C176 N36 O64'
_cell_volume   7561.46299595
_cell_formula_units_Z   4
loop_
 _symmetry_equiv_pos_site_id
 _symmetry_equiv_pos_as_xyz
  1  'x, y, z'
loop_
 _atom_site_type_symbol
 _atom_site_label
 _atom_site_symmetry_multiplicity
 _atom_site_fract_x
 _atom_site_fract_y
 _atom_site_fract_z
 _atom_site_occupancy
 _atom_site_charge
Zn  Zn1  1  0.69910000  0.75000000  0.68767000  1.0 0.7333938003
Zn  Zn2  1  0.80090000  0.25000000  0.18767000  1.0 0.7333938003
Zn  Zn3  1  0.30090000  0.25000000  0.31233000  1.0 0.7333938003
Zn  Zn4  1  0.19910000  0.75000000  0.81233000  1.0 0.7333938003
Zn  Zn5  1  0.52963000  0.96428000  0.54850000  1.0 0.8759374589
Zn  Zn6  1  0.97037000  0.03572000  0.04850000  1.0 0.8759374589
Zn  Zn7  1  0.47037000  0.46428000  0.45150000  1.0 0.8759374589
Zn  Zn8  1  0.02963000  0.53572000  0.95150000  1.0 0.8759374589
Zn  Zn9  1  0.47037000  0.03572000  0.45150000  1.0 0.8759374589
Zn  Zn10  1  0.02963000  0.96428000  0.95150000  1.0 0.8759374589
Zn  Zn11  1  0.52963000  0.53572000  0.54850000  1.0 0.8759374589
Zn  Zn12  1  0.97037000  0.46428000  0.04850000  1.0 0.8759374589
Zn  Zn13  1  0.57345000  0.83853000  0.76664000  1.0 0.7636766702
Zn  Zn14  1  0.92655000  0.16147000  0.26664000  1.0 0.7636766702
Zn  Zn15  1  0.42655000  0.33853000  0.23336000  1.0 0.7636766702
Zn  Zn16  1  0.07345000  0.66147000  0.73336000  1.0 0.7636766702
Zn  Zn17  1  0.42655000  0.16147000  0.23336000  1.0 0.7636766702
Zn  Zn18  1  0.07345000  0.83853000  0.73336000  1.0 0.7636766702
Zn  Zn19  1  0.57345000  0.66147000  0.76664000  1.0 0.7636766702
Zn  Zn20  1  0.92655000  0.33853000  0.26664000  1.0 0.7636766702
H  H1  1  0.68860000  0.75000000  0.77930000  1.0 0.3875994429
H  H2  1  0.81140000  0.25000000  0.27930000  1.0 0.3875994429
H  H3  1  0.31140000  0.25000000  0.22070000  1.0 0.3875994429
H  H4  1  0.18860000  0.75000000  0.72070000  1.0 0.3875994429
H  H5  1  0.73920000  0.81510000  0.58090000  1.0 0.1404962336
H  H6  1  0.76080000  0.18490000  0.08090000  1.0 0.1404962336
H  H7  1  0.26080000  0.31510000  0.41910000  1.0 0.1404962336
H  H8  1  0.23920000  0.68490000  0.91910000  1.0 0.1404962336
H  H9  1  0.26080000  0.18490000  0.41910000  1.0 0.1404962336
H  H10  1  0.23920000  0.81510000  0.91910000  1.0 0.1404962336
H  H11  1  0.73920000  0.68490000  0.58090000  1.0 0.1404962336
H  H12  1  0.76080000  0.31510000  0.08090000  1.0 0.1404962336
H  H13  1  0.71610000  0.88510000  0.55330000  1.0 0.1594073391
H  H14  1  0.78390000  0.11490000  0.05330000  1.0 0.1594073391
H  H15  1  0.28390000  0.38510000  0.44670000  1.0 0.1594073391
H  H16  1  0.21610000  0.61490000  0.94670000  1.0 0.1594073391
H  H17  1  0.28390000  0.11490000  0.44670000  1.0 0.1594073391
H  H18  1  0.21610000  0.88510000  0.94670000  1.0 0.1594073391
H  H19  1  0.71610000  0.61490000  0.55330000  1.0 0.1594073391
H  H20  1  0.78390000  0.38510000  0.05330000  1.0 0.1594073391
H  H21  1  0.65750000  0.81940000  0.54390000  1.0 0.1680736512
H  H22  1  0.84250000  0.18060000  0.04390000  1.0 0.1680736512
H  H23  1  0.34250000  0.31940000  0.45610000  1.0 0.1680736512
H  H24  1  0.15750000  0.68060000  0.95610000  1.0 0.1680736512
H  H25  1  0.34250000  0.18060000  0.45610000  1.0 0.1680736512
H  H26  1  0.15750000  0.81940000  0.95610000  1.0 0.1680736512
H  H27  1  0.65750000  0.68060000  0.54390000  1.0 0.1680736512
H  H28  1  0.84250000  0.31940000  0.04390000  1.0 0.1680736512
H  H29  1  0.41740000  0.94330000  0.68010000  1.0 0.1594073391
H  H30  1  0.08260000  0.05670000  0.18010000  1.0 0.1594073391
H  H31  1  0.58260000  0.44330000  0.31990000  1.0 0.1594073391
H  H32  1  0.91740000  0.55670000  0.81990000  1.0 0.1594073391
H  H33  1  0.58260000  0.05670000  0.31990000  1.0 0.1594073391
H  H34  1  0.91740000  0.94330000  0.81990000  1.0 0.1594073391
H  H35  1  0.41740000  0.55670000  0.68010000  1.0 0.1594073391
H  H36  1  0.08260000  0.44330000  0.18010000  1.0 0.1594073391
H  H37  1  0.47210000  0.00550000  0.65800000  1.0 0.1594073391
H  H38  1  0.02790000  0.99450000  0.15800000  1.0 0.1594073391
H  H39  1  0.52790000  0.50550000  0.34200000  1.0 0.1594073391
H  H40  1  0.97210000  0.49450000  0.84200000  1.0 0.1594073391
H  H41  1  0.52790000  0.99450000  0.34200000  1.0 0.1594073391
H  H42  1  0.97210000  0.00550000  0.84200000  1.0 0.1594073391
H  H43  1  0.47210000  0.49450000  0.65800000  1.0 0.1594073391
H  H44  1  0.02790000  0.50550000  0.15800000  1.0 0.1594073391
H  H45  1  0.48730000  0.98040000  0.71510000  1.0 0.1594073391
H  H46  1  0.01270000  0.01960000  0.21510000  1.0 0.1594073391
H  H47  1  0.51270000  0.48040000  0.28490000  1.0 0.1594073391
H  H48  1  0.98730000  0.51960000  0.78490000  1.0 0.1594073391
H  H49  1  0.51270000  0.01960000  0.28490000  1.0 0.1594073391
H  H50  1  0.98730000  0.98040000  0.78490000  1.0 0.1594073391
H  H51  1  0.48730000  0.51960000  0.71510000  1.0 0.1594073391
H  H52  1  0.01270000  0.48040000  0.21510000  1.0 0.1594073391
H  H53  1  0.53090000  0.14620000  0.64470000  1.0 0.1404962336
H  H54  1  0.96910000  0.85380000  0.14470000  1.0 0.1404962336
H  H55  1  0.46910000  0.64620000  0.35530000  1.0 0.1404962336
H  H56  1  0.03090000  0.35380000  0.85530000  1.0 0.1404962336
H  H57  1  0.46910000  0.85380000  0.35530000  1.0 0.1404962336
H  H58  1  0.03090000  0.14620000  0.85530000  1.0 0.1404962336
H  H59  1  0.53090000  0.35380000  0.64470000  1.0 0.1404962336
H  H60  1  0.96910000  0.64620000  0.14470000  1.0 0.1404962336
H  H61  1  0.49310000  0.25000000  0.51220000  1.0 0.1288860008
H  H62  1  0.00690000  0.75000000  0.01220000  1.0 0.1288860008
H  H63  1  0.50690000  0.75000000  0.48780000  1.0 0.1288860008
H  H64  1  0.99310000  0.25000000  0.98780000  1.0 0.1288860008
H  H65  1  0.97660000  0.98030000  0.38640000  1.0 0.1539449811
H  H66  1  0.52340000  0.01970000  0.88640000  1.0 0.1539449811
H  H67  1  0.02340000  0.48030000  0.61360000  1.0 0.1539449811
H  H68  1  0.47660000  0.51970000  0.11360000  1.0 0.1539449811
H  H69  1  0.02340000  0.01970000  0.61360000  1.0 0.1539449811
H  H70  1  0.47660000  0.98030000  0.11360000  1.0 0.1539449811
H  H71  1  0.97660000  0.51970000  0.38640000  1.0 0.1539449811
H  H72  1  0.52340000  0.48030000  0.88640000  1.0 0.1539449811
H  H73  1  0.80020000  0.93960000  0.49950000  1.0 0.1196795588
H  H74  1  0.69980000  0.06040000  0.99950000  1.0 0.1196795588
H  H75  1  0.19980000  0.43960000  0.50050000  1.0 0.1196795588
H  H76  1  0.30020000  0.56040000  0.00050000  1.0 0.1196795588
H  H77  1  0.19980000  0.06040000  0.50050000  1.0 0.1196795588
H  H78  1  0.30020000  0.93960000  0.00050000  1.0 0.1196795588
H  H79  1  0.80020000  0.56040000  0.49950000  1.0 0.1196795588
H  H80  1  0.69980000  0.43960000  0.99950000  1.0 0.1196795588
H  H81  1  0.73320000  0.06470000  0.38150000  1.0 0.1288860008
H  H82  1  0.76680000  0.93530000  0.88150000  1.0 0.1288860008
H  H83  1  0.26680000  0.56470000  0.61850000  1.0 0.1288860008
H  H84  1  0.23320000  0.43530000  0.11850000  1.0 0.1288860008
H  H85  1  0.26680000  0.93530000  0.61850000  1.0 0.1288860008
H  H86  1  0.23320000  0.06470000  0.11850000  1.0 0.1288860008
H  H87  1  0.73320000  0.43530000  0.38150000  1.0 0.1288860008
H  H88  1  0.76680000  0.56470000  0.88150000  1.0 0.1288860008
H  H89  1  0.39610000  0.90860000  0.78620000  1.0 0.1594073391
H  H90  1  0.10390000  0.09140000  0.28620000  1.0 0.1594073391
H  H91  1  0.60390000  0.40860000  0.21380000  1.0 0.1594073391
H  H92  1  0.89610000  0.59140000  0.71380000  1.0 0.1594073391
H  H93  1  0.60390000  0.09140000  0.21380000  1.0 0.1594073391
H  H94  1  0.89610000  0.90860000  0.71380000  1.0 0.1594073391
H  H95  1  0.39610000  0.59140000  0.78620000  1.0 0.1594073391
H  H96  1  0.10390000  0.40860000  0.28620000  1.0 0.1594073391
H  H97  1  0.33440000  0.89020000  0.83300000  1.0 0.1594073391
H  H98  1  0.16560000  0.10980000  0.33300000  1.0 0.1594073391
H  H99  1  0.66560000  0.39020000  0.16700000  1.0 0.1594073391
H  H100  1  0.83440000  0.60980000  0.66700000  1.0 0.1594073391
H  H101  1  0.66560000  0.10980000  0.16700000  1.0 0.1594073391
H  H102  1  0.83440000  0.89020000  0.66700000  1.0 0.1594073391
H  H103  1  0.33440000  0.60980000  0.83300000  1.0 0.1594073391
H  H104  1  0.16560000  0.39020000  0.33300000  1.0 0.1594073391
H  H105  1  0.29930000  0.88360000  0.77610000  1.0 0.1594073391
H  H106  1  0.20070000  0.11640000  0.27610000  1.0 0.1594073391
H  H107  1  0.70070000  0.38360000  0.22390000  1.0 0.1594073391
H  H108  1  0.79930000  0.61640000  0.72390000  1.0 0.1594073391
H  H109  1  0.70070000  0.11640000  0.22390000  1.0 0.1594073391
H  H110  1  0.79930000  0.88360000  0.72390000  1.0 0.1594073391
H  H111  1  0.29930000  0.61640000  0.77610000  1.0 0.1594073391
H  H112  1  0.20070000  0.38360000  0.27610000  1.0 0.1594073391
H  H113  1  0.63080000  0.17100000  0.73280000  1.0 0.1196795588
H  H114  1  0.86920000  0.82900000  0.23280000  1.0 0.1196795588
H  H115  1  0.36920000  0.67100000  0.26720000  1.0 0.1196795588
H  H116  1  0.13080000  0.32900000  0.76720000  1.0 0.1196795588
H  H117  1  0.36920000  0.82900000  0.26720000  1.0 0.1196795588
H  H118  1  0.13080000  0.17100000  0.76720000  1.0 0.1196795588
H  H119  1  0.63080000  0.32900000  0.73280000  1.0 0.1196795588
H  H120  1  0.86920000  0.67100000  0.23280000  1.0 0.1196795588
H  H121  1  0.53240000  0.14820000  0.72250000  1.0 0.0880423093
H  H122  1  0.96760000  0.85180000  0.22250000  1.0 0.0880423093
H  H123  1  0.46760000  0.64820000  0.27750000  1.0 0.0880423093
H  H124  1  0.03240000  0.35180000  0.77750000  1.0 0.0880423093
H  H125  1  0.46760000  0.85180000  0.27750000  1.0 0.0880423093
H  H126  1  0.03240000  0.14820000  0.77750000  1.0 0.0880423093
H  H127  1  0.53240000  0.35180000  0.72250000  1.0 0.0880423093
H  H128  1  0.96760000  0.64820000  0.22250000  1.0 0.0880423093
H  H129  1  0.56670000  0.21290000  0.81510000  1.0 0.0415408768
H  H130  1  0.93330000  0.78710000  0.31510000  1.0 0.0523881174
H  H131  1  0.43330000  0.71290000  0.18490000  1.0 0.0415408768
H  H132  1  0.06670000  0.28710000  0.68490000  1.0 0.0415408768
H  H133  1  0.43330000  0.78710000  0.18490000  1.0 0.0415408768
H  H134  1  0.06670000  0.21290000  0.68490000  1.0 0.0415408768
H  H135  1  0.56670000  0.28710000  0.81510000  1.0 0.0415408768
H  H136  1  0.93330000  0.71290000  0.31510000  1.0 0.0523881174
H  H137  1  0.48630000  0.17510000  0.78960000  1.0 0.0523881174
H  H138  1  0.01370000  0.82490000  0.28960000  1.0 0.0523881174
H  H139  1  0.51370000  0.67510000  0.21040000  1.0 0.0523881174
H  H140  1  0.98630000  0.32490000  0.71040000  1.0 0.0523881174
H  H141  1  0.51370000  0.82490000  0.21040000  1.0 0.0523881174
H  H142  1  0.98630000  0.17510000  0.71040000  1.0 0.0523881174
H  H143  1  0.48630000  0.32490000  0.78960000  1.0 0.0523881174
H  H144  1  0.01370000  0.67510000  0.28960000  1.0 0.0523881174
H  H145  1  0.49250000  0.25570000  0.78780000  1.0 0.031041433
H  H146  1  0.00750000  0.74430000  0.28780000  1.0 0.031041433
H  H147  1  0.50750000  0.75570000  0.21220000  1.0 0.031041433
H  H148  1  0.99250000  0.24430000  0.71220000  1.0 0.031041433
H  H149  1  0.50750000  0.74430000  0.21220000  1.0 0.031041433
H  H150  1  0.99250000  0.25570000  0.71220000  1.0 0.031041433
H  H151  1  0.49250000  0.24430000  0.78780000  1.0 0.031041433
H  H152  1  0.00750000  0.75570000  0.28780000  1.0 0.031041433
H  H153  1  0.90380000  0.85010000  0.51990000  1.0 0.0880423093
H  H154  1  0.59620000  0.14990000  0.01990000  1.0 0.0880423093
H  H155  1  0.09620000  0.35010000  0.48010000  1.0 0.0880423093
H  H156  1  0.40380000  0.64990000  0.98010000  1.0 0.0880423093
H  H157  1  0.09620000  0.14990000  0.48010000  1.0 0.0880423093
H  H158  1  0.40380000  0.85010000  0.98010000  1.0 0.0880423093
H  H159  1  0.90380000  0.64990000  0.51990000  1.0 0.0880423093
H  H160  1  0.59620000  0.35010000  0.01990000  1.0 0.0880423093
H  H161  1  0.93570000  0.91950000  0.54670000  1.0 0.0841240611
H  H162  1  0.56430000  0.08050000  0.04670000  1.0 0.0841240611
H  H163  1  0.06430000  0.41950000  0.45330000  1.0 0.0841240611
H  H164  1  0.43570000  0.58050000  0.95330000  1.0 0.0841240611
H  H165  1  0.06430000  0.08050000  0.45330000  1.0 0.0841240611
H  H166  1  0.43570000  0.91950000  0.95330000  1.0 0.0841240611
H  H167  1  0.93570000  0.58050000  0.54670000  1.0 0.0841240611
H  H168  1  0.56430000  0.41950000  0.04670000  1.0 0.0841240611
H  H169  1  0.03820000  0.80260000  0.53790000  1.0 0.1288860008
H  H170  1  0.46180000  0.19740000  0.03790000  1.0 0.1288860008
H  H171  1  0.96180000  0.30260000  0.46210000  1.0 0.1288860008
H  H172  1  0.53820000  0.69740000  0.96210000  1.0 0.1288860008
H  H173  1  0.96180000  0.19740000  0.46210000  1.0 0.1288860008
H  H174  1  0.53820000  0.80260000  0.96210000  1.0 0.1288860008
H  H175  1  0.03820000  0.69740000  0.53790000  1.0 0.1288860008
H  H176  1  0.46180000  0.30260000  0.03790000  1.0 0.1288860008
H  H177  1  0.07340000  0.87330000  0.55930000  1.0 0.1196795588
H  H178  1  0.42660000  0.12670000  0.05930000  1.0 0.1196795588
H  H179  1  0.92660000  0.37330000  0.44070000  1.0 0.1196795588
H  H180  1  0.57340000  0.62670000  0.94070000  1.0 0.1196795588
H  H181  1  0.92660000  0.12670000  0.44070000  1.0 0.1196795588
H  H182  1  0.57340000  0.87330000  0.94070000  1.0 0.1196795588
H  H183  1  0.07340000  0.62670000  0.55930000  1.0 0.1196795588
H  H184  1  0.42660000  0.37330000  0.05930000  1.0 0.1196795588
H  H185  1  0.07910000  0.85710000  0.49990000  1.0 0.1404962336
H  H186  1  0.42090000  0.14290000  0.99990000  1.0 0.1404962336
H  H187  1  0.92090000  0.35710000  0.50010000  1.0 0.1404962336
H  H188  1  0.57910000  0.64290000  0.00010000  1.0 0.1404962336
H  H189  1  0.92090000  0.14290000  0.50010000  1.0 0.1404962336
H  H190  1  0.57910000  0.85710000  0.00010000  1.0 0.1404962336
H  H191  1  0.07910000  0.64290000  0.49990000  1.0 0.1404962336
H  H192  1  0.42090000  0.35710000  0.99990000  1.0 0.1404962336
C  C1  1  0.69210000  0.84420000  0.56900000  1.0 -0.5394442484
C  C2  1  0.80790000  0.15580000  0.06900000  1.0 -0.5394442484
C  C3  1  0.30790000  0.34420000  0.43100000  1.0 -0.5394442484
C  C4  1  0.19210000  0.65580000  0.93100000  1.0 -0.5394442484
C  C5  1  0.30790000  0.15580000  0.43100000  1.0 -0.5394442484
C  C6  1  0.19210000  0.84420000  0.93100000  1.0 -0.5394442484
C  C7  1  0.69210000  0.65580000  0.56900000  1.0 -0.5394442484
C  C8  1  0.80790000  0.34420000  0.06900000  1.0 -0.5394442484
C  C9  1  0.63510000  0.86420000  0.61390000  1.0 0.408912313
C  C10  1  0.86490000  0.13580000  0.11390000  1.0 0.3994930165
C  C11  1  0.36490000  0.36420000  0.38610000  1.0 0.3994930165
C  C12  1  0.13510000  0.63580000  0.88610000  1.0 0.3994930165
C  C13  1  0.36490000  0.13580000  0.38610000  1.0 0.3994930165
C  C14  1  0.13510000  0.86420000  0.88610000  1.0 0.3994930165
C  C15  1  0.63510000  0.63580000  0.61390000  1.0 0.408912313
C  C16  1  0.86490000  0.36420000  0.11390000  1.0 0.3994930165
C  C17  1  0.54240000  0.91680000  0.66210000  1.0 0.408912313
C  C18  1  0.95760000  0.08320000  0.16210000  1.0 0.408912313
C  C19  1  0.45760000  0.41680000  0.33790000  1.0 0.408912313
C  C20  1  0.04240000  0.58320000  0.83790000  1.0 0.408912313
C  C21  1  0.45760000  0.08320000  0.33790000  1.0 0.408912313
C  C22  1  0.04240000  0.91680000  0.83790000  1.0 0.408912313
C  C23  1  0.54240000  0.58320000  0.66210000  1.0 0.408912313
C  C24  1  0.95760000  0.41680000  0.16210000  1.0 0.408912313
C  C25  1  0.47370000  0.96580000  0.68050000  1.0 -0.5311529095
C  C26  1  0.02630000  0.03420000  0.18050000  1.0 -0.5311529095
C  C27  1  0.52630000  0.46580000  0.31950000  1.0 -0.5311529095
C  C28  1  0.97370000  0.53420000  0.81950000  1.0 -0.5311529095
C  C29  1  0.52630000  0.03420000  0.31950000  1.0 -0.5311529095
C  C30  1  0.97370000  0.96580000  0.81950000  1.0 -0.5311529095
C  C31  1  0.47370000  0.53420000  0.68050000  1.0 -0.5311529095
C  C32  1  0.02630000  0.46580000  0.18050000  1.0 -0.5311529095
C  C33  1  0.51060000  0.11890000  0.54680000  1.0 0.5768738657
C  C34  1  0.98940000  0.88110000  0.04680000  1.0 0.5768738657
C  C35  1  0.48940000  0.61890000  0.45320000  1.0 0.5768738657
C  C36  1  0.01060000  0.38110000  0.95320000  1.0 0.5768738657
C  C37  1  0.48940000  0.88110000  0.45320000  1.0 0.5768738657
C  C38  1  0.01060000  0.11890000  0.95320000  1.0 0.5768738657
C  C39  1  0.51060000  0.38110000  0.54680000  1.0 0.5768738657
C  C40  1  0.98940000  0.61890000  0.04680000  1.0 0.5768738657
C  C41  1  0.51570000  0.18780000  0.57410000  1.0 0.0037713257
C  C42  1  0.98430000  0.81220000  0.07410000  1.0 0.0037713257
C  C43  1  0.48430000  0.68780000  0.42590000  1.0 0.0037713257
C  C44  1  0.01570000  0.31220000  0.92590000  1.0 0.0037713257
C  C45  1  0.48430000  0.81220000  0.42590000  1.0 0.0037713257
C  C46  1  0.01570000  0.18780000  0.92590000  1.0 0.0037713257
C  C47  1  0.51570000  0.31220000  0.57410000  1.0 0.0037713257
C  C48  1  0.98430000  0.68780000  0.07410000  1.0 0.0037713257
C  C49  1  0.52620000  0.18780000  0.62670000  1.0 -0.1895760141
C  C50  1  0.97380000  0.81220000  0.12670000  1.0 -0.1895760141
C  C51  1  0.47380000  0.68780000  0.37330000  1.0 -0.1895760141
C  C52  1  0.02620000  0.31220000  0.87330000  1.0 -0.1895760141
C  C53  1  0.47380000  0.81220000  0.37330000  1.0 -0.1895760141
C  C54  1  0.02620000  0.18780000  0.87330000  1.0 -0.1895760141
C  C55  1  0.52620000  0.31220000  0.62670000  1.0 -0.1895760141
C  C56  1  0.97380000  0.68780000  0.12670000  1.0 -0.1895760141
C  C57  1  0.52980000  0.25000000  0.65280000  1.0 0.2183503889
C  C58  1  0.97020000  0.75000000  0.15280000  1.0 0.2183503889
C  C59  1  0.47020000  0.75000000  0.34720000  1.0 0.2183503889
C  C60  1  0.02980000  0.25000000  0.84720000  1.0 0.2183503889
C  C61  1  0.50590000  0.25000000  0.54750000  1.0 -0.1360758374
C  C62  1  0.99410000  0.75000000  0.04750000  1.0 -0.1303036168
C  C63  1  0.49410000  0.75000000  0.45250000  1.0 -0.1360758374
C  C64  1  0.00590000  0.25000000  0.95250000  1.0 -0.1360758374
C  C65  1  0.88660000  0.07300000  0.33210000  1.0 0.5301028014
C  C66  1  0.61340000  0.92700000  0.83210000  1.0 0.5301028014
C  C67  1  0.11340000  0.57300000  0.66790000  1.0 0.5301028014
C  C68  1  0.38660000  0.42700000  0.16790000  1.0 0.5301028014
C  C69  1  0.11340000  0.92700000  0.66790000  1.0 0.5301028014
C  C70  1  0.38660000  0.07300000  0.16790000  1.0 0.5301028014
C  C71  1  0.88660000  0.42700000  0.33210000  1.0 0.5301028014
C  C72  1  0.61340000  0.57300000  0.83210000  1.0 0.5301028014
C  C73  1  0.85910000  0.03110000  0.37860000  1.0 0.0037713257
C  C74  1  0.64090000  0.96890000  0.87860000  1.0 0.0037713257
C  C75  1  0.14090000  0.53110000  0.62140000  1.0 0.0037713257
C  C76  1  0.35910000  0.46890000  0.12140000  1.0 0.0037713257
C  C77  1  0.14090000  0.96890000  0.62140000  1.0 0.0037713257
C  C78  1  0.35910000  0.03110000  0.12140000  1.0 0.0037713257
C  C79  1  0.85910000  0.46890000  0.37860000  1.0 0.0037713257
C  C80  1  0.64090000  0.53110000  0.87860000  1.0 0.0037713257
C  C81  1  0.92210000  0.98750000  0.40200000  1.0 -0.221992559
C  C82  1  0.57790000  0.01250000  0.90200000  1.0 -0.221992559
C  C83  1  0.07790000  0.48750000  0.59800000  1.0 -0.221992559
C  C84  1  0.42210000  0.51250000  0.09800000  1.0 -0.221992559
C  C85  1  0.07790000  0.01250000  0.59800000  1.0 -0.221992559
C  C86  1  0.42210000  0.98750000  0.09800000  1.0 -0.221992559
C  C87  1  0.92210000  0.51250000  0.40200000  1.0 -0.221992559
C  C88  1  0.57790000  0.48750000  0.90200000  1.0 -0.221992559
C  C89  1  0.90130000  0.95510000  0.44910000  1.0 0.2638845563
C  C90  1  0.59870000  0.04490000  0.94910000  1.0 0.2638845563
C  C91  1  0.09870000  0.45510000  0.55090000  1.0 0.2638845563
C  C92  1  0.40130000  0.54490000  0.05090000  1.0 0.2638845563
C  C93  1  0.09870000  0.04490000  0.55090000  1.0 0.2638845563
C  C94  1  0.40130000  0.95510000  0.05090000  1.0 0.2638845563
C  C95  1  0.90130000  0.54490000  0.44910000  1.0 0.2638845563
C  C96  1  0.59870000  0.45510000  0.94910000  1.0 0.2638845563
C  C97  1  0.81530000  0.96230000  0.46890000  1.0 -0.2491484351
C  C98  1  0.68470000  0.03770000  0.96890000  1.0 -0.2491484351
C  C99  1  0.18470000  0.46230000  0.53110000  1.0 -0.2491484351
C  C100  1  0.31530000  0.53770000  0.03110000  1.0 -0.2491484351
C  C101  1  0.18470000  0.03770000  0.53110000  1.0 -0.2491484351
C  C102  1  0.31530000  0.96230000  0.03110000  1.0 -0.2491484351
C  C103  1  0.81530000  0.53770000  0.46890000  1.0 -0.2491484351
C  C104  1  0.68470000  0.46230000  0.96890000  1.0 -0.2491484351
C  C105  1  0.75240000  0.00260000  0.44390000  1.0 0.0037713257
C  C106  1  0.74760000  0.99740000  0.94390000  1.0 0.0037713257
C  C107  1  0.24760000  0.50260000  0.55610000  1.0 0.0037713257
C  C108  1  0.25240000  0.49740000  0.05610000  1.0 0.0037713257
C  C109  1  0.24760000  0.99740000  0.55610000  1.0 0.0037713257
C  C110  1  0.25240000  0.00260000  0.05610000  1.0 0.0037713257
C  C111  1  0.75240000  0.49740000  0.44390000  1.0 0.0037713257
C  C112  1  0.74760000  0.50260000  0.94390000  1.0 0.0037713257
C  C113  1  0.77470000  0.03750000  0.39840000  1.0 -0.1487575501
C  C114  1  0.72530000  0.96250000  0.89840000  1.0 -0.1487575501
C  C115  1  0.22530000  0.53750000  0.60160000  1.0 -0.1487575501
C  C116  1  0.27470000  0.46250000  0.10160000  1.0 -0.1487575501
C  C117  1  0.22530000  0.96250000  0.60160000  1.0 -0.1487575501
C  C118  1  0.27470000  0.03750000  0.10160000  1.0 -0.1487575501
C  C119  1  0.77470000  0.46250000  0.39840000  1.0 -0.1487575501
C  C120  1  0.72530000  0.53750000  0.89840000  1.0 -0.1487575501
C  C121  1  0.65990000  0.00800000  0.46630000  1.0 0.5768738657
C  C122  1  0.84010000  0.99200000  0.96630000  1.0 0.5768738657
C  C123  1  0.34010000  0.50800000  0.53370000  1.0 0.5768738657
C  C124  1  0.15990000  0.49200000  0.03370000  1.0 0.5768738657
C  C125  1  0.34010000  0.99200000  0.53370000  1.0 0.5768738657
C  C126  1  0.15990000  0.00800000  0.03370000  1.0 0.5768738657
C  C127  1  0.65990000  0.49200000  0.46630000  1.0 0.5768738657
C  C128  1  0.84010000  0.50800000  0.96630000  1.0 0.5768738657
C  C129  1  0.35000000  0.87840000  0.79800000  1.0 -0.5394442484
C  C130  1  0.15000000  0.12160000  0.29800000  1.0 -0.5394442484
C  C131  1  0.65000000  0.37840000  0.20200000  1.0 -0.5394442484
C  C132  1  0.85000000  0.62160000  0.70200000  1.0 -0.5394442484
C  C133  1  0.65000000  0.12160000  0.20200000  1.0 -0.5394442484
C  C134  1  0.85000000  0.87840000  0.70200000  1.0 -0.5394442484
C  C135  1  0.35000000  0.62160000  0.79800000  1.0 -0.5394442484
C  C136  1  0.15000000  0.37840000  0.29800000  1.0 -0.5394442484
C  C137  1  0.38120000  0.80510000  0.79610000  1.0 0.3994930165
C  C138  1  0.11880000  0.19490000  0.29610000  1.0 0.3994930165
C  C139  1  0.61880000  0.30510000  0.20390000  1.0 0.3994930165
C  C140  1  0.88120000  0.69490000  0.70390000  1.0 0.3994930165
C  C141  1  0.61880000  0.19490000  0.20390000  1.0 0.3994930165
C  C142  1  0.88120000  0.80510000  0.70390000  1.0 0.3994930165
C  C143  1  0.38120000  0.69490000  0.79610000  1.0 0.3994930165
C  C144  1  0.11880000  0.30510000  0.29610000  1.0 0.3994930165
C  C145  1  0.57000000  0.18600000  0.73470000  1.0 -0.0421022141
C  C146  1  0.93000000  0.81400000  0.23470000  1.0 -0.0421022141
C  C147  1  0.43000000  0.68600000  0.26530000  1.0 -0.0421022141
C  C148  1  0.07000000  0.31400000  0.76530000  1.0 -0.0421022141
C  C149  1  0.43000000  0.81400000  0.26530000  1.0 -0.0421022141
C  C150  1  0.07000000  0.18600000  0.76530000  1.0 -0.0421022141
C  C151  1  0.57000000  0.31400000  0.73470000  1.0 -0.0421022141
C  C152  1  0.93000000  0.68600000  0.23470000  1.0 -0.0421022141
C  C153  1  0.52600000  0.21380000  0.78700000  1.0 -0.1714080389
C  C154  1  0.97400000  0.78620000  0.28700000  1.0 -0.1714080389
C  C155  1  0.47400000  0.71380000  0.21300000  1.0 -0.1714080389
C  C156  1  0.02600000  0.28620000  0.71300000  1.0 -0.1714080389
C  C157  1  0.47400000  0.78620000  0.21300000  1.0 -0.1714080389
C  C158  1  0.02600000  0.21380000  0.71300000  1.0 -0.1714080389
C  C159  1  0.52600000  0.28620000  0.78700000  1.0 -0.1714080389
C  C160  1  0.97400000  0.71380000  0.28700000  1.0 -0.1714080389
C  C161  1  0.94990000  0.88490000  0.52070000  1.0 0.0230369212
C  C162  1  0.55010000  0.11510000  0.02070000  1.0 0.0230369212
C  C163  1  0.05010000  0.38490000  0.47930000  1.0 0.0230369212
C  C164  1  0.44990000  0.61510000  0.97930000  1.0 0.0230369212
C  C165  1  0.05010000  0.11510000  0.47930000  1.0 0.0230369212
C  C166  1  0.44990000  0.88490000  0.97930000  1.0 0.0230369212
C  C167  1  0.94990000  0.61510000  0.52070000  1.0 0.0230369212
C  C168  1  0.55010000  0.38490000  0.02070000  1.0 0.0230369212
C  C169  1  0.04450000  0.85110000  0.53070000  1.0 -0.4075585335
C  C170  1  0.45550000  0.14890000  0.03070000  1.0 -0.4075585335
C  C171  1  0.95550000  0.35110000  0.46930000  1.0 -0.4075585335
C  C172  1  0.54450000  0.64890000  0.96930000  1.0 -0.4075585335
C  C173  1  0.95550000  0.14890000  0.46930000  1.0 -0.4075585335
C  C174  1  0.54450000  0.85110000  0.96930000  1.0 -0.4075585335
C  C175  1  0.04450000  0.64890000  0.53070000  1.0 -0.4075585335
C  C176  1  0.45550000  0.35110000  0.03070000  1.0 -0.4075585335
N  N1  1  0.63970000  0.83460000  0.65980000  1.0 -0.2976942018
N  N2  1  0.86030000  0.16540000  0.15980000  1.0 -0.2976942018
N  N3  1  0.36030000  0.33460000  0.34020000  1.0 -0.2976942018
N  N4  1  0.13970000  0.66540000  0.84020000  1.0 -0.2976942018
N  N5  1  0.36030000  0.16540000  0.34020000  1.0 -0.2976942018
N  N6  1  0.13970000  0.83460000  0.84020000  1.0 -0.2976942018
N  N7  1  0.63970000  0.66540000  0.65980000  1.0 -0.2976942018
N  N8  1  0.86030000  0.33460000  0.15980000  1.0 -0.2976942018
N  N9  1  0.58030000  0.86940000  0.69184000  1.0 -0.2976942018
N  N10  1  0.91970000  0.13060000  0.19184000  1.0 -0.2976942018
N  N11  1  0.41970000  0.36940000  0.30816000  1.0 -0.2976942018
N  N12  1  0.08030000  0.63060000  0.80816000  1.0 -0.2976942018
N  N13  1  0.41970000  0.13060000  0.30816000  1.0 -0.2976942018
N  N14  1  0.08030000  0.86940000  0.80816000  1.0 -0.2976942018
N  N15  1  0.58030000  0.63060000  0.69184000  1.0 -0.2976942018
N  N16  1  0.91970000  0.36940000  0.19184000  1.0 -0.2976942018
N  N17  1  0.57370000  0.91530000  0.61318000  1.0 -0.4171386279
N  N18  1  0.92630000  0.08470000  0.11318000  1.0 -0.4171386279
N  N19  1  0.42630000  0.41530000  0.38682000  1.0 -0.4171386279
N  N20  1  0.07370000  0.58470000  0.88682000  1.0 -0.4171386279
N  N21  1  0.42630000  0.08470000  0.38682000  1.0 -0.4171386279
N  N22  1  0.07370000  0.91530000  0.88682000  1.0 -0.4171386279
N  N23  1  0.57370000  0.58470000  0.61318000  1.0 -0.4171386279
N  N24  1  0.92630000  0.41530000  0.11318000  1.0 -0.4171386279
N  N25  1  0.46070000  0.78590000  0.78400000  1.0 -0.2654579908
N  N26  1  0.03930000  0.21410000  0.28400000  1.0 -0.2648367316
N  N27  1  0.53930000  0.28590000  0.21600000  1.0 -0.2648367316
N  N28  1  0.96070000  0.71410000  0.71600000  1.0 -0.2648367316
N  N29  1  0.53930000  0.21410000  0.21600000  1.0 -0.2648367316
N  N30  1  0.96070000  0.78590000  0.71600000  1.0 -0.2648367316
N  N31  1  0.46070000  0.71410000  0.78400000  1.0 -0.2654579908
N  N32  1  0.03930000  0.28590000  0.28400000  1.0 -0.2648367316
N  N33  1  0.32920000  0.75000000  0.80570000  1.0 -0.4576050818
N  N34  1  0.17080000  0.25000000  0.30570000  1.0 -0.4576050818
N  N35  1  0.67080000  0.25000000  0.19430000  1.0 -0.4576050818
N  N36  1  0.82920000  0.75000000  0.69430000  1.0 -0.4576050818
O  O1  1  0.52690000  0.06560000  0.57110000  1.0 -0.5311529095
O  O2  1  0.97310000  0.93440000  0.07110000  1.0 -0.5311529095
O  O3  1  0.47310000  0.56560000  0.42890000  1.0 -0.5311529095
O  O4  1  0.02690000  0.43440000  0.92890000  1.0 -0.5311529095
O  O5  1  0.47310000  0.93440000  0.42890000  1.0 -0.5311529095
O  O6  1  0.02690000  0.06560000  0.92890000  1.0 -0.5311529095
O  O7  1  0.52690000  0.43440000  0.57110000  1.0 -0.5311529095
O  O8  1  0.97310000  0.56560000  0.07110000  1.0 -0.5311529095
O  O9  1  0.48590000  0.12070000  0.49900000  1.0 -0.5585497945
O  O10  1  0.01410000  0.87930000  0.99900000  1.0 -0.5585497945
O  O11  1  0.51410000  0.62070000  0.50100000  1.0 -0.5585497945
O  O12  1  0.98590000  0.37930000  0.00100000  1.0 -0.5585497945
O  O13  1  0.51410000  0.87930000  0.50100000  1.0 -0.5585497945
O  O14  1  0.98590000  0.12070000  0.00100000  1.0 -0.5585497945
O  O15  1  0.48590000  0.37930000  0.49900000  1.0 -0.5585497945
O  O16  1  0.01410000  0.62070000  0.99900000  1.0 -0.5585497945
O  O17  1  0.64500000  0.98200000  0.50910000  1.0 -0.5311529095
O  O18  1  0.85500000  0.01800000  0.00910000  1.0 -0.5311529095
O  O19  1  0.35500000  0.48200000  0.49090000  1.0 -0.5311529095
O  O20  1  0.14500000  0.51800000  0.99090000  1.0 -0.5311529095
O  O21  1  0.35500000  0.01800000  0.49090000  1.0 -0.5311529095
O  O22  1  0.14500000  0.98200000  0.99090000  1.0 -0.5311529095
O  O23  1  0.64500000  0.51800000  0.50910000  1.0 -0.5311529095
O  O24  1  0.85500000  0.48200000  0.00910000  1.0 -0.5311529095
O  O25  1  0.60270000  0.03830000  0.43840000  1.0 -0.5394442484
O  O26  1  0.89730000  0.96170000  0.93840000  1.0 -0.5394442484
O  O27  1  0.39730000  0.53830000  0.56160000  1.0 -0.5394442484
O  O28  1  0.10270000  0.46170000  0.06160000  1.0 -0.5394442484
O  O29  1  0.39730000  0.96170000  0.56160000  1.0 -0.5394442484
O  O30  1  0.10270000  0.03830000  0.06160000  1.0 -0.5394442484
O  O31  1  0.60270000  0.46170000  0.43840000  1.0 -0.5394442484
O  O32  1  0.89730000  0.53830000  0.93840000  1.0 -0.5394442484
O  O33  1  0.83970000  0.12090000  0.31770000  1.0 -0.4976387054
O  O34  1  0.66030000  0.87910000  0.81770000  1.0 -0.4976387054
O  O35  1  0.16030000  0.62090000  0.68230000  1.0 -0.4976387054
O  O36  1  0.33970000  0.37910000  0.18230000  1.0 -0.4976387054
O  O37  1  0.16030000  0.87910000  0.68230000  1.0 -0.4976387054
O  O38  1  0.33970000  0.12090000  0.18230000  1.0 -0.4976387054
O  O39  1  0.83970000  0.37910000  0.31770000  1.0 -0.4976387054
O  O40  1  0.66030000  0.62090000  0.81770000  1.0 -0.4976387054
O  O41  1  0.95820000  0.06090000  0.30980000  1.0 -0.5394442484
O  O42  1  0.54180000  0.93910000  0.80980000  1.0 -0.5394442484
O  O43  1  0.04180000  0.56090000  0.69020000  1.0 -0.5394442484
O  O44  1  0.45820000  0.43910000  0.19020000  1.0 -0.5394442484
O  O45  1  0.04180000  0.93910000  0.69020000  1.0 -0.5394442484
O  O46  1  0.45820000  0.06090000  0.19020000  1.0 -0.5394442484
O  O47  1  0.95820000  0.43910000  0.30980000  1.0 -0.5394442484
O  O48  1  0.54180000  0.56090000  0.80980000  1.0 -0.5394442484
O  O49  1  0.64660000  0.75000000  0.75750000  1.0 -0.7673817008
O  O50  1  0.85340000  0.25000000  0.25750000  1.0 -0.7673817008
O  O51  1  0.35340000  0.25000000  0.24250000  1.0 -0.7673817008
O  O52  1  0.14660000  0.75000000  0.74250000  1.0 -0.7673817008
O  O53  1  0.54490000  0.25000000  0.70610000  1.0 -0.1195938132
O  O54  1  0.95510000  0.75000000  0.20610000  1.0 -0.1303036168
O  O55  1  0.45510000  0.75000000  0.29390000  1.0 -0.1303036168
O  O56  1  0.04490000  0.25000000  0.79390000  1.0 -0.1195938132
O  O57  1  0.96250000  0.91490000  0.47200000  1.0 -0.1714080389
O  O58  1  0.53750000  0.08510000  0.97200000  1.0 -0.1714080389
O  O59  1  0.03750000  0.41490000  0.52800000  1.0 -0.1714080389
O  O60  1  0.46250000  0.58510000  0.02800000  1.0 -0.1752063662
O  O61  1  0.03750000  0.08510000  0.52800000  1.0 -0.1714080389
O  O62  1  0.46250000  0.91490000  0.02800000  1.0 -0.1752063662
O  O63  1  0.96250000  0.58510000  0.47200000  1.0 -0.1714080389
O  O64  1  0.53750000  0.41490000  0.97200000  1.0 -0.1714080389
