# DDEC6 charges by PACMAN v1.1 (https://github.com/mtap-research/PACMAN-charge/)
data_HURGAE_ASR_pacman
_symmetry_space_group_name_H-M   'P 1'
_cell_length_a   15.19880000
_cell_length_b   19.20390000
_cell_length_c   25.75400000
_cell_angle_alpha   90.00000000
_cell_angle_beta   90.00000000
_cell_angle_gamma   90.00000000
_symmetry_Int_Tables_number   1
_chemical_formula_structural   Zn5H50C44N9O16
_chemical_formula_sum   'Zn20 H200 C176 N36 O64'
_cell_volume   7516.98056443
_cell_formula_units_Z   4
loop_
 _symmetry_equiv_pos_site_id
 _symmetry_equiv_pos_as_xyz
  1  'x, y, z'
loop_
 _atom_site_type_symbol
 _atom_site_label
 _atom_site_symmetry_multiplicity
 _atom_site_fract_x
 _atom_site_fract_y
 _atom_site_fract_z
 _atom_site_occupancy
 _atom_site_charge
Zn  Zn1  1  0.42725000  0.83813000  0.23418000  1.0 0.7501831411
Zn  Zn2  1  0.07275000  0.16187000  0.73418000  1.0 0.7501831411
Zn  Zn3  1  0.57275000  0.33813000  0.76582000  1.0 0.7501831411
Zn  Zn4  1  0.92725000  0.66187000  0.26582000  1.0 0.7501831411
Zn  Zn5  1  0.57275000  0.16187000  0.76582000  1.0 0.7501831411
Zn  Zn6  1  0.92725000  0.83813000  0.26582000  1.0 0.7501831411
Zn  Zn7  1  0.42725000  0.66187000  0.23418000  1.0 0.7501831411
Zn  Zn8  1  0.07275000  0.33813000  0.73418000  1.0 0.7501831411
Zn  Zn9  1  0.46962000  0.96392000  0.45162000  1.0 0.8656752466
Zn  Zn10  1  0.03038000  0.03608000  0.95162000  1.0 0.8656752466
Zn  Zn11  1  0.53038000  0.46392000  0.54838000  1.0 0.8656752466
Zn  Zn12  1  0.96962000  0.53608000  0.04838000  1.0 0.8656752466
Zn  Zn13  1  0.53038000  0.03608000  0.54838000  1.0 0.8656752466
Zn  Zn14  1  0.96962000  0.96392000  0.04838000  1.0 0.8656752466
Zn  Zn15  1  0.46962000  0.53608000  0.45162000  1.0 0.8656752466
Zn  Zn16  1  0.03038000  0.46392000  0.95162000  1.0 0.8656752466
Zn  Zn17  1  0.29969000  0.75000000  0.31236000  1.0 0.7159924565
Zn  Zn18  1  0.20031000  0.25000000  0.81236000  1.0 0.7159924565
Zn  Zn19  1  0.70031000  0.25000000  0.68764000  1.0 0.714892125
Zn  Zn20  1  0.79969000  0.75000000  0.18764000  1.0 0.714892125
H  H1  1  0.30580000  0.75000000  0.22440000  1.0 0.3800371794
H  H2  1  0.19420000  0.25000000  0.72440000  1.0 0.3800371794
H  H3  1  0.69420000  0.25000000  0.77560000  1.0 0.3800371794
H  H4  1  0.80580000  0.75000000  0.27560000  1.0 0.3800371794
H  H5  1  0.58110000  0.94340000  0.32200000  1.0 0.1599749147
H  H6  1  0.91890000  0.05660000  0.82200000  1.0 0.1599749147
H  H7  1  0.41890000  0.44340000  0.67800000  1.0 0.1599749147
H  H8  1  0.08110000  0.55660000  0.17800000  1.0 0.1599749147
H  H9  1  0.41890000  0.05660000  0.67800000  1.0 0.1599749147
H  H10  1  0.08110000  0.94340000  0.17800000  1.0 0.1599749147
H  H11  1  0.58110000  0.55660000  0.32200000  1.0 0.1599749147
H  H12  1  0.91890000  0.44340000  0.82200000  1.0 0.1599749147
H  H13  1  0.52480000  0.00660000  0.34150000  1.0 0.1522299817
H  H14  1  0.97520000  0.99340000  0.84150000  1.0 0.1522299817
H  H15  1  0.47520000  0.50660000  0.65850000  1.0 0.1522299817
H  H16  1  0.02480000  0.49340000  0.15850000  1.0 0.1522299817
H  H17  1  0.47520000  0.99340000  0.65850000  1.0 0.1522299817
H  H18  1  0.02480000  0.00660000  0.15850000  1.0 0.1522299817
H  H19  1  0.52480000  0.49340000  0.34150000  1.0 0.1522299817
H  H20  1  0.97520000  0.50660000  0.84150000  1.0 0.1522299817
H  H21  1  0.51290000  0.97880000  0.28470000  1.0 0.1522299817
H  H22  1  0.98710000  0.02120000  0.78470000  1.0 0.1522299817
H  H23  1  0.48710000  0.47880000  0.71530000  1.0 0.1522299817
H  H24  1  0.01290000  0.52120000  0.21530000  1.0 0.1522299817
H  H25  1  0.48710000  0.02120000  0.71530000  1.0 0.1522299817
H  H26  1  0.01290000  0.97880000  0.21530000  1.0 0.1522299817
H  H27  1  0.51290000  0.52120000  0.28470000  1.0 0.1522299817
H  H28  1  0.98710000  0.47880000  0.78470000  1.0 0.1522299817
H  H29  1  0.26430000  0.81060000  0.41980000  1.0 0.1367432784
H  H30  1  0.23570000  0.18940000  0.91980000  1.0 0.1367432784
H  H31  1  0.73570000  0.31060000  0.58020000  1.0 0.1367432784
H  H32  1  0.76430000  0.68940000  0.08020000  1.0 0.1367432784
H  H33  1  0.73570000  0.18940000  0.58020000  1.0 0.1367432784
H  H34  1  0.76430000  0.81060000  0.08020000  1.0 0.1367432784
H  H35  1  0.26430000  0.68940000  0.41980000  1.0 0.1367432784
H  H36  1  0.23570000  0.31060000  0.91980000  1.0 0.1367432784
H  H37  1  0.28020000  0.88350000  0.44550000  1.0 0.1522299817
H  H38  1  0.21980000  0.11650000  0.94550000  1.0 0.1522299817
H  H39  1  0.71980000  0.38350000  0.55450000  1.0 0.1522299817
H  H40  1  0.78020000  0.61650000  0.05450000  1.0 0.1522299817
H  H41  1  0.71980000  0.11650000  0.55450000  1.0 0.1522299817
H  H42  1  0.78020000  0.88350000  0.05450000  1.0 0.1522299817
H  H43  1  0.28020000  0.61650000  0.44550000  1.0 0.1522299817
H  H44  1  0.21980000  0.38350000  0.94550000  1.0 0.1522299817
H  H45  1  0.34460000  0.82170000  0.45710000  1.0 0.1599749147
H  H46  1  0.15540000  0.17830000  0.95710000  1.0 0.1599749147
H  H47  1  0.65540000  0.32170000  0.54290000  1.0 0.1599749147
H  H48  1  0.84460000  0.67830000  0.04290000  1.0 0.1599749147
H  H49  1  0.65540000  0.17830000  0.54290000  1.0 0.1599749147
H  H50  1  0.84460000  0.82170000  0.04290000  1.0 0.1599749147
H  H51  1  0.34460000  0.67830000  0.45710000  1.0 0.1599749147
H  H52  1  0.15540000  0.32170000  0.95710000  1.0 0.1599749147
H  H53  1  0.53090000  0.85360000  0.64470000  1.0 0.1367432784
H  H54  1  0.96910000  0.14640000  0.14470000  1.0 0.1367432784
H  H55  1  0.46910000  0.35360000  0.35530000  1.0 0.1367432784
H  H56  1  0.03090000  0.64640000  0.85530000  1.0 0.1367432784
H  H57  1  0.46910000  0.14640000  0.35530000  1.0 0.1367432784
H  H58  1  0.03090000  0.85360000  0.85530000  1.0 0.1367432784
H  H59  1  0.53090000  0.64640000  0.64470000  1.0 0.1367432784
H  H60  1  0.96910000  0.35360000  0.14470000  1.0 0.1367432784
H  H61  1  0.49630000  0.75000000  0.51190000  1.0 0.1367432784
H  H62  1  0.00370000  0.25000000  0.01190000  1.0 0.1367432784
H  H63  1  0.50370000  0.25000000  0.48810000  1.0 0.1367432784
H  H64  1  0.99630000  0.75000000  0.98810000  1.0 0.1367432784
H  H65  1  0.97100000  0.01980000  0.38490000  1.0 0.1367432784
H  H66  1  0.52900000  0.98020000  0.88490000  1.0 0.1367432784
H  H67  1  0.02900000  0.51980000  0.61510000  1.0 0.1367432784
H  H68  1  0.47100000  0.48020000  0.11510000  1.0 0.1367432784
H  H69  1  0.02900000  0.98020000  0.61510000  1.0 0.1367432784
H  H70  1  0.47100000  0.01980000  0.11510000  1.0 0.1367432784
H  H71  1  0.97100000  0.48020000  0.38490000  1.0 0.1367432784
H  H72  1  0.52900000  0.51980000  0.88490000  1.0 0.1367432784
H  H73  1  0.79200000  0.06700000  0.49350000  1.0 0.1135298454
H  H74  1  0.70800000  0.93300000  0.99350000  1.0 0.1135298454
H  H75  1  0.20800000  0.56700000  0.50650000  1.0 0.1135298454
H  H76  1  0.29200000  0.43300000  0.00650000  1.0 0.1135298454
H  H77  1  0.20800000  0.93300000  0.50650000  1.0 0.1135298454
H  H78  1  0.29200000  0.06700000  0.00650000  1.0 0.1135298454
H  H79  1  0.79200000  0.43300000  0.49350000  1.0 0.1135298454
H  H80  1  0.70800000  0.56700000  0.99350000  1.0 0.1135298454
H  H81  1  0.73290000  0.93100000  0.38280000  1.0 0.1367432784
H  H82  1  0.76710000  0.06900000  0.88280000  1.0 0.1367432784
H  H83  1  0.26710000  0.43100000  0.61720000  1.0 0.1367432784
H  H84  1  0.23290000  0.56900000  0.11720000  1.0 0.1367432784
H  H85  1  0.26710000  0.06900000  0.61720000  1.0 0.1367432784
H  H86  1  0.23290000  0.93100000  0.11720000  1.0 0.1367432784
H  H87  1  0.73290000  0.56900000  0.38280000  1.0 0.1367432784
H  H88  1  0.76710000  0.43100000  0.88280000  1.0 0.1367432784
H  H89  1  0.60110000  0.90940000  0.20780000  1.0 0.1599749147
H  H90  1  0.89890000  0.09060000  0.70780000  1.0 0.1599749147
H  H91  1  0.39890000  0.40940000  0.79220000  1.0 0.1599749147
H  H92  1  0.10110000  0.59060000  0.29220000  1.0 0.1599749147
H  H93  1  0.39890000  0.09060000  0.79220000  1.0 0.1599749147
H  H94  1  0.10110000  0.90940000  0.29220000  1.0 0.1599749147
H  H95  1  0.60110000  0.59060000  0.20780000  1.0 0.1599749147
H  H96  1  0.89890000  0.40940000  0.70780000  1.0 0.1599749147
H  H97  1  0.67670000  0.88710000  0.16990000  1.0 0.1522299817
H  H98  1  0.82330000  0.11290000  0.66990000  1.0 0.1522299817
H  H99  1  0.32330000  0.38710000  0.83010000  1.0 0.1522299817
H  H100  1  0.17670000  0.61290000  0.33010000  1.0 0.1522299817
H  H101  1  0.32330000  0.11290000  0.83010000  1.0 0.1522299817
H  H102  1  0.17670000  0.88710000  0.33010000  1.0 0.1522299817
H  H103  1  0.67670000  0.61290000  0.16990000  1.0 0.1522299817
H  H104  1  0.82330000  0.38710000  0.66990000  1.0 0.1522299817
H  H105  1  0.69280000  0.88680000  0.23000000  1.0 0.1599749147
H  H106  1  0.80720000  0.11320000  0.73000000  1.0 0.1599749147
H  H107  1  0.30720000  0.38680000  0.77000000  1.0 0.1599749147
H  H108  1  0.19280000  0.61320000  0.27000000  1.0 0.1599749147
H  H109  1  0.30720000  0.11320000  0.77000000  1.0 0.1599749147
H  H110  1  0.19280000  0.88680000  0.27000000  1.0 0.1599749147
H  H111  1  0.69280000  0.61320000  0.23000000  1.0 0.1599749147
H  H112  1  0.80720000  0.38680000  0.73000000  1.0 0.1599749147
H  H113  1  0.92890000  0.08160000  0.54920000  1.0 0.0809060598
H  H114  1  0.57110000  0.91840000  0.04920000  1.0 0.0809060598
H  H115  1  0.07110000  0.58160000  0.45080000  1.0 0.0809060598
H  H116  1  0.42890000  0.41840000  0.95080000  1.0 0.0809060598
H  H117  1  0.07110000  0.91840000  0.45080000  1.0 0.0809060598
H  H118  1  0.42890000  0.08160000  0.95080000  1.0 0.0809060598
H  H119  1  0.92890000  0.41840000  0.54920000  1.0 0.0809060598
H  H120  1  0.57110000  0.58160000  0.04920000  1.0 0.0809060598
H  H121  1  0.89540000  0.14930000  0.52110000  1.0 0.0809060598
H  H122  1  0.60460000  0.85070000  0.02110000  1.0 0.0809060598
H  H123  1  0.10460000  0.64930000  0.47890000  1.0 0.0809060598
H  H124  1  0.39540000  0.35070000  0.97890000  1.0 0.0809060598
H  H125  1  0.10460000  0.85070000  0.47890000  1.0 0.0809060598
H  H126  1  0.39540000  0.14930000  0.97890000  1.0 0.0809060598
H  H127  1  0.89540000  0.35070000  0.52110000  1.0 0.0809060598
H  H128  1  0.60460000  0.64930000  0.02110000  1.0 0.0809060598
H  H129  1  0.06820000  0.15800000  0.50830000  1.0 0.1367432784
H  H130  1  0.43180000  0.84200000  0.00830000  1.0 0.1367432784
H  H131  1  0.93180000  0.65800000  0.49170000  1.0 0.1367432784
H  H132  1  0.56820000  0.34200000  0.99170000  1.0 0.1367432784
H  H133  1  0.93180000  0.84200000  0.49170000  1.0 0.1367432784
H  H134  1  0.56820000  0.15800000  0.99170000  1.0 0.1367432784
H  H135  1  0.06820000  0.34200000  0.50830000  1.0 0.1367432784
H  H136  1  0.43180000  0.65800000  0.00830000  1.0 0.1367432784
H  H137  1  0.06270000  0.12480000  0.56380000  1.0 0.1199071018
H  H138  1  0.43730000  0.87520000  0.06380000  1.0 0.1199071018
H  H139  1  0.93730000  0.62480000  0.43620000  1.0 0.1199071018
H  H140  1  0.56270000  0.37520000  0.93620000  1.0 0.1199071018
H  H141  1  0.93730000  0.87520000  0.43620000  1.0 0.1199071018
H  H142  1  0.56270000  0.12480000  0.93620000  1.0 0.1199071018
H  H143  1  0.06270000  0.37520000  0.56380000  1.0 0.1199071018
H  H144  1  0.43730000  0.62480000  0.06380000  1.0 0.1199071018
H  H145  1  0.01740000  0.19660000  0.55280000  1.0 0.1297572015
H  H146  1  0.48260000  0.80340000  0.05280000  1.0 0.1297572015
H  H147  1  0.98260000  0.69660000  0.44720000  1.0 0.1297572015
H  H148  1  0.51740000  0.30340000  0.94720000  1.0 0.1297572015
H  H149  1  0.98260000  0.80340000  0.44720000  1.0 0.1297572015
H  H150  1  0.51740000  0.19660000  0.94720000  1.0 0.1297572015
H  H151  1  0.01740000  0.30340000  0.55280000  1.0 0.1297572015
H  H152  1  0.48260000  0.69660000  0.05280000  1.0 0.1297572015
H  H153  1  0.49980000  0.84970000  0.72710000  1.0 0.0919001167
H  H154  1  0.00020000  0.15030000  0.22710000  1.0 0.0919001167
H  H155  1  0.50020000  0.34970000  0.27290000  1.0 0.0919001167
H  H156  1  0.99980000  0.65030000  0.77290000  1.0 0.0919001167
H  H157  1  0.50020000  0.15030000  0.27290000  1.0 0.0919001167
H  H158  1  0.99980000  0.84970000  0.77290000  1.0 0.0919001167
H  H159  1  0.49980000  0.65030000  0.72710000  1.0 0.0919001167
H  H160  1  0.00020000  0.34970000  0.22710000  1.0 0.0919001167
H  H161  1  0.60190000  0.83690000  0.73270000  1.0 0.0919001167
H  H162  1  0.89810000  0.16310000  0.23270000  1.0 0.0919001167
H  H163  1  0.39810000  0.33690000  0.26730000  1.0 0.0919001167
H  H164  1  0.10190000  0.66310000  0.76730000  1.0 0.0919001167
H  H165  1  0.39810000  0.16310000  0.26730000  1.0 0.0919001167
H  H166  1  0.10190000  0.83690000  0.76730000  1.0 0.0919001167
H  H167  1  0.60190000  0.66310000  0.73270000  1.0 0.0919001167
H  H168  1  0.89810000  0.33690000  0.23270000  1.0 0.0919001167
H  H169  1  0.55810000  0.82860000  0.81750000  1.0 0.0987595601
H  H170  1  0.94190000  0.17140000  0.31750000  1.0 0.0987595601
H  H171  1  0.44190000  0.32860000  0.18250000  1.0 0.0987595601
H  H172  1  0.05810000  0.67140000  0.68250000  1.0 0.0987595601
H  H173  1  0.44190000  0.17140000  0.18250000  1.0 0.0987595601
H  H174  1  0.05810000  0.82860000  0.68250000  1.0 0.0987595601
H  H175  1  0.55810000  0.67140000  0.81750000  1.0 0.0987595601
H  H176  1  0.94190000  0.32860000  0.31750000  1.0 0.0987595601
H  H177  1  0.46900000  0.79240000  0.80280000  1.0 0.0809060598
H  H178  1  0.03100000  0.20760000  0.30280000  1.0 0.0809060598
H  H179  1  0.53100000  0.29240000  0.19720000  1.0 0.0809060598
H  H180  1  0.96900000  0.70760000  0.69720000  1.0 0.0809060598
H  H181  1  0.53100000  0.20760000  0.19720000  1.0 0.0809060598
H  H182  1  0.96900000  0.79240000  0.69720000  1.0 0.0809060598
H  H183  1  0.46900000  0.70760000  0.80280000  1.0 0.0809060598
H  H184  1  0.03100000  0.29240000  0.30280000  1.0 0.0809060598
H  H185  1  0.94050000  0.06460000  0.46710000  1.0 0.2064120423
H  H186  1  0.55950000  0.93540000  0.96710000  1.0 0.2064120423
H  H187  1  0.05950000  0.56460000  0.53290000  1.0 0.2064120423
H  H188  1  0.44050000  0.43540000  0.03290000  1.0 0.2064120423
H  H189  1  0.05950000  0.93540000  0.53290000  1.0 0.2064120423
H  H190  1  0.44050000  0.06460000  0.03290000  1.0 0.2049492358
H  H191  1  0.94050000  0.43540000  0.46710000  1.0 0.2064120423
H  H192  1  0.55950000  0.56460000  0.96710000  1.0 0.2064120423
H  H193  1  0.54130000  0.75000000  0.68850000  1.0 0.260057999
H  H194  1  0.95870000  0.25000000  0.18850000  1.0 0.260057999
H  H195  1  0.45870000  0.25000000  0.31150000  1.0 0.260057999
H  H196  1  0.04130000  0.75000000  0.81150000  1.0 0.260057999
H  H197  1  0.55710000  0.75000000  0.80110000  1.0 0.0602843316
H  H198  1  0.94290000  0.25000000  0.30110000  1.0 0.0602843316
H  H199  1  0.44290000  0.25000000  0.19890000  1.0 0.0602843316
H  H200  1  0.05710000  0.75000000  0.69890000  1.0 0.0602843316
C  C1  1  0.52470000  0.96580000  0.32000000  1.0 -0.5481303773
C  C2  1  0.97530000  0.03420000  0.82000000  1.0 -0.5481303773
C  C3  1  0.47530000  0.46580000  0.68000000  1.0 -0.5481303773
C  C4  1  0.02470000  0.53420000  0.18000000  1.0 -0.5481303773
C  C5  1  0.47530000  0.03420000  0.68000000  1.0 -0.5481303773
C  C6  1  0.02470000  0.96580000  0.18000000  1.0 -0.5481303773
C  C7  1  0.52470000  0.53420000  0.32000000  1.0 -0.5481303773
C  C8  1  0.97530000  0.46580000  0.82000000  1.0 -0.5481303773
C  C9  1  0.45560000  0.91700000  0.33828000  1.0 0.3980056289
C  C10  1  0.04440000  0.08300000  0.83828000  1.0 0.3980056289
C  C11  1  0.54440000  0.41700000  0.66172000  1.0 0.3980056289
C  C12  1  0.95560000  0.58300000  0.16172000  1.0 0.3980056289
C  C13  1  0.54440000  0.08300000  0.66172000  1.0 0.3980056289
C  C14  1  0.95560000  0.91700000  0.16172000  1.0 0.3980056289
C  C15  1  0.45560000  0.58300000  0.33828000  1.0 0.3980056289
C  C16  1  0.04440000  0.41700000  0.83828000  1.0 0.3980056289
C  C17  1  0.36360000  0.86400000  0.38623000  1.0 0.3980056289
C  C18  1  0.13640000  0.13600000  0.88623000  1.0 0.3887976277
C  C19  1  0.63640000  0.36400000  0.61377000  1.0 0.3980056289
C  C20  1  0.86360000  0.63600000  0.11377000  1.0 0.3980056289
C  C21  1  0.63640000  0.13600000  0.61377000  1.0 0.3887976277
C  C22  1  0.86360000  0.86400000  0.11377000  1.0 0.3980056289
C  C23  1  0.36360000  0.63600000  0.38623000  1.0 0.3980056289
C  C24  1  0.13640000  0.36400000  0.88623000  1.0 0.3887976277
C  C25  1  0.30830000  0.84310000  0.43110000  1.0 -0.5564476492
C  C26  1  0.19170000  0.15690000  0.93110000  1.0 -0.5564476492
C  C27  1  0.69170000  0.34310000  0.56890000  1.0 -0.5564476492
C  C28  1  0.80830000  0.65690000  0.06890000  1.0 -0.5564476492
C  C29  1  0.69170000  0.15690000  0.56890000  1.0 -0.5564476492
C  C30  1  0.80830000  0.84310000  0.06890000  1.0 -0.5564476492
C  C31  1  0.30830000  0.65690000  0.43110000  1.0 -0.5564476492
C  C32  1  0.19170000  0.34310000  0.93110000  1.0 -0.5564476492
C  C33  1  0.51030000  0.88110000  0.54580000  1.0 0.573642133
C  C34  1  0.98970000  0.11890000  0.04580000  1.0 0.573642133
C  C35  1  0.48970000  0.38110000  0.45420000  1.0 0.573642133
C  C36  1  0.01030000  0.61890000  0.95420000  1.0 0.573642133
C  C37  1  0.48970000  0.11890000  0.45420000  1.0 0.573642133
C  C38  1  0.01030000  0.88110000  0.95420000  1.0 0.573642133
C  C39  1  0.51030000  0.61890000  0.54580000  1.0 0.573642133
C  C40  1  0.98970000  0.38110000  0.04580000  1.0 0.573642133
C  C41  1  0.51480000  0.81260000  0.57400000  1.0 -0.0043807852
C  C42  1  0.98520000  0.18740000  0.07400000  1.0 -0.0043807852
C  C43  1  0.48520000  0.31260000  0.42600000  1.0 -0.0043807852
C  C44  1  0.01480000  0.68740000  0.92600000  1.0 -0.0043807852
C  C45  1  0.48520000  0.18740000  0.42600000  1.0 -0.0043807852
C  C46  1  0.01480000  0.81260000  0.92600000  1.0 -0.0043807852
C  C47  1  0.51480000  0.68740000  0.57400000  1.0 -0.0043807852
C  C48  1  0.98520000  0.31260000  0.07400000  1.0 -0.0043807852
C  C49  1  0.52680000  0.81180000  0.62660000  1.0 -0.1905152134
C  C50  1  0.97320000  0.18820000  0.12660000  1.0 -0.1905152134
C  C51  1  0.47320000  0.31180000  0.37340000  1.0 -0.1905152134
C  C52  1  0.02680000  0.68820000  0.87340000  1.0 -0.1905152134
C  C53  1  0.47320000  0.18820000  0.37340000  1.0 -0.1905152134
C  C54  1  0.02680000  0.81180000  0.87340000  1.0 -0.1905152134
C  C55  1  0.52680000  0.68820000  0.62660000  1.0 -0.1905152134
C  C56  1  0.97320000  0.31180000  0.12660000  1.0 -0.1905152134
C  C57  1  0.53300000  0.75000000  0.65280000  1.0 0.0809060598
C  C58  1  0.96700000  0.25000000  0.15280000  1.0 0.0809060598
C  C59  1  0.46700000  0.25000000  0.34720000  1.0 0.0809060598
C  C60  1  0.03300000  0.75000000  0.84720000  1.0 0.0809060598
C  C61  1  0.50690000  0.75000000  0.54740000  1.0 -0.1358337643
C  C62  1  0.99310000  0.25000000  0.04740000  1.0 -0.1358337643
C  C63  1  0.49310000  0.25000000  0.45260000  1.0 -0.1358337643
C  C64  1  0.00690000  0.75000000  0.95260000  1.0 -0.1358337643
C  C65  1  0.88370000  0.92540000  0.33160000  1.0 0.505404195
C  C66  1  0.61630000  0.07460000  0.83160000  1.0 0.505404195
C  C67  1  0.11630000  0.42540000  0.66840000  1.0 0.505404195
C  C68  1  0.38370000  0.57460000  0.16840000  1.0 0.505404195
C  C69  1  0.11630000  0.07460000  0.66840000  1.0 0.505404195
C  C70  1  0.38370000  0.92540000  0.16840000  1.0 0.505404195
C  C71  1  0.88370000  0.57460000  0.33160000  1.0 0.505404195
C  C72  1  0.61630000  0.42540000  0.83160000  1.0 0.505404195
C  C73  1  0.85560000  0.96670000  0.37770000  1.0 -0.0098640657
C  C74  1  0.64440000  0.03330000  0.87770000  1.0 -0.0098640657
C  C75  1  0.14440000  0.46670000  0.62230000  1.0 -0.0098640657
C  C76  1  0.35560000  0.53330000  0.12230000  1.0 -0.0098640657
C  C77  1  0.14440000  0.03330000  0.62230000  1.0 -0.0098640657
C  C78  1  0.35560000  0.96670000  0.12230000  1.0 -0.0098640657
C  C79  1  0.85560000  0.53330000  0.37770000  1.0 -0.0098640657
C  C80  1  0.64440000  0.46670000  0.87770000  1.0 -0.0098640657
C  C81  1  0.91720000  0.01120000  0.40090000  1.0 -0.1905152134
C  C82  1  0.58280000  0.98880000  0.90090000  1.0 -0.1905152134
C  C83  1  0.08280000  0.51120000  0.59910000  1.0 -0.1905152134
C  C84  1  0.41720000  0.48880000  0.09910000  1.0 -0.1905152134
C  C85  1  0.08280000  0.98880000  0.59910000  1.0 -0.1905152134
C  C86  1  0.41720000  0.01120000  0.09910000  1.0 -0.1905152134
C  C87  1  0.91720000  0.48880000  0.40090000  1.0 -0.1905152134
C  C88  1  0.58280000  0.51120000  0.90090000  1.0 -0.1905152134
C  C89  1  0.89720000  0.04230000  0.44770000  1.0 0.0919001167
C  C90  1  0.60280000  0.95770000  0.94770000  1.0 0.0919001167
C  C91  1  0.10280000  0.54230000  0.55230000  1.0 0.0919001167
C  C92  1  0.39720000  0.45770000  0.05230000  1.0 0.0919001167
C  C93  1  0.10280000  0.95770000  0.55230000  1.0 0.0919001167
C  C94  1  0.39720000  0.04230000  0.05230000  1.0 0.0919001167
C  C95  1  0.89720000  0.45770000  0.44770000  1.0 0.0919001167
C  C96  1  0.60280000  0.54230000  0.94770000  1.0 0.0919001167
C  C97  1  0.80900000  0.03930000  0.46560000  1.0 -0.1905152134
C  C98  1  0.69100000  0.96070000  0.96560000  1.0 -0.1905152134
C  C99  1  0.19100000  0.53930000  0.53440000  1.0 -0.1905152134
C  C100  1  0.30900000  0.46070000  0.03440000  1.0 -0.1905152134
C  C101  1  0.19100000  0.96070000  0.53440000  1.0 -0.1905152134
C  C102  1  0.30900000  0.03930000  0.03440000  1.0 -0.1905152134
C  C103  1  0.80900000  0.46070000  0.46560000  1.0 -0.1905152134
C  C104  1  0.69100000  0.53930000  0.96560000  1.0 -0.1905152134
C  C105  1  0.74930000  0.99710000  0.44290000  1.0 -0.0098640657
C  C106  1  0.75070000  0.00290000  0.94290000  1.0 -0.0098640657
C  C107  1  0.25070000  0.49710000  0.55710000  1.0 -0.0098640657
C  C108  1  0.24930000  0.50290000  0.05710000  1.0 -0.0098640657
C  C109  1  0.25070000  0.00290000  0.55710000  1.0 -0.0098640657
C  C110  1  0.24930000  0.99710000  0.05710000  1.0 -0.0098640657
C  C111  1  0.74930000  0.50290000  0.44290000  1.0 -0.0098640657
C  C112  1  0.75070000  0.49710000  0.94290000  1.0 -0.0098640657
C  C113  1  0.77350000  0.96040000  0.39850000  1.0 -0.1273086311
C  C114  1  0.72650000  0.03960000  0.89850000  1.0 -0.1273086311
C  C115  1  0.22650000  0.46040000  0.60150000  1.0 -0.1273086311
C  C116  1  0.27350000  0.53960000  0.10150000  1.0 -0.1273086311
C  C117  1  0.22650000  0.03960000  0.60150000  1.0 -0.1273086311
C  C118  1  0.27350000  0.96040000  0.10150000  1.0 -0.1273086311
C  C119  1  0.77350000  0.53960000  0.39850000  1.0 -0.1273086311
C  C120  1  0.72650000  0.46040000  0.89850000  1.0 -0.1273086311
C  C121  1  0.65790000  0.99130000  0.46500000  1.0 0.573642133
C  C122  1  0.84210000  0.00870000  0.96500000  1.0 0.573642133
C  C123  1  0.34210000  0.49130000  0.53500000  1.0 0.573642133
C  C124  1  0.15790000  0.50870000  0.03500000  1.0 0.573642133
C  C125  1  0.34210000  0.00870000  0.53500000  1.0 0.573642133
C  C126  1  0.15790000  0.99130000  0.03500000  1.0 0.573642133
C  C127  1  0.65790000  0.50870000  0.46500000  1.0 0.573642133
C  C128  1  0.84210000  0.49130000  0.96500000  1.0 0.573642133
C  C129  1  0.65030000  0.87860000  0.20310000  1.0 -0.5481303773
C  C130  1  0.84970000  0.12140000  0.70310000  1.0 -0.5481303773
C  C131  1  0.34970000  0.37860000  0.79690000  1.0 -0.5481303773
C  C132  1  0.15030000  0.62140000  0.29690000  1.0 -0.5481303773
C  C133  1  0.34970000  0.12140000  0.79690000  1.0 -0.5481303773
C  C134  1  0.15030000  0.87860000  0.29690000  1.0 -0.5481303773
C  C135  1  0.65030000  0.62140000  0.20310000  1.0 -0.5481303773
C  C136  1  0.84970000  0.37860000  0.70310000  1.0 -0.5481303773
C  C137  1  0.61970000  0.80550000  0.20580000  1.0 0.3887976277
C  C138  1  0.88030000  0.19450000  0.70580000  1.0 0.3887976277
C  C139  1  0.38030000  0.30550000  0.79420000  1.0 0.3887976277
C  C140  1  0.11970000  0.69450000  0.29420000  1.0 0.3887976277
C  C141  1  0.38030000  0.19450000  0.79420000  1.0 0.3887976277
C  C142  1  0.11970000  0.80550000  0.29420000  1.0 0.3887976277
C  C143  1  0.61970000  0.69450000  0.20580000  1.0 0.3887976277
C  C144  1  0.88030000  0.30550000  0.70580000  1.0 0.3887976277
C  C145  1  0.94360000  0.11600000  0.52320000  1.0 -0.0098640657
C  C146  1  0.55640000  0.88400000  0.02320000  1.0 -0.0098640657
C  C147  1  0.05640000  0.61600000  0.47680000  1.0 -0.0098640657
C  C148  1  0.44360000  0.38400000  0.97680000  1.0 -0.0098640657
C  C149  1  0.05640000  0.88400000  0.47680000  1.0 -0.0098640657
C  C150  1  0.44360000  0.11600000  0.97680000  1.0 -0.0098640657
C  C151  1  0.94360000  0.38400000  0.52320000  1.0 -0.0098640657
C  C152  1  0.55640000  0.61600000  0.02320000  1.0 -0.0098640657
C  C153  1  0.03200000  0.15200000  0.53840000  1.0 -0.4043783189
C  C154  1  0.46800000  0.84800000  0.03840000  1.0 -0.4052872898
C  C155  1  0.96800000  0.65200000  0.46160000  1.0 -0.4052872898
C  C156  1  0.53200000  0.34800000  0.96160000  1.0 -0.4052872898
C  C157  1  0.96800000  0.84800000  0.46160000  1.0 -0.4052872898
C  C158  1  0.53200000  0.15200000  0.96160000  1.0 -0.4052872898
C  C159  1  0.03200000  0.34800000  0.53840000  1.0 -0.4043783189
C  C160  1  0.46800000  0.65200000  0.03840000  1.0 -0.4052872898
C  C161  1  0.54400000  0.81630000  0.73770000  1.0 -0.0825140782
C  C162  1  0.95600000  0.18370000  0.23770000  1.0 -0.0825140782
C  C163  1  0.45600000  0.31630000  0.26230000  1.0 -0.0825140782
C  C164  1  0.04400000  0.68370000  0.76230000  1.0 -0.0857865603
C  C165  1  0.45600000  0.18370000  0.26230000  1.0 -0.0825140782
C  C166  1  0.04400000  0.81630000  0.76230000  1.0 -0.0857865603
C  C167  1  0.54400000  0.68370000  0.73770000  1.0 -0.0825140782
C  C168  1  0.95600000  0.31630000  0.23770000  1.0 -0.0825140782
C  C169  1  0.53100000  0.79470000  0.79530000  1.0 -0.207517104
C  C170  1  0.96900000  0.20530000  0.29530000  1.0 -0.207517104
C  C171  1  0.46900000  0.29470000  0.20470000  1.0 -0.207517104
C  C172  1  0.03100000  0.70530000  0.70470000  1.0 -0.207517104
C  C173  1  0.46900000  0.20530000  0.20470000  1.0 -0.207517104
C  C174  1  0.03100000  0.79470000  0.70470000  1.0 -0.207517104
C  C175  1  0.53100000  0.70530000  0.79530000  1.0 -0.207517104
C  C176  1  0.96900000  0.29470000  0.29530000  1.0 -0.207517104
N  N1  1  0.41790000  0.86900000  0.30883000  1.0 -0.2979296537
N  N2  1  0.08210000  0.13100000  0.80883000  1.0 -0.2979296537
N  N3  1  0.58210000  0.36900000  0.69117000  1.0 -0.2979296537
N  N4  1  0.91790000  0.63100000  0.19117000  1.0 -0.2979296537
N  N5  1  0.58210000  0.13100000  0.69117000  1.0 -0.2979296537
N  N6  1  0.91790000  0.86900000  0.19117000  1.0 -0.2979296537
N  N7  1  0.41790000  0.63100000  0.30883000  1.0 -0.2979296537
N  N8  1  0.08210000  0.36900000  0.80883000  1.0 -0.2979296537
N  N9  1  0.35820000  0.83457000  0.34010000  1.0 -0.2940970452
N  N10  1  0.14180000  0.16543000  0.84010000  1.0 -0.2940970452
N  N11  1  0.64180000  0.33457000  0.65990000  1.0 -0.2940970452
N  N12  1  0.85820000  0.66543000  0.15990000  1.0 -0.2940970452
N  N13  1  0.64180000  0.16543000  0.65990000  1.0 -0.2940970452
N  N14  1  0.85820000  0.83457000  0.15990000  1.0 -0.2940970452
N  N15  1  0.35820000  0.66543000  0.34010000  1.0 -0.2940970452
N  N16  1  0.14180000  0.33457000  0.84010000  1.0 -0.2940970452
N  N17  1  0.42440000  0.91510000  0.38732000  1.0 -0.4173807667
N  N18  1  0.07560000  0.08490000  0.88732000  1.0 -0.4173807667
N  N19  1  0.57560000  0.41510000  0.61268000  1.0 -0.4173807667
N  N20  1  0.92440000  0.58490000  0.11268000  1.0 -0.4173807667
N  N21  1  0.57560000  0.08490000  0.61268000  1.0 -0.4173807667
N  N22  1  0.92440000  0.91510000  0.11268000  1.0 -0.4173807667
N  N23  1  0.42440000  0.58490000  0.38732000  1.0 -0.4173807667
N  N24  1  0.07560000  0.41510000  0.88732000  1.0 -0.4173807667
N  N25  1  0.54000000  0.78600000  0.21873000  1.0 -0.2715629579
N  N26  1  0.96000000  0.21400000  0.71873000  1.0 -0.2715629579
N  N27  1  0.46000000  0.28600000  0.78127000  1.0 -0.2715629579
N  N28  1  0.04000000  0.71400000  0.28127000  1.0 -0.2715629579
N  N29  1  0.46000000  0.21400000  0.78127000  1.0 -0.2715629579
N  N30  1  0.04000000  0.78600000  0.28127000  1.0 -0.2715629579
N  N31  1  0.54000000  0.71400000  0.21873000  1.0 -0.2715629579
N  N32  1  0.96000000  0.28600000  0.71873000  1.0 -0.2715629579
N  N33  1  0.67170000  0.75000000  0.19650000  1.0 -0.4599425536
N  N34  1  0.82830000  0.25000000  0.69650000  1.0 -0.4599425536
N  N35  1  0.32830000  0.25000000  0.80350000  1.0 -0.4599425536
N  N36  1  0.17170000  0.75000000  0.30350000  1.0 -0.4599425536
O  O1  1  0.48700000  0.87905000  0.49885000  1.0 -0.5391134209
O  O2  1  0.01300000  0.12095000  0.99885000  1.0 -0.5391134209
O  O3  1  0.51300000  0.37905000  0.50115000  1.0 -0.5391134209
O  O4  1  0.98700000  0.62095000  0.00115000  1.0 -0.5391134209
O  O5  1  0.51300000  0.12095000  0.50115000  1.0 -0.5391134209
O  O6  1  0.98700000  0.87905000  0.00115000  1.0 -0.5391134209
O  O7  1  0.48700000  0.62095000  0.49885000  1.0 -0.5391134209
O  O8  1  0.01300000  0.37905000  0.99885000  1.0 -0.5391134209
O  O9  1  0.52760000  0.93450000  0.57079000  1.0 -0.5391134209
O  O10  1  0.97240000  0.06550000  0.07079000  1.0 -0.5391134209
O  O11  1  0.47240000  0.43450000  0.42921000  1.0 -0.5391134209
O  O12  1  0.02760000  0.56550000  0.92921000  1.0 -0.5391134209
O  O13  1  0.47240000  0.06550000  0.42921000  1.0 -0.5391134209
O  O14  1  0.02760000  0.93450000  0.92921000  1.0 -0.5391134209
O  O15  1  0.52760000  0.56550000  0.57079000  1.0 -0.5391134209
O  O16  1  0.97240000  0.43450000  0.07079000  1.0 -0.5391134209
O  O17  1  0.60120000  0.96110000  0.43753000  1.0 -0.5391134209
O  O18  1  0.89880000  0.03890000  0.93753000  1.0 -0.5391134209
O  O19  1  0.39880000  0.46110000  0.56247000  1.0 -0.5344196202
O  O20  1  0.10120000  0.53890000  0.06247000  1.0 -0.5391134209
O  O21  1  0.39880000  0.03890000  0.56247000  1.0 -0.5344196202
O  O22  1  0.10120000  0.96110000  0.06247000  1.0 -0.5391134209
O  O23  1  0.60120000  0.53890000  0.43753000  1.0 -0.5391134209
O  O24  1  0.89880000  0.46110000  0.93753000  1.0 -0.5391134209
O  O25  1  0.64380000  0.01820000  0.50825000  1.0 -0.5481303773
O  O26  1  0.85620000  0.98180000  0.00825000  1.0 -0.5481303773
O  O27  1  0.35620000  0.51820000  0.49175000  1.0 -0.5481303773
O  O28  1  0.14380000  0.48180000  0.99175000  1.0 -0.5481303773
O  O29  1  0.35620000  0.98180000  0.49175000  1.0 -0.5481303773
O  O30  1  0.14380000  0.01820000  0.99175000  1.0 -0.5481303773
O  O31  1  0.64380000  0.48180000  0.50825000  1.0 -0.5481303773
O  O32  1  0.85620000  0.51820000  0.00825000  1.0 -0.5481303773
O  O33  1  0.83690000  0.87900000  0.31710000  1.0 -0.4599425536
O  O34  1  0.66310000  0.12100000  0.81710000  1.0 -0.4599425536
O  O35  1  0.16310000  0.37900000  0.68290000  1.0 -0.4599425536
O  O36  1  0.33690000  0.62100000  0.18290000  1.0 -0.4599425536
O  O37  1  0.16310000  0.12100000  0.68290000  1.0 -0.4599425536
O  O38  1  0.33690000  0.87900000  0.18290000  1.0 -0.4599425536
O  O39  1  0.83690000  0.62100000  0.31710000  1.0 -0.4599425536
O  O40  1  0.66310000  0.37900000  0.81710000  1.0 -0.4599425536
O  O41  1  0.95430000  0.93440000  0.31040000  1.0 -0.4851730706
O  O42  1  0.54570000  0.06560000  0.81040000  1.0 -0.4845203997
O  O43  1  0.04570000  0.43440000  0.68960000  1.0 -0.4845203997
O  O44  1  0.45430000  0.56560000  0.18960000  1.0 -0.4845203997
O  O45  1  0.04570000  0.06560000  0.68960000  1.0 -0.4845203997
O  O46  1  0.45430000  0.93440000  0.18960000  1.0 -0.4845203997
O  O47  1  0.95430000  0.56560000  0.31040000  1.0 -0.4851730706
O  O48  1  0.54570000  0.43440000  0.81040000  1.0 -0.4845203997
O  O49  1  0.35470000  0.75000000  0.24280000  1.0 -0.7740333916
O  O50  1  0.14530000  0.25000000  0.74280000  1.0 -0.7740333916
O  O51  1  0.64530000  0.25000000  0.75720000  1.0 -0.7751507999
O  O52  1  0.85470000  0.75000000  0.25720000  1.0 -0.7740333916
O  O53  1  0.53580000  0.75000000  0.70670000  1.0 -0.0825140782
O  O54  1  0.96420000  0.25000000  0.20670000  1.0 -0.0729948224
O  O55  1  0.46420000  0.25000000  0.29330000  1.0 -0.0825140782
O  O56  1  0.03580000  0.75000000  0.79330000  1.0 -0.0729948224
O  O57  1  0.96300000  0.07940000  0.47270000  1.0 -0.1905152134
O  O58  1  0.53700000  0.92060000  0.97270000  1.0 -0.1905152134
O  O59  1  0.03700000  0.57940000  0.52730000  1.0 -0.1905152134
O  O60  1  0.46300000  0.42060000  0.02730000  1.0 -0.1905152134
O  O61  1  0.03700000  0.92060000  0.52730000  1.0 -0.1905152134
O  O62  1  0.46300000  0.07940000  0.02730000  1.0 -0.1905152134
O  O63  1  0.96300000  0.42060000  0.47270000  1.0 -0.1905152134
O  O64  1  0.53700000  0.57940000  0.97270000  1.0 -0.1905152134
