# DDEC6 charges by PACMAN v1.1 (https://github.com/mtap-research/PACMAN-charge/)
data_HUSFUZ_FSR_pacman
_symmetry_space_group_name_H-M   'P 1'
_cell_length_a   15.00820000
_cell_length_b   15.00820000
_cell_length_c   21.40450000
_cell_angle_alpha   82.40550000
_cell_angle_beta   97.59450000
_cell_angle_gamma   78.86830000
_symmetry_Int_Tables_number   1
_chemical_formula_structural   Tb3H24C64(NO14)2
_chemical_formula_sum   'Tb6 H48 C128 N4 O56'
_cell_volume   4627.04295782
_cell_formula_units_Z   2
loop_
 _symmetry_equiv_pos_site_id
 _symmetry_equiv_pos_as_xyz
  1  'x, y, z'
loop_
 _atom_site_type_symbol
 _atom_site_label
 _atom_site_symmetry_multiplicity
 _atom_site_fract_x
 _atom_site_fract_y
 _atom_site_fract_z
 _atom_site_occupancy
 _atom_site_charge
Tb  Tb1  1  0.41242000  0.57874000  0.04170000  1.0 2.055903981
Tb  Tb2  1  0.57874000  0.41242000  0.45830000  1.0 2.055903981
Tb  Tb3  1  0.58758000  0.42126000  0.95830000  1.0 2.0525178809
Tb  Tb4  1  0.42126000  0.58758000  0.54170000  1.0 2.055903981
Tb  Tb5  1  0.84539000  0.84539000  0.75000000  1.0 1.1030093331
Tb  Tb6  1  0.15461000  0.15461000  0.25000000  1.0 1.1030093331
H  H1  1  0.67540000  0.69780000  0.87490000  1.0 0.1514977042
H  H2  1  0.55600000  0.91120000  0.99210000  1.0 0.124643122
H  H3  1  0.57850000  0.03830000  0.82880000  1.0 0.1811867703
H  H4  1  0.73520000  0.96360000  0.99940000  1.0 0.1514977042
H  H5  1  0.52530000  0.76590000  0.00800000  1.0 0.1514977042
H  H6  1  0.64200000  0.09800000  0.73690000  1.0 0.1327483097
H  H7  1  0.88980000  0.97300000  0.02050000  1.0 0.1327483097
H  H8  1  0.60480000  0.19440000  0.63990000  1.0 0.1327483097
H  H9  1  0.54830000  0.41190000  0.72860000  1.0 0.1514977042
H  H10  1  0.87450000  0.25190000  0.08950000  1.0 0.137837847
H  H11  1  0.00220000  0.98940000  0.09850000  1.0 0.1327483097
H  H12  1  0.26820000  0.80080000  0.10360000  1.0 0.2963894505
H  H13  1  0.69780000  0.67540000  0.62510000  1.0 0.1514977042
H  H14  1  0.91120000  0.55600000  0.50790000  1.0 0.124643122
H  H15  1  0.03830000  0.57850000  0.67120000  1.0 0.1811867703
H  H16  1  0.96360000  0.73520000  0.50060000  1.0 0.1514977042
H  H17  1  0.76590000  0.52530000  0.49200000  1.0 0.1514977042
H  H18  1  0.09800000  0.64200000  0.76310000  1.0 0.1327483097
H  H19  1  0.97300000  0.88980000  0.47950000  1.0 0.1327483097
H  H20  1  0.19440000  0.60480000  0.86010000  1.0 0.1327483097
H  H21  1  0.41190000  0.54830000  0.77140000  1.0 0.1514977042
H  H22  1  0.25190000  0.87450000  0.41050000  1.0 0.137837847
H  H23  1  0.98940000  0.00220000  0.40150000  1.0 0.1327483097
H  H24  1  0.80080000  0.26820000  0.39640000  1.0 0.2963894505
H  H25  1  0.32460000  0.30220000  0.12510000  1.0 0.1514977042
H  H26  1  0.44400000  0.08880000  0.00790000  1.0 0.124643122
H  H27  1  0.42150000  0.96170000  0.17120000  1.0 0.1811867703
H  H28  1  0.26480000  0.03640000  0.00060000  1.0 0.1514977042
H  H29  1  0.47470000  0.23410000  0.99200000  1.0 0.1514977042
H  H30  1  0.35800000  0.90200000  0.26310000  1.0 0.1327483097
H  H31  1  0.11020000  0.02700000  0.97950000  1.0 0.1327483097
H  H32  1  0.39520000  0.80560000  0.36010000  1.0 0.1327483097
H  H33  1  0.45170000  0.58810000  0.27140000  1.0 0.1514977042
H  H34  1  0.12550000  0.74810000  0.91050000  1.0 0.137837847
H  H35  1  0.99780000  0.01060000  0.90150000  1.0 0.1327483097
H  H36  1  0.73180000  0.19920000  0.89640000  1.0 0.2963894505
H  H37  1  0.30220000  0.32460000  0.37490000  1.0 0.1514977042
H  H38  1  0.08880000  0.44400000  0.49210000  1.0 0.124643122
H  H39  1  0.96170000  0.42150000  0.32880000  1.0 0.1811867703
H  H40  1  0.03640000  0.26480000  0.49940000  1.0 0.1514977042
H  H41  1  0.23410000  0.47470000  0.50800000  1.0 0.1514977042
H  H42  1  0.90200000  0.35800000  0.23690000  1.0 0.1327483097
H  H43  1  0.02700000  0.11020000  0.52050000  1.0 0.1327483097
H  H44  1  0.80560000  0.39520000  0.13990000  1.0 0.1327483097
H  H45  1  0.58810000  0.45170000  0.22860000  1.0 0.1514977042
H  H46  1  0.74810000  0.12550000  0.58950000  1.0 0.137837847
H  H47  1  0.01060000  0.99780000  0.59850000  1.0 0.1327483097
H  H48  1  0.19920000  0.73180000  0.60360000  1.0 0.2963894505
C  C1  1  0.72440000  0.84660000  0.83830000  1.0 0.2105671365
C  C2  1  0.66400000  0.83180000  0.88550000  1.0 -0.061845566
C  C3  1  0.63010000  0.89470000  0.92160000  1.0 0.0369725993
C  C4  1  0.64980000  0.74140000  0.89820000  1.0 -0.1202074241
C  C5  1  0.65430000  0.98750000  0.91480000  1.0 0.0190685887
C  C6  1  0.57940000  0.86840000  0.96740000  1.0 -0.1597836826
C  C7  1  0.60010000  0.71610000  0.94320000  1.0 0.0005080676
C  C8  1  0.62060000  0.05060000  0.86060000  1.0 0.010844012
C  C9  1  0.71420000  0.00640000  0.96220000  1.0 -0.2206480646
C  C10  1  0.56180000  0.78080000  0.97810000  1.0 -0.0678136226
C  C11  1  0.58790000  0.61890000  0.95360000  1.0 0.6517706934
C  C12  1  0.64910000  0.13170000  0.85330000  1.0 0.1946640212
C  C13  1  0.74360000  0.08600000  0.95610000  1.0 0.2105671365
C  C14  1  0.61860000  0.19620000  0.79240000  1.0 0.010844012
C  C15  1  0.81270000  0.10150000  0.00650000  1.0 0.0295540464
C  C16  1  0.62330000  0.16110000  0.73560000  1.0 -0.1597836826
C  C17  1  0.59070000  0.29150000  0.78950000  1.0 -0.0374401759
C  C18  1  0.81000000  0.18620000  0.02790000  1.0 -0.0179276271
C  C19  1  0.88610000  0.02950000  0.03440000  1.0 -0.1462120738
C  C20  1  0.37690000  0.54470000  0.88870000  1.0 0.6517706934
C  C21  1  0.60030000  0.21910000  0.67730000  1.0 -0.0813990448
C  C22  1  0.56700000  0.34860000  0.73040000  1.0 -0.0884899784
C  C23  1  0.58430000  0.33690000  0.84760000  1.0 0.5746858169
C  C24  1  0.87710000  0.19530000  0.07600000  1.0 -0.1202074241
C  C25  1  0.73260000  0.26820000  0.00290000  1.0 0.5783881295
C  C26  1  0.95320000  0.03860000  0.08170000  1.0 -0.0813990448
C  C27  1  0.31240000  0.57080000  0.82630000  1.0 -0.0179276271
C  C28  1  0.94790000  0.12230000  0.10470000  1.0 -0.0277335446
C  C29  1  0.01730000  0.13310000  0.15800000  1.0 0.475617205
C  C30  1  0.28260000  0.08760000  0.20020000  1.0 0.0721997593
C  C31  1  0.30980000  0.12900000  0.22220000  1.0 -0.2206480646
C  C32  1  0.16910000  0.30770000  0.19220000  1.0 -0.2298941773
C  C33  1  0.84660000  0.72440000  0.66170000  1.0 0.2105671365
C  C34  1  0.83180000  0.66400000  0.61450000  1.0 -0.061845566
C  C35  1  0.89470000  0.63010000  0.57840000  1.0 0.0369725993
C  C36  1  0.74140000  0.64980000  0.60180000  1.0 -0.1202074241
C  C37  1  0.98750000  0.65430000  0.58520000  1.0 0.0190685887
C  C38  1  0.86840000  0.57940000  0.53260000  1.0 -0.1597836826
C  C39  1  0.71610000  0.60010000  0.55680000  1.0 0.0005080676
C  C40  1  0.05060000  0.62060000  0.63940000  1.0 0.010844012
C  C41  1  0.00640000  0.71420000  0.53780000  1.0 -0.2206480646
C  C42  1  0.78080000  0.56180000  0.52190000  1.0 -0.0678136226
C  C43  1  0.61890000  0.58790000  0.54640000  1.0 0.6517706934
C  C44  1  0.13170000  0.64910000  0.64670000  1.0 0.1946640212
C  C45  1  0.08600000  0.74360000  0.54390000  1.0 0.2105671365
C  C46  1  0.19620000  0.61860000  0.70760000  1.0 0.010844012
C  C47  1  0.10150000  0.81270000  0.49350000  1.0 0.0295540464
C  C48  1  0.16110000  0.62330000  0.76440000  1.0 -0.1597836826
C  C49  1  0.29150000  0.59070000  0.71050000  1.0 -0.0374401759
C  C50  1  0.18620000  0.81000000  0.47210000  1.0 -0.0179276271
C  C51  1  0.02950000  0.88610000  0.46560000  1.0 -0.1462120738
C  C52  1  0.54470000  0.37690000  0.61130000  1.0 0.6517706934
C  C53  1  0.21910000  0.60030000  0.82270000  1.0 -0.0813990448
C  C54  1  0.34860000  0.56700000  0.76960000  1.0 -0.0884899784
C  C55  1  0.33690000  0.58430000  0.65240000  1.0 0.5746858169
C  C56  1  0.19530000  0.87710000  0.42400000  1.0 -0.1202074241
C  C57  1  0.26820000  0.73260000  0.49710000  1.0 0.5783881295
C  C58  1  0.03860000  0.95320000  0.41830000  1.0 -0.0813990448
C  C59  1  0.57080000  0.31240000  0.67370000  1.0 -0.0179276271
C  C60  1  0.12230000  0.94790000  0.39530000  1.0 -0.0277335446
C  C61  1  0.13310000  0.01730000  0.34200000  1.0 0.475617205
C  C62  1  0.08760000  0.28260000  0.29980000  1.0 0.0721997593
C  C63  1  0.12900000  0.30980000  0.27780000  1.0 -0.2298941773
C  C64  1  0.30770000  0.16910000  0.30780000  1.0 -0.2298941773
C  C65  1  0.27560000  0.15340000  0.16170000  1.0 0.2105671365
C  C66  1  0.33600000  0.16820000  0.11450000  1.0 -0.061845566
C  C67  1  0.36990000  0.10530000  0.07840000  1.0 0.0369725993
C  C68  1  0.35020000  0.25860000  0.10180000  1.0 -0.1202074241
C  C69  1  0.34570000  0.01250000  0.08520000  1.0 0.0190685887
C  C70  1  0.42060000  0.13160000  0.03260000  1.0 -0.1597836826
C  C71  1  0.39990000  0.28390000  0.05680000  1.0 0.0005080676
C  C72  1  0.37940000  0.94940000  0.13940000  1.0 0.010844012
C  C73  1  0.28580000  0.99360000  0.03780000  1.0 -0.2206480646
C  C74  1  0.43820000  0.21920000  0.02190000  1.0 -0.0678136226
C  C75  1  0.41210000  0.38110000  0.04640000  1.0 0.6517706934
C  C76  1  0.35090000  0.86830000  0.14670000  1.0 0.1946640212
C  C77  1  0.25640000  0.91400000  0.04390000  1.0 0.2105671365
C  C78  1  0.38140000  0.80380000  0.20760000  1.0 0.010844012
C  C79  1  0.18730000  0.89850000  0.99350000  1.0 0.0295540464
C  C80  1  0.37670000  0.83890000  0.26440000  1.0 -0.1597836826
C  C81  1  0.40930000  0.70850000  0.21050000  1.0 -0.0374401759
C  C82  1  0.19000000  0.81380000  0.97210000  1.0 -0.0179276271
C  C83  1  0.11390000  0.97050000  0.96560000  1.0 -0.1462120738
C  C84  1  0.62310000  0.45530000  0.11130000  1.0 0.6517706934
C  C85  1  0.39970000  0.78090000  0.32270000  1.0 -0.0813990448
C  C86  1  0.43300000  0.65140000  0.26960000  1.0 -0.0884899784
C  C87  1  0.41570000  0.66310000  0.15240000  1.0 0.5746858169
C  C88  1  0.12290000  0.80470000  0.92400000  1.0 -0.1202074241
C  C89  1  0.26740000  0.73180000  0.99710000  1.0 0.5783881295
C  C90  1  0.04680000  0.96140000  0.91830000  1.0 -0.0813990448
C  C91  1  0.68760000  0.42920000  0.17370000  1.0 -0.0179276271
C  C92  1  0.05210000  0.87770000  0.89530000  1.0 -0.0277335446
C  C93  1  0.98270000  0.86690000  0.84200000  1.0 0.475617205
C  C94  1  0.71740000  0.91240000  0.79980000  1.0 0.0721997593
C  C95  1  0.69020000  0.87100000  0.77780000  1.0 -0.2206480646
C  C96  1  0.83090000  0.69230000  0.80780000  1.0 -0.2298941773
C  C97  1  0.15340000  0.27560000  0.33830000  1.0 0.2105671365
C  C98  1  0.16820000  0.33600000  0.38550000  1.0 -0.061845566
C  C99  1  0.10530000  0.36990000  0.42160000  1.0 0.0369725993
C  C100  1  0.25860000  0.35020000  0.39820000  1.0 -0.1202074241
C  C101  1  0.01250000  0.34570000  0.41480000  1.0 0.0190685887
C  C102  1  0.13160000  0.42060000  0.46740000  1.0 -0.1597836826
C  C103  1  0.28390000  0.39990000  0.44320000  1.0 0.0005080676
C  C104  1  0.94940000  0.37940000  0.36060000  1.0 0.010844012
C  C105  1  0.99360000  0.28580000  0.46220000  1.0 -0.2206480646
C  C106  1  0.21920000  0.43820000  0.47810000  1.0 -0.0678136226
C  C107  1  0.38110000  0.41210000  0.45360000  1.0 0.6517706934
C  C108  1  0.86830000  0.35090000  0.35330000  1.0 0.1946640212
C  C109  1  0.91400000  0.25640000  0.45610000  1.0 0.2105671365
C  C110  1  0.80380000  0.38140000  0.29240000  1.0 0.010844012
C  C111  1  0.89850000  0.18730000  0.50650000  1.0 0.0295540464
C  C112  1  0.83890000  0.37670000  0.23560000  1.0 -0.1597836826
C  C113  1  0.70850000  0.40930000  0.28950000  1.0 -0.0374401759
C  C114  1  0.81380000  0.19000000  0.52790000  1.0 -0.0179276271
C  C115  1  0.97050000  0.11390000  0.53440000  1.0 -0.1462120738
C  C116  1  0.45530000  0.62310000  0.38870000  1.0 0.6517706934
C  C117  1  0.78090000  0.39970000  0.17730000  1.0 -0.0813990448
C  C118  1  0.65140000  0.43300000  0.23040000  1.0 -0.0884899784
C  C119  1  0.66310000  0.41570000  0.34760000  1.0 0.5746858169
C  C120  1  0.80470000  0.12290000  0.57600000  1.0 -0.1202074241
C  C121  1  0.73180000  0.26740000  0.50290000  1.0 0.5783881295
C  C122  1  0.96140000  0.04680000  0.58170000  1.0 -0.0813990448
C  C123  1  0.42920000  0.68760000  0.32630000  1.0 -0.0179276271
C  C124  1  0.87770000  0.05210000  0.60470000  1.0 -0.0277335446
C  C125  1  0.86690000  0.98270000  0.65800000  1.0 0.475617205
C  C126  1  0.91240000  0.71740000  0.70020000  1.0 0.0721997593
C  C127  1  0.87100000  0.69020000  0.72220000  1.0 -0.2206480646
C  C128  1  0.69230000  0.83090000  0.69220000  1.0 -0.2298941773
N  N1  1  0.71220000  0.14900000  0.90120000  1.0 -0.2853684526
N  N2  1  0.14900000  0.71220000  0.59880000  1.0 -0.2853684526
N  N3  1  0.28780000  0.85100000  0.09880000  1.0 -0.2804676246
N  N4  1  0.85100000  0.28780000  0.40120000  1.0 -0.2804676246
O  O1  1  0.98790000  0.79210000  0.82180000  1.0 -0.1440632295
O  O2  1  0.91800000  0.93300000  0.81720000  1.0 -0.4899157685
O  O3  1  0.79550000  0.87730000  0.85090000  1.0 -0.1693645369
O  O4  1  0.79370000  0.77070000  0.83440000  1.0 -0.0884899784
O  O5  1  0.53010000  0.59790000  0.98740000  1.0 -0.7114453714
O  O6  1  0.63860000  0.56020000  0.92980000  1.0 -0.5726214301
O  O7  1  0.34410000  0.56290000  0.93820000  1.0 -0.6453234356
O  O8  1  0.45840000  0.50660000  0.88740000  1.0 -0.6413095247
O  O9  1  0.54080000  0.31020000  0.88940000  1.0 -0.5799147364
O  O10  1  0.62440000  0.40360000  0.85270000  1.0 -0.5889319878
O  O11  1  0.74990000  0.33910000  0.97330000  1.0 -0.5799147364
O  O12  1  0.65270000  0.26350000  0.01290000  1.0 -0.5889319878
O  O13  1  0.30400000  0.97400000  0.16900000  1.0 -0.1597836826
O  O14  1  0.92500000  0.78100000  0.81800000  1.0 -0.1070244878
O  O15  1  0.79210000  0.98790000  0.67820000  1.0 -0.1440632295
O  O16  1  0.93300000  0.91800000  0.68280000  1.0 -0.4899157685
O  O17  1  0.87730000  0.79550000  0.64910000  1.0 -0.1693645369
O  O18  1  0.77070000  0.79370000  0.66560000  1.0 -0.0884899784
O  O19  1  0.59790000  0.53010000  0.51260000  1.0 -0.7114453714
O  O20  1  0.56020000  0.63860000  0.57020000  1.0 -0.5726214301
O  O21  1  0.56290000  0.34410000  0.56180000  1.0 -0.6453234356
O  O22  1  0.50660000  0.45840000  0.61260000  1.0 -0.6413095247
O  O23  1  0.31020000  0.54080000  0.61060000  1.0 -0.5799147364
O  O24  1  0.40360000  0.62440000  0.64730000  1.0 -0.5889319878
O  O25  1  0.33910000  0.74990000  0.52670000  1.0 -0.5799147364
O  O26  1  0.26350000  0.65270000  0.48710000  1.0 -0.5889319878
O  O27  1  0.97400000  0.30400000  0.33100000  1.0 -0.1597836826
O  O28  1  0.78100000  0.92500000  0.68200000  1.0 -0.1070244878
O  O29  1  0.01210000  0.20790000  0.17820000  1.0 -0.1440632295
O  O30  1  0.08200000  0.06700000  0.18280000  1.0 -0.4899157685
O  O31  1  0.20450000  0.12270000  0.14910000  1.0 -0.1693645369
O  O32  1  0.20630000  0.22930000  0.16560000  1.0 -0.0884899784
O  O33  1  0.46990000  0.40210000  0.01260000  1.0 -0.7114453714
O  O34  1  0.36140000  0.43980000  0.07020000  1.0 -0.5726214301
O  O35  1  0.65590000  0.43710000  0.06180000  1.0 -0.6453234356
O  O36  1  0.54160000  0.49340000  0.11260000  1.0 -0.6413095247
O  O37  1  0.45920000  0.68980000  0.11060000  1.0 -0.5799147364
O  O38  1  0.37560000  0.59640000  0.14730000  1.0 -0.5889319878
O  O39  1  0.25010000  0.66090000  0.02670000  1.0 -0.5799147364
O  O40  1  0.34730000  0.73650000  0.98710000  1.0 -0.5889319878
O  O41  1  0.69600000  0.02600000  0.83100000  1.0 -0.1597836826
O  O42  1  0.07500000  0.21900000  0.18200000  1.0 -0.1070244878
O  O43  1  0.20790000  0.01210000  0.32180000  1.0 -0.1440632295
O  O44  1  0.06700000  0.08200000  0.31720000  1.0 -0.4899157685
O  O45  1  0.12270000  0.20450000  0.35090000  1.0 -0.1693645369
O  O46  1  0.22930000  0.20630000  0.33440000  1.0 -0.0884899784
O  O47  1  0.40210000  0.46990000  0.48740000  1.0 -0.7114453714
O  O48  1  0.43980000  0.36140000  0.42980000  1.0 -0.5726214301
O  O49  1  0.43710000  0.65590000  0.43820000  1.0 -0.6453234356
O  O50  1  0.49340000  0.54160000  0.38740000  1.0 -0.6413095247
O  O51  1  0.68980000  0.45920000  0.38940000  1.0 -0.5799147364
O  O52  1  0.59640000  0.37560000  0.35270000  1.0 -0.5889319878
O  O53  1  0.66090000  0.25010000  0.47330000  1.0 -0.5799147364
O  O54  1  0.73650000  0.34730000  0.51290000  1.0 -0.5889319878
O  O55  1  0.02600000  0.69600000  0.66900000  1.0 -0.1597836826
O  O56  1  0.21900000  0.07500000  0.31800000  1.0 -0.1070244878
