# DDEC6 charges by PACMAN v1.1 (https://github.com/mtap-research/PACMAN-charge/)
data_HUTTIA_ion_pacman
_symmetry_space_group_name_H-M   'P 1'
_cell_length_a   15.83300000
_cell_length_b   16.08600000
_cell_length_c   22.67000000
_cell_angle_alpha   90.00000000
_cell_angle_beta   90.00000000
_cell_angle_gamma   90.00000000
_symmetry_Int_Tables_number   1
_chemical_formula_structural   ZnH23C27N3O5F6
_chemical_formula_sum   'Zn8 H184 C216 N24 O40 F48'
_cell_volume   5773.81409346
_cell_formula_units_Z   8
loop_
 _symmetry_equiv_pos_site_id
 _symmetry_equiv_pos_as_xyz
  1  'x, y, z'
loop_
 _atom_site_type_symbol
 _atom_site_label
 _atom_site_symmetry_multiplicity
 _atom_site_fract_x
 _atom_site_fract_y
 _atom_site_fract_z
 _atom_site_occupancy
 _atom_site_charge
Zn  Zn1  1  0.31233000  0.43893000  0.74077000  1.0 0.8331216696
Zn  Zn2  1  0.81233000  0.56107000  0.25923000  1.0 0.8331216696
Zn  Zn3  1  0.31233000  0.56107000  0.24077000  1.0 0.8331216696
Zn  Zn4  1  0.81233000  0.43893000  0.75923000  1.0 0.8331216696
Zn  Zn5  1  0.16544000  0.55528000  0.74772000  1.0 0.8403506849
Zn  Zn6  1  0.66544000  0.44472000  0.25228000  1.0 0.8403506849
Zn  Zn7  1  0.16544000  0.44472000  0.24772000  1.0 0.8403506849
Zn  Zn8  1  0.66544000  0.55528000  0.75228000  1.0 0.8403506849
H  H1  1  0.22180000  0.28140000  0.88230000  1.0 0.1206753198
H  H2  1  0.72180000  0.71860000  0.11770000  1.0 0.1206753198
H  H3  1  0.22180000  0.71860000  0.38230000  1.0 0.1206753198
H  H4  1  0.72180000  0.28140000  0.61770000  1.0 0.1206753198
H  H5  1  0.15920000  0.19830000  0.95430000  1.0 0.1206753198
H  H6  1  0.65920000  0.80170000  0.04570000  1.0 0.1206753198
H  H7  1  0.15920000  0.80170000  0.45430000  1.0 0.1206753198
H  H8  1  0.65920000  0.19830000  0.54570000  1.0 0.1206753198
H  H9  1  0.96100000  0.35770000  0.96100000  1.0 0.1206753198
H  H10  1  0.46100000  0.64230000  0.03900000  1.0 0.1206753198
H  H11  1  0.96100000  0.64230000  0.46100000  1.0 0.1206753198
H  H12  1  0.46100000  0.35770000  0.53900000  1.0 0.1206753198
H  H13  1  0.02210000  0.43700000  0.88790000  1.0 0.1206753198
H  H14  1  0.52210000  0.56300000  0.11210000  1.0 0.1206753198
H  H15  1  0.02210000  0.56300000  0.38790000  1.0 0.1206753198
H  H16  1  0.52210000  0.43700000  0.61210000  1.0 0.1206753198
H  H17  1  0.06070000  0.34240000  0.07180000  1.0 0.1287462719
H  H18  1  0.56070000  0.65760000  0.92820000  1.0 0.1206753198
H  H19  1  0.06070000  0.65760000  0.57180000  1.0 0.1206753198
H  H20  1  0.56070000  0.34240000  0.42820000  1.0 0.1287462719
H  H21  1  0.99570000  0.42940000  0.14100000  1.0 0.1206753198
H  H22  1  0.49570000  0.57060000  0.85900000  1.0 0.1206753198
H  H23  1  0.99570000  0.57060000  0.64100000  1.0 0.1206753198
H  H24  1  0.49570000  0.42940000  0.35900000  1.0 0.1206753198
H  H25  1  0.77980000  0.29580000  0.12560000  1.0 0.1206753198
H  H26  1  0.27980000  0.70420000  0.87440000  1.0 0.1206753198
H  H27  1  0.77980000  0.70420000  0.62560000  1.0 0.1206753198
H  H28  1  0.27980000  0.29580000  0.37440000  1.0 0.1206753198
H  H29  1  0.84470000  0.21120000  0.05540000  1.0 0.1206753198
H  H30  1  0.34470000  0.78880000  0.94460000  1.0 0.1206753198
H  H31  1  0.84470000  0.78880000  0.55540000  1.0 0.1206753198
H  H32  1  0.34470000  0.21120000  0.44460000  1.0 0.1206753198
H  H33  1  0.24470000  0.71580000  0.61060000  1.0 0.1206753198
H  H34  1  0.74470000  0.28420000  0.38940000  1.0 0.1206753198
H  H35  1  0.24470000  0.28420000  0.11060000  1.0 0.1206753198
H  H36  1  0.74470000  0.71580000  0.88940000  1.0 0.1206753198
H  H37  1  0.30030000  0.80580000  0.53890000  1.0 0.1112582195
H  H38  1  0.80030000  0.19420000  0.46110000  1.0 0.1112582195
H  H39  1  0.30030000  0.19420000  0.03890000  1.0 0.1112582195
H  H40  1  0.80030000  0.80580000  0.96110000  1.0 0.1112582195
H  H41  1  0.51810000  0.67060000  0.54040000  1.0 0.1287462719
H  H42  1  0.01810000  0.32940000  0.45960000  1.0 0.1287462719
H  H43  1  0.51810000  0.32940000  0.04040000  1.0 0.1287462719
H  H44  1  0.01810000  0.67060000  0.95960000  1.0 0.1287462719
H  H45  1  0.45990000  0.58070000  0.60960000  1.0 0.1206753198
H  H46  1  0.95990000  0.41930000  0.39040000  1.0 0.1206753198
H  H47  1  0.45990000  0.41930000  0.10960000  1.0 0.1206753198
H  H48  1  0.95990000  0.58070000  0.89040000  1.0 0.1206753198
H  H49  1  0.41020000  0.67490000  0.42460000  1.0 0.1112582195
H  H50  1  0.91020000  0.32510000  0.57540000  1.0 0.1112582195
H  H51  1  0.41020000  0.32510000  0.92460000  1.0 0.1112582195
H  H52  1  0.91020000  0.67490000  0.07540000  1.0 0.1112582195
H  H53  1  0.48080000  0.58750000  0.35990000  1.0 0.1206753198
H  H54  1  0.98080000  0.41250000  0.64010000  1.0 0.1206753198
H  H55  1  0.48080000  0.41250000  0.85990000  1.0 0.1206753198
H  H56  1  0.98080000  0.58750000  0.14010000  1.0 0.1206753198
H  H57  1  0.69200000  0.72380000  0.37960000  1.0 0.1206753198
H  H58  1  0.19200000  0.27620000  0.62040000  1.0 0.1206753198
H  H59  1  0.69200000  0.27620000  0.87960000  1.0 0.1206753198
H  H60  1  0.19200000  0.72380000  0.12040000  1.0 0.1206753198
H  H61  1  0.62230000  0.81300000  0.44360000  1.0 0.1287462719
H  H62  1  0.12230000  0.18700000  0.55640000  1.0 0.1206753198
H  H63  1  0.62230000  0.18700000  0.94360000  1.0 0.1206753198
H  H64  1  0.12230000  0.81300000  0.05640000  1.0 0.1206753198
H  H65  1  0.27700000  0.26650000  0.72660000  1.0 0.1206753198
H  H66  1  0.77700000  0.73350000  0.27340000  1.0 0.1206753198
H  H67  1  0.27700000  0.73350000  0.22660000  1.0 0.1206753198
H  H68  1  0.77700000  0.26650000  0.77340000  1.0 0.1206753198
H  H69  1  0.34050000  0.13750000  0.71360000  1.0 0.1287462719
H  H70  1  0.84050000  0.86250000  0.28640000  1.0 0.1287462719
H  H71  1  0.34050000  0.86250000  0.21360000  1.0 0.1287462719
H  H72  1  0.84050000  0.13750000  0.78640000  1.0 0.1287462719
H  H73  1  0.56720000  0.25060000  0.72810000  1.0 0.1417117324
H  H74  1  0.06720000  0.74940000  0.27190000  1.0 0.1417117324
H  H75  1  0.56720000  0.74940000  0.22810000  1.0 0.1417117324
H  H76  1  0.06720000  0.25060000  0.77190000  1.0 0.1417117324
H  H77  1  0.49660000  0.37850000  0.73510000  1.0 0.1112582195
H  H78  1  0.99660000  0.62150000  0.26490000  1.0 0.1112582195
H  H79  1  0.49660000  0.62150000  0.23510000  1.0 0.1112582195
H  H80  1  0.99660000  0.37850000  0.76490000  1.0 0.1112582195
H  H81  1  0.56330000  0.09500000  0.71910000  1.0 0.1112582195
H  H82  1  0.06330000  0.90500000  0.28090000  1.0 0.1112582195
H  H83  1  0.56330000  0.90500000  0.21910000  1.0 0.1112582195
H  H84  1  0.06330000  0.09500000  0.78090000  1.0 0.1112582195
H  H85  1  0.41050000  0.89390000  0.72540000  1.0 0.1003331906
H  H86  1  0.91050000  0.10610000  0.27460000  1.0 0.1003331906
H  H87  1  0.41050000  0.10610000  0.22540000  1.0 0.1003331906
H  H88  1  0.91050000  0.89390000  0.77460000  1.0 0.1003331906
H  H89  1  0.41110000  0.73860000  0.72340000  1.0 0.1417117324
H  H90  1  0.91110000  0.26140000  0.27660000  1.0 0.1417117324
H  H91  1  0.41110000  0.26140000  0.22340000  1.0 0.1417117324
H  H92  1  0.91110000  0.73860000  0.77660000  1.0 0.1417117324
H  H93  1  0.48150000  0.61400000  0.73100000  1.0 0.1206753198
H  H94  1  0.98150000  0.38600000  0.26900000  1.0 0.1206753198
H  H95  1  0.48150000  0.38600000  0.23100000  1.0 0.1206753198
H  H96  1  0.98150000  0.61400000  0.76900000  1.0 0.1206753198
H  H97  1  0.69840000  0.73300000  0.75060000  1.0 0.1112582195
H  H98  1  0.19840000  0.26700000  0.24940000  1.0 0.1112582195
H  H99  1  0.69840000  0.26700000  0.25060000  1.0 0.1112582195
H  H100  1  0.19840000  0.73300000  0.74940000  1.0 0.1112582195
H  H101  1  0.63290000  0.85920000  0.74120000  1.0 0.1417117324
H  H102  1  0.13290000  0.14080000  0.25880000  1.0 0.1417117324
H  H103  1  0.63290000  0.14080000  0.24120000  1.0 0.1417117324
H  H104  1  0.13290000  0.85920000  0.75880000  1.0 0.1417117324
H  H105  1  0.19000000  0.45320000  0.41080000  1.0 0.1003331906
H  H106  1  0.30120000  0.54250000  0.42040000  1.0 0.1417117324
H  H107  1  0.36800000  0.51830000  0.47040000  1.0 0.1417117324
H  H108  1  0.29790000  0.58760000  0.48330000  1.0 0.1287462719
H  H109  1  0.33700000  0.44680000  0.54790000  1.0 0.1003331906
H  H110  1  0.26120000  0.38120000  0.54420000  1.0 0.1112582195
H  H111  1  0.24540000  0.47110000  0.57230000  1.0 0.0896524251
H  H112  1  0.19230000  0.56770000  0.52310000  1.0 0.1003331906
H  H113  1  0.24210000  0.50980000  0.56880000  1.0 0.1003331906
H  H114  1  0.15490000  0.47870000  0.54070000  1.0 0.1112582195
H  H115  1  0.69000000  0.54680000  0.58920000  1.0 0.1003331906
H  H116  1  0.80120000  0.45750000  0.57960000  1.0 0.1417117324
H  H117  1  0.86800000  0.48170000  0.52960000  1.0 0.1417117324
H  H118  1  0.79790000  0.41240000  0.51670000  1.0 0.1287462719
H  H119  1  0.83700000  0.55320000  0.45210000  1.0 0.1003331906
H  H120  1  0.76120000  0.61880000  0.45580000  1.0 0.1112582195
H  H121  1  0.74540000  0.52890000  0.42770000  1.0 0.0896524251
H  H122  1  0.69230000  0.43230000  0.47690000  1.0 0.1003331906
H  H123  1  0.74210000  0.49020000  0.43120000  1.0 0.1003331906
H  H124  1  0.65490000  0.52130000  0.45930000  1.0 0.1112582195
H  H125  1  0.19000000  0.54680000  0.91080000  1.0 0.1003331906
H  H126  1  0.30120000  0.45750000  0.92040000  1.0 0.1417117324
H  H127  1  0.36800000  0.48170000  0.97040000  1.0 0.1417117324
H  H128  1  0.29790000  0.41240000  0.98330000  1.0 0.1287462719
H  H129  1  0.33700000  0.55320000  0.04790000  1.0 0.1003331906
H  H130  1  0.26120000  0.61880000  0.04420000  1.0 0.1112582195
H  H131  1  0.24540000  0.52890000  0.07230000  1.0 0.0896524251
H  H132  1  0.19230000  0.43230000  0.02310000  1.0 0.1003331906
H  H133  1  0.24210000  0.49020000  0.06880000  1.0 0.1003331906
H  H134  1  0.15490000  0.52130000  0.04070000  1.0 0.1112582195
H  H135  1  0.69000000  0.45320000  0.08920000  1.0 0.1003331906
H  H136  1  0.80120000  0.54250000  0.07960000  1.0 0.1417117324
H  H137  1  0.86800000  0.51830000  0.02960000  1.0 0.1417117324
H  H138  1  0.79790000  0.58760000  0.01670000  1.0 0.1287462719
H  H139  1  0.83700000  0.44680000  0.95210000  1.0 0.1003331906
H  H140  1  0.76120000  0.38120000  0.95580000  1.0 0.1112582195
H  H141  1  0.74540000  0.47110000  0.92770000  1.0 0.0896524251
H  H142  1  0.69230000  0.56770000  0.97690000  1.0 0.1003331906
H  H143  1  0.74210000  0.50980000  0.93120000  1.0 0.1003331906
H  H144  1  0.65490000  0.47870000  0.95930000  1.0 0.1112582195
H  H145  1  0.80510000  0.94910000  0.21430000  1.0 0.0896524251
H  H146  1  0.86090000  0.03360000  0.16140000  1.0 0.1112582195
H  H147  1  0.79410000  0.10740000  0.16980000  1.0 0.1206753198
H  H148  1  0.81760000  0.07550000  0.10500000  1.0 0.1287462719
H  H149  1  0.64250000  0.93420000  0.11780000  1.0 0.1206753198
H  H150  1  0.68490000  0.99570000  0.07100000  1.0 0.1206753198
H  H151  1  0.62660000  0.03220000  0.12240000  1.0 0.1112582195
H  H152  1  0.73450000  0.11490000  0.12140000  1.0 0.1112582195
H  H153  1  0.82400000  0.07130000  0.11030000  1.0 0.1287462719
H  H154  1  0.79810000  0.10060000  0.17530000  1.0 0.1206753198
H  H155  1  0.30510000  0.05090000  0.78570000  1.0 0.0896524251
H  H156  1  0.36090000  0.96640000  0.83860000  1.0 0.1112582195
H  H157  1  0.29410000  0.89260000  0.83020000  1.0 0.1206753198
H  H158  1  0.31760000  0.92450000  0.89500000  1.0 0.1287462719
H  H159  1  0.14250000  0.06580000  0.88220000  1.0 0.1206753198
H  H160  1  0.18490000  0.00430000  0.92900000  1.0 0.1206753198
H  H161  1  0.12660000  0.96780000  0.87760000  1.0 0.1112582195
H  H162  1  0.23450000  0.88510000  0.87860000  1.0 0.1112582195
H  H163  1  0.32400000  0.92870000  0.88970000  1.0 0.1287462719
H  H164  1  0.29810000  0.89940000  0.82470000  1.0 0.1206753198
H  H165  1  0.80510000  0.05090000  0.71430000  1.0 0.0896524251
H  H166  1  0.86090000  0.96640000  0.66140000  1.0 0.1112582195
H  H167  1  0.79410000  0.89260000  0.66980000  1.0 0.1206753198
H  H168  1  0.81760000  0.92450000  0.60500000  1.0 0.1287462719
H  H169  1  0.64250000  0.06580000  0.61780000  1.0 0.1206753198
H  H170  1  0.68490000  0.00430000  0.57100000  1.0 0.1206753198
H  H171  1  0.62660000  0.96780000  0.62240000  1.0 0.1112582195
H  H172  1  0.73450000  0.88510000  0.62140000  1.0 0.1112582195
H  H173  1  0.82400000  0.92870000  0.61030000  1.0 0.1287462719
H  H174  1  0.79810000  0.89940000  0.67530000  1.0 0.1206753198
H  H175  1  0.30510000  0.94910000  0.28570000  1.0 0.0896524251
H  H176  1  0.36090000  0.03360000  0.33860000  1.0 0.1112582195
H  H177  1  0.29410000  0.10740000  0.33020000  1.0 0.1206753198
H  H178  1  0.31760000  0.07550000  0.39500000  1.0 0.1287462719
H  H179  1  0.14250000  0.93420000  0.38220000  1.0 0.1206753198
H  H180  1  0.18490000  0.99570000  0.42900000  1.0 0.1206753198
H  H181  1  0.12660000  0.03220000  0.37760000  1.0 0.1112582195
H  H182  1  0.23450000  0.11490000  0.37860000  1.0 0.1112582195
H  H183  1  0.32400000  0.07130000  0.38970000  1.0 0.1287462719
H  H184  1  0.29810000  0.10060000  0.32470000  1.0 0.1206753198
C  C1  1  0.16620000  0.42030000  0.83030000  1.0 0.5597504301
C  C2  1  0.66620000  0.57970000  0.16970000  1.0 0.5597504301
C  C3  1  0.16620000  0.57970000  0.33030000  1.0 0.5597504301
C  C4  1  0.66620000  0.42030000  0.66970000  1.0 0.5597504301
C  C5  1  0.12930000  0.36770000  0.87700000  1.0 -0.0708815109
C  C6  1  0.62930000  0.63230000  0.12300000  1.0 -0.0708815109
C  C7  1  0.12930000  0.63230000  0.37700000  1.0 -0.0708815109
C  C8  1  0.62930000  0.36770000  0.62300000  1.0 -0.0708815109
C  C9  1  0.16830000  0.29680000  0.89790000  1.0 -0.0797261995
C  C10  1  0.66830000  0.70320000  0.10210000  1.0 -0.0797261995
C  C11  1  0.16830000  0.70320000  0.39790000  1.0 -0.0797261995
C  C12  1  0.66830000  0.29680000  0.60210000  1.0 -0.0797261995
C  C13  1  0.13130000  0.24720000  0.94110000  1.0 -0.1627021011
C  C14  1  0.63130000  0.75280000  0.05890000  1.0 -0.1627021011
C  C15  1  0.13130000  0.75280000  0.44110000  1.0 -0.1627021011
C  C16  1  0.63130000  0.24720000  0.55890000  1.0 -0.1627021011
C  C17  1  0.05370000  0.26920000  0.96480000  1.0 0.0896524251
C  C18  1  0.55370000  0.73080000  0.03520000  1.0 0.0896524251
C  C19  1  0.05370000  0.73080000  0.46480000  1.0 0.0896524251
C  C20  1  0.55370000  0.26920000  0.53520000  1.0 0.0896524251
C  C21  1  0.01370000  0.34140000  0.94470000  1.0 -0.1470352102
C  C22  1  0.51370000  0.65860000  0.05530000  1.0 -0.1470352102
C  C23  1  0.01370000  0.65860000  0.44470000  1.0 -0.1470352102
C  C24  1  0.51370000  0.34140000  0.55530000  1.0 -0.1470352102
C  C25  1  0.05050000  0.38870000  0.90160000  1.0 -0.0997052937
C  C26  1  0.55050000  0.61130000  0.09840000  1.0 -0.0997052937
C  C27  1  0.05050000  0.61130000  0.40160000  1.0 -0.0997052937
C  C28  1  0.55050000  0.38870000  0.59840000  1.0 -0.0997052937
C  C29  1  0.00570000  0.21360000  0.00990000  1.0 -0.2791024995
C  C30  1  0.50570000  0.78640000  0.99010000  1.0 -0.2791024995
C  C31  1  0.00570000  0.78640000  0.50990000  1.0 -0.2791024995
C  C32  1  0.50570000  0.21360000  0.49010000  1.0 -0.2791024995
C  C33  1  0.94480000  0.15890000  0.97390000  1.0 0.6494302947
C  C34  1  0.44480000  0.84110000  0.02610000  1.0 0.6494302947
C  C35  1  0.94480000  0.84110000  0.47390000  1.0 0.6494302947
C  C36  1  0.44480000  0.15890000  0.52610000  1.0 0.6494302947
C  C37  1  0.06410000  0.15520000  0.04520000  1.0 0.6582264427
C  C38  1  0.56410000  0.84480000  0.95480000  1.0 0.6582264427
C  C39  1  0.06410000  0.84480000  0.54520000  1.0 0.6582264427
C  C40  1  0.56410000  0.15520000  0.45480000  1.0 0.6582264427
C  C41  1  0.95960000  0.26790000  0.05560000  1.0 0.0705050408
C  C42  1  0.45960000  0.73210000  0.94440000  1.0 0.0705050408
C  C43  1  0.95960000  0.73210000  0.55560000  1.0 0.0705050408
C  C44  1  0.45960000  0.26790000  0.44440000  1.0 0.0705050408
C  C45  1  0.00330000  0.33300000  0.08220000  1.0 -0.1470352102
C  C46  1  0.50330000  0.66700000  0.91780000  1.0 -0.1470352102
C  C47  1  0.00330000  0.66700000  0.58220000  1.0 -0.1470352102
C  C48  1  0.50330000  0.33300000  0.41780000  1.0 -0.1470352102
C  C49  1  0.96510000  0.38470000  0.12380000  1.0 -0.0997052937
C  C50  1  0.46510000  0.61530000  0.87620000  1.0 -0.0997052937
C  C51  1  0.96510000  0.61530000  0.62380000  1.0 -0.0997052937
C  C52  1  0.46510000  0.38470000  0.37620000  1.0 -0.0997052937
C  C53  1  0.88210000  0.37030000  0.13970000  1.0 -0.0320850516
C  C54  1  0.38210000  0.62970000  0.86030000  1.0 -0.0320850516
C  C55  1  0.88210000  0.62970000  0.63970000  1.0 -0.0320850516
C  C56  1  0.38210000  0.37030000  0.36030000  1.0 -0.0320850516
C  C57  1  0.83680000  0.30560000  0.11450000  1.0 -0.1293665681
C  C58  1  0.33680000  0.69440000  0.88550000  1.0 -0.1293665681
C  C59  1  0.83680000  0.69440000  0.61450000  1.0 -0.1293665681
C  C60  1  0.33680000  0.30560000  0.38550000  1.0 -0.1293665681
C  C61  1  0.87580000  0.25530000  0.07280000  1.0 -0.1803443779
C  C62  1  0.37580000  0.74470000  0.92720000  1.0 -0.1890347946
C  C63  1  0.87580000  0.74470000  0.57280000  1.0 -0.1890347946
C  C64  1  0.37580000  0.25530000  0.42720000  1.0 -0.1890347946
C  C65  1  0.83800000  0.42620000  0.18370000  1.0 0.5597504301
C  C66  1  0.33800000  0.57380000  0.81630000  1.0 0.5597504301
C  C67  1  0.83800000  0.57380000  0.68370000  1.0 0.5597504301
C  C68  1  0.33800000  0.42620000  0.31630000  1.0 0.5597504301
C  C69  1  0.30710000  0.58150000  0.66160000  1.0 0.5597504301
C  C70  1  0.80710000  0.41850000  0.33840000  1.0 0.5597504301
C  C71  1  0.30710000  0.41850000  0.16160000  1.0 0.5597504301
C  C72  1  0.80710000  0.58150000  0.83840000  1.0 0.5597504301
C  C73  1  0.34620000  0.63930000  0.61550000  1.0 -0.0416178692
C  C74  1  0.84620000  0.36070000  0.38450000  1.0 -0.0416178692
C  C75  1  0.34620000  0.36070000  0.11550000  1.0 -0.0416178692
C  C76  1  0.84620000  0.63930000  0.88450000  1.0 -0.0416178692
C  C77  1  0.29980000  0.70640000  0.59540000  1.0 -0.1106762913
C  C78  1  0.79980000  0.29360000  0.40460000  1.0 -0.1106762913
C  C79  1  0.29980000  0.29360000  0.09540000  1.0 -0.1106762913
C  C80  1  0.79980000  0.70640000  0.90460000  1.0 -0.1106762913
C  C81  1  0.33290000  0.76040000  0.55300000  1.0 -0.172441664
C  C82  1  0.83290000  0.23960000  0.44700000  1.0 -0.172441664
C  C83  1  0.33290000  0.23960000  0.05300000  1.0 -0.172441664
C  C84  1  0.83290000  0.76040000  0.94700000  1.0 -0.172441664
C  C85  1  0.41520000  0.74670000  0.53160000  1.0 0.0896524251
C  C86  1  0.91520000  0.25330000  0.46840000  1.0 0.0896524251
C  C87  1  0.41520000  0.25330000  0.03160000  1.0 0.0896524251
C  C88  1  0.91520000  0.74670000  0.96840000  1.0 0.0896524251
C  C89  1  0.46210000  0.67950000  0.55390000  1.0 -0.1410203975
C  C90  1  0.96210000  0.32050000  0.44610000  1.0 -0.1410203975
C  C91  1  0.46210000  0.32050000  0.05390000  1.0 -0.1410203975
C  C92  1  0.96210000  0.67950000  0.94610000  1.0 -0.1410203975
C  C93  1  0.42780000  0.62620000  0.59520000  1.0 -0.0997052937
C  C94  1  0.92780000  0.37380000  0.40480000  1.0 -0.0997052937
C  C95  1  0.42780000  0.37380000  0.09520000  1.0 -0.0997052937
C  C96  1  0.92780000  0.62620000  0.90480000  1.0 -0.0997052937
C  C97  1  0.45840000  0.80440000  0.48640000  1.0 -0.2791024995
C  C98  1  0.95840000  0.19560000  0.51360000  1.0 -0.2791024995
C  C99  1  0.45840000  0.19560000  0.98640000  1.0 -0.2791024995
C  C100  1  0.95840000  0.80440000  0.01360000  1.0 -0.2791024995
C  C101  1  0.51670000  0.86350000  0.52330000  1.0 0.6582264427
C  C102  1  0.01670000  0.13650000  0.47670000  1.0 0.6582264427
C  C103  1  0.51670000  0.13650000  0.02330000  1.0 0.6582264427
C  C104  1  0.01670000  0.86350000  0.97670000  1.0 0.6582264427
C  C105  1  0.39560000  0.85760000  0.45110000  1.0 0.6494302947
C  C106  1  0.89560000  0.14240000  0.54890000  1.0 0.6494302947
C  C107  1  0.39560000  0.14240000  0.95110000  1.0 0.6494302947
C  C108  1  0.89560000  0.85760000  0.04890000  1.0 0.6494302947
C  C109  1  0.51000000  0.75160000  0.44250000  1.0 0.0896524251
C  C110  1  0.01000000  0.24840000  0.55750000  1.0 0.0896524251
C  C111  1  0.51000000  0.24840000  0.94250000  1.0 0.0896524251
C  C112  1  0.01000000  0.75160000  0.05750000  1.0 0.0896524251
C  C113  1  0.46810000  0.68450000  0.41600000  1.0 -0.1410203975
C  C114  1  0.96810000  0.31550000  0.58400000  1.0 -0.1410203975
C  C115  1  0.46810000  0.31550000  0.91600000  1.0 -0.1410203975
C  C116  1  0.96810000  0.68450000  0.08400000  1.0 -0.1410203975
C  C117  1  0.51000000  0.63260000  0.37770000  1.0 -0.0997052937
C  C118  1  0.01000000  0.36740000  0.62230000  1.0 -0.0997052937
C  C119  1  0.51000000  0.36740000  0.87770000  1.0 -0.0997052937
C  C120  1  0.01000000  0.63260000  0.12230000  1.0 -0.0997052937
C  C121  1  0.59510000  0.64570000  0.36480000  1.0 -0.0416178692
C  C122  1  0.09510000  0.35430000  0.63520000  1.0 -0.0416178692
C  C123  1  0.59510000  0.35430000  0.86480000  1.0 -0.0416178692
C  C124  1  0.09510000  0.64570000  0.13520000  1.0 -0.0416178692
C  C125  1  0.63460000  0.71320000  0.38920000  1.0 -0.0906899896
C  C126  1  0.13460000  0.28680000  0.61080000  1.0 -0.0906899896
C  C127  1  0.63460000  0.28680000  0.88920000  1.0 -0.0906899896
C  C128  1  0.13460000  0.71320000  0.11080000  1.0 -0.0906899896
C  C129  1  0.59340000  0.76640000  0.42750000  1.0 -0.1293665681
C  C130  1  0.09340000  0.23360000  0.57250000  1.0 -0.1293665681
C  C131  1  0.59340000  0.23360000  0.92750000  1.0 -0.1293665681
C  C132  1  0.09340000  0.76640000  0.07250000  1.0 -0.1293665681
C  C133  1  0.64200000  0.58640000  0.32590000  1.0 0.5672664616
C  C134  1  0.14200000  0.41360000  0.67410000  1.0 0.5672664616
C  C135  1  0.64200000  0.41360000  0.82590000  1.0 0.5672664616
C  C136  1  0.14200000  0.58640000  0.17410000  1.0 0.5672664616
C  C137  1  0.33690000  0.26300000  0.72590000  1.0 0.1003331906
C  C138  1  0.83690000  0.73700000  0.27410000  1.0 0.1003331906
C  C139  1  0.33690000  0.73700000  0.22590000  1.0 0.1003331906
C  C140  1  0.83690000  0.26300000  0.77410000  1.0 0.1003331906
C  C141  1  0.37420000  0.18560000  0.71950000  1.0 -0.172441664
C  C142  1  0.87420000  0.81440000  0.28050000  1.0 -0.172441664
C  C143  1  0.37420000  0.81440000  0.21950000  1.0 -0.172441664
C  C144  1  0.87420000  0.18560000  0.78050000  1.0 -0.172441664
C  C145  1  0.46160000  0.17970000  0.72180000  1.0 0.1287462719
C  C146  1  0.96160000  0.82030000  0.27820000  1.0 0.1287462719
C  C147  1  0.46160000  0.82030000  0.22180000  1.0 0.1287462719
C  C148  1  0.96160000  0.17970000  0.77820000  1.0 0.1287462719
C  C149  1  0.50720000  0.25220000  0.72730000  1.0 -0.1890347946
C  C150  1  0.00720000  0.74780000  0.27270000  1.0 -0.1890347946
C  C151  1  0.50720000  0.74780000  0.22730000  1.0 -0.1890347946
C  C152  1  0.00720000  0.25220000  0.77270000  1.0 -0.1890347946
C  C153  1  0.46470000  0.32880000  0.73170000  1.0 0.0896524251
C  C154  1  0.96470000  0.67120000  0.26830000  1.0 0.0896524251
C  C155  1  0.46470000  0.67120000  0.23170000  1.0 0.0896524251
C  C156  1  0.96470000  0.32880000  0.76830000  1.0 0.1003331906
C  C157  1  0.50350000  0.09830000  0.72060000  1.0 0.0269617439
C  C158  1  0.00350000  0.90170000  0.27940000  1.0 0.0269617439
C  C159  1  0.50350000  0.90170000  0.22060000  1.0 0.0269617439
C  C160  1  0.00350000  0.09830000  0.77940000  1.0 0.0269617439
C  C161  1  0.47050000  0.89260000  0.72640000  1.0 -0.0081548035
C  C162  1  0.97050000  0.10740000  0.27360000  1.0 -0.0081548035
C  C163  1  0.47050000  0.10740000  0.22640000  1.0 -0.0081548035
C  C164  1  0.97050000  0.89260000  0.77360000  1.0 -0.0081548035
C  C165  1  0.51470000  0.81250000  0.73140000  1.0 0.1287462719
C  C166  1  0.01470000  0.18750000  0.26860000  1.0 0.1287462719
C  C167  1  0.51470000  0.18750000  0.23140000  1.0 0.1287462719
C  C168  1  0.01470000  0.81250000  0.76860000  1.0 0.1287462719
C  C169  1  0.47060000  0.73820000  0.72870000  1.0 -0.1890347946
C  C170  1  0.97060000  0.26180000  0.27130000  1.0 -0.1890347946
C  C171  1  0.47060000  0.26180000  0.22870000  1.0 -0.1890347946
C  C172  1  0.97060000  0.73820000  0.77130000  1.0 -0.1890347946
C  C173  1  0.51250000  0.66440000  0.73370000  1.0 0.0896524251
C  C174  1  0.01250000  0.33560000  0.26630000  1.0 0.0896524251
C  C175  1  0.51250000  0.33560000  0.23370000  1.0 0.0896524251
C  C176  1  0.01250000  0.66440000  0.76630000  1.0 0.0896524251
C  C177  1  0.63900000  0.73440000  0.74480000  1.0 0.0705050408
C  C178  1  0.13900000  0.26560000  0.25520000  1.0 0.0705050408
C  C179  1  0.63900000  0.26560000  0.24480000  1.0 0.0705050408
C  C180  1  0.13900000  0.73440000  0.75520000  1.0 0.0705050408
C  C181  1  0.60070000  0.80940000  0.73940000  1.0 -0.1803443779
C  C182  1  0.10070000  0.19060000  0.26060000  1.0 -0.1803443779
C  C183  1  0.60070000  0.19060000  0.23940000  1.0 -0.1803443779
C  C184  1  0.10070000  0.80940000  0.76060000  1.0 -0.1803443779
C  C185  1  0.19780000  0.43300000  0.44980000  1.0 0.2286498632
C  C186  1  0.30950000  0.53510000  0.46290000  1.0 -0.379670414
C  C187  1  0.27600000  0.44020000  0.54180000  1.0 -0.1803443779
C  C188  1  0.20700000  0.51000000  0.53330000  1.0 -0.1991873279
C  C189  1  0.69780000  0.56700000  0.55020000  1.0 0.2286498632
C  C190  1  0.80950000  0.46490000  0.53710000  1.0 -0.379670414
C  C191  1  0.77600000  0.55980000  0.45820000  1.0 -0.1803443779
C  C192  1  0.70700000  0.49000000  0.46670000  1.0 -0.1991873279
C  C193  1  0.19780000  0.56700000  0.94980000  1.0 0.2286498632
C  C194  1  0.30950000  0.46490000  0.96290000  1.0 -0.379670414
C  C195  1  0.27600000  0.55980000  0.04180000  1.0 -0.1803443779
C  C196  1  0.20700000  0.49000000  0.03330000  1.0 -0.1991873279
C  C197  1  0.69780000  0.43300000  0.05020000  1.0 0.2286498632
C  C198  1  0.80950000  0.53510000  0.03710000  1.0 -0.379670414
C  C199  1  0.77600000  0.44020000  0.95820000  1.0 -0.1803443779
C  C200  1  0.70700000  0.51000000  0.96670000  1.0 -0.1991873279
C  C201  1  0.75540000  0.94160000  0.19140000  1.0 0.152050716
C  C202  1  0.80900000  0.05900000  0.14610000  1.0 -0.1803443779
C  C203  1  0.66790000  0.98920000  0.11230000  1.0 -0.3544847396
C  C204  1  0.77700000  0.07740000  0.13810000  1.0 -0.1890347946
C  C205  1  0.25540000  0.05840000  0.80860000  1.0 0.152050716
C  C206  1  0.30900000  0.94100000  0.85390000  1.0 -0.1803443779
C  C207  1  0.16790000  0.01080000  0.88770000  1.0 -0.3544847396
C  C208  1  0.27700000  0.92260000  0.86190000  1.0 -0.1890347946
C  C209  1  0.75540000  0.05840000  0.69140000  1.0 0.152050716
C  C210  1  0.80900000  0.94100000  0.64610000  1.0 -0.1803443779
C  C211  1  0.66790000  0.01080000  0.61230000  1.0 -0.3544847396
C  C212  1  0.77700000  0.92260000  0.63810000  1.0 -0.1890347946
C  C213  1  0.25540000  0.94160000  0.30860000  1.0 0.152050716
C  C214  1  0.30900000  0.05900000  0.35390000  1.0 -0.1803443779
C  C215  1  0.16790000  0.98920000  0.38770000  1.0 -0.3544847396
C  C216  1  0.27700000  0.07740000  0.36190000  1.0 -0.1890347946
N  N1  1  0.38150000  0.33290000  0.73120000  1.0 -0.2213317033
N  N2  1  0.88150000  0.66710000  0.26880000  1.0 -0.2213317033
N  N3  1  0.38150000  0.66710000  0.23120000  1.0 -0.2213317033
N  N4  1  0.88150000  0.33290000  0.76880000  1.0 -0.2213317033
N  N5  1  0.45910000  0.03180000  0.72180000  1.0 -0.1991873279
N  N6  1  0.95910000  0.96820000  0.27820000  1.0 -0.1991873279
N  N7  1  0.45910000  0.96820000  0.22180000  1.0 -0.1991873279
N  N8  1  0.95910000  0.03180000  0.77820000  1.0 -0.1991873279
N  N9  1  0.51260000  0.96120000  0.72340000  1.0 -0.172441664
N  N10  1  0.01260000  0.03880000  0.27660000  1.0 -0.172441664
N  N11  1  0.51260000  0.03880000  0.22340000  1.0 -0.172441664
N  N12  1  0.01260000  0.96120000  0.77660000  1.0 -0.172441664
N  N13  1  0.59640000  0.66130000  0.74230000  1.0 -0.2213317033
N  N14  1  0.09640000  0.33870000  0.25770000  1.0 -0.2213317033
N  N15  1  0.59640000  0.33870000  0.24230000  1.0 -0.2213317033
N  N16  1  0.09640000  0.66130000  0.75770000  1.0 -0.2213317033
N  N17  1  0.25330000  0.47200000  0.48420000  1.0 0.0896524251
N  N18  1  0.75330000  0.52800000  0.51580000  1.0 0.0896524251
N  N19  1  0.25330000  0.52800000  0.98420000  1.0 0.0896524251
N  N20  1  0.75330000  0.47200000  0.01580000  1.0 0.0896524251
N  N21  1  0.73950000  0.99700000  0.14910000  1.0 0.0358484845
N  N22  1  0.23950000  0.00300000  0.85090000  1.0 0.0358484845
N  N23  1  0.73950000  0.00300000  0.64910000  1.0 0.0358484845
N  N24  1  0.23950000  0.99700000  0.35090000  1.0 0.0358484845
O  O1  1  0.23710000  0.39590000  0.80900000  1.0 -0.5665349788
O  O2  1  0.73710000  0.60410000  0.19100000  1.0 -0.5665349788
O  O3  1  0.23710000  0.60410000  0.30900000  1.0 -0.5665349788
O  O4  1  0.73710000  0.39590000  0.69100000  1.0 -0.5665349788
O  O5  1  0.12710000  0.48330000  0.81500000  1.0 -0.5211944607
O  O6  1  0.62710000  0.51670000  0.18500000  1.0 -0.5211944607
O  O7  1  0.12710000  0.51670000  0.31500000  1.0 -0.5211944607
O  O8  1  0.62710000  0.48330000  0.68500000  1.0 -0.5211944607
O  O9  1  0.76660000  0.40430000  0.20080000  1.0 -0.5665349788
O  O10  1  0.26660000  0.59570000  0.79920000  1.0 -0.5665349788
O  O11  1  0.76660000  0.59570000  0.70080000  1.0 -0.5665349788
O  O12  1  0.26660000  0.40430000  0.29920000  1.0 -0.5665349788
O  O13  1  0.87630000  0.49150000  0.19880000  1.0 -0.5211944607
O  O14  1  0.37630000  0.50850000  0.80120000  1.0 -0.5211944607
O  O15  1  0.87630000  0.50850000  0.69880000  1.0 -0.5211944607
O  O16  1  0.37630000  0.49150000  0.30120000  1.0 -0.5211944607
O  O17  1  0.23350000  0.59830000  0.67740000  1.0 -0.5501656782
O  O18  1  0.73350000  0.40170000  0.32260000  1.0 -0.5501656782
O  O19  1  0.23350000  0.40170000  0.17740000  1.0 -0.5501656782
O  O20  1  0.73350000  0.59830000  0.82260000  1.0 -0.5501656782
O  O21  1  0.35230000  0.52120000  0.67860000  1.0 -0.5501656782
O  O22  1  0.85230000  0.47880000  0.32140000  1.0 -0.5501656782
O  O23  1  0.35230000  0.47880000  0.17860000  1.0 -0.5501656782
O  O24  1  0.85230000  0.52120000  0.82140000  1.0 -0.5501656782
O  O25  1  0.60310000  0.52340000  0.30650000  1.0 -0.5309683707
O  O26  1  0.10310000  0.47660000  0.69350000  1.0 -0.5309683707
O  O27  1  0.60310000  0.47660000  0.80650000  1.0 -0.5309683707
O  O28  1  0.10310000  0.52340000  0.19350000  1.0 -0.5309683707
O  O29  1  0.71770000  0.60270000  0.31480000  1.0 -0.5665349788
O  O30  1  0.21770000  0.39730000  0.68520000  1.0 -0.5665349788
O  O31  1  0.71770000  0.39730000  0.81480000  1.0 -0.5665349788
O  O32  1  0.21770000  0.60270000  0.18520000  1.0 -0.5665349788
O  O33  1  0.15620000  0.37250000  0.46530000  1.0 -0.4304232698
O  O34  1  0.65620000  0.62750000  0.53470000  1.0 -0.4304232698
O  O35  1  0.15620000  0.62750000  0.96530000  1.0 -0.4304232698
O  O36  1  0.65620000  0.37250000  0.03470000  1.0 -0.4304232698
O  O37  1  0.71040000  0.88190000  0.20290000  1.0 -0.4304232698
O  O38  1  0.21040000  0.11810000  0.79710000  1.0 -0.4304232698
O  O39  1  0.71040000  0.11810000  0.70290000  1.0 -0.4304232698
O  O40  1  0.21040000  0.88190000  0.29710000  1.0 -0.4304232698
F  F1  1  0.98550000  0.12190000  0.92890000  1.0 -0.1890347946
F  F2  1  0.48550000  0.87810000  0.07110000  1.0 -0.1890347946
F  F3  1  0.98550000  0.87810000  0.42890000  1.0 -0.1890347946
F  F4  1  0.48550000  0.12190000  0.57110000  1.0 -0.1890347946
F  F5  1  0.88350000  0.20450000  0.94893000  1.0 -0.1991873279
F  F6  1  0.38350000  0.79550000  0.05107000  1.0 -0.1991873279
F  F7  1  0.88350000  0.79550000  0.44893000  1.0 -0.1991873279
F  F8  1  0.38350000  0.20450000  0.55107000  1.0 -0.1991873279
F  F9  1  0.90920000  0.09840000  0.00460000  1.0 -0.2094856616
F  F10  1  0.40920000  0.90160000  0.99540000  1.0 -0.2094856616
F  F11  1  0.90920000  0.90160000  0.50460000  1.0 -0.2094856616
F  F12  1  0.40920000  0.09840000  0.49540000  1.0 -0.2094856616
F  F13  1  0.02320000  0.11930000  0.09023000  1.0 -0.2094856616
F  F14  1  0.52320000  0.88070000  0.90977000  1.0 -0.2094856616
F  F15  1  0.02320000  0.88070000  0.59023000  1.0 -0.2094856616
F  F16  1  0.52320000  0.11930000  0.40977000  1.0 -0.2094856616
F  F17  1  0.09820000  0.09430000  0.01340000  1.0 -0.1991873279
F  F18  1  0.59820000  0.90570000  0.98660000  1.0 -0.1991873279
F  F19  1  0.09820000  0.90570000  0.51340000  1.0 -0.1991873279
F  F20  1  0.59820000  0.09430000  0.48660000  1.0 -0.1991873279
F  F21  1  0.12940000  0.19760000  0.06950000  1.0 -0.1991873279
F  F22  1  0.62940000  0.80240000  0.93050000  1.0 -0.1991873279
F  F23  1  0.12940000  0.80240000  0.56950000  1.0 -0.1991873279
F  F24  1  0.62940000  0.19760000  0.43050000  1.0 -0.1991873279
F  F25  1  0.57900000  0.82330000  0.54920000  1.0 -0.1890347946
F  F26  1  0.07900000  0.17670000  0.45080000  1.0 -0.1890347946
F  F27  1  0.57900000  0.17670000  0.04920000  1.0 -0.1890347946
F  F28  1  0.07900000  0.82330000  0.95080000  1.0 -0.1890347946
F  F29  1  0.47190000  0.90030000  0.56680000  1.0 -0.1991873279
F  F30  1  0.97190000  0.09970000  0.43320000  1.0 -0.1991873279
F  F31  1  0.47190000  0.09970000  0.06680000  1.0 -0.1991873279
F  F32  1  0.97190000  0.90030000  0.93320000  1.0 -0.1991873279
F  F33  1  0.54950000  0.92550000  0.49070000  1.0 -0.2094856616
F  F34  1  0.04950000  0.07450000  0.50930000  1.0 -0.2094856616
F  F35  1  0.54950000  0.07450000  0.99070000  1.0 -0.2094856616
F  F36  1  0.04950000  0.92550000  0.00930000  1.0 -0.2094856616
F  F37  1  0.35950000  0.91800000  0.48310000  1.0 -0.2094856616
F  F38  1  0.85950000  0.08200000  0.51690000  1.0 -0.2094856616
F  F39  1  0.35950000  0.08200000  0.98310000  1.0 -0.2094856616
F  F40  1  0.85950000  0.91800000  0.01690000  1.0 -0.2094856616
F  F41  1  0.43480000  0.89720000  0.40593000  1.0 -0.2094856616
F  F42  1  0.93480000  0.10280000  0.59407000  1.0 -0.2094856616
F  F43  1  0.43480000  0.10280000  0.90593000  1.0 -0.2094856616
F  F44  1  0.93480000  0.89720000  0.09407000  1.0 -0.2094856616
F  F45  1  0.33460000  0.81250000  0.42733000  1.0 -0.1890347946
F  F46  1  0.83460000  0.18750000  0.57267000  1.0 -0.1890347946
F  F47  1  0.33460000  0.18750000  0.92733000  1.0 -0.1890347946
F  F48  1  0.83460000  0.81250000  0.07267000  1.0 -0.1890347946
