# DDEC6 charges by PACMAN v1.1 (https://github.com/mtap-research/PACMAN-charge/)
data_HUVHIR_ion_pacman
_symmetry_space_group_name_H-M   'P 1'
_cell_length_a   10.13700000
_cell_length_b   11.80200000
_cell_length_c   13.76800000
_cell_angle_alpha   86.89900000
_cell_angle_beta   89.52300000
_cell_angle_gamma   88.34300000
_symmetry_Int_Tables_number   1
_chemical_formula_structural   Zn3P3H27C17(NO2)8
_chemical_formula_sum   'Zn6 P6 H54 C34 N16 O32'
_cell_volume   1644.02310740
_cell_formula_units_Z   2
loop_
 _symmetry_equiv_pos_site_id
 _symmetry_equiv_pos_as_xyz
  1  'x, y, z'
loop_
 _atom_site_type_symbol
 _atom_site_label
 _atom_site_symmetry_multiplicity
 _atom_site_fract_x
 _atom_site_fract_y
 _atom_site_fract_z
 _atom_site_occupancy
 _atom_site_charge
Zn  Zn1  1  0.15736000  0.51598000  0.39554000  1.0 1.0508876313
Zn  Zn2  1  0.84264000  0.48402000  0.60446000  1.0 1.0508876313
Zn  Zn3  1  0.55467000  0.57495000  0.37833000  1.0 1.0867418517
Zn  Zn4  1  0.44533000  0.42505000  0.62167000  1.0 1.084816264
Zn  Zn5  1  0.62257000  0.11009000  0.88746000  1.0 1.0203178395
Zn  Zn6  1  0.37743000  0.88991000  0.11254000  1.0 1.0203178395
P  P1  1  0.37500000  0.34400000  0.42563000  1.0 1.2930363883
P  P2  1  0.62500000  0.65600000  0.57437000  1.0 1.2930363883
P  P3  1  0.67070000  0.33520000  0.77006000  1.0 1.31356542
P  P4  1  0.32930000  0.66480000  0.22994000  1.0 1.31356542
P  P5  1  0.84407000  0.46155000  0.37929000  1.0 1.2930363883
P  P6  1  0.15593000  0.53845000  0.62071000  1.0 1.2930363883
H  H1  1  0.14620000  0.31640000  0.00180000  1.0 0.3556453456
H  H2  1  0.85380000  0.68360000  0.99820000  1.0 0.3556453456
H  H3  1  0.53340000  0.21800000  0.36910000  1.0 0.166893052
H  H4  1  0.46660000  0.78200000  0.63090000  1.0 0.166893052
H  H5  1  0.39760000  0.15810000  0.38080000  1.0 0.1616238921
H  H6  1  0.60240000  0.84190000  0.61920000  1.0 0.1616238921
H  H7  1  0.26940000  0.25550000  0.15850000  1.0 0.1386894029
H  H8  1  0.73060000  0.74450000  0.84150000  1.0 0.1386894029
H  H9  1  0.22560000  0.21530000  0.26370000  1.0 0.1386894029
H  H10  1  0.77440000  0.78470000  0.73630000  1.0 0.1386894029
H  H11  1  0.72370000  0.42880000  0.90730000  1.0 0.1616238921
H  H12  1  0.27630000  0.57120000  0.09270000  1.0 0.1616238921
H  H13  1  0.60210000  0.49010000  0.85540000  1.0 0.1495194175
H  H14  1  0.39790000  0.50990000  0.14460000  1.0 0.1495194175
H  H15  1  0.40040000  0.37750000  0.85210000  1.0 0.1495194175
H  H16  1  0.59960000  0.62250000  0.14790000  1.0 0.1495194175
H  H17  1  0.35810000  0.39570000  0.95990000  1.0 0.1386894029
H  H18  1  0.64190000  0.60430000  0.04010000  1.0 0.1386894029
H  H19  1  0.95990000  0.31360000  0.31210000  1.0 0.1616238921
H  H20  1  0.04010000  0.68640000  0.68790000  1.0 0.1616238921
H  H21  1  0.81340000  0.27980000  0.33160000  1.0 0.166893052
H  H22  1  0.18660000  0.72020000  0.66840000  1.0 0.166893052
H  H23  1  0.00550000  0.44930000  0.17930000  1.0 0.1495194175
H  H24  1  0.99450000  0.55070000  0.82070000  1.0 0.1495194175
H  H25  1  0.90170000  0.47100000  0.09590000  1.0 0.1386894029
H  H26  1  0.09830000  0.52900000  0.90410000  1.0 0.1386894029
H  H27  1  0.12280000  0.86450000  0.23560000  1.0 0.2975988258
H  H28  1  0.01050000  0.93680000  0.25850000  1.0 0.2883158345
H  H29  1  0.86760000  0.68700000  0.38940000  1.0 0.2883158345
H  H30  1  0.77740000  0.78010000  0.40680000  1.0 0.2818546761
H  H31  1  0.94150000  0.81680000  0.15540000  1.0 0.1386894029
H  H32  1  0.00080000  0.71460000  0.22010000  1.0 0.1386894029
H  H33  1  0.78460000  0.71500000  0.25140000  1.0 0.1386894029
H  H34  1  0.77760000  0.84700000  0.26110000  1.0 0.1277347524
H  H35  1  0.10730000  0.91830000  0.40230000  1.0 0.1103587989
H  H36  1  0.14570000  0.79020000  0.38750000  1.0 0.1386894029
H  H37  1  0.90880000  0.88680000  0.41440000  1.0 0.0843768884
H  H38  1  0.93940000  0.84600000  0.57990000  1.0 0.1386894029
H  H39  1  0.08400000  0.81540000  0.54720000  1.0 0.1386894029
H  H40  1  0.02210000  0.93620000  0.52010000  1.0 0.0987744947
H  H41  1  0.87720000  0.13550000  0.76440000  1.0 0.2975988258
H  H42  1  0.98950000  0.06320000  0.74150000  1.0 0.2883158345
H  H43  1  0.13240000  0.31300000  0.61060000  1.0 0.2883158345
H  H44  1  0.22260000  0.21990000  0.59320000  1.0 0.2818546761
H  H45  1  0.05850000  0.18320000  0.84460000  1.0 0.1386894029
H  H46  1  0.99920000  0.28540000  0.77990000  1.0 0.1386894029
H  H47  1  0.21540000  0.28500000  0.74860000  1.0 0.1386894029
H  H48  1  0.22240000  0.15300000  0.73890000  1.0 0.1277347524
H  H49  1  0.89270000  0.08170000  0.59770000  1.0 0.1103587989
H  H50  1  0.85430000  0.20980000  0.61250000  1.0 0.1386894029
H  H51  1  0.09120000  0.11320000  0.58560000  1.0 0.0843768884
H  H52  1  0.06060000  0.15400000  0.42010000  1.0 0.1386894029
H  H53  1  0.91600000  0.18460000  0.45280000  1.0 0.1386894029
H  H54  1  0.97790000  0.06380000  0.47990000  1.0 0.0987744947
C  C1  1  0.51430000  0.28310000  0.19300000  1.0 0.4780624677
C  C2  1  0.48570000  0.71690000  0.80700000  1.0 0.4780624677
C  C3  1  0.58110000  0.34210000  0.04190000  1.0 0.4690397848
C  C4  1  0.41890000  0.65790000  0.95810000  1.0 0.4690397848
C  C5  1  0.71910000  0.34320000  0.16750000  1.0 0.4690397848
C  C6  1  0.28090000  0.65680000  0.83250000  1.0 0.4690397848
C  C7  1  0.43940000  0.22750000  0.35760000  1.0 -0.392599849
C  C8  1  0.56060000  0.77250000  0.64240000  1.0 -0.392599849
C  C9  1  0.29410000  0.20680000  0.21480000  1.0 -0.2325783651
C  C10  1  0.70590000  0.79320000  0.78520000  1.0 -0.2325783651
C  C11  1  0.29780000  0.08530000  0.18560000  1.0 0.5814264585
C  C12  1  0.70220000  0.91470000  0.81440000  1.0 0.5814264585
C  C13  1  0.64050000  0.41650000  0.87580000  1.0 -0.4216856242
C  C14  1  0.35950000  0.58350000  0.12420000  1.0 -0.4216856242
C  C15  1  0.41220000  0.34860000  0.91880000  1.0 -0.2878661286
C  C16  1  0.58780000  0.65140000  0.08120000  1.0 -0.2878661286
C  C17  1  0.36370000  0.22930000  0.92840000  1.0 0.6232991685
C  C18  1  0.63630000  0.77070000  0.07160000  1.0 0.6232991685
C  C19  1  0.86880000  0.34030000  0.30610000  1.0 -0.4216856242
C  C20  1  0.13120000  0.65970000  0.69390000  1.0 -0.4216856242
C  C21  1  0.94160000  0.41320000  0.14000000  1.0 -0.256074829
C  C22  1  0.05840000  0.58680000  0.86000000  1.0 -0.2548665534
C  C23  1  0.01120000  0.32340000  0.08170000  1.0 0.5955482889
C  C24  1  0.98880000  0.67660000  0.91830000  1.0 0.5955482889
C  C25  1  0.95780000  0.78900000  0.22190000  1.0 -0.1009891461
C  C26  1  0.83160000  0.77880000  0.27410000  1.0 -0.1090703438
C  C27  1  0.07700000  0.84800000  0.37700000  1.0 -0.180717377
C  C28  1  0.94950000  0.81200000  0.43100000  1.0 0.1495194175
C  C29  1  0.00400000  0.85700000  0.52900000  1.0 -0.4738623034
C  C30  1  0.04220000  0.21100000  0.77810000  1.0 -0.1009891461
C  C31  1  0.16840000  0.22120000  0.72590000  1.0 -0.1090703438
C  C32  1  0.92300000  0.15200000  0.62300000  1.0 -0.180717377
C  C33  1  0.05050000  0.18800000  0.56900000  1.0 0.1495194175
C  C34  1  0.99600000  0.14300000  0.47100000  1.0 -0.4738623034
N  N1  1  0.41660000  0.24620000  0.25280000  1.0 -0.0236587291
N  N2  1  0.58340000  0.75380000  0.74720000  1.0 -0.0236587291
N  N3  1  0.83940000  0.36300000  0.20320000  1.0 -0.0126325907
N  N4  1  0.16060000  0.63700000  0.79680000  1.0 -0.0126325907
N  N5  1  0.55160000  0.35910000  0.94530000  1.0 -0.0595124122
N  N6  1  0.44840000  0.64090000  0.05470000  1.0 -0.0595124122
N  N7  1  0.48350000  0.29980000  0.09820000  1.0 -0.5103136878
N  N8  1  0.51650000  0.70020000  0.90180000  1.0 -0.5103136878
N  N9  1  0.62970000  0.30310000  0.23100000  1.0 -0.4903270807
N  N10  1  0.37030000  0.69690000  0.76900000  1.0 -0.4903270807
N  N11  1  0.70140000  0.36460000  0.07100000  1.0 -0.5103136878
N  N12  1  0.29860000  0.63540000  0.92900000  1.0 -0.5103136878
N  N13  1  0.04550000  0.86610000  0.26800000  1.0 -0.180717377
N  N14  1  0.85470000  0.76230000  0.37800000  1.0 -0.1961543988
N  N15  1  0.95450000  0.13390000  0.73200000  1.0 -0.180717377
N  N16  1  0.14530000  0.23770000  0.62200000  1.0 -0.1961543988
O  O1  1  0.22940000  0.36040000  0.40490000  1.0 -0.7702851889
O  O2  1  0.77060000  0.63960000  0.59510000  1.0 -0.7702851889
O  O3  1  0.44430000  0.45170000  0.39270000  1.0 -0.8213676344
O  O4  1  0.55570000  0.54830000  0.60730000  1.0 -0.8213676344
O  O5  1  0.40090000  0.30700000  0.53010000  1.0 -0.7624337008
O  O6  1  0.59910000  0.69300000  0.46990000  1.0 -0.7624337008
O  O7  1  0.40790000  0.03640000  0.17300000  1.0 -0.4903270807
O  O8  1  0.59210000  0.96360000  0.82700000  1.0 -0.4903270807
O  O9  1  0.19310000  0.04180000  0.17590000  1.0 -0.5262897144
O  O10  1  0.80690000  0.95820000  0.82410000  1.0 -0.5262897144
O  O11  1  0.78210000  0.39010000  0.71540000  1.0 -0.7702851889
O  O12  1  0.21790000  0.60990000  0.28460000  1.0 -0.7702851889
O  O13  1  0.71590000  0.21580000  0.81030000  1.0 -0.7702851889
O  O14  1  0.28410000  0.78420000  0.18970000  1.0 -0.7702851889
O  O15  1  0.54480000  0.32490000  0.71550000  1.0 -0.7702851889
O  O16  1  0.45520000  0.67510000  0.28450000  1.0 -0.7702851889
O  O17  1  0.44050000  0.14510000  0.91500000  1.0 -0.4738623034
O  O18  1  0.55950000  0.85490000  0.08500000  1.0 -0.4738623034
O  O19  1  0.24320000  0.21620000  0.94550000  1.0 -0.5158183109
O  O20  1  0.75680000  0.78380000  0.05450000  1.0 -0.5158183109
O  O21  1  0.73010000  0.53430000  0.33700000  1.0 -0.7873957287
O  O22  1  0.26990000  0.46570000  0.66300000  1.0 -0.7873957287
O  O23  1  0.96790000  0.53150000  0.37210000  1.0 -0.7763091754
O  O24  1  0.03210000  0.46850000  0.62790000  1.0 -0.7763091754
O  O25  1  0.81820000  0.41310000  0.48160000  1.0 -0.7702851889
O  O26  1  0.18180000  0.58690000  0.51840000  1.0 -0.7624337008
O  O27  1  0.10330000  0.36730000  0.02670000  1.0 -0.4570943843
O  O28  1  0.89670000  0.63270000  0.97330000  1.0 -0.4570943843
O  O29  1  0.98550000  0.22500000  0.08470000  1.0 -0.4216856242
O  O30  1  0.01450000  0.77500000  0.91530000  1.0 -0.4216856242
O  O31  1  0.68460000  0.06820000  0.02120000  1.0 -0.2694043349
O  O32  1  0.31540000  0.93180000  0.97880000  1.0 -0.2694043349
