# DDEC6 charges by PACMAN v1.1 (https://github.com/mtap-research/PACMAN-charge/)
data_HUWMAQ_ASR_pacman
_symmetry_space_group_name_H-M   'P 1'
_cell_length_a   14.39040000
_cell_length_b   14.39040000
_cell_length_c   15.93220000
_cell_angle_alpha   90.00000000
_cell_angle_beta   90.00000000
_cell_angle_gamma   120.00000000
_symmetry_Int_Tables_number   1
_chemical_formula_structural   K6V12Fe4Cu3H36(C24O41)2
_chemical_formula_sum   'K6 V12 Fe4 Cu3 H36 C48 O82'
_cell_volume   2857.27547186
_cell_formula_units_Z   1
loop_
 _symmetry_equiv_pos_site_id
 _symmetry_equiv_pos_as_xyz
  1  'x, y, z'
loop_
 _atom_site_type_symbol
 _atom_site_label
 _atom_site_symmetry_multiplicity
 _atom_site_fract_x
 _atom_site_fract_y
 _atom_site_fract_z
 _atom_site_occupancy
 _atom_site_charge
K  K1  1  0.69640000  0.04580000  0.50000000  1.0 0.9492174835
K  K2  1  0.34940000  0.30360000  0.50000000  1.0 0.9492174835
K  K3  1  0.95420000  0.65060000  0.50000000  1.0 0.9492174835
K  K4  1  0.30360000  0.95420000  0.50000000  1.0 0.9492174835
K  K5  1  0.65060000  0.69640000  0.50000000  1.0 0.9492174835
K  K6  1  0.04580000  0.34940000  0.50000000  1.0 0.9492174835
V  V1  1  0.54033000  0.19572000  0.60757000  1.0 1.9058939865
V  V2  1  0.65539000  0.45967000  0.60757000  1.0 1.9058939865
V  V3  1  0.80428000  0.34461000  0.60757000  1.0 1.9025849154
V  V4  1  0.45967000  0.80428000  0.60757000  1.0 1.9025849154
V  V5  1  0.34461000  0.54033000  0.60757000  1.0 1.9025849154
V  V6  1  0.19572000  0.65539000  0.60757000  1.0 1.9025849154
V  V7  1  0.45967000  0.80428000  0.39243000  1.0 1.9025849154
V  V8  1  0.34461000  0.54033000  0.39243000  1.0 1.9025849154
V  V9  1  0.19572000  0.65539000  0.39243000  1.0 1.9025849154
V  V10  1  0.54033000  0.19572000  0.39243000  1.0 1.9058939865
V  V11  1  0.65539000  0.45967000  0.39243000  1.0 1.9058939865
V  V12  1  0.80428000  0.34461000  0.39243000  1.0 1.9025849154
Fe  Fe1  1  0.66666667  0.33333333  0.79262000  1.0 1.2822042456
Fe  Fe2  1  0.33333333  0.66666667  0.79262000  1.0 1.2822042456
Fe  Fe3  1  0.33333333  0.66666667  0.20738000  1.0 1.2822042456
Fe  Fe4  1  0.66666667  0.33333333  0.20738000  1.0 1.2822042456
Cu  Cu1  1  0.50000000  0.50000000  0.00000000  1.0 0.9304462126
Cu  Cu2  1  0.00000000  0.50000000  0.00000000  1.0 0.9304462126
Cu  Cu3  1  0.50000000  0.00000000  0.00000000  1.0 0.9304462126
H  H1  1  0.41257000  0.32051000  0.74795000  1.0 0.1628457209
H  H2  1  0.33260000  0.23920000  0.81676000  1.0 0.1628457209
H  H3  1  0.43331000  0.14676000  0.81593000  1.0 0.1221563966
H  H4  1  0.90794000  0.58743000  0.74795000  1.0 0.1628457209
H  H5  1  0.90660000  0.66740000  0.81676000  1.0 0.1628457209
H  H6  1  0.71345000  0.56669000  0.81593000  1.0 0.1221563966
H  H7  1  0.67949000  0.09206000  0.74795000  1.0 0.1628457209
H  H8  1  0.76080000  0.09340000  0.81676000  1.0 0.1628457209
H  H9  1  0.85324000  0.28655000  0.81593000  1.0 0.1221563966
H  H10  1  0.58743000  0.67949000  0.74795000  1.0 0.1628457209
H  H11  1  0.66740000  0.76080000  0.81676000  1.0 0.1628457209
H  H12  1  0.56669000  0.85324000  0.81593000  1.0 0.1221563966
H  H13  1  0.09206000  0.41257000  0.74795000  1.0 0.1628457209
H  H14  1  0.09340000  0.33260000  0.81676000  1.0 0.1628457209
H  H15  1  0.28655000  0.43331000  0.81593000  1.0 0.1221563966
H  H16  1  0.32051000  0.90794000  0.74795000  1.0 0.1628457209
H  H17  1  0.23920000  0.90660000  0.81676000  1.0 0.1628457209
H  H18  1  0.14676000  0.71345000  0.81593000  1.0 0.1221563966
H  H19  1  0.58743000  0.67949000  0.25205000  1.0 0.1628457209
H  H20  1  0.66740000  0.76080000  0.18324000  1.0 0.1628457209
H  H21  1  0.56669000  0.85324000  0.18407000  1.0 0.1221563966
H  H22  1  0.09206000  0.41257000  0.25205000  1.0 0.1628457209
H  H23  1  0.09340000  0.33260000  0.18324000  1.0 0.1628457209
H  H24  1  0.28655000  0.43331000  0.18407000  1.0 0.1221563966
H  H25  1  0.32051000  0.90794000  0.25205000  1.0 0.1628457209
H  H26  1  0.23920000  0.90660000  0.18324000  1.0 0.1628457209
H  H27  1  0.14676000  0.71345000  0.18407000  1.0 0.1221563966
H  H28  1  0.41257000  0.32051000  0.25205000  1.0 0.1628457209
H  H29  1  0.33260000  0.23920000  0.18324000  1.0 0.1628457209
H  H30  1  0.43331000  0.14676000  0.18407000  1.0 0.1221563966
H  H31  1  0.90794000  0.58743000  0.25205000  1.0 0.1628457209
H  H32  1  0.90660000  0.66740000  0.18324000  1.0 0.1628457209
H  H33  1  0.71345000  0.56669000  0.18407000  1.0 0.1221563966
H  H34  1  0.67949000  0.09206000  0.25205000  1.0 0.1628457209
H  H35  1  0.76080000  0.09340000  0.18324000  1.0 0.1628457209
H  H36  1  0.85324000  0.28655000  0.18407000  1.0 0.1221563966
C  C1  1  0.47840000  0.34720000  0.86460000  1.0 0.6753080637
C  C2  1  0.40770000  0.27550000  0.79660000  1.0 -0.3922931154
C  C3  1  0.43350000  0.19000000  0.76670000  1.0 0.09634897
C  C4  1  0.34810000  0.11620000  0.70400000  1.0 0.558027198
C  C5  1  0.86880000  0.52160000  0.86460000  1.0 0.6753080637
C  C6  1  0.86780000  0.59230000  0.79660000  1.0 -0.3922931154
C  C7  1  0.75650000  0.56650000  0.76670000  1.0 0.09634897
C  C8  1  0.76810000  0.65190000  0.70400000  1.0 0.558027198
C  C9  1  0.65280000  0.13120000  0.86460000  1.0 0.6753080637
C  C10  1  0.72450000  0.13220000  0.79660000  1.0 -0.3922931154
C  C11  1  0.81000000  0.24350000  0.76670000  1.0 0.09634897
C  C12  1  0.88380000  0.23190000  0.70400000  1.0 0.558027198
C  C13  1  0.52160000  0.65280000  0.86460000  1.0 0.6753080637
C  C14  1  0.59230000  0.72450000  0.79660000  1.0 -0.3922931154
C  C15  1  0.56650000  0.81000000  0.76670000  1.0 0.09634897
C  C16  1  0.65190000  0.88380000  0.70400000  1.0 0.558027198
C  C17  1  0.13120000  0.47840000  0.86460000  1.0 0.6753080637
C  C18  1  0.13220000  0.40770000  0.79660000  1.0 -0.3922931154
C  C19  1  0.24350000  0.43350000  0.76670000  1.0 0.09634897
C  C20  1  0.23190000  0.34810000  0.70400000  1.0 0.558027198
C  C21  1  0.34720000  0.86880000  0.86460000  1.0 0.6753080637
C  C22  1  0.27550000  0.86780000  0.79660000  1.0 -0.3922931154
C  C23  1  0.19000000  0.75650000  0.76670000  1.0 0.09634897
C  C24  1  0.11620000  0.76810000  0.70400000  1.0 0.558027198
C  C25  1  0.52160000  0.65280000  0.13540000  1.0 0.6753080637
C  C26  1  0.59230000  0.72450000  0.20340000  1.0 -0.3922931154
C  C27  1  0.56650000  0.81000000  0.23330000  1.0 0.09634897
C  C28  1  0.65190000  0.88380000  0.29600000  1.0 0.558027198
C  C29  1  0.13120000  0.47840000  0.13540000  1.0 0.6753080637
C  C30  1  0.13220000  0.40770000  0.20340000  1.0 -0.3922931154
C  C31  1  0.24350000  0.43350000  0.23330000  1.0 0.09634897
C  C32  1  0.23190000  0.34810000  0.29600000  1.0 0.558027198
C  C33  1  0.34720000  0.86880000  0.13540000  1.0 0.6753080637
C  C34  1  0.27550000  0.86780000  0.20340000  1.0 -0.3922931154
C  C35  1  0.19000000  0.75650000  0.23330000  1.0 0.09634897
C  C36  1  0.11620000  0.76810000  0.29600000  1.0 0.558027198
C  C37  1  0.47840000  0.34720000  0.13540000  1.0 0.6753080637
C  C38  1  0.40770000  0.27550000  0.20340000  1.0 -0.3922931154
C  C39  1  0.43350000  0.19000000  0.23330000  1.0 0.09634897
C  C40  1  0.34810000  0.11620000  0.29600000  1.0 0.558027198
C  C41  1  0.86880000  0.52160000  0.13540000  1.0 0.6753080637
C  C42  1  0.86780000  0.59230000  0.20340000  1.0 -0.3922931154
C  C43  1  0.75650000  0.56650000  0.23330000  1.0 0.09634897
C  C44  1  0.76810000  0.65190000  0.29600000  1.0 0.558027198
C  C45  1  0.65280000  0.13120000  0.13540000  1.0 0.6753080637
C  C46  1  0.72450000  0.13220000  0.20340000  1.0 -0.3922931154
C  C47  1  0.81000000  0.24350000  0.23330000  1.0 0.09634897
C  C48  1  0.88380000  0.23190000  0.29600000  1.0 0.558027198
O  O1  1  0.43970000  0.38910000  0.91090000  1.0 -0.5418017158
O  O2  1  0.57430000  0.36410000  0.87193000  1.0 -0.5489471305
O  O3  1  0.53530000  0.23770000  0.72719000  1.0 -0.6625250155
O  O4  1  0.25250000  0.06690000  0.72180000  1.0 -0.4246064374
O  O5  1  0.38610000  0.10910000  0.63140000  1.0 -0.6625250155
O  O6  1  0.58960000  0.11800000  0.60740000  1.0 -0.7128782321
O  O7  1  0.94940000  0.56030000  0.91090000  1.0 -0.5418017158
O  O8  1  0.78980000  0.42570000  0.87193000  1.0 -0.5489471305
O  O9  1  0.70240000  0.46470000  0.72719000  1.0 -0.6625250155
O  O10  1  0.81440000  0.74750000  0.72180000  1.0 -0.4254400158
O  O11  1  0.72300000  0.61390000  0.63140000  1.0 -0.6625250155
O  O12  1  0.52840000  0.41040000  0.60740000  1.0 -0.7128782321
O  O13  1  0.61090000  0.05060000  0.91090000  1.0 -0.5418017158
O  O14  1  0.63590000  0.21020000  0.87193000  1.0 -0.5489471305
O  O15  1  0.76230000  0.29760000  0.72719000  1.0 -0.6625250155
O  O16  1  0.93310000  0.18560000  0.72180000  1.0 -0.4254400158
O  O17  1  0.89090000  0.27700000  0.63140000  1.0 -0.6625250155
O  O18  1  0.88200000  0.47160000  0.60740000  1.0 -0.7128782321
O  O19  1  0.56030000  0.61090000  0.91090000  1.0 -0.5418017158
O  O20  1  0.42570000  0.63590000  0.87193000  1.0 -0.5489471305
O  O21  1  0.46470000  0.76230000  0.72719000  1.0 -0.6625250155
O  O22  1  0.74750000  0.93310000  0.72180000  1.0 -0.4254400158
O  O23  1  0.61390000  0.89090000  0.63140000  1.0 -0.6625250155
O  O24  1  0.41040000  0.88200000  0.60740000  1.0 -0.7128782321
O  O25  1  0.05060000  0.43970000  0.91090000  1.0 -0.5418017158
O  O26  1  0.21020000  0.57430000  0.87193000  1.0 -0.5489471305
O  O27  1  0.29760000  0.53530000  0.72719000  1.0 -0.6625250155
O  O28  1  0.18560000  0.25250000  0.72180000  1.0 -0.4246064374
O  O29  1  0.27700000  0.38610000  0.63140000  1.0 -0.6625250155
O  O30  1  0.47160000  0.58960000  0.60740000  1.0 -0.7128782321
O  O31  1  0.38910000  0.94940000  0.91090000  1.0 -0.5418017158
O  O32  1  0.36410000  0.78980000  0.87193000  1.0 -0.5489471305
O  O33  1  0.23770000  0.70240000  0.72719000  1.0 -0.6625250155
O  O34  1  0.06690000  0.81440000  0.72180000  1.0 -0.4254400158
O  O35  1  0.10910000  0.72300000  0.63140000  1.0 -0.6625250155
O  O36  1  0.11800000  0.52840000  0.60740000  1.0 -0.7128782321
O  O37  1  0.56030000  0.61090000  0.08910000  1.0 -0.5418017158
O  O38  1  0.42570000  0.63590000  0.12807000  1.0 -0.5489471305
O  O39  1  0.46470000  0.76230000  0.27281000  1.0 -0.6625250155
O  O40  1  0.74750000  0.93310000  0.27820000  1.0 -0.4254400158
O  O41  1  0.61390000  0.89090000  0.36860000  1.0 -0.6625250155
O  O42  1  0.41040000  0.88200000  0.39260000  1.0 -0.7128782321
O  O43  1  0.05060000  0.43970000  0.08910000  1.0 -0.5418017158
O  O44  1  0.21020000  0.57430000  0.12807000  1.0 -0.5489471305
O  O45  1  0.29760000  0.53530000  0.27281000  1.0 -0.6625250155
O  O46  1  0.18560000  0.25250000  0.27820000  1.0 -0.4246064374
O  O47  1  0.27700000  0.38610000  0.36860000  1.0 -0.6625250155
O  O48  1  0.47160000  0.58960000  0.39260000  1.0 -0.7128782321
O  O49  1  0.38910000  0.94940000  0.08910000  1.0 -0.5418017158
O  O50  1  0.36410000  0.78980000  0.12807000  1.0 -0.5489471305
O  O51  1  0.23770000  0.70240000  0.27281000  1.0 -0.6625250155
O  O52  1  0.06690000  0.81440000  0.27820000  1.0 -0.4254400158
O  O53  1  0.10910000  0.72300000  0.36860000  1.0 -0.6625250155
O  O54  1  0.11800000  0.52840000  0.39260000  1.0 -0.7128782321
O  O55  1  0.43970000  0.38910000  0.08910000  1.0 -0.5418017158
O  O56  1  0.57430000  0.36410000  0.12807000  1.0 -0.5489471305
O  O57  1  0.53530000  0.23770000  0.27281000  1.0 -0.6625250155
O  O58  1  0.25250000  0.06690000  0.27820000  1.0 -0.4246064374
O  O59  1  0.38610000  0.10910000  0.36860000  1.0 -0.6625250155
O  O60  1  0.58960000  0.11800000  0.39260000  1.0 -0.7128782321
O  O61  1  0.94940000  0.56030000  0.08910000  1.0 -0.5418017158
O  O62  1  0.78980000  0.42570000  0.12807000  1.0 -0.5489471305
O  O63  1  0.70240000  0.46470000  0.27281000  1.0 -0.6625250155
O  O64  1  0.81440000  0.74750000  0.27820000  1.0 -0.4254400158
O  O65  1  0.72300000  0.61390000  0.36860000  1.0 -0.6625250155
O  O66  1  0.52840000  0.41040000  0.39260000  1.0 -0.7128782321
O  O67  1  0.61090000  0.05060000  0.08910000  1.0 -0.5418017158
O  O68  1  0.63590000  0.21020000  0.12807000  1.0 -0.5489471305
O  O69  1  0.76230000  0.29760000  0.27281000  1.0 -0.6625250155
O  O70  1  0.93310000  0.18560000  0.27820000  1.0 -0.4254400158
O  O71  1  0.89090000  0.27700000  0.36860000  1.0 -0.6625250155
O  O72  1  0.88200000  0.47160000  0.39260000  1.0 -0.7128782321
O  O73  1  0.50560000  0.20540000  0.50000000  1.0 -1.0042317459
O  O74  1  0.69980000  0.49440000  0.50000000  1.0 -1.0042317459
O  O75  1  0.79460000  0.30020000  0.50000000  1.0 -1.0062090704
O  O76  1  0.49440000  0.79460000  0.50000000  1.0 -1.0062090704
O  O77  1  0.30020000  0.50560000  0.50000000  1.0 -1.0062090704
O  O78  1  0.20540000  0.69980000  0.50000000  1.0 -1.0062090704
O  O79  1  0.66666667  0.33333333  0.60420000  1.0 -1.1008030722
O  O80  1  0.33333333  0.66666667  0.60420000  1.0 -1.1008030722
O  O81  1  0.33333333  0.66666667  0.39580000  1.0 -1.1008030722
O  O82  1  0.66666667  0.33333333  0.39580000  1.0 -1.1008030722
