# DDEC6 charges by PACMAN v1.1 (https://github.com/mtap-research/PACMAN-charge/)
data_HUYFAJ_ASR_pacman
_symmetry_space_group_name_H-M   'P 1'
_cell_length_a   25.73830000
_cell_length_b   25.73830000
_cell_length_c   25.73830000
_cell_angle_alpha   106.97100000
_cell_angle_beta   106.97100000
_cell_angle_gamma   114.59700000
_symmetry_Int_Tables_number   1
_chemical_formula_structural   Cu3H13C43O12
_chemical_formula_sum   'Cu24 H104 C344 O96'
_cell_volume   13045.97229346
_cell_formula_units_Z   8
loop_
 _symmetry_equiv_pos_site_id
 _symmetry_equiv_pos_as_xyz
  1  'x, y, z'
loop_
 _atom_site_type_symbol
 _atom_site_label
 _atom_site_symmetry_multiplicity
 _atom_site_fract_x
 _atom_site_fract_y
 _atom_site_fract_z
 _atom_site_occupancy
 _atom_site_charge
Cu  Cu1  1  0.91454000  0.56426000  0.00000000  1.0 0.8514117482
Cu  Cu2  1  0.56426000  0.91454000  0.00000000  1.0 0.8514117482
Cu  Cu3  1  0.91454000  0.91454000  0.35028000  1.0 0.8514117482
Cu  Cu4  1  0.56426000  0.56426000  0.64972000  1.0 0.8514117482
Cu  Cu5  1  0.08546000  0.08546000  0.64972000  1.0 0.8514117482
Cu  Cu6  1  0.43574000  0.43574000  0.35028000  1.0 0.8514117482
Cu  Cu7  1  0.08546000  0.43574000  0.00000000  1.0 0.8514117482
Cu  Cu8  1  0.43574000  0.08546000  0.00000000  1.0 0.8514117482
Cu  Cu9  1  0.94376000  0.67622000  0.00000000  1.0 0.8664592387
Cu  Cu10  1  0.67622000  0.94376000  0.00000000  1.0 0.8664592387
Cu  Cu11  1  0.94376000  0.94376000  0.26753000  1.0 0.8664592387
Cu  Cu12  1  0.67623000  0.67623000  0.73247000  1.0 0.8664592387
Cu  Cu13  1  0.05625000  0.05625000  0.73247000  1.0 0.8664592387
Cu  Cu14  1  0.32377000  0.32377000  0.26753000  1.0 0.8664592387
Cu  Cu15  1  0.05624000  0.32377000  0.00000000  1.0 0.8664592387
Cu  Cu16  1  0.32377000  0.05625000  0.00000000  1.0 0.8664592387
Cu  Cu17  1  0.35700000  0.00000000  0.35700000  1.0 0.8606641623
Cu  Cu18  1  0.64300000  0.00000000  0.64300000  1.0 0.8606641623
Cu  Cu19  1  0.00000000  0.35700000  0.35700000  1.0 0.8606641623
Cu  Cu20  1  0.00000000  0.64300000  0.64300000  1.0 0.8606641623
Cu  Cu21  1  0.27020000  0.00000000  0.27020000  1.0 0.8782267751
Cu  Cu22  1  0.72980000  0.00000000  0.72980000  1.0 0.8782267751
Cu  Cu23  1  0.00000000  0.27020000  0.27020000  1.0 0.8782267751
Cu  Cu24  1  0.00000000  0.72980000  0.72980000  1.0 0.8782267751
H  H1  1  0.13700000  0.79880000  0.15300000  1.0 0.1411678923
H  H2  1  0.64580000  0.98400000  0.84700000  1.0 0.1411678923
H  H3  1  0.98400000  0.13700000  0.33820000  1.0 0.1411678923
H  H4  1  0.79880000  0.64580000  0.66180000  1.0 0.1411678923
H  H5  1  0.86300000  0.01600000  0.66180000  1.0 0.1411678923
H  H6  1  0.35420000  0.20120000  0.33820000  1.0 0.1411678923
H  H7  1  0.01600000  0.35420000  0.15300000  1.0 0.1411678923
H  H8  1  0.20120000  0.86300000  0.84700000  1.0 0.1411678923
H  H9  1  0.86300000  0.20120000  0.84700000  1.0 0.1411678923
H  H10  1  0.35420000  0.01600000  0.15300000  1.0 0.1411678923
H  H11  1  0.01600000  0.86300000  0.66180000  1.0 0.1411678923
H  H12  1  0.20120000  0.35420000  0.33820000  1.0 0.1411678923
H  H13  1  0.13700000  0.98400000  0.33820000  1.0 0.1411678923
H  H14  1  0.64580000  0.79880000  0.66180000  1.0 0.1411678923
H  H15  1  0.98400000  0.64580000  0.84700000  1.0 0.1411678923
H  H16  1  0.79880000  0.13700000  0.15300000  1.0 0.1411678923
H  H17  1  0.26480000  0.79070000  0.28010000  1.0 0.1411678923
H  H18  1  0.51060000  0.98470000  0.71990000  1.0 0.1411678923
H  H19  1  0.98470000  0.26480000  0.47410000  1.0 0.1411678923
H  H20  1  0.79070000  0.51060000  0.52590000  1.0 0.1411678923
H  H21  1  0.73520000  0.01530000  0.52590000  1.0 0.1411678923
H  H22  1  0.48940000  0.20930000  0.47410000  1.0 0.1411678923
H  H23  1  0.01530000  0.48940000  0.28010000  1.0 0.1411678923
H  H24  1  0.20930000  0.73520000  0.71990000  1.0 0.1411678923
H  H25  1  0.73520000  0.20930000  0.71990000  1.0 0.1411678923
H  H26  1  0.48940000  0.01530000  0.28010000  1.0 0.1411678923
H  H27  1  0.01530000  0.73520000  0.52590000  1.0 0.1411678923
H  H28  1  0.20930000  0.48940000  0.47410000  1.0 0.1411678923
H  H29  1  0.26480000  0.98470000  0.47410000  1.0 0.1411678923
H  H30  1  0.51060000  0.79070000  0.52590000  1.0 0.1411678923
H  H31  1  0.98470000  0.51060000  0.71990000  1.0 0.1411678923
H  H32  1  0.79070000  0.26480000  0.28010000  1.0 0.1411678923
H  H33  1  0.09910000  0.62430000  0.13640000  1.0 0.1411678923
H  H34  1  0.48790000  0.96270000  0.86360000  1.0 0.1411678923
H  H35  1  0.96270000  0.09910000  0.47480000  1.0 0.1411678923
H  H36  1  0.62430000  0.48790000  0.52520000  1.0 0.1411678923
H  H37  1  0.90090000  0.03730000  0.52520000  1.0 0.1411678923
H  H38  1  0.51210000  0.37570000  0.47480000  1.0 0.1411678923
H  H39  1  0.03730000  0.51210000  0.13640000  1.0 0.1411678923
H  H40  1  0.37570000  0.90090000  0.86360000  1.0 0.1411678923
H  H41  1  0.90090000  0.37570000  0.86360000  1.0 0.1411678923
H  H42  1  0.51210000  0.03730000  0.13640000  1.0 0.1411678923
H  H43  1  0.03730000  0.90090000  0.52520000  1.0 0.1411678923
H  H44  1  0.37570000  0.51210000  0.47480000  1.0 0.1411678923
H  H45  1  0.09910000  0.96270000  0.47480000  1.0 0.1411678923
H  H46  1  0.48790000  0.62430000  0.52520000  1.0 0.1411678923
H  H47  1  0.96270000  0.48790000  0.86360000  1.0 0.1411678923
H  H48  1  0.62430000  0.09910000  0.13640000  1.0 0.1411678923
H  H49  1  0.32170000  0.67630000  0.35460000  1.0 0.1411678923
H  H50  1  0.32170000  0.96710000  0.64540000  1.0 0.1411678923
H  H51  1  0.96710000  0.32170000  0.64540000  1.0 0.1411678923
H  H52  1  0.67630000  0.32170000  0.35460000  1.0 0.1411678923
H  H53  1  0.67830000  0.03290000  0.35460000  1.0 0.1411678923
H  H54  1  0.67830000  0.32370000  0.64540000  1.0 0.1411678923
H  H55  1  0.03290000  0.67830000  0.35460000  1.0 0.1411678923
H  H56  1  0.32370000  0.67830000  0.64540000  1.0 0.1411678923
H  H57  1  0.15650000  0.50640000  0.21870000  1.0 0.113846037
H  H58  1  0.28770000  0.93780000  0.78130000  1.0 0.113846037
H  H59  1  0.93780000  0.15650000  0.65010000  1.0 0.113846037
H  H60  1  0.50640000  0.28770000  0.34990000  1.0 0.113846037
H  H61  1  0.84350000  0.06220000  0.34990000  1.0 0.113846037
H  H62  1  0.71230000  0.49360000  0.65010000  1.0 0.113846037
H  H63  1  0.06220000  0.71230000  0.21870000  1.0 0.113846037
H  H64  1  0.49360000  0.84350000  0.78130000  1.0 0.113846037
H  H65  1  0.84350000  0.49360000  0.78130000  1.0 0.113846037
H  H66  1  0.71230000  0.06220000  0.21870000  1.0 0.113846037
H  H67  1  0.06220000  0.84350000  0.34990000  1.0 0.113846037
H  H68  1  0.49360000  0.71230000  0.65010000  1.0 0.113846037
H  H69  1  0.15650000  0.93780000  0.65010000  1.0 0.113846037
H  H70  1  0.28770000  0.50640000  0.34990000  1.0 0.113846037
H  H71  1  0.93780000  0.28770000  0.78130000  1.0 0.113846037
H  H72  1  0.50640000  0.15650000  0.21870000  1.0 0.113846037
H  H73  1  0.19290000  0.45010000  0.25720000  1.0 0.122952159
H  H74  1  0.19290000  0.93570000  0.74280000  1.0 0.122952159
H  H75  1  0.93570000  0.19290000  0.74280000  1.0 0.122952159
H  H76  1  0.45010000  0.19290000  0.25720000  1.0 0.122952159
H  H77  1  0.80710000  0.06430000  0.25720000  1.0 0.122952159
H  H78  1  0.80710000  0.54990000  0.74280000  1.0 0.122952159
H  H79  1  0.06430000  0.80710000  0.25720000  1.0 0.122952159
H  H80  1  0.54990000  0.80710000  0.74280000  1.0 0.122952159
H  H81  1  0.75780000  0.61140000  0.85360000  1.0 0.1411678923
H  H82  1  0.75780000  0.90420000  0.14640000  1.0 0.1411678923
H  H83  1  0.90420000  0.75780000  0.14640000  1.0 0.1411678923
H  H84  1  0.61140000  0.75780000  0.85360000  1.0 0.1411678923
H  H85  1  0.24220000  0.09580000  0.85360000  1.0 0.1411678923
H  H86  1  0.24220000  0.38860000  0.14640000  1.0 0.1411678923
H  H87  1  0.09580000  0.24220000  0.85360000  1.0 0.1411678923
H  H88  1  0.38860000  0.24220000  0.14640000  1.0 0.1411678923
H  H89  1  0.72970000  0.44070000  0.84300000  1.0 0.1347070592
H  H90  1  0.59770000  0.88670000  0.15700000  1.0 0.1347070592
H  H91  1  0.88670000  0.72970000  0.28900000  1.0 0.1347070592
H  H92  1  0.44070000  0.59770000  0.71100000  1.0 0.1347070592
H  H93  1  0.27030000  0.11330000  0.71100000  1.0 0.1347070592
H  H94  1  0.40230000  0.55930000  0.28900000  1.0 0.1347070592
H  H95  1  0.11330000  0.40230000  0.84300000  1.0 0.1347070592
H  H96  1  0.55930000  0.27030000  0.15700000  1.0 0.1347070592
H  H97  1  0.27030000  0.55930000  0.15700000  1.0 0.1347070592
H  H98  1  0.40230000  0.11330000  0.84300000  1.0 0.1347070592
H  H99  1  0.11330000  0.27030000  0.71100000  1.0 0.1347070592
H  H100  1  0.55930000  0.40230000  0.28900000  1.0 0.1347070592
H  H101  1  0.72970000  0.88670000  0.28900000  1.0 0.1347070592
H  H102  1  0.59770000  0.44070000  0.71100000  1.0 0.1347070592
H  H103  1  0.88670000  0.59770000  0.15700000  1.0 0.1347070592
H  H104  1  0.44070000  0.72970000  0.84300000  1.0 0.1347070592
C  C1  1  0.04284000  0.67348000  0.08278000  1.0 0.5806767078
C  C2  1  0.59070000  0.96006000  0.91722000  1.0 0.5806767078
C  C3  1  0.96006000  0.04284000  0.36936000  1.0 0.5806767078
C  C4  1  0.67348000  0.59070000  0.63064000  1.0 0.5806767078
C  C5  1  0.95716000  0.03994000  0.63064000  1.0 0.5806767078
C  C6  1  0.40930000  0.32652000  0.36936000  1.0 0.5806767078
C  C7  1  0.03994000  0.40930000  0.08278000  1.0 0.5806767078
C  C8  1  0.32652000  0.95716000  0.91722000  1.0 0.5806767078
C  C9  1  0.95716000  0.32652000  0.91722000  1.0 0.5806767078
C  C10  1  0.40930000  0.03994000  0.08278000  1.0 0.5806767078
C  C11  1  0.03994000  0.95716000  0.63064000  1.0 0.5806767078
C  C12  1  0.32652000  0.40930000  0.36936000  1.0 0.5806767078
C  C13  1  0.04284000  0.96006000  0.36936000  1.0 0.5806767078
C  C14  1  0.59070000  0.67348000  0.63064000  1.0 0.5806767078
C  C15  1  0.96006000  0.59070000  0.91722000  1.0 0.5806767078
C  C16  1  0.67348000  0.04284000  0.08278000  1.0 0.5806767078
C  C17  1  0.10861000  0.70671000  0.13676000  1.0 -0.01778118
C  C18  1  0.56995000  0.97185000  0.86324000  1.0 -0.01778118
C  C19  1  0.97185000  0.10861000  0.40190000  1.0 -0.01778118
C  C20  1  0.70671000  0.56995000  0.59810000  1.0 -0.01778118
C  C21  1  0.89139000  0.02815000  0.59810000  1.0 -0.01778118
C  C22  1  0.43005000  0.29329000  0.40190000  1.0 -0.01778118
C  C23  1  0.02815000  0.43005000  0.13676000  1.0 -0.01778118
C  C24  1  0.29329000  0.89139000  0.86324000  1.0 -0.01778118
C  C25  1  0.89139000  0.29329000  0.86324000  1.0 -0.01778118
C  C26  1  0.43005000  0.02815000  0.13676000  1.0 -0.01778118
C  C27  1  0.02815000  0.89139000  0.59810000  1.0 -0.01778118
C  C28  1  0.29329000  0.43005000  0.40190000  1.0 -0.01778118
C  C29  1  0.10861000  0.97185000  0.40190000  1.0 -0.01778118
C  C30  1  0.56995000  0.70671000  0.59810000  1.0 -0.01778118
C  C31  1  0.97185000  0.56995000  0.86324000  1.0 -0.01778118
C  C32  1  0.70671000  0.10861000  0.13676000  1.0 -0.01778118
C  C33  1  0.14914000  0.77390000  0.16810000  1.0 -0.1076791646
C  C34  1  0.60580000  0.98104000  0.83190000  1.0 -0.1076791646
C  C35  1  0.98104000  0.14914000  0.37524000  1.0 -0.1076791646
C  C36  1  0.77390000  0.60580000  0.62476000  1.0 -0.1076791646
C  C37  1  0.85086000  0.01896000  0.62476000  1.0 -0.1076791646
C  C38  1  0.39420000  0.22610000  0.37524000  1.0 -0.1076791646
C  C39  1  0.01896000  0.39420000  0.16810000  1.0 -0.1076791646
C  C40  1  0.22610000  0.85086000  0.83190000  1.0 -0.1076791646
C  C41  1  0.85086000  0.22610000  0.83190000  1.0 -0.1076791646
C  C42  1  0.39420000  0.01896000  0.16810000  1.0 -0.1076791646
C  C43  1  0.01896000  0.85086000  0.62476000  1.0 -0.1076791646
C  C44  1  0.22610000  0.39420000  0.37524000  1.0 -0.1076791646
C  C45  1  0.14914000  0.98104000  0.37524000  1.0 -0.1076791646
C  C46  1  0.60580000  0.77390000  0.62476000  1.0 -0.1076791646
C  C47  1  0.98104000  0.60580000  0.83190000  1.0 -0.1076791646
C  C48  1  0.77390000  0.14914000  0.16810000  1.0 -0.1076791646
C  C49  1  0.20719000  0.80487000  0.22122000  1.0 -0.01778118
C  C50  1  0.58365000  0.98597000  0.77878000  1.0 -0.01778118
C  C51  1  0.98597000  0.20719000  0.40232000  1.0 -0.01778118
C  C52  1  0.80487000  0.58365000  0.59768000  1.0 -0.01778118
C  C53  1  0.79281000  0.01403000  0.59768000  1.0 -0.01778118
C  C54  1  0.41635000  0.19513000  0.40232000  1.0 -0.01778118
C  C55  1  0.01403000  0.41635000  0.22122000  1.0 -0.01778118
C  C56  1  0.19513000  0.79281000  0.77878000  1.0 -0.01778118
C  C57  1  0.79281000  0.19513000  0.77878000  1.0 -0.01778118
C  C58  1  0.41635000  0.01403000  0.22122000  1.0 -0.01778118
C  C59  1  0.01403000  0.79281000  0.59768000  1.0 -0.01778118
C  C60  1  0.19513000  0.41635000  0.40232000  1.0 -0.01778118
C  C61  1  0.20719000  0.98597000  0.40232000  1.0 -0.01778118
C  C62  1  0.58365000  0.80487000  0.59768000  1.0 -0.01778118
C  C63  1  0.98597000  0.58365000  0.77878000  1.0 -0.01778118
C  C64  1  0.80487000  0.20719000  0.22122000  1.0 -0.01778118
C  C65  1  0.22524000  0.76913000  0.24331000  1.0 -0.1205453406
C  C66  1  0.52582000  0.98193000  0.75669000  1.0 -0.1205453406
C  C67  1  0.98193000  0.22524000  0.45611000  1.0 -0.1205453406
C  C68  1  0.76913000  0.52582000  0.54389000  1.0 -0.1205453406
C  C69  1  0.77476000  0.01807000  0.54389000  1.0 -0.1205453406
C  C70  1  0.47418000  0.23087000  0.45611000  1.0 -0.1205453406
C  C71  1  0.01807000  0.47418000  0.24331000  1.0 -0.1205453406
C  C72  1  0.23087000  0.77476000  0.75669000  1.0 -0.1205453406
C  C73  1  0.77476000  0.23087000  0.75669000  1.0 -0.1205453406
C  C74  1  0.47418000  0.01807000  0.24331000  1.0 -0.1205453406
C  C75  1  0.01807000  0.77476000  0.54389000  1.0 -0.1205453406
C  C76  1  0.23087000  0.47418000  0.45611000  1.0 -0.1205453406
C  C77  1  0.22524000  0.98193000  0.45611000  1.0 -0.1205453406
C  C78  1  0.52582000  0.76913000  0.54389000  1.0 -0.1205453406
C  C79  1  0.98193000  0.52582000  0.75669000  1.0 -0.1205453406
C  C80  1  0.76913000  0.22524000  0.24331000  1.0 -0.1205453406
C  C81  1  0.18564000  0.70091000  0.21195000  1.0 0.1474048379
C  C82  1  0.48896000  0.97369000  0.78805000  1.0 0.1474048379
C  C83  1  0.97369000  0.18564000  0.48473000  1.0 0.1474048379
C  C84  1  0.70091000  0.48896000  0.51527000  1.0 0.1474048379
C  C85  1  0.81436000  0.02631000  0.51527000  1.0 0.1474048379
C  C86  1  0.51104000  0.29909000  0.48473000  1.0 0.1474048379
C  C87  1  0.02631000  0.51104000  0.21195000  1.0 0.1474048379
C  C88  1  0.29909000  0.81436000  0.78805000  1.0 0.1474048379
C  C89  1  0.81436000  0.29909000  0.78805000  1.0 0.1474048379
C  C90  1  0.51104000  0.02631000  0.21195000  1.0 0.1474048379
C  C91  1  0.02631000  0.81436000  0.51527000  1.0 0.1474048379
C  C92  1  0.29909000  0.51104000  0.48473000  1.0 0.1474048379
C  C93  1  0.18564000  0.97369000  0.48473000  1.0 0.1474048379
C  C94  1  0.48896000  0.70091000  0.51527000  1.0 0.1474048379
C  C95  1  0.97369000  0.48896000  0.78805000  1.0 0.1474048379
C  C96  1  0.70091000  0.18564000  0.21195000  1.0 0.1474048379
C  C97  1  0.12663000  0.67030000  0.15813000  1.0 -0.1405935527
C  C98  1  0.51217000  0.96850000  0.84187000  1.0 -0.1405935527
C  C99  1  0.96850000  0.12663000  0.45633000  1.0 -0.1405935527
C  C100  1  0.67030000  0.51217000  0.54367000  1.0 -0.1405935527
C  C101  1  0.87337000  0.03150000  0.54367000  1.0 -0.1405935527
C  C102  1  0.48783000  0.32970000  0.45633000  1.0 -0.1405935527
C  C103  1  0.03150000  0.48783000  0.15813000  1.0 -0.1405935527
C  C104  1  0.32970000  0.87337000  0.84187000  1.0 -0.1405935527
C  C105  1  0.87337000  0.32970000  0.84187000  1.0 -0.1405935527
C  C106  1  0.48783000  0.03150000  0.15813000  1.0 -0.1405935527
C  C107  1  0.03150000  0.87337000  0.54367000  1.0 -0.1405935527
C  C108  1  0.32970000  0.48783000  0.45633000  1.0 -0.1405935527
C  C109  1  0.12663000  0.96850000  0.45633000  1.0 -0.1405935527
C  C110  1  0.51217000  0.67030000  0.54367000  1.0 -0.1405935527
C  C111  1  0.96850000  0.51217000  0.84187000  1.0 -0.1405935527
C  C112  1  0.67030000  0.12663000  0.15813000  1.0 -0.1405935527
C  C113  1  0.24823000  0.87725000  0.25464000  1.0 0.5863141077
C  C114  1  0.62261000  0.99359000  0.74536000  1.0 0.5863141077
C  C115  1  0.99359000  0.24823000  0.37098000  1.0 0.5863141077
C  C116  1  0.87725000  0.62261000  0.62902000  1.0 0.5863141077
C  C117  1  0.75177000  0.00641000  0.62902000  1.0 0.5863141077
C  C118  1  0.37739000  0.12275000  0.37098000  1.0 0.5863141077
C  C119  1  0.00641000  0.37739000  0.25464000  1.0 0.5863141077
C  C120  1  0.12275000  0.75177000  0.74536000  1.0 0.5863141077
C  C121  1  0.75177000  0.12275000  0.74536000  1.0 0.5863141077
C  C122  1  0.37739000  0.00641000  0.25464000  1.0 0.5863141077
C  C123  1  0.00641000  0.75177000  0.62902000  1.0 0.5863141077
C  C124  1  0.12275000  0.37739000  0.37098000  1.0 0.5863141077
C  C125  1  0.24823000  0.99359000  0.37098000  1.0 0.5863141077
C  C126  1  0.62261000  0.87725000  0.62902000  1.0 0.5863141077
C  C127  1  0.99359000  0.62261000  0.74536000  1.0 0.5863141077
C  C128  1  0.87725000  0.24823000  0.25464000  1.0 0.5863141077
C  C129  1  0.20373000  0.66396000  0.23549000  1.0 -0.1029523132
C  C130  1  0.42847000  0.96824000  0.76451000  1.0 -0.1029523132
C  C131  1  0.96824000  0.20373000  0.53977000  1.0 -0.1029523132
C  C132  1  0.66396000  0.42847000  0.46023000  1.0 -0.1029523132
C  C133  1  0.79627000  0.03176000  0.46023000  1.0 -0.1029523132
C  C134  1  0.57153000  0.33604000  0.53977000  1.0 -0.1029523132
C  C135  1  0.03176000  0.57153000  0.23549000  1.0 -0.1029523132
C  C136  1  0.33604000  0.79627000  0.76451000  1.0 -0.1029523132
C  C137  1  0.79627000  0.33604000  0.76451000  1.0 -0.1029523132
C  C138  1  0.57153000  0.03176000  0.23549000  1.0 -0.1029523132
C  C139  1  0.03176000  0.79627000  0.46023000  1.0 -0.1029523132
C  C140  1  0.33604000  0.57153000  0.53977000  1.0 -0.1029523132
C  C141  1  0.20373000  0.96824000  0.53977000  1.0 -0.1029523132
C  C142  1  0.42847000  0.66396000  0.46023000  1.0 -0.1029523132
C  C143  1  0.96824000  0.42847000  0.76451000  1.0 -0.1029523132
C  C144  1  0.66396000  0.20373000  0.23549000  1.0 -0.1029523132
C  C145  1  0.21770000  0.63210000  0.25540000  1.0 -0.0910947055
C  C146  1  0.37670000  0.96230000  0.74460000  1.0 -0.0910947055
C  C147  1  0.96230000  0.21770000  0.58560000  1.0 -0.0910947055
C  C148  1  0.63210000  0.37670000  0.41440000  1.0 -0.0910947055
C  C149  1  0.78230000  0.03770000  0.41440000  1.0 -0.0910947055
C  C150  1  0.62330000  0.36790000  0.58560000  1.0 -0.0910947055
C  C151  1  0.03770000  0.62330000  0.25540000  1.0 -0.0910947055
C  C152  1  0.36790000  0.78230000  0.74460000  1.0 -0.0910947055
C  C153  1  0.78230000  0.36790000  0.74460000  1.0 -0.0910947055
C  C154  1  0.62330000  0.03770000  0.25540000  1.0 -0.0910947055
C  C155  1  0.03770000  0.78230000  0.41440000  1.0 -0.0910947055
C  C156  1  0.36790000  0.62330000  0.58560000  1.0 -0.0910947055
C  C157  1  0.21770000  0.96230000  0.58560000  1.0 -0.0910947055
C  C158  1  0.37670000  0.63210000  0.41440000  1.0 -0.0910947055
C  C159  1  0.96230000  0.37670000  0.74460000  1.0 -0.0910947055
C  C160  1  0.63210000  0.21770000  0.25540000  1.0 -0.0910947055
C  C161  1  0.23644000  0.59711000  0.28095000  1.0 0.1474048379
C  C162  1  0.31616000  0.95549000  0.71905000  1.0 0.1474048379
C  C163  1  0.95549000  0.23644000  0.63933000  1.0 0.1474048379
C  C164  1  0.59711000  0.31616000  0.36067000  1.0 0.1474048379
C  C165  1  0.76356000  0.04451000  0.36067000  1.0 0.1474048379
C  C166  1  0.68384000  0.40289000  0.63933000  1.0 0.1474048379
C  C167  1  0.04451000  0.68384000  0.28095000  1.0 0.1474048379
C  C168  1  0.40289000  0.76356000  0.71905000  1.0 0.1474048379
C  C169  1  0.76356000  0.40289000  0.71905000  1.0 0.1474048379
C  C170  1  0.68384000  0.04451000  0.28095000  1.0 0.1474048379
C  C171  1  0.04451000  0.76356000  0.36067000  1.0 0.1474048379
C  C172  1  0.40289000  0.68384000  0.63933000  1.0 0.1474048379
C  C173  1  0.23644000  0.95549000  0.63933000  1.0 0.1474048379
C  C174  1  0.31616000  0.59711000  0.36067000  1.0 0.1474048379
C  C175  1  0.95549000  0.31616000  0.71905000  1.0 0.1474048379
C  C176  1  0.59711000  0.23644000  0.28095000  1.0 0.1474048379
C  C177  1  0.29530000  0.63020000  0.33490000  1.0 -0.1782770535
C  C178  1  0.29530000  0.96040000  0.66510000  1.0 -0.1782770535
C  C179  1  0.96040000  0.29530000  0.66510000  1.0 -0.1782770535
C  C180  1  0.63020000  0.29530000  0.33490000  1.0 -0.1782770535
C  C181  1  0.70470000  0.03960000  0.33490000  1.0 -0.1782770535
C  C182  1  0.70470000  0.36980000  0.66510000  1.0 -0.1782770535
C  C183  1  0.03960000  0.70470000  0.33490000  1.0 -0.1782770535
C  C184  1  0.36980000  0.70470000  0.66510000  1.0 -0.1782770535
C  C185  1  0.19760000  0.52960000  0.25400000  1.0 -0.1260321015
C  C186  1  0.27560000  0.94360000  0.74600000  1.0 -0.1260321015
C  C187  1  0.94360000  0.19760000  0.66800000  1.0 -0.1260321015
C  C188  1  0.52960000  0.27560000  0.33200000  1.0 -0.1260321015
C  C189  1  0.80240000  0.05640000  0.33200000  1.0 -0.1260321015
C  C190  1  0.72440000  0.47040000  0.66800000  1.0 -0.1260321015
C  C191  1  0.05640000  0.72440000  0.25400000  1.0 -0.1260321015
C  C192  1  0.47040000  0.80240000  0.74600000  1.0 -0.1260321015
C  C193  1  0.80240000  0.47040000  0.74600000  1.0 -0.1260321015
C  C194  1  0.72440000  0.05640000  0.25400000  1.0 -0.1260321015
C  C195  1  0.05640000  0.80240000  0.33200000  1.0 -0.1260321015
C  C196  1  0.47040000  0.72440000  0.66800000  1.0 -0.1260321015
C  C197  1  0.19760000  0.94360000  0.66800000  1.0 -0.1260321015
C  C198  1  0.27560000  0.52960000  0.33200000  1.0 -0.1260321015
C  C199  1  0.94360000  0.27560000  0.74600000  1.0 -0.1260321015
C  C200  1  0.52960000  0.19760000  0.25400000  1.0 -0.1260321015
C  C201  1  0.21820000  0.49620000  0.27800000  1.0 -0.0910947055
C  C202  1  0.21820000  0.94020000  0.72200000  1.0 -0.0910947055
C  C203  1  0.94020000  0.21820000  0.72200000  1.0 -0.0910947055
C  C204  1  0.49620000  0.21820000  0.27800000  1.0 -0.0910947055
C  C205  1  0.78180000  0.05980000  0.27800000  1.0 -0.0910947055
C  C206  1  0.78180000  0.50380000  0.72200000  1.0 -0.0910947055
C  C207  1  0.05980000  0.78180000  0.27800000  1.0 -0.0910947055
C  C208  1  0.50380000  0.78180000  0.72200000  1.0 -0.0910947055
C  C209  1  0.81588000  0.56626000  0.91434000  1.0 0.5863141077
C  C210  1  0.65192000  0.90154000  0.08566000  1.0 0.5863141077
C  C211  1  0.90154000  0.81588000  0.24962000  1.0 0.5863141077
C  C212  1  0.56626000  0.65192000  0.75038000  1.0 0.5863141077
C  C213  1  0.18412000  0.09846000  0.75038000  1.0 0.5863141077
C  C214  1  0.34808000  0.43374000  0.24962000  1.0 0.5863141077
C  C215  1  0.09846000  0.34808000  0.91434000  1.0 0.5863141077
C  C216  1  0.43374000  0.18412000  0.08566000  1.0 0.5863141077
C  C217  1  0.18412000  0.43374000  0.08566000  1.0 0.5863141077
C  C218  1  0.34808000  0.09846000  0.91434000  1.0 0.5863141077
C  C219  1  0.09846000  0.18412000  0.75038000  1.0 0.5863141077
C  C220  1  0.43374000  0.34808000  0.24962000  1.0 0.5863141077
C  C221  1  0.81588000  0.90154000  0.24962000  1.0 0.5863141077
C  C222  1  0.65192000  0.56626000  0.75038000  1.0 0.5863141077
C  C223  1  0.90154000  0.65192000  0.08566000  1.0 0.5863141077
C  C224  1  0.56626000  0.81588000  0.91434000  1.0 0.5863141077
C  C225  1  0.75243000  0.53108000  0.85767000  1.0 -0.01778118
C  C226  1  0.67341000  0.89476000  0.14233000  1.0 -0.01778118
C  C227  1  0.89476000  0.75243000  0.22135000  1.0 -0.01778118
C  C228  1  0.53108000  0.67341000  0.77865000  1.0 -0.01778118
C  C229  1  0.24757000  0.10524000  0.77865000  1.0 -0.01778118
C  C230  1  0.32659000  0.46892000  0.22135000  1.0 -0.01778118
C  C231  1  0.10524000  0.32659000  0.85767000  1.0 -0.01778118
C  C232  1  0.46892000  0.24757000  0.14233000  1.0 -0.01778118
C  C233  1  0.24757000  0.46892000  0.14233000  1.0 -0.01778118
C  C234  1  0.32659000  0.10524000  0.85767000  1.0 -0.01778118
C  C235  1  0.10524000  0.24757000  0.77865000  1.0 -0.01778118
C  C236  1  0.46892000  0.32659000  0.22135000  1.0 -0.01778118
C  C237  1  0.75243000  0.89476000  0.22135000  1.0 -0.01778118
C  C238  1  0.67341000  0.53108000  0.77865000  1.0 -0.01778118
C  C239  1  0.89476000  0.67341000  0.14233000  1.0 -0.01778118
C  C240  1  0.53108000  0.75243000  0.85767000  1.0 -0.01778118
C  C241  1  0.73210000  0.56542000  0.83332000  1.0 -0.1076791646
C  C242  1  0.73210000  0.89878000  0.16668000  1.0 -0.1076791646
C  C243  1  0.89878000  0.73210000  0.16668000  1.0 -0.1076791646
C  C244  1  0.56542000  0.73210000  0.83332000  1.0 -0.1076791646
C  C245  1  0.26790000  0.10122000  0.83332000  1.0 -0.1076791646
C  C246  1  0.26790000  0.43458000  0.16668000  1.0 -0.1076791646
C  C247  1  0.10122000  0.26790000  0.83332000  1.0 -0.1076791646
C  C248  1  0.43458000  0.26790000  0.16668000  1.0 -0.1076791646
C  C249  1  0.71494000  0.46368000  0.82686000  1.0 -0.1405935527
C  C250  1  0.63682000  0.88808000  0.17314000  1.0 -0.1405935527
C  C251  1  0.88808000  0.71494000  0.25126000  1.0 -0.1405935527
C  C252  1  0.46368000  0.63682000  0.74874000  1.0 -0.1405935527
C  C253  1  0.28506000  0.11192000  0.74874000  1.0 -0.1405935527
C  C254  1  0.36318000  0.53632000  0.25126000  1.0 -0.1405935527
C  C255  1  0.11192000  0.36318000  0.82686000  1.0 -0.1405935527
C  C256  1  0.53632000  0.28506000  0.17314000  1.0 -0.1405935527
C  C257  1  0.28506000  0.53632000  0.17314000  1.0 -0.1405935527
C  C258  1  0.36318000  0.11192000  0.82686000  1.0 -0.1405935527
C  C259  1  0.11192000  0.28506000  0.74874000  1.0 -0.1405935527
C  C260  1  0.53632000  0.36318000  0.25126000  1.0 -0.1405935527
C  C261  1  0.71494000  0.88808000  0.25126000  1.0 -0.1405935527
C  C262  1  0.63682000  0.46368000  0.74874000  1.0 -0.1405935527
C  C263  1  0.88808000  0.63682000  0.17314000  1.0 -0.1405935527
C  C264  1  0.46368000  0.71494000  0.82686000  1.0 -0.1405935527
C  C265  1  0.65610000  0.42870000  0.77260000  1.0 0.113846037
C  C266  1  0.65610000  0.88350000  0.22740000  1.0 0.113846037
C  C267  1  0.88350000  0.65610000  0.22740000  1.0 0.113846037
C  C268  1  0.42870000  0.65610000  0.77260000  1.0 0.113846037
C  C269  1  0.34390000  0.11650000  0.77260000  1.0 0.113846037
C  C270  1  0.34390000  0.57130000  0.22740000  1.0 0.113846037
C  C271  1  0.11650000  0.34390000  0.77260000  1.0 0.113846037
C  C272  1  0.57130000  0.34390000  0.22740000  1.0 0.113846037
C  C273  1  0.61900000  0.36100000  0.74200000  1.0 -0.1405935527
C  C274  1  0.61900000  0.87700000  0.25800000  1.0 -0.1405935527
C  C275  1  0.87700000  0.61900000  0.25800000  1.0 -0.1405935527
C  C276  1  0.36100000  0.61900000  0.74200000  1.0 -0.1405935527
C  C277  1  0.38100000  0.12300000  0.74200000  1.0 -0.1405935527
C  C278  1  0.38100000  0.63900000  0.25800000  1.0 -0.1405935527
C  C279  1  0.12300000  0.38100000  0.74200000  1.0 -0.1405935527
C  C280  1  0.63900000  0.38100000  0.25800000  1.0 -0.1405935527
C  C281  1  0.57130000  0.30140000  0.69970000  1.0 -0.0135196309
C  C282  1  0.60170000  0.87160000  0.30030000  1.0 -0.0135196309
C  C283  1  0.87160000  0.57130000  0.26990000  1.0 -0.0135196309
C  C284  1  0.30140000  0.60170000  0.73010000  1.0 -0.0135196309
C  C285  1  0.42870000  0.12840000  0.73010000  1.0 -0.0135196309
C  C286  1  0.39830000  0.69860000  0.26990000  1.0 -0.0135196309
C  C287  1  0.12840000  0.39830000  0.69970000  1.0 -0.0135196309
C  C288  1  0.69860000  0.42870000  0.30030000  1.0 -0.0135196309
C  C289  1  0.42870000  0.69860000  0.30030000  1.0 -0.0135196309
C  C290  1  0.39830000  0.12840000  0.69970000  1.0 -0.0135196309
C  C291  1  0.12840000  0.42870000  0.73010000  1.0 -0.0135196309
C  C292  1  0.69860000  0.39830000  0.26990000  1.0 -0.0135196309
C  C293  1  0.57130000  0.87160000  0.26990000  1.0 -0.0135196309
C  C294  1  0.60170000  0.30140000  0.73010000  1.0 -0.0135196309
C  C295  1  0.87160000  0.60170000  0.30030000  1.0 -0.0135196309
C  C296  1  0.30140000  0.57130000  0.69970000  1.0 -0.0135196309
C  C297  1  0.52100000  0.23590000  0.67050000  1.0 0.0640730964
C  C298  1  0.56540000  0.85050000  0.32950000  1.0 0.0640730964
C  C299  1  0.85050000  0.52100000  0.28510000  1.0 0.0640730964
C  C300  1  0.23590000  0.56540000  0.71490000  1.0 0.0640730964
C  C301  1  0.47900000  0.14950000  0.71490000  1.0 0.0640730964
C  C302  1  0.43460000  0.76410000  0.28510000  1.0 0.0640730964
C  C303  1  0.14950000  0.43460000  0.67050000  1.0 0.0640730964
C  C304  1  0.76410000  0.47900000  0.32950000  1.0 0.0640730964
C  C305  1  0.47900000  0.76410000  0.32950000  1.0 0.0640730964
C  C306  1  0.43460000  0.14950000  0.67050000  1.0 0.0640730964
C  C307  1  0.14950000  0.47900000  0.71490000  1.0 0.0640730964
C  C308  1  0.76410000  0.43460000  0.28510000  1.0 0.0640730964
C  C309  1  0.52100000  0.85050000  0.28510000  1.0 0.0640730964
C  C310  1  0.56540000  0.23590000  0.71490000  1.0 0.0640730964
C  C311  1  0.85050000  0.56540000  0.32950000  1.0 0.0640730964
C  C312  1  0.23590000  0.52100000  0.67050000  1.0 0.0640730964
C  C313  1  0.48740000  0.21220000  0.69960000  1.0 0.0255149821
C  C314  1  0.51260000  0.78780000  0.30040000  1.0 0.0255149821
C  C315  1  0.78780000  0.48740000  0.27520000  1.0 0.0255149821
C  C316  1  0.21220000  0.51260000  0.72480000  1.0 0.0255149821
C  C317  1  0.51260000  0.21220000  0.72480000  1.0 0.0255149821
C  C318  1  0.48740000  0.78780000  0.27520000  1.0 0.0255149821
C  C319  1  0.21220000  0.48740000  0.69960000  1.0 0.0255149821
C  C320  1  0.78780000  0.51260000  0.30040000  1.0 0.0255149821
C  C321  1  0.49070000  0.19370000  0.60020000  1.0 -0.0485996148
C  C322  1  0.59350000  0.89050000  0.39980000  1.0 -0.0485996148
C  C323  1  0.89050000  0.49070000  0.29700000  1.0 -0.0485996148
C  C324  1  0.19370000  0.59350000  0.70300000  1.0 -0.0485996148
C  C325  1  0.50930000  0.10950000  0.70300000  1.0 -0.0485996148
C  C326  1  0.40650000  0.80630000  0.29700000  1.0 -0.0485996148
C  C327  1  0.10950000  0.40650000  0.60020000  1.0 -0.0485996148
C  C328  1  0.80630000  0.50930000  0.39980000  1.0 -0.0485996148
C  C329  1  0.50930000  0.80630000  0.39980000  1.0 -0.0485996148
C  C330  1  0.40650000  0.10950000  0.60020000  1.0 -0.0485996148
C  C331  1  0.10950000  0.50930000  0.70300000  1.0 -0.0485996148
C  C332  1  0.80630000  0.40650000  0.29700000  1.0 -0.0485996148
C  C333  1  0.49070000  0.89050000  0.29700000  1.0 -0.0485996148
C  C334  1  0.59350000  0.19370000  0.70300000  1.0 -0.0485996148
C  C335  1  0.89050000  0.59350000  0.39980000  1.0 -0.0485996148
C  C336  1  0.19370000  0.49070000  0.60020000  1.0 -0.0485996148
C  C337  1  0.43460000  0.13430000  0.56890000  1.0 -0.1205453406
C  C338  1  0.56540000  0.86570000  0.43110000  1.0 -0.1205453406
C  C339  1  0.86570000  0.43460000  0.30030000  1.0 -0.1205453406
C  C340  1  0.13430000  0.56540000  0.69970000  1.0 -0.1205453406
C  C341  1  0.56540000  0.13430000  0.69970000  1.0 -0.1205453406
C  C342  1  0.43460000  0.86570000  0.30030000  1.0 -0.1205453406
C  C343  1  0.13430000  0.43460000  0.56890000  1.0 -0.1205453406
C  C344  1  0.86570000  0.56540000  0.43110000  1.0 -0.1205453406
O  O1  1  0.00458000  0.61368000  0.06338000  1.0 -0.5173276519
O  O2  1  0.55030000  0.94120000  0.93662000  1.0 -0.5173276519
O  O3  1  0.94120000  0.00458000  0.39090000  1.0 -0.5173276519
O  O4  1  0.61368000  0.55030000  0.60910000  1.0 -0.5173276519
O  O5  1  0.99542000  0.05880000  0.60910000  1.0 -0.5173276519
O  O6  1  0.44970000  0.38632000  0.39090000  1.0 -0.5173276519
O  O7  1  0.05880000  0.44970000  0.06338000  1.0 -0.5173276519
O  O8  1  0.38632000  0.99542000  0.93662000  1.0 -0.5173276519
O  O9  1  0.99542000  0.38632000  0.93662000  1.0 -0.5173276519
O  O10  1  0.44970000  0.05880000  0.06338000  1.0 -0.5173276519
O  O11  1  0.05880000  0.99542000  0.60910000  1.0 -0.5173276519
O  O12  1  0.38632000  0.44970000  0.39090000  1.0 -0.5173276519
O  O13  1  0.00458000  0.94120000  0.39090000  1.0 -0.5173276519
O  O14  1  0.55030000  0.61368000  0.60910000  1.0 -0.5173276519
O  O15  1  0.94120000  0.55030000  0.93662000  1.0 -0.5173276519
O  O16  1  0.61368000  0.00458000  0.06338000  1.0 -0.5173276519
O  O17  1  0.03002000  0.70790000  0.06334000  1.0 -0.5027630967
O  O18  1  0.64456000  0.96668000  0.93666000  1.0 -0.5027630967
O  O19  1  0.96668000  0.03002000  0.32212000  1.0 -0.5027630967
O  O20  1  0.70790000  0.64456000  0.67788000  1.0 -0.5027630967
O  O21  1  0.96998000  0.03332000  0.67788000  1.0 -0.5027630967
O  O22  1  0.35544000  0.29210000  0.32212000  1.0 -0.5027630967
O  O23  1  0.03332000  0.35544000  0.06334000  1.0 -0.5027630967
O  O24  1  0.29210000  0.96998000  0.93666000  1.0 -0.5027630967
O  O25  1  0.96998000  0.29210000  0.93666000  1.0 -0.5027630967
O  O26  1  0.35544000  0.03332000  0.06334000  1.0 -0.5027630967
O  O27  1  0.03332000  0.96998000  0.67788000  1.0 -0.5027630967
O  O28  1  0.29210000  0.35544000  0.32212000  1.0 -0.5027630967
O  O29  1  0.03002000  0.96668000  0.32212000  1.0 -0.5027630967
O  O30  1  0.64456000  0.70790000  0.67788000  1.0 -0.5027630967
O  O31  1  0.96668000  0.64456000  0.93666000  1.0 -0.5027630967
O  O32  1  0.70790000  0.03002000  0.06334000  1.0 -0.5027630967
O  O33  1  0.22724000  0.90639000  0.23205000  1.0 -0.5173276519
O  O34  1  0.67434000  0.99519000  0.76795000  1.0 -0.5173276519
O  O35  1  0.99519000  0.22724000  0.32085000  1.0 -0.5173276519
O  O36  1  0.90639000  0.67434000  0.67915000  1.0 -0.5173276519
O  O37  1  0.77276000  0.00481000  0.67915000  1.0 -0.5173276519
O  O38  1  0.32566000  0.09361000  0.32085000  1.0 -0.5173276519
O  O39  1  0.00481000  0.32566000  0.23205000  1.0 -0.5173276519
O  O40  1  0.09361000  0.77276000  0.76795000  1.0 -0.5173276519
O  O41  1  0.77276000  0.09361000  0.76795000  1.0 -0.5173276519
O  O42  1  0.32566000  0.00481000  0.23205000  1.0 -0.5173276519
O  O43  1  0.00481000  0.77276000  0.67915000  1.0 -0.5173276519
O  O44  1  0.09361000  0.32566000  0.32085000  1.0 -0.5173276519
O  O45  1  0.22724000  0.99519000  0.32085000  1.0 -0.5173276519
O  O46  1  0.67434000  0.90639000  0.67915000  1.0 -0.5173276519
O  O47  1  0.99519000  0.67434000  0.76795000  1.0 -0.5173276519
O  O48  1  0.90639000  0.22724000  0.23205000  1.0 -0.5173276519
O  O49  1  0.29980000  0.90486000  0.30488000  1.0 -0.5173276519
O  O50  1  0.59998000  0.99492000  0.69512000  1.0 -0.5173276519
O  O51  1  0.99492000  0.29980000  0.39494000  1.0 -0.5173276519
O  O52  1  0.90486000  0.59998000  0.60506000  1.0 -0.5173276519
O  O53  1  0.70020000  0.00508000  0.60506000  1.0 -0.5173276519
O  O54  1  0.40002000  0.09514000  0.39494000  1.0 -0.5173276519
O  O55  1  0.00508000  0.40002000  0.30488000  1.0 -0.5173276519
O  O56  1  0.09514000  0.70020000  0.69512000  1.0 -0.5173276519
O  O57  1  0.70020000  0.09514000  0.69512000  1.0 -0.5173276519
O  O58  1  0.40002000  0.00508000  0.30488000  1.0 -0.5173276519
O  O59  1  0.00508000  0.70020000  0.60506000  1.0 -0.5173276519
O  O60  1  0.09514000  0.40002000  0.39494000  1.0 -0.5173276519
O  O61  1  0.29980000  0.99492000  0.39494000  1.0 -0.5173276519
O  O62  1  0.59998000  0.90486000  0.60506000  1.0 -0.5173276519
O  O63  1  0.99492000  0.59998000  0.69512000  1.0 -0.5173276519
O  O64  1  0.90486000  0.29980000  0.30488000  1.0 -0.5173276519
O  O65  1  0.82935000  0.53270000  0.93579000  1.0 -0.5141050485
O  O66  1  0.59691000  0.89356000  0.06421000  1.0 -0.5141050485
O  O67  1  0.89356000  0.82935000  0.29665000  1.0 -0.5141050485
O  O68  1  0.53270000  0.59691000  0.70335000  1.0 -0.5141050485
O  O69  1  0.17065000  0.10644000  0.70335000  1.0 -0.5141050485
O  O70  1  0.40309000  0.46730000  0.29665000  1.0 -0.5141050485
O  O71  1  0.10644000  0.40309000  0.93579000  1.0 -0.5141050485
O  O72  1  0.46730000  0.17065000  0.06421000  1.0 -0.5141050485
O  O73  1  0.17065000  0.46730000  0.06421000  1.0 -0.5141050485
O  O74  1  0.40309000  0.10644000  0.93579000  1.0 -0.5141050485
O  O75  1  0.10644000  0.17065000  0.70335000  1.0 -0.5141050485
O  O76  1  0.46730000  0.40309000  0.29665000  1.0 -0.5141050485
O  O77  1  0.82935000  0.89356000  0.29665000  1.0 -0.5141050485
O  O78  1  0.59691000  0.53270000  0.70335000  1.0 -0.5141050485
O  O79  1  0.89356000  0.59691000  0.06421000  1.0 -0.5141050485
O  O80  1  0.53270000  0.82935000  0.93579000  1.0 -0.5141050485
O  O81  1  0.85294000  0.62643000  0.93525000  1.0 -0.5173276519
O  O82  1  0.69118000  0.91769000  0.06475000  1.0 -0.5173276519
O  O83  1  0.91769000  0.85294000  0.22651000  1.0 -0.5173276519
O  O84  1  0.62643000  0.69118000  0.77349000  1.0 -0.5173276519
O  O85  1  0.14706000  0.08231000  0.77349000  1.0 -0.5173276519
O  O86  1  0.30882000  0.37357000  0.22651000  1.0 -0.5173276519
O  O87  1  0.08231000  0.30882000  0.93525000  1.0 -0.5173276519
O  O88  1  0.37357000  0.14706000  0.06475000  1.0 -0.5173276519
O  O89  1  0.14706000  0.37357000  0.06475000  1.0 -0.5173276519
O  O90  1  0.30882000  0.08231000  0.93525000  1.0 -0.5173276519
O  O91  1  0.08231000  0.14706000  0.77349000  1.0 -0.5173276519
O  O92  1  0.37357000  0.30882000  0.22651000  1.0 -0.5173276519
O  O93  1  0.85294000  0.91769000  0.22651000  1.0 -0.5173276519
O  O94  1  0.69118000  0.62643000  0.77349000  1.0 -0.5173276519
O  O95  1  0.91769000  0.69118000  0.06475000  1.0 -0.5173276519
O  O96  1  0.62643000  0.85294000  0.93525000  1.0 -0.5173276519
