# DDEC6 charges by PACMAN v1.1 (https://github.com/mtap-research/PACMAN-charge/)
data_HUYKUH_FSR_pacman
_symmetry_space_group_name_H-M   'P 1'
_cell_length_a   24.77010000
_cell_length_b   24.77010000
_cell_length_c   24.77010000
_cell_angle_alpha   109.47100000
_cell_angle_beta   109.47100000
_cell_angle_gamma   109.47100000
_symmetry_Int_Tables_number   1
_chemical_formula_structural   NiH14C26(NO6)2
_chemical_formula_sum   'Ni12 H168 C312 N24 O144'
_cell_volume   11699.43628297
_cell_formula_units_Z   12
loop_
 _symmetry_equiv_pos_site_id
 _symmetry_equiv_pos_as_xyz
  1  'x, y, z'
loop_
 _atom_site_type_symbol
 _atom_site_label
 _atom_site_symmetry_multiplicity
 _atom_site_fract_x
 _atom_site_fract_y
 _atom_site_fract_z
 _atom_site_occupancy
 _atom_site_charge
Ni  Ni1  1  0.97197000  0.52803000  0.25000000  1.0 0.6704701363
Ni  Ni2  1  0.52803000  0.25000000  0.97197000  1.0 0.6704701363
Ni  Ni3  1  0.25000000  0.97197000  0.52803000  1.0 0.6704701363
Ni  Ni4  1  0.52803000  0.77803000  0.55606000  1.0 0.6704701363
Ni  Ni5  1  0.25000000  0.77803000  0.72197000  1.0 0.6704701363
Ni  Ni6  1  0.97197000  0.94394000  0.72197000  1.0 0.6704701363
Ni  Ni7  1  0.77803000  0.72197000  0.25000000  1.0 0.6704701363
Ni  Ni8  1  0.55606000  0.52803000  0.77803000  1.0 0.6704701363
Ni  Ni9  1  0.72197000  0.97197000  0.94394000  1.0 0.6704701363
Ni  Ni10  1  0.77803000  0.55606000  0.52803000  1.0 0.6704701363
Ni  Ni11  1  0.94394000  0.72197000  0.97197000  1.0 0.6704701363
Ni  Ni12  1  0.72197000  0.25000000  0.77803000  1.0 0.6704701363
H  H1  1  0.91230000  0.52270000  0.39100000  1.0 0.1276132707
H  H2  1  0.52270000  0.39100000  0.91230000  1.0 0.1276132707
H  H3  1  0.39100000  0.91230000  0.52270000  1.0 0.1276132707
H  H4  1  0.52270000  0.63170000  0.61040000  1.0 0.1276132707
H  H5  1  0.39100000  0.97870000  0.86830000  1.0 0.1276132707
H  H6  1  0.91230000  0.88960000  0.52130000  1.0 0.1276132707
H  H7  1  0.63170000  0.52130000  0.10900000  1.0 0.1276132707
H  H8  1  0.61040000  0.58770000  0.97870000  1.0 0.1276132707
H  H9  1  0.86830000  0.97730000  0.88960000  1.0 0.1276132707
H  H10  1  0.97870000  0.61040000  0.58770000  1.0 0.1276132707
H  H11  1  0.88960000  0.86830000  0.97730000  1.0 0.1276132707
H  H12  1  0.52130000  0.91230000  0.88960000  1.0 0.1276132707
H  H13  1  0.61040000  0.52270000  0.63170000  1.0 0.1276132707
H  H14  1  0.86830000  0.39100000  0.97870000  1.0 0.1276132707
H  H15  1  0.52130000  0.10900000  0.63170000  1.0 0.1276132707
H  H16  1  0.10900000  0.97730000  0.58770000  1.0 0.1276132707
H  H17  1  0.58770000  0.10900000  0.97730000  1.0 0.1276132707
H  H18  1  0.97730000  0.58770000  0.10900000  1.0 0.1276132707
H  H19  1  0.97730000  0.88960000  0.86830000  1.0 0.1276132707
H  H20  1  0.97870000  0.86830000  0.39100000  1.0 0.1276132707
H  H21  1  0.88960000  0.52130000  0.91230000  1.0 0.1276132707
H  H22  1  0.63170000  0.61040000  0.52270000  1.0 0.1276132707
H  H23  1  0.58770000  0.97870000  0.61040000  1.0 0.1276132707
H  H24  1  0.10900000  0.63170000  0.52130000  1.0 0.1276132707
H  H25  1  0.86190000  0.54060000  0.16070000  1.0 0.1014146043
H  H26  1  0.54060000  0.16070000  0.86190000  1.0 0.1014146043
H  H27  1  0.16070000  0.86190000  0.54060000  1.0 0.1014146043
H  H28  1  0.54060000  0.87990000  0.67870000  1.0 0.1014146043
H  H29  1  0.16070000  0.79880000  0.62010000  1.0 0.1014146043
H  H30  1  0.86190000  0.82130000  0.70120000  1.0 0.1014146043
H  H31  1  0.87990000  0.70120000  0.33930000  1.0 0.1014146043
H  H32  1  0.67870000  0.63810000  0.79880000  1.0 0.1014146043
H  H33  1  0.62010000  0.95940000  0.82130000  1.0 0.1014146043
H  H34  1  0.79880000  0.67870000  0.63810000  1.0 0.1014146043
H  H35  1  0.82130000  0.62010000  0.95940000  1.0 0.1014146043
H  H36  1  0.70120000  0.86190000  0.82130000  1.0 0.1014146043
H  H37  1  0.67870000  0.54060000  0.87990000  1.0 0.1014146043
H  H38  1  0.62010000  0.16070000  0.79880000  1.0 0.1014146043
H  H39  1  0.70120000  0.33930000  0.87990000  1.0 0.1014146043
H  H40  1  0.33930000  0.95940000  0.63810000  1.0 0.1014146043
H  H41  1  0.63810000  0.33930000  0.95940000  1.0 0.1014146043
H  H42  1  0.95940000  0.63810000  0.33930000  1.0 0.1014146043
H  H43  1  0.95940000  0.82130000  0.62010000  1.0 0.1014146043
H  H44  1  0.79880000  0.62010000  0.16070000  1.0 0.1014146043
H  H45  1  0.82130000  0.70120000  0.86190000  1.0 0.1014146043
H  H46  1  0.87990000  0.67870000  0.54060000  1.0 0.1014146043
H  H47  1  0.63810000  0.79880000  0.67870000  1.0 0.1014146043
H  H48  1  0.33930000  0.87990000  0.70120000  1.0 0.1014146043
H  H49  1  0.74960000  0.50490000  0.12630000  1.0 0.1352864136
H  H50  1  0.50490000  0.12630000  0.74960000  1.0 0.1352864136
H  H51  1  0.12630000  0.74960000  0.50490000  1.0 0.1352864136
H  H52  1  0.50490000  0.87860000  0.75530000  1.0 0.1352864136
H  H53  1  0.12630000  0.87670000  0.62140000  1.0 0.1352864136
H  H54  1  0.74960000  0.74470000  0.62330000  1.0 0.1352864136
H  H55  1  0.87860000  0.62330000  0.37370000  1.0 0.1352864136
H  H56  1  0.75530000  0.75040000  0.87670000  1.0 0.1352864136
H  H57  1  0.62140000  0.99510000  0.74470000  1.0 0.1352864136
H  H58  1  0.87670000  0.75530000  0.75040000  1.0 0.1352864136
H  H59  1  0.74470000  0.62140000  0.99510000  1.0 0.1352864136
H  H60  1  0.62330000  0.74960000  0.74470000  1.0 0.1352864136
H  H61  1  0.75530000  0.50490000  0.87860000  1.0 0.1352864136
H  H62  1  0.62140000  0.12630000  0.87670000  1.0 0.1352864136
H  H63  1  0.62330000  0.37370000  0.87860000  1.0 0.1352864136
H  H64  1  0.37370000  0.99510000  0.75040000  1.0 0.1352864136
H  H65  1  0.75040000  0.37370000  0.99510000  1.0 0.1352864136
H  H66  1  0.99510000  0.75040000  0.37370000  1.0 0.1352864136
H  H67  1  0.99510000  0.74470000  0.62140000  1.0 0.1352864136
H  H68  1  0.87670000  0.62140000  0.12630000  1.0 0.1352864136
H  H69  1  0.74470000  0.62330000  0.74960000  1.0 0.1352864136
H  H70  1  0.87860000  0.75530000  0.50490000  1.0 0.1352864136
H  H71  1  0.75040000  0.87670000  0.75530000  1.0 0.1352864136
H  H72  1  0.37370000  0.87860000  0.62330000  1.0 0.1352864136
H  H73  1  0.69080000  0.43250000  0.14810000  1.0 0.1276132707
H  H74  1  0.43250000  0.14810000  0.69080000  1.0 0.1276132707
H  H75  1  0.14810000  0.69080000  0.43250000  1.0 0.1276132707
H  H76  1  0.43250000  0.78440000  0.74170000  1.0 0.1276132707
H  H77  1  0.14810000  0.95730000  0.71560000  1.0 0.1276132707
H  H78  1  0.69080000  0.75830000  0.54270000  1.0 0.1276132707
H  H79  1  0.78440000  0.54270000  0.35190000  1.0 0.1276132707
H  H80  1  0.74170000  0.80920000  0.95730000  1.0 0.1276132707
H  H81  1  0.71560000  0.06750000  0.75830000  1.0 0.1276132707
H  H82  1  0.95730000  0.74170000  0.80920000  1.0 0.1276132707
H  H83  1  0.75830000  0.71560000  0.06750000  1.0 0.1276132707
H  H84  1  0.54270000  0.69080000  0.75830000  1.0 0.1276132707
H  H85  1  0.74170000  0.43250000  0.78440000  1.0 0.1276132707
H  H86  1  0.71560000  0.14810000  0.95730000  1.0 0.1276132707
H  H87  1  0.54270000  0.35190000  0.78440000  1.0 0.1276132707
H  H88  1  0.35190000  0.06750000  0.80920000  1.0 0.1276132707
H  H89  1  0.80920000  0.35190000  0.06750000  1.0 0.1276132707
H  H90  1  0.06750000  0.80920000  0.35190000  1.0 0.1276132707
H  H91  1  0.06750000  0.75830000  0.71560000  1.0 0.1276132707
H  H92  1  0.95730000  0.71560000  0.14810000  1.0 0.1276132707
H  H93  1  0.75830000  0.54270000  0.69080000  1.0 0.1276132707
H  H94  1  0.78440000  0.74170000  0.43250000  1.0 0.1276132707
H  H95  1  0.80920000  0.95730000  0.74170000  1.0 0.1276132707
H  H96  1  0.35190000  0.78440000  0.54270000  1.0 0.1276132707
H  H97  1  0.74760000  0.40450000  0.22190000  1.0 0.1276132707
H  H98  1  0.40450000  0.22190000  0.74760000  1.0 0.1276132707
H  H99  1  0.22190000  0.74760000  0.40450000  1.0 0.1276132707
H  H100  1  0.40450000  0.68260000  0.65690000  1.0 0.1276132707
H  H101  1  0.22190000  0.97430000  0.81740000  1.0 0.1276132707
H  H102  1  0.74760000  0.84310000  0.52570000  1.0 0.1276132707
H  H103  1  0.68260000  0.52570000  0.27810000  1.0 0.1276132707
H  H104  1  0.65690000  0.75240000  0.97430000  1.0 0.1276132707
H  H105  1  0.81740000  0.09550000  0.84310000  1.0 0.1276132707
H  H106  1  0.97430000  0.65690000  0.75240000  1.0 0.1276132707
H  H107  1  0.84310000  0.81740000  0.09550000  1.0 0.1276132707
H  H108  1  0.52570000  0.74760000  0.84310000  1.0 0.1276132707
H  H109  1  0.65690000  0.40450000  0.68260000  1.0 0.1276132707
H  H110  1  0.81740000  0.22190000  0.97430000  1.0 0.1276132707
H  H111  1  0.52570000  0.27810000  0.68260000  1.0 0.1276132707
H  H112  1  0.27810000  0.09550000  0.75240000  1.0 0.1276132707
H  H113  1  0.75240000  0.27810000  0.09550000  1.0 0.1276132707
H  H114  1  0.09550000  0.75240000  0.27810000  1.0 0.1276132707
H  H115  1  0.09550000  0.84310000  0.81740000  1.0 0.1276132707
H  H116  1  0.97430000  0.81740000  0.22190000  1.0 0.1276132707
H  H117  1  0.84310000  0.52570000  0.74760000  1.0 0.1276132707
H  H118  1  0.68260000  0.65690000  0.40450000  1.0 0.1276132707
H  H119  1  0.75240000  0.97430000  0.65690000  1.0 0.1276132707
H  H120  1  0.27810000  0.68260000  0.52570000  1.0 0.1276132707
H  H121  1  0.86240000  0.44690000  0.26010000  1.0 0.108630205
H  H122  1  0.44690000  0.26010000  0.86240000  1.0 0.108630205
H  H123  1  0.26010000  0.86240000  0.44690000  1.0 0.108630205
H  H124  1  0.44690000  0.68680000  0.58450000  1.0 0.108630205
H  H125  1  0.26010000  0.89770000  0.81320000  1.0 0.108630205
H  H126  1  0.86240000  0.91550000  0.60230000  1.0 0.108630205
H  H127  1  0.68680000  0.60230000  0.23990000  1.0 0.108630205
H  H128  1  0.58450000  0.63760000  0.89770000  1.0 0.108630205
H  H129  1  0.81320000  0.05310000  0.91550000  1.0 0.108630205
H  H130  1  0.89770000  0.58450000  0.63760000  1.0 0.108630205
H  H131  1  0.91550000  0.81320000  0.05310000  1.0 0.108630205
H  H132  1  0.60230000  0.86240000  0.91550000  1.0 0.108630205
H  H133  1  0.58450000  0.44690000  0.68680000  1.0 0.108630205
H  H134  1  0.81320000  0.26010000  0.89770000  1.0 0.108630205
H  H135  1  0.60230000  0.23990000  0.68680000  1.0 0.108630205
H  H136  1  0.23990000  0.05310000  0.63760000  1.0 0.108630205
H  H137  1  0.63760000  0.23990000  0.05310000  1.0 0.108630205
H  H138  1  0.05310000  0.63760000  0.23990000  1.0 0.108630205
H  H139  1  0.05310000  0.91550000  0.81320000  1.0 0.108630205
H  H140  1  0.89770000  0.81320000  0.26010000  1.0 0.108630205
H  H141  1  0.91550000  0.60230000  0.86240000  1.0 0.108630205
H  H142  1  0.68680000  0.58450000  0.44690000  1.0 0.108630205
H  H143  1  0.63760000  0.89770000  0.58450000  1.0 0.108630205
H  H144  1  0.23990000  0.68680000  0.60230000  1.0 0.108630205
H  H145  1  0.08790000  0.55900000  0.32490000  1.0 0.3242619787
H  H146  1  0.55900000  0.32490000  0.08790000  1.0 0.3242619787
H  H147  1  0.32490000  0.08790000  0.55900000  1.0 0.3242619787
H  H148  1  0.55900000  0.73410000  0.47110000  1.0 0.3242619787
H  H149  1  0.32490000  0.73700000  0.76590000  1.0 0.3242619787
H  H150  1  0.08790000  0.02890000  0.76300000  1.0 0.3242619787
H  H151  1  0.73410000  0.76300000  0.17510000  1.0 0.3242619787
H  H152  1  0.47110000  0.41210000  0.73700000  1.0 0.3242619787
H  H153  1  0.76590000  0.94100000  0.02890000  1.0 0.3242619787
H  H154  1  0.73700000  0.47110000  0.41210000  1.0 0.3242619787
H  H155  1  0.02890000  0.76590000  0.94100000  1.0 0.3242619787
H  H156  1  0.76300000  0.08790000  0.02890000  1.0 0.3242619787
H  H157  1  0.47110000  0.55900000  0.73410000  1.0 0.3242619787
H  H158  1  0.76590000  0.32490000  0.73700000  1.0 0.3242619787
H  H159  1  0.76300000  0.17510000  0.73410000  1.0 0.3242619787
H  H160  1  0.17510000  0.94100000  0.41210000  1.0 0.3242619787
H  H161  1  0.41210000  0.17510000  0.94100000  1.0 0.3242619787
H  H162  1  0.94100000  0.41210000  0.17510000  1.0 0.3242619787
H  H163  1  0.94100000  0.02890000  0.76590000  1.0 0.3242619787
H  H164  1  0.73700000  0.76590000  0.32490000  1.0 0.3242619787
H  H165  1  0.02890000  0.76300000  0.08790000  1.0 0.3242619787
H  H166  1  0.73410000  0.47110000  0.55900000  1.0 0.3242619787
H  H167  1  0.41210000  0.73700000  0.47110000  1.0 0.3242619787
H  H168  1  0.17510000  0.73410000  0.76300000  1.0 0.3242619787
C  C1  1  0.02630000  0.56156000  0.39108000  1.0 0.5569825996
C  C2  1  0.56156000  0.39108000  0.02630000  1.0 0.5569825996
C  C3  1  0.39108000  0.02630000  0.56156000  1.0 0.5569825996
C  C4  1  0.56156000  0.67048000  0.53526000  1.0 0.5569825996
C  C5  1  0.39108000  0.86478000  0.82952000  1.0 0.5569825996
C  C6  1  0.02630000  0.96474000  0.63522000  1.0 0.5569825996
C  C7  1  0.67048000  0.63522000  0.10892000  1.0 0.5569825996
C  C8  1  0.53526000  0.47370000  0.86478000  1.0 0.5569825996
C  C9  1  0.82952000  0.93844000  0.96474000  1.0 0.5569825996
C  C10  1  0.86478000  0.53526000  0.47370000  1.0 0.5569825996
C  C11  1  0.96474000  0.82952000  0.93844000  1.0 0.5569825996
C  C12  1  0.63522000  0.02630000  0.96474000  1.0 0.5569825996
C  C13  1  0.53526000  0.56156000  0.67048000  1.0 0.5569825996
C  C14  1  0.82952000  0.39108000  0.86478000  1.0 0.5569825996
C  C15  1  0.63522000  0.10892000  0.67048000  1.0 0.5569825996
C  C16  1  0.10892000  0.93844000  0.47370000  1.0 0.5569825996
C  C17  1  0.47370000  0.10892000  0.93844000  1.0 0.5569825996
C  C18  1  0.93844000  0.47370000  0.10892000  1.0 0.5569825996
C  C19  1  0.93844000  0.96474000  0.82952000  1.0 0.5569825996
C  C20  1  0.86478000  0.82952000  0.39108000  1.0 0.5569825996
C  C21  1  0.96474000  0.63522000  0.02630000  1.0 0.5569825996
C  C22  1  0.67048000  0.53526000  0.56156000  1.0 0.5569825996
C  C23  1  0.47370000  0.86478000  0.53526000  1.0 0.5569825996
C  C24  1  0.10892000  0.67048000  0.63522000  1.0 0.5569825996
C  C25  1  0.01253000  0.57437000  0.44776000  1.0 -0.0135237047
C  C26  1  0.57437000  0.44776000  0.01253000  1.0 -0.0135237047
C  C27  1  0.44776000  0.01253000  0.57437000  1.0 -0.0135237047
C  C28  1  0.57437000  0.62661000  0.56184000  1.0 -0.0135237047
C  C29  1  0.44776000  0.93523000  0.87339000  1.0 -0.0135237047
C  C30  1  0.01253000  0.93816000  0.56477000  1.0 -0.0135237047
C  C31  1  0.62661000  0.56477000  0.05224000  1.0 -0.0135237047
C  C32  1  0.56184000  0.48747000  0.93523000  1.0 -0.0135237047
C  C33  1  0.87339000  0.92563000  0.93816000  1.0 -0.0135237047
C  C34  1  0.93523000  0.56184000  0.48747000  1.0 -0.0135237047
C  C35  1  0.93816000  0.87339000  0.92563000  1.0 -0.0135237047
C  C36  1  0.56477000  0.01253000  0.93816000  1.0 -0.0135237047
C  C37  1  0.56184000  0.57437000  0.62661000  1.0 -0.0135237047
C  C38  1  0.87339000  0.44776000  0.93523000  1.0 -0.0135237047
C  C39  1  0.56477000  0.05224000  0.62661000  1.0 -0.0135237047
C  C40  1  0.05224000  0.92563000  0.48747000  1.0 -0.0135237047
C  C41  1  0.48747000  0.05224000  0.92563000  1.0 -0.0135237047
C  C42  1  0.92563000  0.48747000  0.05224000  1.0 -0.0135237047
C  C43  1  0.92563000  0.93816000  0.87339000  1.0 -0.0135237047
C  C44  1  0.93523000  0.87339000  0.44776000  1.0 -0.0135237047
C  C45  1  0.93816000  0.56477000  0.01253000  1.0 -0.0135237047
C  C46  1  0.62661000  0.56184000  0.57437000  1.0 -0.0135237047
C  C47  1  0.48747000  0.93523000  0.56184000  1.0 -0.0135237047
C  C48  1  0.05224000  0.62661000  0.56477000  1.0 -0.0135237047
C  C49  1  0.94796000  0.54894000  0.43524000  1.0 -0.122115331
C  C50  1  0.54894000  0.43524000  0.94796000  1.0 -0.122115331
C  C51  1  0.43524000  0.94796000  0.54894000  1.0 -0.122115331
C  C52  1  0.54894000  0.61370000  0.60098000  1.0 -0.122115331
C  C53  1  0.43524000  0.98728000  0.88630000  1.0 -0.122115331
C  C54  1  0.94796000  0.89902000  0.51272000  1.0 -0.122115331
C  C55  1  0.61370000  0.51272000  0.06476000  1.0 -0.122115331
C  C56  1  0.60098000  0.55204000  0.98728000  1.0 -0.122115331
C  C57  1  0.88630000  0.95106000  0.89902000  1.0 -0.122115331
C  C58  1  0.98728000  0.60098000  0.55204000  1.0 -0.122115331
C  C59  1  0.89902000  0.88630000  0.95106000  1.0 -0.122115331
C  C60  1  0.51272000  0.94796000  0.89902000  1.0 -0.122115331
C  C61  1  0.60098000  0.54894000  0.61370000  1.0 -0.122115331
C  C62  1  0.88630000  0.43524000  0.98728000  1.0 -0.122115331
C  C63  1  0.51272000  0.06476000  0.61370000  1.0 -0.122115331
C  C64  1  0.06476000  0.95106000  0.55204000  1.0 -0.122115331
C  C65  1  0.55204000  0.06476000  0.95106000  1.0 -0.122115331
C  C66  1  0.95106000  0.55204000  0.06476000  1.0 -0.122115331
C  C67  1  0.95106000  0.89902000  0.88630000  1.0 -0.122115331
C  C68  1  0.98728000  0.88630000  0.43524000  1.0 -0.122115331
C  C69  1  0.89902000  0.51272000  0.94796000  1.0 -0.122115331
C  C70  1  0.61370000  0.60098000  0.54894000  1.0 -0.122115331
C  C71  1  0.55204000  0.98728000  0.60098000  1.0 -0.122115331
C  C72  1  0.06476000  0.61370000  0.51272000  1.0 -0.122115331
C  C73  1  0.06800000  0.48790000  0.25230000  1.0 0.1276132707
C  C74  1  0.48790000  0.25230000  0.06800000  1.0 0.1276132707
C  C75  1  0.25230000  0.06800000  0.48790000  1.0 0.1276132707
C  C76  1  0.48790000  0.73560000  0.41990000  1.0 0.1276132707
C  C77  1  0.25230000  0.68430000  0.76440000  1.0 0.1276132707
C  C78  1  0.06800000  0.08010000  0.81570000  1.0 0.1276132707
C  C79  1  0.73560000  0.81570000  0.24770000  1.0 0.1276132707
C  C80  1  0.41990000  0.43200000  0.68430000  1.0 0.1276132707
C  C81  1  0.76440000  0.01210000  0.08010000  1.0 0.1276132707
C  C82  1  0.68430000  0.41990000  0.43200000  1.0 0.1276132707
C  C83  1  0.08010000  0.76440000  0.01210000  1.0 0.1276132707
C  C84  1  0.81570000  0.06800000  0.08010000  1.0 0.1276132707
C  C85  1  0.41990000  0.48790000  0.73560000  1.0 0.1276132707
C  C86  1  0.76440000  0.25230000  0.68430000  1.0 0.1276132707
C  C87  1  0.81570000  0.24770000  0.73560000  1.0 0.1276132707
C  C88  1  0.24770000  0.01210000  0.43200000  1.0 0.1276132707
C  C89  1  0.43200000  0.24770000  0.01210000  1.0 0.1276132707
C  C90  1  0.01210000  0.43200000  0.24770000  1.0 0.1276132707
C  C91  1  0.01210000  0.08010000  0.76440000  1.0 0.1276132707
C  C92  1  0.68430000  0.76440000  0.25230000  1.0 0.1276132707
C  C93  1  0.08010000  0.81570000  0.06800000  1.0 0.1276132707
C  C94  1  0.73560000  0.41990000  0.48790000  1.0 0.1276132707
C  C95  1  0.43200000  0.68430000  0.41990000  1.0 0.1276132707
C  C96  1  0.24770000  0.73560000  0.81570000  1.0 0.1276132707
C  C97  1  0.13940000  0.50320000  0.27860000  1.0 0.1014146043
C  C98  1  0.50320000  0.27860000  0.13940000  1.0 0.1014146043
C  C99  1  0.27860000  0.13940000  0.50320000  1.0 0.1014146043
C  C100  1  0.50320000  0.72460000  0.36380000  1.0 0.1014146043
C  C101  1  0.27860000  0.63920000  0.77540000  1.0 0.1014146043
C  C102  1  0.13940000  0.13620000  0.86080000  1.0 0.1014146043
C  C103  1  0.72460000  0.86080000  0.22140000  1.0 0.1014146043
C  C104  1  0.36380000  0.36060000  0.63920000  1.0 0.1014146043
C  C105  1  0.77540000  0.99680000  0.13620000  1.0 0.1014146043
C  C106  1  0.63920000  0.36380000  0.36060000  1.0 0.1014146043
C  C107  1  0.13620000  0.77540000  0.99680000  1.0 0.1014146043
C  C108  1  0.86080000  0.13940000  0.13620000  1.0 0.1014146043
C  C109  1  0.36380000  0.50320000  0.72460000  1.0 0.1014146043
C  C110  1  0.77540000  0.27860000  0.63920000  1.0 0.1014146043
C  C111  1  0.86080000  0.22140000  0.72460000  1.0 0.1014146043
C  C112  1  0.22140000  0.99680000  0.36060000  1.0 0.1014146043
C  C113  1  0.36060000  0.22140000  0.99680000  1.0 0.1014146043
C  C114  1  0.99680000  0.36060000  0.22140000  1.0 0.1014146043
C  C115  1  0.99680000  0.13620000  0.77540000  1.0 0.1014146043
C  C116  1  0.63920000  0.77540000  0.27860000  1.0 0.1014146043
C  C117  1  0.13620000  0.86080000  0.13940000  1.0 0.1014146043
C  C118  1  0.72460000  0.36380000  0.50320000  1.0 0.1014146043
C  C119  1  0.36060000  0.63920000  0.36380000  1.0 0.1014146043
C  C120  1  0.22140000  0.72460000  0.86080000  1.0 0.1014146043
C  C121  1  0.83990000  0.51350000  0.17460000  1.0 0.0737624033
C  C122  1  0.51350000  0.17460000  0.83990000  1.0 0.0737624033
C  C123  1  0.17460000  0.83990000  0.51350000  1.0 0.0737624033
C  C124  1  0.51350000  0.83890000  0.67360000  1.0 0.0737624033
C  C125  1  0.17460000  0.83470000  0.66110000  1.0 0.0737624033
C  C126  1  0.83990000  0.82640000  0.66530000  1.0 0.0737624033
C  C127  1  0.83890000  0.66530000  0.32540000  1.0 0.0737624033
C  C128  1  0.67360000  0.66010000  0.83470000  1.0 0.0737624033
C  C129  1  0.66110000  0.98650000  0.82640000  1.0 0.0737624033
C  C130  1  0.83470000  0.67360000  0.66010000  1.0 0.0737624033
C  C131  1  0.82640000  0.66110000  0.98650000  1.0 0.0737624033
C  C132  1  0.66530000  0.83990000  0.82640000  1.0 0.0737624033
C  C133  1  0.67360000  0.51350000  0.83890000  1.0 0.0737624033
C  C134  1  0.66110000  0.17460000  0.83470000  1.0 0.0737624033
C  C135  1  0.66530000  0.32540000  0.83890000  1.0 0.0737624033
C  C136  1  0.32540000  0.98650000  0.66010000  1.0 0.0737624033
C  C137  1  0.66010000  0.32540000  0.98650000  1.0 0.0737624033
C  C138  1  0.98650000  0.66010000  0.32540000  1.0 0.0737624033
C  C139  1  0.98650000  0.82640000  0.66110000  1.0 0.0737624033
C  C140  1  0.83470000  0.66110000  0.17460000  1.0 0.0737624033
C  C141  1  0.82640000  0.66530000  0.83990000  1.0 0.0737624033
C  C142  1  0.83890000  0.67360000  0.51350000  1.0 0.0737624033
C  C143  1  0.66010000  0.83470000  0.67360000  1.0 0.0737624033
C  C144  1  0.32540000  0.83890000  0.66530000  1.0 0.0737624033
C  C145  1  0.77150000  0.49030000  0.15260000  1.0 -0.1391440855
C  C146  1  0.49030000  0.15260000  0.77150000  1.0 -0.1391440855
C  C147  1  0.15260000  0.77150000  0.49030000  1.0 -0.1391440855
C  C148  1  0.49030000  0.83770000  0.71880000  1.0 -0.1391440855
C  C149  1  0.15260000  0.88110000  0.66230000  1.0 -0.1391440855
C  C150  1  0.77150000  0.78120000  0.61890000  1.0 -0.1391440855
C  C151  1  0.83770000  0.61890000  0.34740000  1.0 -0.1391440855
C  C152  1  0.71880000  0.72850000  0.88110000  1.0 -0.1391440855
C  C153  1  0.66230000  0.00970000  0.78120000  1.0 -0.1391440855
C  C154  1  0.88110000  0.71880000  0.72850000  1.0 -0.1391440855
C  C155  1  0.78120000  0.66230000  0.00970000  1.0 -0.1391440855
C  C156  1  0.61890000  0.77150000  0.78120000  1.0 -0.1391440855
C  C157  1  0.71880000  0.49030000  0.83770000  1.0 -0.1391440855
C  C158  1  0.66230000  0.15260000  0.88110000  1.0 -0.1391440855
C  C159  1  0.61890000  0.34740000  0.83770000  1.0 -0.1391440855
C  C160  1  0.34740000  0.00970000  0.72850000  1.0 -0.1391440855
C  C161  1  0.72850000  0.34740000  0.00970000  1.0 -0.1391440855
C  C162  1  0.00970000  0.72850000  0.34740000  1.0 -0.1391440855
C  C163  1  0.00970000  0.78120000  0.66230000  1.0 -0.1391440855
C  C164  1  0.88110000  0.66230000  0.15260000  1.0 -0.1391440855
C  C165  1  0.78120000  0.61890000  0.77150000  1.0 -0.1391440855
C  C166  1  0.83770000  0.71880000  0.49030000  1.0 -0.1391440855
C  C167  1  0.72850000  0.88110000  0.71880000  1.0 -0.1391440855
C  C168  1  0.34740000  0.83770000  0.61890000  1.0 -0.1391440855
C  C169  1  0.73720000  0.44960000  0.16660000  1.0 -0.0306856763
C  C170  1  0.44960000  0.16660000  0.73720000  1.0 -0.0306856763
C  C171  1  0.16660000  0.73720000  0.44960000  1.0 -0.0306856763
C  C172  1  0.44960000  0.78300000  0.71240000  1.0 -0.0306856763
C  C173  1  0.16660000  0.92940000  0.71700000  1.0 -0.0306856763
C  C174  1  0.73720000  0.78760000  0.57060000  1.0 -0.0306856763
C  C175  1  0.78300000  0.57060000  0.33340000  1.0 -0.0306856763
C  C176  1  0.71240000  0.76280000  0.92940000  1.0 -0.0306856763
C  C177  1  0.71700000  0.05040000  0.78760000  1.0 -0.0306856763
C  C178  1  0.92940000  0.71240000  0.76280000  1.0 -0.0306856763
C  C179  1  0.78760000  0.71700000  0.05040000  1.0 -0.0306856763
C  C180  1  0.57060000  0.73720000  0.78760000  1.0 -0.0306856763
C  C181  1  0.71240000  0.44960000  0.78300000  1.0 -0.0306856763
C  C182  1  0.71700000  0.16660000  0.92940000  1.0 -0.0306856763
C  C183  1  0.57060000  0.33340000  0.78300000  1.0 -0.0306856763
C  C184  1  0.33340000  0.05040000  0.76280000  1.0 -0.0306856763
C  C185  1  0.76280000  0.33340000  0.05040000  1.0 -0.0306856763
C  C186  1  0.05040000  0.76280000  0.33340000  1.0 -0.0306856763
C  C187  1  0.05040000  0.78760000  0.71700000  1.0 -0.0306856763
C  C188  1  0.92940000  0.71700000  0.16660000  1.0 -0.0306856763
C  C189  1  0.78760000  0.57060000  0.73720000  1.0 -0.0306856763
C  C190  1  0.78300000  0.71240000  0.44960000  1.0 -0.0306856763
C  C191  1  0.76280000  0.92940000  0.71240000  1.0 -0.0306856763
C  C192  1  0.33340000  0.78300000  0.57060000  1.0 -0.0306856763
C  C193  1  0.76970000  0.43220000  0.20850000  1.0 -0.1391440855
C  C194  1  0.43220000  0.20850000  0.76970000  1.0 -0.1391440855
C  C195  1  0.20850000  0.76970000  0.43220000  1.0 -0.1391440855
C  C196  1  0.43220000  0.72370000  0.66250000  1.0 -0.1391440855
C  C197  1  0.20850000  0.93880000  0.77630000  1.0 -0.1391440855
C  C198  1  0.76970000  0.83750000  0.56120000  1.0 -0.1391440855
C  C199  1  0.72370000  0.56120000  0.29150000  1.0 -0.1391440855
C  C200  1  0.66250000  0.73030000  0.93880000  1.0 -0.1391440855
C  C201  1  0.77630000  0.06780000  0.83750000  1.0 -0.1391440855
C  C202  1  0.93880000  0.66250000  0.73030000  1.0 -0.1391440855
C  C203  1  0.83750000  0.77630000  0.06780000  1.0 -0.1391440855
C  C204  1  0.56120000  0.76970000  0.83750000  1.0 -0.1391440855
C  C205  1  0.66250000  0.43220000  0.72370000  1.0 -0.1391440855
C  C206  1  0.77630000  0.20850000  0.93880000  1.0 -0.1391440855
C  C207  1  0.56120000  0.29150000  0.72370000  1.0 -0.1391440855
C  C208  1  0.29150000  0.06780000  0.73030000  1.0 -0.1391440855
C  C209  1  0.73030000  0.29150000  0.06780000  1.0 -0.1391440855
C  C210  1  0.06780000  0.73030000  0.29150000  1.0 -0.1391440855
C  C211  1  0.06780000  0.83750000  0.77630000  1.0 -0.1391440855
C  C212  1  0.93880000  0.77630000  0.20850000  1.0 -0.1391440855
C  C213  1  0.83750000  0.56120000  0.76970000  1.0 -0.1391440855
C  C214  1  0.72370000  0.66250000  0.43220000  1.0 -0.1391440855
C  C215  1  0.73030000  0.93880000  0.66250000  1.0 -0.1391440855
C  C216  1  0.29150000  0.72370000  0.56120000  1.0 -0.1391440855
C  C217  1  0.83890000  0.45840000  0.23110000  1.0 0.0891435582
C  C218  1  0.45840000  0.23110000  0.83890000  1.0 0.0891435582
C  C219  1  0.23110000  0.83890000  0.45840000  1.0 0.0891435582
C  C220  1  0.45840000  0.72730000  0.61950000  1.0 0.0891435582
C  C221  1  0.23110000  0.89220000  0.77270000  1.0 0.0891435582
C  C222  1  0.83890000  0.88050000  0.60780000  1.0 0.0891435582
C  C223  1  0.72730000  0.60780000  0.26890000  1.0 0.0891435582
C  C224  1  0.61950000  0.66110000  0.89220000  1.0 0.0891435582
C  C225  1  0.77270000  0.04160000  0.88050000  1.0 0.0891435582
C  C226  1  0.89220000  0.61950000  0.66110000  1.0 0.0891435582
C  C227  1  0.88050000  0.77270000  0.04160000  1.0 0.0891435582
C  C228  1  0.60780000  0.83890000  0.88050000  1.0 0.0891435582
C  C229  1  0.61950000  0.45840000  0.72730000  1.0 0.0891435582
C  C230  1  0.77270000  0.23110000  0.89220000  1.0 0.0891435582
C  C231  1  0.60780000  0.26890000  0.72730000  1.0 0.0891435582
C  C232  1  0.26890000  0.04160000  0.66110000  1.0 0.0891435582
C  C233  1  0.66110000  0.26890000  0.04160000  1.0 0.0891435582
C  C234  1  0.04160000  0.66110000  0.26890000  1.0 0.0891435582
C  C235  1  0.04160000  0.88050000  0.77270000  1.0 0.0891435582
C  C236  1  0.89220000  0.77270000  0.23110000  1.0 0.0891435582
C  C237  1  0.88050000  0.60780000  0.83890000  1.0 0.0891435582
C  C238  1  0.72730000  0.61950000  0.45840000  1.0 0.0891435582
C  C239  1  0.66110000  0.89220000  0.61950000  1.0 0.0891435582
C  C240  1  0.26890000  0.72730000  0.60780000  1.0 0.0891435582
C  C241  1  0.10140000  0.52330000  0.25690000  1.0 0.0891435582
C  C242  1  0.52330000  0.25690000  0.10140000  1.0 0.0891435582
C  C243  1  0.25690000  0.10140000  0.52330000  1.0 0.0891435582
C  C244  1  0.52330000  0.76640000  0.42190000  1.0 0.0891435582
C  C245  1  0.25690000  0.65550000  0.73360000  1.0 0.0891435582
C  C246  1  0.10140000  0.07810000  0.84450000  1.0 0.0891435582
C  C247  1  0.76640000  0.84450000  0.24310000  1.0 0.0891435582
C  C248  1  0.42190000  0.39860000  0.65550000  1.0 0.0891435582
C  C249  1  0.73360000  0.97670000  0.07810000  1.0 0.0891435582
C  C250  1  0.65550000  0.42190000  0.39860000  1.0 0.0891435582
C  C251  1  0.07810000  0.73360000  0.97670000  1.0 0.0891435582
C  C252  1  0.84450000  0.10140000  0.07810000  1.0 0.0891435582
C  C253  1  0.42190000  0.52330000  0.76640000  1.0 0.0891435582
C  C254  1  0.73360000  0.25690000  0.65550000  1.0 0.0891435582
C  C255  1  0.84450000  0.24310000  0.76640000  1.0 0.0891435582
C  C256  1  0.24310000  0.97670000  0.39860000  1.0 0.0891435582
C  C257  1  0.39860000  0.24310000  0.97670000  1.0 0.0891435582
C  C258  1  0.97670000  0.39860000  0.24310000  1.0 0.0891435582
C  C259  1  0.97670000  0.07810000  0.73360000  1.0 0.0891435582
C  C260  1  0.65550000  0.73360000  0.25690000  1.0 0.0891435582
C  C261  1  0.07810000  0.84450000  0.10140000  1.0 0.0891435582
C  C262  1  0.76640000  0.42190000  0.52330000  1.0 0.0891435582
C  C263  1  0.39860000  0.65550000  0.42190000  1.0 0.0891435582
C  C264  1  0.24310000  0.76640000  0.84450000  1.0 0.0891435582
C  C265  1  0.17620000  0.56920000  0.28800000  1.0 0.1014146043
C  C266  1  0.56920000  0.28800000  0.17620000  1.0 0.108630205
C  C267  1  0.28800000  0.17620000  0.56920000  1.0 0.1014146043
C  C268  1  0.56920000  0.78120000  0.39300000  1.0 0.1014146043
C  C269  1  0.28800000  0.61180000  0.71880000  1.0 0.1014146043
C  C270  1  0.17620000  0.10700000  0.88820000  1.0 0.108630205
C  C271  1  0.78120000  0.88820000  0.21200000  1.0 0.108630205
C  C272  1  0.39300000  0.32380000  0.61180000  1.0 0.1014146043
C  C273  1  0.71880000  0.93080000  0.10700000  1.0 0.1014146043
C  C274  1  0.61180000  0.39300000  0.32380000  1.0 0.108630205
C  C275  1  0.10700000  0.71880000  0.93080000  1.0 0.1014146043
C  C276  1  0.88820000  0.17620000  0.10700000  1.0 0.1014146043
C  C277  1  0.39300000  0.56920000  0.78120000  1.0 0.1014146043
C  C278  1  0.71880000  0.28800000  0.61180000  1.0 0.1014146043
C  C279  1  0.88820000  0.21200000  0.78120000  1.0 0.1014146043
C  C280  1  0.21200000  0.93080000  0.32380000  1.0 0.1014146043
C  C281  1  0.32380000  0.21200000  0.93080000  1.0 0.1014146043
C  C282  1  0.93080000  0.32380000  0.21200000  1.0 0.108630205
C  C283  1  0.93080000  0.10700000  0.71880000  1.0 0.1014146043
C  C284  1  0.61180000  0.71880000  0.28800000  1.0 0.1014146043
C  C285  1  0.10700000  0.88820000  0.17620000  1.0 0.1014146043
C  C286  1  0.78120000  0.39300000  0.56920000  1.0 0.1014146043
C  C287  1  0.32380000  0.61180000  0.39300000  1.0 0.1014146043
C  C288  1  0.21200000  0.78120000  0.88820000  1.0 0.1014146043
C  C289  1  0.19030000  0.63300000  0.28130000  1.0 0.0018761057
C  C290  1  0.63300000  0.28130000  0.19030000  1.0 0.0018761057
C  C291  1  0.28130000  0.19030000  0.63300000  1.0 0.0018761057
C  C292  1  0.63300000  0.85170000  0.44270000  1.0 0.0018761057
C  C293  1  0.28130000  0.59100000  0.64830000  1.0 0.0018761057
C  C294  1  0.19030000  0.05730000  0.90900000  1.0 0.0018761057
C  C295  1  0.85170000  0.90900000  0.21870000  1.0 -0.0135237047
C  C296  1  0.44270000  0.30970000  0.59100000  1.0 0.0018761057
C  C297  1  0.64830000  0.86700000  0.05730000  1.0 0.0018761057
C  C298  1  0.59100000  0.44270000  0.30970000  1.0 0.0018761057
C  C299  1  0.05730000  0.64830000  0.86700000  1.0 0.0018761057
C  C300  1  0.90900000  0.19030000  0.05730000  1.0 0.0018761057
C  C301  1  0.44270000  0.63300000  0.85170000  1.0 0.0018761057
C  C302  1  0.64830000  0.28130000  0.59100000  1.0 0.0018761057
C  C303  1  0.90900000  0.21870000  0.85170000  1.0 0.0018761057
C  C304  1  0.21870000  0.86700000  0.30970000  1.0 0.0018761057
C  C305  1  0.30970000  0.21870000  0.86700000  1.0 0.0018761057
C  C306  1  0.86700000  0.30970000  0.21870000  1.0 0.0018761057
C  C307  1  0.86700000  0.05730000  0.64830000  1.0 0.0018761057
C  C308  1  0.59100000  0.64830000  0.28130000  1.0 0.0018761057
C  C309  1  0.05730000  0.90900000  0.19030000  1.0 0.0018761057
C  C310  1  0.85170000  0.44270000  0.63300000  1.0 0.0018761057
C  C311  1  0.30970000  0.59100000  0.44270000  1.0 0.0018761057
C  C312  1  0.21870000  0.85170000  0.90900000  1.0 0.0018761057
N  N1  1  0.87256000  0.49725000  0.21441000  1.0 -0.2163577802
N  N2  1  0.49725000  0.21441000  0.87256000  1.0 -0.2163577802
N  N3  1  0.21441000  0.87256000  0.49725000  1.0 -0.2163577802
N  N4  1  0.49725000  0.78284000  0.62469000  1.0 -0.2163577802
N  N5  1  0.21441000  0.84185000  0.71716000  1.0 -0.2163577802
N  N6  1  0.87256000  0.87531000  0.65815000  1.0 -0.2163577802
N  N7  1  0.78284000  0.65815000  0.28559000  1.0 -0.2163577802
N  N8  1  0.62469000  0.62744000  0.84185000  1.0 -0.2163577802
N  N9  1  0.71716000  0.00275000  0.87531000  1.0 -0.2163577802
N  N10  1  0.84185000  0.62469000  0.62744000  1.0 -0.2163577802
N  N11  1  0.87531000  0.71716000  0.00275000  1.0 -0.2163577802
N  N12  1  0.65815000  0.87256000  0.87531000  1.0 -0.2163577802
N  N13  1  0.62469000  0.49725000  0.78284000  1.0 -0.2163577802
N  N14  1  0.71716000  0.21441000  0.84185000  1.0 -0.2163577802
N  N15  1  0.65815000  0.28559000  0.78284000  1.0 -0.2163577802
N  N16  1  0.28559000  0.00275000  0.62744000  1.0 -0.2163577802
N  N17  1  0.62744000  0.28559000  0.00275000  1.0 -0.2163577802
N  N18  1  0.00275000  0.62744000  0.28559000  1.0 -0.2163577802
N  N19  1  0.00275000  0.87531000  0.71716000  1.0 -0.2163577802
N  N20  1  0.84185000  0.71716000  0.21441000  1.0 -0.2163577802
N  N21  1  0.87531000  0.65815000  0.87256000  1.0 -0.2163577802
N  N22  1  0.78284000  0.62469000  0.49725000  1.0 -0.2163577802
N  N23  1  0.62744000  0.84185000  0.62469000  1.0 -0.2163577802
N  N24  1  0.28559000  0.78284000  0.65815000  1.0 -0.2163577802
O  O1  1  0.97738000  0.53581000  0.33577000  1.0 -0.5401812366
O  O2  1  0.53581000  0.33577000  0.97738000  1.0 -0.5401812366
O  O3  1  0.33577000  0.97738000  0.53581000  1.0 -0.5401812366
O  O4  1  0.53581000  0.70004000  0.55843000  1.0 -0.5401812366
O  O5  1  0.33577000  0.85839000  0.79996000  1.0 -0.5401812366
O  O6  1  0.97738000  0.94157000  0.64161000  1.0 -0.5401812366
O  O7  1  0.70004000  0.64161000  0.16423000  1.0 -0.5401812366
O  O8  1  0.55843000  0.52262000  0.85839000  1.0 -0.5401812366
O  O9  1  0.79996000  0.96419000  0.94157000  1.0 -0.5401812366
O  O10  1  0.85839000  0.55843000  0.52262000  1.0 -0.5401812366
O  O11  1  0.94157000  0.79996000  0.96419000  1.0 -0.5401812366
O  O12  1  0.64161000  0.97738000  0.94157000  1.0 -0.5401812366
O  O13  1  0.55843000  0.53581000  0.70004000  1.0 -0.5401812366
O  O14  1  0.79996000  0.33577000  0.85839000  1.0 -0.5401812366
O  O15  1  0.64161000  0.16423000  0.70004000  1.0 -0.5401812366
O  O16  1  0.16423000  0.96419000  0.52262000  1.0 -0.5401812366
O  O17  1  0.52262000  0.16423000  0.96419000  1.0 -0.5401812366
O  O18  1  0.96419000  0.52262000  0.16423000  1.0 -0.5401812366
O  O19  1  0.96419000  0.94157000  0.79996000  1.0 -0.5401812366
O  O20  1  0.85839000  0.79996000  0.33577000  1.0 -0.5401812366
O  O21  1  0.94157000  0.64161000  0.97738000  1.0 -0.5401812366
O  O22  1  0.70004000  0.55843000  0.53581000  1.0 -0.5401812366
O  O23  1  0.52262000  0.85839000  0.55843000  1.0 -0.5401812366
O  O24  1  0.16423000  0.70004000  0.64161000  1.0 -0.5401812366
O  O25  1  0.08389000  0.57745000  0.40298000  1.0 -0.5184530264
O  O26  1  0.57745000  0.40298000  0.08389000  1.0 -0.5184530264
O  O27  1  0.40298000  0.08389000  0.57745000  1.0 -0.5184530264
O  O28  1  0.57745000  0.67447000  0.49356000  1.0 -0.5184530264
O  O29  1  0.40298000  0.81909000  0.82553000  1.0 -0.5184530264
O  O30  1  0.08389000  0.00644000  0.68091000  1.0 -0.5184530264
O  O31  1  0.67447000  0.68091000  0.09702000  1.0 -0.5184530264
O  O32  1  0.49356000  0.41611000  0.81909000  1.0 -0.5184530264
O  O33  1  0.82553000  0.92255000  0.00644000  1.0 -0.5184530264
O  O34  1  0.81909000  0.49356000  0.41611000  1.0 -0.5184530264
O  O35  1  0.00644000  0.82553000  0.92255000  1.0 -0.5184530264
O  O36  1  0.68091000  0.08389000  0.00644000  1.0 -0.5184530264
O  O37  1  0.49356000  0.57745000  0.67447000  1.0 -0.5184530264
O  O38  1  0.82553000  0.40298000  0.81909000  1.0 -0.5184530264
O  O39  1  0.68091000  0.09702000  0.67447000  1.0 -0.5184530264
O  O40  1  0.09702000  0.92255000  0.41611000  1.0 -0.5184530264
O  O41  1  0.41611000  0.09702000  0.92255000  1.0 -0.5184530264
O  O42  1  0.92255000  0.41611000  0.09702000  1.0 -0.5184530264
O  O43  1  0.92255000  0.00644000  0.82553000  1.0 -0.5184530264
O  O44  1  0.81909000  0.82553000  0.40298000  1.0 -0.5184530264
O  O45  1  0.00644000  0.68091000  0.08389000  1.0 -0.5184530264
O  O46  1  0.67447000  0.49356000  0.57745000  1.0 -0.5184530264
O  O47  1  0.41611000  0.81909000  0.49356000  1.0 -0.5184530264
O  O48  1  0.09702000  0.67447000  0.68091000  1.0 -0.5184530264
O  O49  1  0.07046000  0.55089000  0.28625000  1.0 -0.3012512796
O  O50  1  0.55089000  0.28625000  0.07046000  1.0 -0.3012512796
O  O51  1  0.28625000  0.07046000  0.55089000  1.0 -0.3012512796
O  O52  1  0.55089000  0.76464000  0.48043000  1.0 -0.3012512796
O  O53  1  0.28625000  0.71579000  0.73536000  1.0 -0.3012512796
O  O54  1  0.07046000  0.01957000  0.78421000  1.0 -0.3012512796
O  O55  1  0.76464000  0.78421000  0.21375000  1.0 -0.3012512796
O  O56  1  0.48043000  0.42954000  0.71579000  1.0 -0.3012512796
O  O57  1  0.73536000  0.94911000  0.01957000  1.0 -0.3012512796
O  O58  1  0.71579000  0.48043000  0.42954000  1.0 -0.3012512796
O  O59  1  0.01957000  0.73536000  0.94911000  1.0 -0.3012512796
O  O60  1  0.78421000  0.07046000  0.01957000  1.0 -0.3012512796
O  O61  1  0.48043000  0.55089000  0.76464000  1.0 -0.3012512796
O  O62  1  0.73536000  0.28625000  0.71579000  1.0 -0.3012512796
O  O63  1  0.78421000  0.21375000  0.76464000  1.0 -0.3012512796
O  O64  1  0.21375000  0.94911000  0.42954000  1.0 -0.3012512796
O  O65  1  0.42954000  0.21375000  0.94911000  1.0 -0.3012512796
O  O66  1  0.94911000  0.42954000  0.21375000  1.0 -0.3012512796
O  O67  1  0.94911000  0.01957000  0.73536000  1.0 -0.3012512796
O  O68  1  0.71579000  0.73536000  0.28625000  1.0 -0.3012512796
O  O69  1  0.01957000  0.78421000  0.07046000  1.0 -0.3012512796
O  O70  1  0.76464000  0.48043000  0.55089000  1.0 -0.3012512796
O  O71  1  0.42954000  0.71579000  0.48043000  1.0 -0.3012512796
O  O72  1  0.21375000  0.76464000  0.78421000  1.0 -0.3012512796
O  O73  1  0.16650000  0.52240000  0.34590000  1.0 -0.3012512796
O  O74  1  0.52240000  0.34590000  0.16650000  1.0 -0.3065678335
O  O75  1  0.34590000  0.16650000  0.52240000  1.0 -0.3012512796
O  O76  1  0.52240000  0.67650000  0.35590000  1.0 -0.3012512796
O  O77  1  0.34590000  0.67940000  0.82350000  1.0 -0.3012512796
O  O78  1  0.16650000  0.14410000  0.82060000  1.0 -0.3065678335
O  O79  1  0.67650000  0.82060000  0.15410000  1.0 -0.3065678335
O  O80  1  0.35590000  0.33350000  0.67940000  1.0 -0.3012512796
O  O81  1  0.82350000  0.97760000  0.14410000  1.0 -0.3012512796
O  O82  1  0.67940000  0.35590000  0.33350000  1.0 -0.3065678335
O  O83  1  0.14410000  0.82350000  0.97760000  1.0 -0.3012512796
O  O84  1  0.82060000  0.16650000  0.14410000  1.0 -0.3012512796
O  O85  1  0.35590000  0.52240000  0.67650000  1.0 -0.3012512796
O  O86  1  0.82350000  0.34590000  0.67940000  1.0 -0.3012512796
O  O87  1  0.82060000  0.15410000  0.67650000  1.0 -0.3012512796
O  O88  1  0.15410000  0.97760000  0.33350000  1.0 -0.3065678335
O  O89  1  0.33350000  0.15410000  0.97760000  1.0 -0.3012512796
O  O90  1  0.97760000  0.33350000  0.15410000  1.0 -0.3065678335
O  O91  1  0.97760000  0.14410000  0.82350000  1.0 -0.3012512796
O  O92  1  0.67940000  0.82350000  0.34590000  1.0 -0.3012512796
O  O93  1  0.14410000  0.82060000  0.16650000  1.0 -0.3012512796
O  O94  1  0.67650000  0.35590000  0.52240000  1.0 -0.3012512796
O  O95  1  0.33350000  0.67940000  0.35590000  1.0 -0.3012512796
O  O96  1  0.15410000  0.67650000  0.82060000  1.0 -0.3065678335
O  O97  1  0.21050000  0.61940000  0.35390000  1.0 -0.0423629006
O  O98  1  0.61940000  0.35390000  0.21050000  1.0 -0.0423629006
O  O99  1  0.35390000  0.21050000  0.61940000  1.0 -0.0423629006
O  O100  1  0.61940000  0.76550000  0.40890000  1.0 -0.0423629006
O  O101  1  0.35390000  0.64340000  0.73450000  1.0 -0.0423629006
O  O102  1  0.21050000  0.09110000  0.85660000  1.0 -0.0423629006
O  O103  1  0.76550000  0.85660000  0.14610000  1.0 -0.0423629006
O  O104  1  0.40890000  0.28950000  0.64340000  1.0 -0.0423629006
O  O105  1  0.73450000  0.88060000  0.09110000  1.0 -0.0423629006
O  O106  1  0.64340000  0.40890000  0.28950000  1.0 -0.0423629006
O  O107  1  0.09110000  0.73450000  0.88060000  1.0 -0.0423629006
O  O108  1  0.85660000  0.21050000  0.09110000  1.0 -0.0423629006
O  O109  1  0.40890000  0.61940000  0.76550000  1.0 -0.0423629006
O  O110  1  0.73450000  0.35390000  0.64340000  1.0 -0.0423629006
O  O111  1  0.85660000  0.14610000  0.76550000  1.0 -0.0423629006
O  O112  1  0.14610000  0.88060000  0.28950000  1.0 -0.0423629006
O  O113  1  0.28950000  0.14610000  0.88060000  1.0 -0.0423629006
O  O114  1  0.88060000  0.28950000  0.14610000  1.0 -0.0423629006
O  O115  1  0.88060000  0.09110000  0.73450000  1.0 -0.0423629006
O  O116  1  0.64340000  0.73450000  0.35390000  1.0 -0.0423629006
O  O117  1  0.09110000  0.85660000  0.21050000  1.0 -0.0423629006
O  O118  1  0.76550000  0.40890000  0.61940000  1.0 -0.0423629006
O  O119  1  0.28950000  0.64340000  0.40890000  1.0 -0.0423629006
O  O120  1  0.14610000  0.76550000  0.85660000  1.0 -0.0423629006
O  O121  1  0.25170000  0.68370000  0.33400000  1.0 -0.1653324547
O  O122  1  0.68370000  0.33400000  0.25170000  1.0 -0.1609130814
O  O123  1  0.33400000  0.25170000  0.68370000  1.0 -0.1653324547
O  O124  1  0.68370000  0.84970000  0.43200000  1.0 -0.1653324547
O  O125  1  0.33400000  0.58230000  0.65030000  1.0 -0.1653324547
O  O126  1  0.25170000  0.06800000  0.91770000  1.0 -0.1609130814
O  O127  1  0.84970000  0.91770000  0.16600000  1.0 -0.1609130814
O  O128  1  0.43200000  0.24830000  0.58230000  1.0 -0.1653324547
O  O129  1  0.65030000  0.81630000  0.06800000  1.0 -0.1609130814
O  O130  1  0.58230000  0.43200000  0.24830000  1.0 -0.1609130814
O  O131  1  0.06800000  0.65030000  0.81630000  1.0 -0.1609130814
O  O132  1  0.91770000  0.25170000  0.06800000  1.0 -0.1609130814
O  O133  1  0.43200000  0.68370000  0.84970000  1.0 -0.1653324547
O  O134  1  0.65030000  0.33400000  0.58230000  1.0 -0.1653324547
O  O135  1  0.91770000  0.16600000  0.84970000  1.0 -0.1653324547
O  O136  1  0.16600000  0.81630000  0.24830000  1.0 -0.1653324547
O  O137  1  0.24830000  0.16600000  0.81630000  1.0 -0.1653324547
O  O138  1  0.81630000  0.24830000  0.16600000  1.0 -0.1653324547
O  O139  1  0.81630000  0.06800000  0.65030000  1.0 -0.1653324547
O  O140  1  0.58230000  0.65030000  0.33400000  1.0 -0.1653324547
O  O141  1  0.06800000  0.91770000  0.25170000  1.0 -0.1609130814
O  O142  1  0.84970000  0.43200000  0.68370000  1.0 -0.1653324547
O  O143  1  0.24830000  0.58230000  0.43200000  1.0 -0.1653324547
O  O144  1  0.16600000  0.84970000  0.91770000  1.0 -0.1653324547
