# DDEC6 charges by PACMAN v1.1 (https://github.com/mtap-research/PACMAN-charge/)
data_HUYKOB_FSR_pacman
_symmetry_space_group_name_H-M   'P 1'
_cell_length_a   24.94470000
_cell_length_b   24.94470000
_cell_length_c   24.94470000
_cell_angle_alpha   109.47100000
_cell_angle_beta   109.47100000
_cell_angle_gamma   109.47100000
_symmetry_Int_Tables_number   1
_chemical_formula_structural   NiH16C24(NO3)2
_chemical_formula_sum   'Ni12 H192 C288 N24 O72'
_cell_volume   11948.58596567
_cell_formula_units_Z   12
loop_
 _symmetry_equiv_pos_site_id
 _symmetry_equiv_pos_as_xyz
  1  'x, y, z'
loop_
 _atom_site_type_symbol
 _atom_site_label
 _atom_site_symmetry_multiplicity
 _atom_site_fract_x
 _atom_site_fract_y
 _atom_site_fract_z
 _atom_site_occupancy
 _atom_site_charge
Ni  Ni1  1  0.52907000  0.77907000  0.55814000  1.0 0.6879705393
Ni  Ni2  1  0.77907000  0.55814000  0.52907000  1.0 0.6879705393
Ni  Ni3  1  0.55814000  0.52907000  0.77907000  1.0 0.6879705393
Ni  Ni4  1  0.77907000  0.72093000  0.25000000  1.0 0.6879705393
Ni  Ni5  1  0.52907000  0.25000000  0.97093000  1.0 0.6879705393
Ni  Ni6  1  0.72093000  0.97093000  0.94186000  1.0 0.6879705393
Ni  Ni7  1  0.25000000  0.97093000  0.52907000  1.0 0.6879705393
Ni  Ni8  1  0.25000000  0.77907000  0.72093000  1.0 0.6879705393
Ni  Ni9  1  0.97093000  0.52907000  0.25000000  1.0 0.6879705393
Ni  Ni10  1  0.97093000  0.94186000  0.72093000  1.0 0.6879705393
Ni  Ni11  1  0.94186000  0.72093000  0.97093000  1.0 0.6879705393
Ni  Ni12  1  0.72093000  0.25000000  0.77907000  1.0 0.6879705393
H  H1  1  0.58650000  0.97930000  0.61240000  1.0 0.1194078907
H  H2  1  0.97930000  0.61240000  0.58650000  1.0 0.1194078907
H  H3  1  0.61240000  0.58650000  0.97930000  1.0 0.1194078907
H  H4  1  0.97930000  0.86690000  0.39280000  1.0 0.1194078907
H  H5  1  0.61240000  0.52590000  0.63310000  1.0 0.1194078907
H  H6  1  0.58650000  0.10720000  0.97410000  1.0 0.1194078907
H  H7  1  0.86690000  0.97410000  0.88760000  1.0 0.1194078907
H  H8  1  0.39280000  0.91350000  0.52590000  1.0 0.1194078907
H  H9  1  0.63310000  0.52070000  0.10720000  1.0 0.1194078907
H  H10  1  0.52590000  0.39280000  0.91350000  1.0 0.1194078907
H  H11  1  0.10720000  0.63310000  0.52070000  1.0 0.1194078907
H  H12  1  0.97410000  0.58650000  0.10720000  1.0 0.1194078907
H  H13  1  0.39280000  0.97930000  0.86690000  1.0 0.1194078907
H  H14  1  0.63310000  0.61240000  0.52590000  1.0 0.1194078907
H  H15  1  0.97410000  0.88760000  0.86690000  1.0 0.1194078907
H  H16  1  0.88760000  0.52070000  0.91350000  1.0 0.1194078907
H  H17  1  0.91350000  0.88760000  0.52070000  1.0 0.1194078907
H  H18  1  0.52070000  0.91350000  0.88760000  1.0 0.1194078907
H  H19  1  0.52070000  0.10720000  0.63310000  1.0 0.1194078907
H  H20  1  0.52590000  0.63310000  0.61240000  1.0 0.1194078907
H  H21  1  0.10720000  0.97410000  0.58650000  1.0 0.1194078907
H  H22  1  0.86690000  0.39280000  0.97930000  1.0 0.1194078907
H  H23  1  0.91350000  0.52590000  0.39280000  1.0 0.1194078907
H  H24  1  0.88760000  0.86690000  0.97410000  1.0 0.1194078907
H  H25  1  0.43610000  0.64890000  0.42100000  1.0 0.1132744743
H  H26  1  0.64890000  0.42100000  0.43610000  1.0 0.1132744743
H  H27  1  0.42100000  0.43610000  0.64890000  1.0 0.1132744743
H  H28  1  0.64890000  0.72790000  0.21280000  1.0 0.1132744743
H  H29  1  0.42100000  0.48490000  0.77210000  1.0 0.1132744743
H  H30  1  0.43610000  0.28720000  0.01510000  1.0 0.1132744743
H  H31  1  0.72790000  0.01510000  0.07900000  1.0 0.1132744743
H  H32  1  0.21280000  0.06390000  0.48490000  1.0 0.1132744743
H  H33  1  0.77210000  0.85110000  0.28720000  1.0 0.1132744743
H  H34  1  0.48490000  0.21280000  0.06390000  1.0 0.1132744743
H  H35  1  0.28720000  0.77210000  0.85110000  1.0 0.1132744743
H  H36  1  0.01510000  0.43610000  0.28720000  1.0 0.1132744743
H  H37  1  0.21280000  0.64890000  0.72790000  1.0 0.1132744743
H  H38  1  0.77210000  0.42100000  0.48490000  1.0 0.1132744743
H  H39  1  0.01510000  0.07900000  0.72790000  1.0 0.1132744743
H  H40  1  0.07900000  0.85110000  0.06390000  1.0 0.1132744743
H  H41  1  0.06390000  0.07900000  0.85110000  1.0 0.1132744743
H  H42  1  0.85110000  0.06390000  0.07900000  1.0 0.1132744743
H  H43  1  0.85110000  0.28720000  0.77210000  1.0 0.1132744743
H  H44  1  0.48490000  0.77210000  0.42100000  1.0 0.1132744743
H  H45  1  0.28720000  0.01510000  0.43610000  1.0 0.1132744743
H  H46  1  0.72790000  0.21280000  0.64890000  1.0 0.1132744743
H  H47  1  0.06390000  0.48490000  0.21280000  1.0 0.1132744743
H  H48  1  0.07900000  0.72790000  0.01510000  1.0 0.1132744743
H  H49  1  0.63720000  0.89540000  0.58400000  1.0 0.1194078907
H  H50  1  0.89540000  0.58400000  0.63720000  1.0 0.1194078907
H  H51  1  0.58400000  0.63720000  0.89540000  1.0 0.1194078907
H  H52  1  0.89540000  0.81140000  0.25820000  1.0 0.1194078907
H  H53  1  0.58400000  0.44680000  0.68860000  1.0 0.1194078907
H  H54  1  0.63720000  0.24180000  0.05320000  1.0 0.1194078907
H  H55  1  0.81140000  0.05320000  0.91600000  1.0 0.1194078907
H  H56  1  0.25820000  0.86280000  0.44680000  1.0 0.1194078907
H  H57  1  0.68860000  0.60460000  0.24180000  1.0 0.1194078907
H  H58  1  0.44680000  0.25820000  0.86280000  1.0 0.1194078907
H  H59  1  0.24180000  0.68860000  0.60460000  1.0 0.1194078907
H  H60  1  0.05320000  0.63720000  0.24180000  1.0 0.1194078907
H  H61  1  0.25820000  0.89540000  0.81140000  1.0 0.1194078907
H  H62  1  0.68860000  0.58400000  0.44680000  1.0 0.1194078907
H  H63  1  0.05320000  0.91600000  0.81140000  1.0 0.1194078907
H  H64  1  0.91600000  0.60460000  0.86280000  1.0 0.1194078907
H  H65  1  0.86280000  0.91600000  0.60460000  1.0 0.1194078907
H  H66  1  0.60460000  0.86280000  0.91600000  1.0 0.1194078907
H  H67  1  0.60460000  0.24180000  0.68860000  1.0 0.1194078907
H  H68  1  0.44680000  0.68860000  0.58400000  1.0 0.1194078907
H  H69  1  0.24180000  0.05320000  0.63720000  1.0 0.1194078907
H  H70  1  0.81140000  0.25820000  0.89540000  1.0 0.1194078907
H  H71  1  0.86280000  0.44680000  0.25820000  1.0 0.1194078907
H  H72  1  0.91600000  0.81140000  0.05320000  1.0 0.1194078907
H  H73  1  0.75090000  0.96990000  0.65320000  1.0 0.1364333484
H  H74  1  0.96990000  0.65320000  0.75090000  1.0 0.1364333484
H  H75  1  0.65320000  0.75090000  0.96990000  1.0 0.1364333484
H  H76  1  0.96990000  0.81670000  0.21900000  1.0 0.1364333484
H  H77  1  0.65320000  0.40230000  0.68330000  1.0 0.1364333484
H  H78  1  0.75090000  0.28100000  0.09770000  1.0 0.1364333484
H  H79  1  0.81670000  0.09770000  0.84680000  1.0 0.1364333484
H  H80  1  0.21900000  0.74910000  0.40230000  1.0 0.1364333484
H  H81  1  0.68330000  0.53010000  0.28100000  1.0 0.1364333484
H  H82  1  0.40230000  0.21900000  0.74910000  1.0 0.1364333484
H  H83  1  0.28100000  0.68330000  0.53010000  1.0 0.1364333484
H  H84  1  0.09770000  0.75090000  0.28100000  1.0 0.1364333484
H  H85  1  0.21900000  0.96990000  0.81670000  1.0 0.1364333484
H  H86  1  0.68330000  0.65320000  0.40230000  1.0 0.1364333484
H  H87  1  0.09770000  0.84680000  0.81670000  1.0 0.1364333484
H  H88  1  0.84680000  0.53010000  0.74910000  1.0 0.1364333484
H  H89  1  0.74910000  0.84680000  0.53010000  1.0 0.1364333484
H  H90  1  0.53010000  0.74910000  0.84680000  1.0 0.1364333484
H  H91  1  0.53010000  0.28100000  0.68330000  1.0 0.1364333484
H  H92  1  0.40230000  0.68330000  0.65320000  1.0 0.1364333484
H  H93  1  0.28100000  0.09770000  0.75090000  1.0 0.1364333484
H  H94  1  0.81670000  0.21900000  0.96990000  1.0 0.1364333484
H  H95  1  0.74910000  0.40230000  0.21900000  1.0 0.1364333484
H  H96  1  0.84680000  0.81670000  0.09770000  1.0 0.1364333484
H  H97  1  0.80530000  0.96090000  0.74040000  1.0 0.1364333484
H  H98  1  0.96090000  0.74040000  0.80530000  1.0 0.1364333484
H  H99  1  0.74040000  0.80530000  0.96090000  1.0 0.1364333484
H  H100  1  0.96090000  0.72050000  0.15560000  1.0 0.1364333484
H  H101  1  0.74040000  0.43510000  0.77950000  1.0 0.1364333484
H  H102  1  0.80530000  0.34440000  0.06490000  1.0 0.1364333484
H  H103  1  0.72050000  0.06490000  0.75960000  1.0 0.1364333484
H  H104  1  0.15560000  0.69470000  0.43510000  1.0 0.1364333484
H  H105  1  0.77950000  0.53910000  0.34440000  1.0 0.1364333484
H  H106  1  0.43510000  0.15560000  0.69470000  1.0 0.1364333484
H  H107  1  0.34440000  0.77950000  0.53910000  1.0 0.1364333484
H  H108  1  0.06490000  0.80530000  0.34440000  1.0 0.1364333484
H  H109  1  0.15560000  0.96090000  0.72050000  1.0 0.1364333484
H  H110  1  0.77950000  0.74040000  0.43510000  1.0 0.1364333484
H  H111  1  0.06490000  0.75960000  0.72050000  1.0 0.1364333484
H  H112  1  0.75960000  0.53910000  0.69470000  1.0 0.1364333484
H  H113  1  0.69470000  0.75960000  0.53910000  1.0 0.1364333484
H  H114  1  0.53910000  0.69470000  0.75960000  1.0 0.1364333484
H  H115  1  0.53910000  0.34440000  0.77950000  1.0 0.1364333484
H  H116  1  0.43510000  0.77950000  0.74040000  1.0 0.1364333484
H  H117  1  0.34440000  0.06490000  0.80530000  1.0 0.1364333484
H  H118  1  0.72050000  0.15560000  0.96090000  1.0 0.1364333484
H  H119  1  0.69470000  0.43510000  0.15560000  1.0 0.1364333484
H  H120  1  0.75960000  0.72050000  0.06490000  1.0 0.1364333484
H  H121  1  0.75450000  0.87950000  0.75380000  1.0 0.1334011068
H  H122  1  0.87950000  0.75380000  0.75450000  1.0 0.1334011068
H  H123  1  0.75380000  0.75450000  0.87950000  1.0 0.1334011068
H  H124  1  0.87950000  0.62570000  0.12500000  1.0 0.1334011068
H  H125  1  0.75380000  0.49930000  0.87430000  1.0 0.1334011068
H  H126  1  0.75450000  0.37500000  0.00070000  1.0 0.1334011068
H  H127  1  0.62570000  0.00070000  0.74620000  1.0 0.1334011068
H  H128  1  0.12500000  0.74550000  0.49930000  1.0 0.1334011068
H  H129  1  0.87430000  0.62050000  0.37500000  1.0 0.1334011068
H  H130  1  0.49930000  0.12500000  0.74550000  1.0 0.1334011068
H  H131  1  0.37500000  0.87430000  0.62050000  1.0 0.1334011068
H  H132  1  0.00070000  0.75450000  0.37500000  1.0 0.1334011068
H  H133  1  0.12500000  0.87950000  0.62570000  1.0 0.1334011068
H  H134  1  0.87430000  0.75380000  0.49930000  1.0 0.1334011068
H  H135  1  0.00070000  0.74620000  0.62570000  1.0 0.1334011068
H  H136  1  0.74620000  0.62050000  0.74550000  1.0 0.1334011068
H  H137  1  0.74550000  0.74620000  0.62050000  1.0 0.1334011068
H  H138  1  0.62050000  0.74550000  0.74620000  1.0 0.1334011068
H  H139  1  0.62050000  0.37500000  0.87430000  1.0 0.1334011068
H  H140  1  0.49930000  0.87430000  0.75380000  1.0 0.1334011068
H  H141  1  0.37500000  0.00070000  0.75450000  1.0 0.1334011068
H  H142  1  0.62570000  0.12500000  0.87950000  1.0 0.1334011068
H  H143  1  0.74550000  0.49930000  0.12500000  1.0 0.1334011068
H  H144  1  0.74620000  0.62570000  0.00070000  1.0 0.1334011068
H  H145  1  0.63890000  0.80360000  0.68130000  1.0 0.0985287414
H  H146  1  0.80360000  0.68130000  0.63890000  1.0 0.0985287414
H  H147  1  0.68130000  0.63890000  0.80360000  1.0 0.0985287414
H  H148  1  0.80360000  0.62230000  0.16470000  1.0 0.0985287414
H  H149  1  0.68130000  0.54240000  0.87770000  1.0 0.0985287414
H  H150  1  0.63890000  0.33530000  0.95760000  1.0 0.0985287414
H  H151  1  0.62230000  0.95760000  0.81870000  1.0 0.0985287414
H  H152  1  0.16470000  0.86110000  0.54240000  1.0 0.0985287414
H  H153  1  0.87770000  0.69640000  0.33530000  1.0 0.0985287414
H  H154  1  0.54240000  0.16470000  0.86110000  1.0 0.0985287414
H  H155  1  0.33530000  0.87770000  0.69640000  1.0 0.0985287414
H  H156  1  0.95760000  0.63890000  0.33530000  1.0 0.0985287414
H  H157  1  0.16470000  0.80360000  0.62230000  1.0 0.0985287414
H  H158  1  0.87770000  0.68130000  0.54240000  1.0 0.0985287414
H  H159  1  0.95760000  0.81870000  0.62230000  1.0 0.0985287414
H  H160  1  0.81870000  0.69640000  0.86110000  1.0 0.0985287414
H  H161  1  0.86110000  0.81870000  0.69640000  1.0 0.0985287414
H  H162  1  0.69640000  0.86110000  0.81870000  1.0 0.0985287414
H  H163  1  0.69640000  0.33530000  0.87770000  1.0 0.0985287414
H  H164  1  0.54240000  0.87770000  0.68130000  1.0 0.0985287414
H  H165  1  0.33530000  0.95760000  0.63890000  1.0 0.0985287414
H  H166  1  0.62230000  0.16470000  0.80360000  1.0 0.0985287414
H  H167  1  0.86110000  0.54240000  0.16470000  1.0 0.0985287414
H  H168  1  0.81870000  0.62230000  0.95760000  1.0 0.0985287414
H  H169  1  0.42610000  0.74890000  0.48240000  1.0 0.3375508913
H  H170  1  0.74890000  0.48240000  0.42610000  1.0 0.3375508913
H  H171  1  0.48240000  0.42610000  0.74890000  1.0 0.3375508913
H  H172  1  0.74890000  0.76650000  0.32280000  1.0 0.3375508913
H  H173  1  0.48240000  0.55630000  0.73350000  1.0 0.3375508913
H  H174  1  0.42610000  0.17720000  0.94370000  1.0 0.3375508913
H  H175  1  0.76650000  0.94370000  0.01760000  1.0 0.3375508913
H  H176  1  0.32280000  0.07390000  0.55630000  1.0 0.3375508913
H  H177  1  0.73350000  0.75110000  0.17720000  1.0 0.3375508913
H  H178  1  0.55630000  0.32280000  0.07390000  1.0 0.3375508913
H  H179  1  0.17720000  0.73350000  0.75110000  1.0 0.3375508913
H  H180  1  0.94370000  0.42610000  0.17720000  1.0 0.3375508913
H  H181  1  0.32280000  0.74890000  0.76650000  1.0 0.3375508913
H  H182  1  0.73350000  0.48240000  0.55630000  1.0 0.3375508913
H  H183  1  0.94370000  0.01760000  0.76650000  1.0 0.3375508913
H  H184  1  0.01760000  0.75110000  0.07390000  1.0 0.3375508913
H  H185  1  0.07390000  0.01760000  0.75110000  1.0 0.3375508913
H  H186  1  0.75110000  0.07390000  0.01760000  1.0 0.3375508913
H  H187  1  0.75110000  0.17720000  0.73350000  1.0 0.3375508913
H  H188  1  0.55630000  0.73350000  0.48240000  1.0 0.3375508913
H  H189  1  0.17720000  0.94370000  0.42610000  1.0 0.3375508913
H  H190  1  0.76650000  0.32280000  0.74890000  1.0 0.3375508913
H  H191  1  0.07390000  0.55630000  0.32280000  1.0 0.3375508913
H  H192  1  0.01760000  0.76650000  0.94370000  1.0 0.3375508913
C  C1  1  0.47500000  0.86650000  0.53850000  1.0 0.5549958252
C  C2  1  0.86650000  0.53850000  0.47500000  1.0 0.5549958252
C  C3  1  0.53850000  0.47500000  0.86650000  1.0 0.5549958252
C  C4  1  0.86650000  0.82800000  0.39150000  1.0 0.5549958252
C  C5  1  0.53850000  0.56350000  0.67200000  1.0 0.5549958252
C  C6  1  0.47500000  0.10850000  0.93650000  1.0 0.5549958252
C  C7  1  0.82800000  0.93650000  0.96150000  1.0 0.5549958252
C  C8  1  0.39150000  0.02500000  0.56350000  1.0 0.5549958252
C  C9  1  0.67200000  0.63350000  0.10850000  1.0 0.5549958252
C  C10  1  0.56350000  0.39150000  0.02500000  1.0 0.5549958252
C  C11  1  0.10850000  0.67200000  0.63350000  1.0 0.5549958252
C  C12  1  0.93650000  0.47500000  0.10850000  1.0 0.5549958252
C  C13  1  0.39150000  0.86650000  0.82800000  1.0 0.5549958252
C  C14  1  0.67200000  0.53850000  0.56350000  1.0 0.5549958252
C  C15  1  0.93650000  0.96150000  0.82800000  1.0 0.5549958252
C  C16  1  0.96150000  0.63350000  0.02500000  1.0 0.5549958252
C  C17  1  0.02500000  0.96150000  0.63350000  1.0 0.5549958252
C  C18  1  0.63350000  0.02500000  0.96150000  1.0 0.5549958252
C  C19  1  0.63350000  0.10850000  0.67200000  1.0 0.5549958252
C  C20  1  0.56350000  0.67200000  0.53850000  1.0 0.5549958252
C  C21  1  0.10850000  0.93650000  0.47500000  1.0 0.5549958252
C  C22  1  0.82800000  0.39150000  0.86650000  1.0 0.5549958252
C  C23  1  0.02500000  0.56350000  0.39150000  1.0 0.5549958252
C  C24  1  0.96150000  0.82800000  0.93650000  1.0 0.5549958252
C  C25  1  0.48840000  0.93570000  0.56510000  1.0 -0.0346354992
C  C26  1  0.93570000  0.56510000  0.48840000  1.0 -0.0346354992
C  C27  1  0.56510000  0.48840000  0.93570000  1.0 -0.0346354992
C  C28  1  0.93570000  0.87060000  0.44730000  1.0 -0.0346354992
C  C29  1  0.56510000  0.57670000  0.62940000  1.0 -0.0346354992
C  C30  1  0.48840000  0.05270000  0.92330000  1.0 -0.0346354992
C  C31  1  0.87060000  0.92330000  0.93490000  1.0 -0.0346354992
C  C32  1  0.44730000  0.01160000  0.57670000  1.0 -0.0346354992
C  C33  1  0.62940000  0.56430000  0.05270000  1.0 -0.0346354992
C  C34  1  0.57670000  0.44730000  0.01160000  1.0 -0.0346354992
C  C35  1  0.05270000  0.62940000  0.56430000  1.0 -0.0346354992
C  C36  1  0.92330000  0.48840000  0.05270000  1.0 -0.0346354992
C  C37  1  0.44730000  0.93570000  0.87060000  1.0 -0.0346354992
C  C38  1  0.62940000  0.56510000  0.57670000  1.0 -0.0346354992
C  C39  1  0.92330000  0.93490000  0.87060000  1.0 -0.0346354992
C  C40  1  0.93490000  0.56430000  0.01160000  1.0 -0.0346354992
C  C41  1  0.01160000  0.93490000  0.56430000  1.0 -0.0346354992
C  C42  1  0.56430000  0.01160000  0.93490000  1.0 -0.0346354992
C  C43  1  0.56430000  0.05270000  0.62940000  1.0 -0.0346354992
C  C44  1  0.57670000  0.62940000  0.56510000  1.0 -0.0346354992
C  C45  1  0.05270000  0.92330000  0.48840000  1.0 -0.0346354992
C  C46  1  0.87060000  0.44730000  0.93570000  1.0 -0.0346354992
C  C47  1  0.01160000  0.57670000  0.44730000  1.0 -0.0346354992
C  C48  1  0.93490000  0.87060000  0.92330000  1.0 -0.0346354992
C  C49  1  0.55170000  0.98740000  0.60350000  1.0 -0.1198056418
C  C50  1  0.98740000  0.60350000  0.55170000  1.0 -0.1198056418
C  C51  1  0.60350000  0.55170000  0.98740000  1.0 -0.1198056418
C  C52  1  0.98740000  0.88390000  0.43570000  1.0 -0.1198056418
C  C53  1  0.60350000  0.55180000  0.61610000  1.0 -0.1198056418
C  C54  1  0.55170000  0.06430000  0.94820000  1.0 -0.1198056418
C  C55  1  0.88390000  0.94820000  0.89650000  1.0 -0.1198056418
C  C56  1  0.43570000  0.94830000  0.55180000  1.0 -0.1198056418
C  C57  1  0.61610000  0.51260000  0.06430000  1.0 -0.1198056418
C  C58  1  0.55180000  0.43570000  0.94830000  1.0 -0.1198056418
C  C59  1  0.06430000  0.61610000  0.51260000  1.0 -0.1198056418
C  C60  1  0.94820000  0.55170000  0.06430000  1.0 -0.1198056418
C  C61  1  0.43570000  0.98740000  0.88390000  1.0 -0.1198056418
C  C62  1  0.61610000  0.60350000  0.55180000  1.0 -0.1198056418
C  C63  1  0.94820000  0.89650000  0.88390000  1.0 -0.1198056418
C  C64  1  0.89650000  0.51260000  0.94830000  1.0 -0.1198056418
C  C65  1  0.94830000  0.89650000  0.51260000  1.0 -0.1198056418
C  C66  1  0.51260000  0.94830000  0.89650000  1.0 -0.1198056418
C  C67  1  0.51260000  0.06430000  0.61610000  1.0 -0.1198056418
C  C68  1  0.55180000  0.61610000  0.60350000  1.0 -0.1198056418
C  C69  1  0.06430000  0.94820000  0.55170000  1.0 -0.1198056418
C  C70  1  0.88390000  0.43570000  0.98740000  1.0 -0.1198056418
C  C71  1  0.94830000  0.55180000  0.43570000  1.0 -0.1198056418
C  C72  1  0.89650000  0.88390000  0.94820000  1.0 -0.1198056418
C  C73  1  0.43060000  0.68650000  0.42270000  1.0 0.1132744743
C  C74  1  0.68650000  0.42270000  0.43060000  1.0 0.1132744743
C  C75  1  0.42270000  0.43060000  0.68650000  1.0 0.1132744743
C  C76  1  0.68650000  0.76380000  0.25590000  1.0 0.1132744743
C  C77  1  0.42270000  0.49210000  0.73620000  1.0 0.1132744743
C  C78  1  0.43060000  0.24410000  0.00790000  1.0 0.1194078907
C  C79  1  0.76380000  0.00790000  0.07730000  1.0 0.1132744743
C  C80  1  0.25590000  0.06940000  0.49210000  1.0 0.1132744743
C  C81  1  0.73620000  0.81350000  0.24410000  1.0 0.1132744743
C  C82  1  0.49210000  0.25590000  0.06940000  1.0 0.1132744743
C  C83  1  0.24410000  0.73620000  0.81350000  1.0 0.1132744743
C  C84  1  0.00790000  0.43060000  0.24410000  1.0 0.1132744743
C  C85  1  0.25590000  0.68650000  0.76380000  1.0 0.1132744743
C  C86  1  0.73620000  0.42270000  0.49210000  1.0 0.1132744743
C  C87  1  0.00790000  0.07730000  0.76380000  1.0 0.1132744743
C  C88  1  0.07730000  0.81350000  0.06940000  1.0 0.1132744743
C  C89  1  0.06940000  0.07730000  0.81350000  1.0 0.1132744743
C  C90  1  0.81350000  0.06940000  0.07730000  1.0 0.1132744743
C  C91  1  0.81350000  0.24410000  0.73620000  1.0 0.1132744743
C  C92  1  0.49210000  0.73620000  0.42270000  1.0 0.1132744743
C  C93  1  0.24410000  0.00790000  0.43060000  1.0 0.1132744743
C  C94  1  0.76380000  0.25590000  0.68650000  1.0 0.1132744743
C  C95  1  0.06940000  0.49210000  0.25590000  1.0 0.1132744743
C  C96  1  0.07730000  0.76380000  0.00790000  1.0 0.1132744743
C  C97  1  0.36050000  0.66000000  0.37030000  1.0 -0.0399548398
C  C98  1  0.66000000  0.37030000  0.36050000  1.0 -0.0399548398
C  C99  1  0.37030000  0.36050000  0.66000000  1.0 -0.0399548398
C  C100  1  0.66000000  0.78970000  0.29950000  1.0 -0.0399548398
C  C101  1  0.37030000  0.50980000  0.71030000  1.0 -0.0399548398
C  C102  1  0.36050000  0.20050000  0.99020000  1.0 -0.0399548398
C  C103  1  0.78970000  0.99020000  0.12970000  1.0 -0.0399548398
C  C104  1  0.29950000  0.13950000  0.50980000  1.0 -0.0399548398
C  C105  1  0.71030000  0.84000000  0.20050000  1.0 -0.0399548398
C  C106  1  0.50980000  0.29950000  0.13950000  1.0 -0.0399548398
C  C107  1  0.20050000  0.71030000  0.84000000  1.0 -0.0399548398
C  C108  1  0.99020000  0.36050000  0.20050000  1.0 -0.0399548398
C  C109  1  0.29950000  0.66000000  0.78970000  1.0 -0.0399548398
C  C110  1  0.71030000  0.37030000  0.50980000  1.0 -0.0399548398
C  C111  1  0.99020000  0.12970000  0.78970000  1.0 -0.0399548398
C  C112  1  0.12970000  0.84000000  0.13950000  1.0 -0.0399548398
C  C113  1  0.13950000  0.12970000  0.84000000  1.0 -0.0399548398
C  C114  1  0.84000000  0.13950000  0.12970000  1.0 -0.0399548398
C  C115  1  0.84000000  0.20050000  0.71030000  1.0 -0.0399548398
C  C116  1  0.50980000  0.71030000  0.37030000  1.0 -0.0399548398
C  C117  1  0.20050000  0.99020000  0.36050000  1.0 -0.0399548398
C  C118  1  0.78970000  0.29950000  0.66000000  1.0 -0.0399548398
C  C119  1  0.13950000  0.50980000  0.29950000  1.0 -0.0399548398
C  C120  1  0.12970000  0.78970000  0.99020000  1.0 -0.0399548398
C  C121  1  0.30370000  0.61060000  0.37090000  1.0 0.0985287414
C  C122  1  0.61060000  0.37090000  0.30370000  1.0 0.0985287414
C  C123  1  0.37090000  0.30370000  0.61060000  1.0 0.0985287414
C  C124  1  0.61060000  0.73970000  0.30690000  1.0 0.0985287414
C  C125  1  0.37090000  0.56720000  0.76030000  1.0 0.0985287414
C  C126  1  0.30370000  0.19310000  0.93280000  1.0 0.0985287414
C  C127  1  0.73970000  0.93280000  0.12910000  1.0 0.0985287414
C  C128  1  0.30690000  0.19630000  0.56720000  1.0 0.0985287414
C  C129  1  0.76030000  0.88940000  0.19310000  1.0 0.0985287414
C  C130  1  0.56720000  0.30690000  0.19630000  1.0 0.0985287414
C  C131  1  0.19310000  0.76030000  0.88940000  1.0 0.0985287414
C  C132  1  0.93280000  0.30370000  0.19310000  1.0 0.0985287414
C  C133  1  0.30690000  0.61060000  0.73970000  1.0 0.0985287414
C  C134  1  0.76030000  0.37090000  0.56720000  1.0 0.0985287414
C  C135  1  0.93280000  0.12910000  0.73970000  1.0 0.0985287414
C  C136  1  0.12910000  0.88940000  0.19630000  1.0 0.0985287414
C  C137  1  0.19630000  0.12910000  0.88940000  1.0 0.0985287414
C  C138  1  0.88940000  0.19630000  0.12910000  1.0 0.0985287414
C  C139  1  0.88940000  0.19310000  0.76030000  1.0 0.0985287414
C  C140  1  0.56720000  0.76030000  0.37090000  1.0 0.0985287414
C  C141  1  0.19310000  0.93280000  0.30370000  1.0 0.0985287414
C  C142  1  0.73970000  0.30690000  0.61060000  1.0 0.0985287414
C  C143  1  0.19630000  0.56720000  0.30690000  1.0 0.0985287414
C  C144  1  0.12910000  0.73970000  0.93280000  1.0 0.0985287414
C  C145  1  0.26720000  0.61220000  0.40900000  1.0 -0.1744706901
C  C146  1  0.61220000  0.40900000  0.26720000  1.0 -0.1744706901
C  C147  1  0.40900000  0.26720000  0.61220000  1.0 -0.1744706901
C  C148  1  0.61220000  0.70320000  0.34500000  1.0 -0.1744706901
C  C149  1  0.40900000  0.64180000  0.79680000  1.0 -0.1744706901
C  C150  1  0.26720000  0.15500000  0.85820000  1.0 -0.1744706901
C  C151  1  0.70320000  0.85820000  0.09100000  1.0 -0.1744706901
C  C152  1  0.34500000  0.23280000  0.64180000  1.0 -0.1744706901
C  C153  1  0.79680000  0.88780000  0.15500000  1.0 -0.1744706901
C  C154  1  0.64180000  0.34500000  0.23280000  1.0 -0.1744706901
C  C155  1  0.15500000  0.79680000  0.88780000  1.0 -0.1744706901
C  C156  1  0.85820000  0.26720000  0.15500000  1.0 -0.1744706901
C  C157  1  0.34500000  0.61220000  0.70320000  1.0 -0.1744706901
C  C158  1  0.79680000  0.40900000  0.64180000  1.0 -0.1744706901
C  C159  1  0.85820000  0.09100000  0.70320000  1.0 -0.1744706901
C  C160  1  0.09100000  0.88780000  0.23280000  1.0 -0.1744706901
C  C161  1  0.23280000  0.09100000  0.88780000  1.0 -0.1744706901
C  C162  1  0.88780000  0.23280000  0.09100000  1.0 -0.1744706901
C  C163  1  0.88780000  0.15500000  0.79680000  1.0 -0.1744706901
C  C164  1  0.64180000  0.79680000  0.40900000  1.0 -0.1744706901
C  C165  1  0.15500000  0.85820000  0.26720000  1.0 -0.1744706901
C  C166  1  0.70320000  0.34500000  0.61220000  1.0 -0.1744706901
C  C167  1  0.23280000  0.64180000  0.34500000  1.0 -0.1744706901
C  C168  1  0.09100000  0.70320000  0.85820000  1.0 -0.1744706901
C  C169  1  0.66030000  0.89080000  0.61850000  1.0 0.0701002499
C  C170  1  0.89080000  0.61850000  0.66030000  1.0 0.0701002499
C  C171  1  0.61850000  0.66030000  0.89080000  1.0 0.0701002499
C  C172  1  0.89080000  0.77230000  0.23050000  1.0 0.0701002499
C  C173  1  0.61850000  0.45820000  0.72770000  1.0 0.0701002499
C  C174  1  0.66030000  0.26950000  0.04180000  1.0 0.0701002499
C  C175  1  0.77230000  0.04180000  0.88150000  1.0 0.0701002499
C  C176  1  0.23050000  0.83970000  0.45820000  1.0 0.0701002499
C  C177  1  0.72770000  0.60920000  0.26950000  1.0 0.0701002499
C  C178  1  0.45820000  0.23050000  0.83970000  1.0 0.0701002499
C  C179  1  0.26950000  0.72770000  0.60920000  1.0 0.0701002499
C  C180  1  0.04180000  0.66030000  0.26950000  1.0 0.0701002499
C  C181  1  0.23050000  0.89080000  0.77230000  1.0 0.0701002499
C  C182  1  0.72770000  0.61850000  0.45820000  1.0 0.0701002499
C  C183  1  0.04180000  0.88150000  0.77230000  1.0 0.0701002499
C  C184  1  0.88150000  0.60920000  0.83970000  1.0 0.0701002499
C  C185  1  0.83970000  0.88150000  0.60920000  1.0 0.0701002499
C  C186  1  0.60920000  0.83970000  0.88150000  1.0 0.0701002499
C  C187  1  0.60920000  0.26950000  0.72770000  1.0 0.0701002499
C  C188  1  0.45820000  0.72770000  0.61850000  1.0 0.0701002499
C  C189  1  0.26950000  0.04180000  0.66030000  1.0 0.0701002499
C  C190  1  0.77230000  0.23050000  0.89080000  1.0 0.0701002499
C  C191  1  0.83970000  0.45820000  0.23050000  1.0 0.0701002499
C  C192  1  0.88150000  0.77230000  0.04180000  1.0 0.0701002499
C  C193  1  0.72940000  0.93720000  0.66060000  1.0 -0.1295032126
C  C194  1  0.93720000  0.66060000  0.72940000  1.0 -0.1295032126
C  C195  1  0.66060000  0.72940000  0.93720000  1.0 -0.1295032126
C  C196  1  0.93720000  0.77660000  0.20780000  1.0 -0.1295032126
C  C197  1  0.66060000  0.43120000  0.72340000  1.0 -0.1295032126
C  C198  1  0.72940000  0.29220000  0.06880000  1.0 -0.1295032126
C  C199  1  0.77660000  0.06880000  0.83940000  1.0 -0.1295032126
C  C200  1  0.20780000  0.77060000  0.43120000  1.0 -0.1295032126
C  C201  1  0.72340000  0.56280000  0.29220000  1.0 -0.1295032126
C  C202  1  0.43120000  0.20780000  0.77060000  1.0 -0.1295032126
C  C203  1  0.29220000  0.72340000  0.56280000  1.0 -0.1295032126
C  C204  1  0.06880000  0.72940000  0.29220000  1.0 -0.1295032126
C  C205  1  0.20780000  0.93720000  0.77660000  1.0 -0.1295032126
C  C206  1  0.72340000  0.66060000  0.43120000  1.0 -0.1295032126
C  C207  1  0.06880000  0.83940000  0.77660000  1.0 -0.1295032126
C  C208  1  0.83940000  0.56280000  0.77060000  1.0 -0.1295032126
C  C209  1  0.77060000  0.83940000  0.56280000  1.0 -0.1295032126
C  C210  1  0.56280000  0.77060000  0.83940000  1.0 -0.1295032126
C  C211  1  0.56280000  0.29220000  0.72340000  1.0 -0.1295032126
C  C212  1  0.43120000  0.72340000  0.66060000  1.0 -0.1295032126
C  C213  1  0.29220000  0.06880000  0.72940000  1.0 -0.1295032126
C  C214  1  0.77660000  0.20780000  0.93720000  1.0 -0.1295032126
C  C215  1  0.77060000  0.43120000  0.20780000  1.0 -0.1295032126
C  C216  1  0.83940000  0.77660000  0.06880000  1.0 -0.1295032126
C  C217  1  0.76100000  0.93090000  0.71090000  1.0 -0.0399548398
C  C218  1  0.93090000  0.71090000  0.76100000  1.0 -0.0399548398
C  C219  1  0.71090000  0.76100000  0.93090000  1.0 -0.0399548398
C  C220  1  0.93090000  0.72000000  0.16990000  1.0 -0.0399548398
C  C221  1  0.71090000  0.44990000  0.78000000  1.0 -0.0399548398
C  C222  1  0.76100000  0.33010000  0.05010000  1.0 -0.0399548398
C  C223  1  0.72000000  0.05010000  0.78910000  1.0 -0.0399548398
C  C224  1  0.16990000  0.73900000  0.44990000  1.0 -0.0399548398
C  C225  1  0.78000000  0.56910000  0.33010000  1.0 -0.0399548398
C  C226  1  0.44990000  0.16990000  0.73900000  1.0 -0.0399548398
C  C227  1  0.33010000  0.78000000  0.56910000  1.0 -0.0399548398
C  C228  1  0.05010000  0.76100000  0.33010000  1.0 -0.0399548398
C  C229  1  0.16990000  0.93090000  0.72000000  1.0 -0.0399548398
C  C230  1  0.78000000  0.71090000  0.44990000  1.0 -0.0399548398
C  C231  1  0.05010000  0.78910000  0.72000000  1.0 -0.0399548398
C  C232  1  0.78910000  0.56910000  0.73900000  1.0 -0.0399548398
C  C233  1  0.73900000  0.78910000  0.56910000  1.0 -0.0399548398
C  C234  1  0.56910000  0.73900000  0.78910000  1.0 -0.0399548398
C  C235  1  0.56910000  0.33010000  0.78000000  1.0 -0.0399548398
C  C236  1  0.44990000  0.78000000  0.71090000  1.0 -0.0399548398
C  C237  1  0.33010000  0.05010000  0.76100000  1.0 -0.0399548398
C  C238  1  0.72000000  0.16990000  0.93090000  1.0 -0.0399548398
C  C239  1  0.73900000  0.44990000  0.16990000  1.0 -0.0399548398
C  C240  1  0.78910000  0.72000000  0.05010000  1.0 -0.0399548398
C  C241  1  0.73110000  0.88390000  0.71920000  1.0 -0.1539708267
C  C242  1  0.88390000  0.71920000  0.73110000  1.0 -0.1539708267
C  C243  1  0.71920000  0.73110000  0.88390000  1.0 -0.1539708267
C  C244  1  0.88390000  0.66470000  0.15280000  1.0 -0.1539708267
C  C245  1  0.71920000  0.48810000  0.83530000  1.0 -0.1539708267
C  C246  1  0.73110000  0.34720000  0.01190000  1.0 -0.1539708267
C  C247  1  0.66470000  0.01190000  0.78080000  1.0 -0.1539708267
C  C248  1  0.15280000  0.76890000  0.48810000  1.0 -0.1539708267
C  C249  1  0.83530000  0.61610000  0.34720000  1.0 -0.1539708267
C  C250  1  0.48810000  0.15280000  0.76890000  1.0 -0.1539708267
C  C251  1  0.34720000  0.83530000  0.61610000  1.0 -0.1539708267
C  C252  1  0.01190000  0.73110000  0.34720000  1.0 -0.1539708267
C  C253  1  0.15280000  0.88390000  0.66470000  1.0 -0.1539708267
C  C254  1  0.83530000  0.71920000  0.48810000  1.0 -0.1539708267
C  C255  1  0.01190000  0.78080000  0.66470000  1.0 -0.1539708267
C  C256  1  0.78080000  0.61610000  0.76890000  1.0 -0.1539708267
C  C257  1  0.76890000  0.78080000  0.61610000  1.0 -0.1539708267
C  C258  1  0.61610000  0.76890000  0.78080000  1.0 -0.1539708267
C  C259  1  0.61610000  0.34720000  0.83530000  1.0 -0.1539708267
C  C260  1  0.48810000  0.83530000  0.71920000  1.0 -0.1539708267
C  C261  1  0.34720000  0.01190000  0.73110000  1.0 -0.1539708267
C  C262  1  0.66470000  0.15280000  0.88390000  1.0 -0.1539708267
C  C263  1  0.76890000  0.48810000  0.15280000  1.0 -0.1539708267
C  C264  1  0.78080000  0.66470000  0.01190000  1.0 -0.1539708267
C  C265  1  0.66010000  0.83690000  0.67440000  1.0 0.0701002499
C  C266  1  0.83690000  0.67440000  0.66010000  1.0 0.0701002499
C  C267  1  0.67440000  0.66010000  0.83690000  1.0 0.0701002499
C  C268  1  0.83690000  0.66250000  0.17680000  1.0 0.0701002499
C  C269  1  0.67440000  0.51430000  0.83750000  1.0 0.0701002499
C  C270  1  0.66010000  0.32320000  0.98570000  1.0 0.0701002499
C  C271  1  0.66250000  0.98570000  0.82560000  1.0 0.0701002499
C  C272  1  0.17680000  0.83990000  0.51430000  1.0 0.0701002499
C  C273  1  0.83750000  0.66310000  0.32320000  1.0 0.0701002499
C  C274  1  0.51430000  0.17680000  0.83990000  1.0 0.0701002499
C  C275  1  0.32320000  0.83750000  0.66310000  1.0 0.0701002499
C  C276  1  0.98570000  0.66010000  0.32320000  1.0 0.0701002499
C  C277  1  0.17680000  0.83690000  0.66250000  1.0 0.0701002499
C  C278  1  0.83750000  0.67440000  0.51430000  1.0 0.0701002499
C  C279  1  0.98570000  0.82560000  0.66250000  1.0 0.0701002499
C  C280  1  0.82560000  0.66310000  0.83990000  1.0 0.0701002499
C  C281  1  0.83990000  0.82560000  0.66310000  1.0 0.0701002499
C  C282  1  0.66310000  0.83990000  0.82560000  1.0 0.0701002499
C  C283  1  0.66310000  0.32320000  0.83750000  1.0 0.0701002499
C  C284  1  0.51430000  0.83750000  0.67440000  1.0 0.0701002499
C  C285  1  0.32320000  0.98570000  0.66010000  1.0 0.0701002499
C  C286  1  0.66250000  0.17680000  0.83690000  1.0 0.0701002499
C  C287  1  0.83990000  0.51430000  0.17680000  1.0 0.0701002499
C  C288  1  0.82560000  0.66250000  0.98570000  1.0 0.0701002499
N  N1  1  0.62700000  0.84180000  0.62540000  1.0 -0.2160956123
N  N2  1  0.84180000  0.62540000  0.62700000  1.0 -0.2160956123
N  N3  1  0.62540000  0.62700000  0.84180000  1.0 -0.2160956123
N  N4  1  0.84180000  0.71640000  0.21480000  1.0 -0.2160956123
N  N5  1  0.62540000  0.49840000  0.78360000  1.0 -0.2160956123
N  N6  1  0.62700000  0.28520000  0.00160000  1.0 -0.2160956123
N  N7  1  0.71640000  0.00160000  0.87460000  1.0 -0.2160956123
N  N8  1  0.21480000  0.87300000  0.49840000  1.0 -0.2160956123
N  N9  1  0.78360000  0.65820000  0.28520000  1.0 -0.2160956123
N  N10  1  0.49840000  0.21480000  0.87300000  1.0 -0.2160956123
N  N11  1  0.28520000  0.78360000  0.65820000  1.0 -0.2160956123
N  N12  1  0.00160000  0.62700000  0.28520000  1.0 -0.2160956123
N  N13  1  0.21480000  0.84180000  0.71640000  1.0 -0.2160956123
N  N14  1  0.78360000  0.62540000  0.49840000  1.0 -0.2160956123
N  N15  1  0.00160000  0.87460000  0.71640000  1.0 -0.2160956123
N  N16  1  0.87460000  0.65820000  0.87300000  1.0 -0.2160956123
N  N17  1  0.87300000  0.87460000  0.65820000  1.0 -0.2160956123
N  N18  1  0.65820000  0.87300000  0.87460000  1.0 -0.2160956123
N  N19  1  0.65820000  0.28520000  0.78360000  1.0 -0.2160956123
N  N20  1  0.49840000  0.78360000  0.62540000  1.0 -0.2160956123
N  N21  1  0.28520000  0.00160000  0.62700000  1.0 -0.2160956123
N  N22  1  0.71640000  0.21480000  0.84180000  1.0 -0.2160956123
N  N23  1  0.87300000  0.49840000  0.21480000  1.0 -0.2160956123
N  N24  1  0.87460000  0.71640000  0.00160000  1.0 -0.2160956123
O  O1  1  0.52384000  0.85980000  0.56076000  1.0 -0.547312422
O  O2  1  0.85980000  0.56076000  0.52384000  1.0 -0.547312422
O  O3  1  0.56076000  0.52384000  0.85980000  1.0 -0.547312422
O  O4  1  0.85980000  0.79904000  0.33596000  1.0 -0.547312422
O  O5  1  0.56076000  0.53692000  0.70096000  1.0 -0.547312422
O  O6  1  0.52384000  0.16404000  0.96308000  1.0 -0.547312422
O  O7  1  0.79904000  0.96308000  0.93924000  1.0 -0.547312422
O  O8  1  0.33596000  0.97616000  0.53692000  1.0 -0.547312422
O  O9  1  0.70096000  0.64020000  0.16404000  1.0 -0.547312422
O  O10  1  0.53692000  0.33596000  0.97616000  1.0 -0.547312422
O  O11  1  0.16404000  0.70096000  0.64020000  1.0 -0.547312422
O  O12  1  0.96308000  0.52384000  0.16404000  1.0 -0.547312422
O  O13  1  0.33596000  0.85980000  0.79904000  1.0 -0.547312422
O  O14  1  0.70096000  0.56076000  0.53692000  1.0 -0.547312422
O  O15  1  0.96308000  0.93924000  0.79904000  1.0 -0.547312422
O  O16  1  0.93924000  0.64020000  0.97616000  1.0 -0.547312422
O  O17  1  0.97616000  0.93924000  0.64020000  1.0 -0.547312422
O  O18  1  0.64020000  0.97616000  0.93924000  1.0 -0.547312422
O  O19  1  0.64020000  0.16404000  0.70096000  1.0 -0.547312422
O  O20  1  0.53692000  0.70096000  0.56076000  1.0 -0.547312422
O  O21  1  0.16404000  0.96308000  0.52384000  1.0 -0.547312422
O  O22  1  0.79904000  0.33596000  0.85980000  1.0 -0.547312422
O  O23  1  0.97616000  0.53692000  0.33596000  1.0 -0.547312422
O  O24  1  0.93924000  0.79904000  0.96308000  1.0 -0.547312422
O  O25  1  0.41700000  0.81941000  0.49661000  1.0 -0.547312422
O  O26  1  0.81941000  0.49661000  0.41700000  1.0 -0.547312422
O  O27  1  0.49661000  0.41700000  0.81941000  1.0 -0.547312422
O  O28  1  0.81941000  0.82280000  0.40241000  1.0 -0.547312422
O  O29  1  0.49661000  0.57961000  0.67720000  1.0 -0.547312422
O  O30  1  0.41700000  0.09759000  0.92039000  1.0 -0.547312422
O  O31  1  0.82280000  0.92039000  0.00339000  1.0 -0.547312422
O  O32  1  0.40241000  0.08300000  0.57961000  1.0 -0.547312422
O  O33  1  0.67720000  0.68059000  0.09759000  1.0 -0.547312422
O  O34  1  0.57961000  0.40241000  0.08300000  1.0 -0.547312422
O  O35  1  0.09759000  0.67720000  0.68059000  1.0 -0.547312422
O  O36  1  0.92039000  0.41700000  0.09759000  1.0 -0.547312422
O  O37  1  0.40241000  0.81941000  0.82280000  1.0 -0.547312422
O  O38  1  0.67720000  0.49661000  0.57961000  1.0 -0.547312422
O  O39  1  0.92039000  0.00339000  0.82280000  1.0 -0.547312422
O  O40  1  0.00339000  0.68059000  0.08300000  1.0 -0.547312422
O  O41  1  0.08300000  0.00339000  0.68059000  1.0 -0.547312422
O  O42  1  0.68059000  0.08300000  0.00339000  1.0 -0.547312422
O  O43  1  0.68059000  0.09759000  0.67720000  1.0 -0.547312422
O  O44  1  0.57961000  0.67720000  0.49661000  1.0 -0.547312422
O  O45  1  0.09759000  0.92039000  0.41700000  1.0 -0.547312422
O  O46  1  0.82280000  0.40241000  0.81941000  1.0 -0.547312422
O  O47  1  0.08300000  0.57961000  0.40241000  1.0 -0.547312422
O  O48  1  0.00339000  0.82280000  0.92039000  1.0 -0.547312422
O  O49  1  0.43161000  0.71790000  0.48071000  1.0 -0.442662055
O  O50  1  0.71790000  0.48071000  0.43161000  1.0 -0.442662055
O  O51  1  0.48071000  0.43161000  0.71790000  1.0 -0.442662055
O  O52  1  0.71790000  0.73719000  0.28629000  1.0 -0.442662055
O  O53  1  0.48071000  0.54910000  0.76281000  1.0 -0.442662055
O  O54  1  0.43161000  0.21371000  0.95090000  1.0 -0.442662055
O  O55  1  0.73719000  0.95090000  0.01929000  1.0 -0.442662055
O  O56  1  0.28629000  0.06839000  0.54910000  1.0 -0.442662055
O  O57  1  0.76281000  0.78210000  0.21371000  1.0 -0.442662055
O  O58  1  0.54910000  0.28629000  0.06839000  1.0 -0.442662055
O  O59  1  0.21371000  0.76281000  0.78210000  1.0 -0.442662055
O  O60  1  0.95090000  0.43161000  0.21371000  1.0 -0.442662055
O  O61  1  0.28629000  0.71790000  0.73719000  1.0 -0.442662055
O  O62  1  0.76281000  0.48071000  0.54910000  1.0 -0.442662055
O  O63  1  0.95090000  0.01929000  0.73719000  1.0 -0.442662055
O  O64  1  0.01929000  0.78210000  0.06839000  1.0 -0.442662055
O  O65  1  0.06839000  0.01929000  0.78210000  1.0 -0.442662055
O  O66  1  0.78210000  0.06839000  0.01929000  1.0 -0.442662055
O  O67  1  0.78210000  0.21371000  0.76281000  1.0 -0.442662055
O  O68  1  0.54910000  0.76281000  0.48071000  1.0 -0.442662055
O  O69  1  0.21371000  0.95090000  0.43161000  1.0 -0.442662055
O  O70  1  0.73719000  0.28629000  0.71790000  1.0 -0.442662055
O  O71  1  0.06839000  0.54910000  0.28629000  1.0 -0.442662055
O  O72  1  0.01929000  0.73719000  0.95090000  1.0 -0.442662055
