# DDEC6 charges by PACMAN v1.1 (https://github.com/mtap-research/PACMAN-charge/)
data_HUYMAS_FSR_pacman
_symmetry_space_group_name_H-M   'P 1'
_cell_length_a   15.26910000
_cell_length_b   15.26910000
_cell_length_c   15.41830000
_cell_angle_alpha   90.00000000
_cell_angle_beta   90.00000000
_cell_angle_gamma   120.00000000
_symmetry_Int_Tables_number   1
_chemical_formula_structural   Tb2Mg3H42C42(NO5)6
_chemical_formula_sum   'Tb4 Mg6 H84 C84 N12 O60'
_cell_volume   3113.10667111
_cell_formula_units_Z   2
loop_
 _symmetry_equiv_pos_site_id
 _symmetry_equiv_pos_as_xyz
  1  'x, y, z'
loop_
 _atom_site_type_symbol
 _atom_site_label
 _atom_site_symmetry_multiplicity
 _atom_site_fract_x
 _atom_site_fract_y
 _atom_site_fract_z
 _atom_site_occupancy
 _atom_site_charge
Tb  Tb1  1  0.66666667  0.33333333  0.25000000  1.0 1.8248566286
Tb  Tb2  1  0.33333333  0.66666667  0.25000000  1.0 1.8263255255
Tb  Tb3  1  0.33333333  0.66666667  0.75000000  1.0 1.8263255255
Tb  Tb4  1  0.66666667  0.33333333  0.75000000  1.0 1.8263255255
Mg  Mg1  1  0.00000000  0.50000000  0.00000000  1.0 1.2797372238
Mg  Mg2  1  0.50000000  0.50000000  0.00000000  1.0 1.2797372238
Mg  Mg3  1  0.50000000  0.00000000  0.00000000  1.0 1.2797372238
Mg  Mg4  1  0.50000000  0.00000000  0.50000000  1.0 1.2797372238
Mg  Mg5  1  0.50000000  0.50000000  0.50000000  1.0 1.2797372238
Mg  Mg6  1  0.00000000  0.50000000  0.50000000  1.0 1.2797372238
H  H1  1  0.94771000  0.71203000  0.15516000  1.0 0.1341390805
H  H2  1  0.17486000  0.64704000  0.96226000  1.0 0.1809813389
H  H3  1  0.12035000  0.68949000  0.98278000  1.0 0.1504248297
H  H4  1  0.28797000  0.23568000  0.15516000  1.0 0.1341390805
H  H5  1  0.35296000  0.52782000  0.96226000  1.0 0.1809813389
H  H6  1  0.31051000  0.43086000  0.98278000  1.0 0.1504248297
H  H7  1  0.76432000  0.05229000  0.15516000  1.0 0.1341390805
H  H8  1  0.47218000  0.82514000  0.96226000  1.0 0.1809813389
H  H9  1  0.56914000  0.87965000  0.98278000  1.0 0.1504248297
H  H10  1  0.05229000  0.28797000  0.15516000  1.0 0.1341390805
H  H11  1  0.82514000  0.35296000  0.96226000  1.0 0.1809813389
H  H12  1  0.87965000  0.31051000  0.98278000  1.0 0.1504248297
H  H13  1  0.71203000  0.76432000  0.15516000  1.0 0.1341390805
H  H14  1  0.64704000  0.47218000  0.96226000  1.0 0.1809813389
H  H15  1  0.68949000  0.56914000  0.98278000  1.0 0.1504248297
H  H16  1  0.23568000  0.94771000  0.15516000  1.0 0.1341390805
H  H17  1  0.52782000  0.17486000  0.96226000  1.0 0.1809813389
H  H18  1  0.43086000  0.12035000  0.98278000  1.0 0.1504248297
H  H19  1  0.71203000  0.94771000  0.34484000  1.0 0.1341390805
H  H20  1  0.64704000  0.17486000  0.53774000  1.0 0.1809813389
H  H21  1  0.68949000  0.12035000  0.51722000  1.0 0.1504248297
H  H22  1  0.23568000  0.28797000  0.34484000  1.0 0.1341390805
H  H23  1  0.52782000  0.35296000  0.53774000  1.0 0.1809813389
H  H24  1  0.43086000  0.31051000  0.51722000  1.0 0.1504248297
H  H25  1  0.05229000  0.76432000  0.34484000  1.0 0.1341390805
H  H26  1  0.82514000  0.47218000  0.53774000  1.0 0.1809813389
H  H27  1  0.87965000  0.56914000  0.51722000  1.0 0.1504248297
H  H28  1  0.28797000  0.05229000  0.34484000  1.0 0.1341390805
H  H29  1  0.35296000  0.82514000  0.53774000  1.0 0.1809813389
H  H30  1  0.31051000  0.87965000  0.51722000  1.0 0.1504248297
H  H31  1  0.76432000  0.71203000  0.34484000  1.0 0.1341390805
H  H32  1  0.47218000  0.64704000  0.53774000  1.0 0.1809813389
H  H33  1  0.56914000  0.68949000  0.51722000  1.0 0.1504248297
H  H34  1  0.94771000  0.23568000  0.34484000  1.0 0.1341390805
H  H35  1  0.17486000  0.52782000  0.53774000  1.0 0.1809813389
H  H36  1  0.12035000  0.43086000  0.51722000  1.0 0.1504248297
H  H37  1  0.05229000  0.28797000  0.84484000  1.0 0.1341390805
H  H38  1  0.82514000  0.35296000  0.03774000  1.0 0.1809813389
H  H39  1  0.87965000  0.31051000  0.01722000  1.0 0.1504248297
H  H40  1  0.71203000  0.76432000  0.84484000  1.0 0.1341390805
H  H41  1  0.64704000  0.47218000  0.03774000  1.0 0.1809813389
H  H42  1  0.68949000  0.56914000  0.01722000  1.0 0.1504248297
H  H43  1  0.23568000  0.94771000  0.84484000  1.0 0.1341390805
H  H44  1  0.52782000  0.17486000  0.03774000  1.0 0.1809813389
H  H45  1  0.43086000  0.12035000  0.01722000  1.0 0.1504248297
H  H46  1  0.94771000  0.71203000  0.84484000  1.0 0.1341390805
H  H47  1  0.17486000  0.64704000  0.03774000  1.0 0.1809813389
H  H48  1  0.12035000  0.68949000  0.01722000  1.0 0.1504248297
H  H49  1  0.28797000  0.23568000  0.84484000  1.0 0.1341390805
H  H50  1  0.35296000  0.52782000  0.03774000  1.0 0.1809813389
H  H51  1  0.31051000  0.43086000  0.01722000  1.0 0.1504248297
H  H52  1  0.76432000  0.05229000  0.84484000  1.0 0.1341390805
H  H53  1  0.47218000  0.82514000  0.03774000  1.0 0.1809813389
H  H54  1  0.56914000  0.87965000  0.01722000  1.0 0.1504248297
H  H55  1  0.28797000  0.05229000  0.65516000  1.0 0.1341390805
H  H56  1  0.35296000  0.82514000  0.46226000  1.0 0.1809813389
H  H57  1  0.31051000  0.87965000  0.48278000  1.0 0.1504248297
H  H58  1  0.76432000  0.71203000  0.65516000  1.0 0.1341390805
H  H59  1  0.47218000  0.64704000  0.46226000  1.0 0.1809813389
H  H60  1  0.56914000  0.68949000  0.48278000  1.0 0.1504248297
H  H61  1  0.94771000  0.23568000  0.65516000  1.0 0.1341390805
H  H62  1  0.17486000  0.52782000  0.46226000  1.0 0.1809813389
H  H63  1  0.12035000  0.43086000  0.48278000  1.0 0.1504248297
H  H64  1  0.71203000  0.94771000  0.65516000  1.0 0.1341390805
H  H65  1  0.64704000  0.17486000  0.46226000  1.0 0.1809813389
H  H66  1  0.68949000  0.12035000  0.48278000  1.0 0.1504248297
H  H67  1  0.23568000  0.28797000  0.65516000  1.0 0.1341390805
H  H68  1  0.52782000  0.35296000  0.46226000  1.0 0.1809813389
H  H69  1  0.43086000  0.31051000  0.48278000  1.0 0.1504248297
H  H70  1  0.05229000  0.76432000  0.65516000  1.0 0.1341390805
H  H71  1  0.82514000  0.47218000  0.46226000  1.0 0.1809813389
H  H72  1  0.87965000  0.56914000  0.48278000  1.0 0.1504248297
H  H73  1  0.90116000  0.80231000  0.25000000  1.0 0.1076216372
H  H74  1  0.19769000  0.09885000  0.25000000  1.0 0.1076216372
H  H75  1  0.90116000  0.09885000  0.25000000  1.0 0.1076216372
H  H76  1  0.09885000  0.19769000  0.25000000  1.0 0.1076216372
H  H77  1  0.80231000  0.90116000  0.25000000  1.0 0.1076216372
H  H78  1  0.09884000  0.90116000  0.25000000  1.0 0.1076216372
H  H79  1  0.09885000  0.19769000  0.75000000  1.0 0.1076216372
H  H80  1  0.80231000  0.90116000  0.75000000  1.0 0.1076216372
H  H81  1  0.09884000  0.90116000  0.75000000  1.0 0.1076216372
H  H82  1  0.90116000  0.80231000  0.75000000  1.0 0.1076216372
H  H83  1  0.19769000  0.09885000  0.75000000  1.0 0.1076216372
H  H84  1  0.90116000  0.09885000  0.75000000  1.0 0.1076216372
C  C1  1  0.83900000  0.57290000  0.19630000  1.0 0.1165991466
C  C2  1  0.89280000  0.67730000  0.19420000  1.0 -0.1425258819
C  C3  1  0.86200000  0.50730000  0.13900000  1.0 0.5600324766
C  C4  1  0.42710000  0.26610000  0.19630000  1.0 0.1165991466
C  C5  1  0.32270000  0.21550000  0.19420000  1.0 -0.1425258819
C  C6  1  0.49270000  0.35470000  0.13900000  1.0 0.5600324766
C  C7  1  0.73390000  0.16100000  0.19630000  1.0 0.1165991466
C  C8  1  0.78450000  0.10720000  0.19420000  1.0 -0.1425258819
C  C9  1  0.64530000  0.13800000  0.13900000  1.0 0.5600324766
C  C10  1  0.16100000  0.42710000  0.19630000  1.0 0.1165991466
C  C11  1  0.10720000  0.32270000  0.19420000  1.0 -0.1425258819
C  C12  1  0.13800000  0.49270000  0.13900000  1.0 0.5600324766
C  C13  1  0.57290000  0.73390000  0.19630000  1.0 0.1165991466
C  C14  1  0.67730000  0.78450000  0.19420000  1.0 -0.1425258819
C  C15  1  0.50730000  0.64530000  0.13900000  1.0 0.5600324766
C  C16  1  0.26610000  0.83900000  0.19630000  1.0 0.1165991466
C  C17  1  0.21550000  0.89280000  0.19420000  1.0 -0.1425258819
C  C18  1  0.35470000  0.86200000  0.13900000  1.0 0.5600324766
C  C19  1  0.57290000  0.83900000  0.30370000  1.0 0.1165991466
C  C20  1  0.67730000  0.89280000  0.30580000  1.0 -0.1425258819
C  C21  1  0.50730000  0.86200000  0.36100000  1.0 0.5600324766
C  C22  1  0.26610000  0.42710000  0.30370000  1.0 0.1165991466
C  C23  1  0.21550000  0.32270000  0.30580000  1.0 -0.1425258819
C  C24  1  0.35470000  0.49270000  0.36100000  1.0 0.5600324766
C  C25  1  0.16100000  0.73390000  0.30370000  1.0 0.1165991466
C  C26  1  0.10720000  0.78450000  0.30580000  1.0 -0.1425258819
C  C27  1  0.13800000  0.64530000  0.36100000  1.0 0.5600324766
C  C28  1  0.42710000  0.16100000  0.30370000  1.0 0.1165991466
C  C29  1  0.32270000  0.10720000  0.30580000  1.0 -0.1425258819
C  C30  1  0.49270000  0.13800000  0.36100000  1.0 0.5600324766
C  C31  1  0.73390000  0.57290000  0.30370000  1.0 0.1165991466
C  C32  1  0.78450000  0.67730000  0.30580000  1.0 -0.1425258819
C  C33  1  0.64530000  0.50730000  0.36100000  1.0 0.5600324766
C  C34  1  0.83900000  0.26610000  0.30370000  1.0 0.1165991466
C  C35  1  0.89280000  0.21550000  0.30580000  1.0 -0.1425258819
C  C36  1  0.86200000  0.35470000  0.36100000  1.0 0.5600324766
C  C37  1  0.16100000  0.42710000  0.80370000  1.0 0.1165991466
C  C38  1  0.10720000  0.32270000  0.80580000  1.0 -0.1425258819
C  C39  1  0.13800000  0.49270000  0.86100000  1.0 0.5600324766
C  C40  1  0.57290000  0.73390000  0.80370000  1.0 0.1165991466
C  C41  1  0.67730000  0.78450000  0.80580000  1.0 -0.1425258819
C  C42  1  0.50730000  0.64530000  0.86100000  1.0 0.5600324766
C  C43  1  0.26610000  0.83900000  0.80370000  1.0 0.1165991466
C  C44  1  0.21550000  0.89280000  0.80580000  1.0 -0.1425258819
C  C45  1  0.35470000  0.86200000  0.86100000  1.0 0.5600324766
C  C46  1  0.83900000  0.57290000  0.80370000  1.0 0.1165991466
C  C47  1  0.89280000  0.67730000  0.80580000  1.0 -0.1425258819
C  C48  1  0.86200000  0.50730000  0.86100000  1.0 0.5600324766
C  C49  1  0.42710000  0.26610000  0.80370000  1.0 0.1165991466
C  C50  1  0.32270000  0.21550000  0.80580000  1.0 -0.1425258819
C  C51  1  0.49270000  0.35470000  0.86100000  1.0 0.5600324766
C  C52  1  0.73390000  0.16100000  0.80370000  1.0 0.1165991466
C  C53  1  0.78450000  0.10720000  0.80580000  1.0 -0.1425258819
C  C54  1  0.64530000  0.13800000  0.86100000  1.0 0.5600324766
C  C55  1  0.42710000  0.16100000  0.69630000  1.0 0.1165991466
C  C56  1  0.32270000  0.10720000  0.69420000  1.0 -0.1425258819
C  C57  1  0.49270000  0.13800000  0.63900000  1.0 0.5600324766
C  C58  1  0.73390000  0.57290000  0.69630000  1.0 0.1165991466
C  C59  1  0.78450000  0.67730000  0.69420000  1.0 -0.1425258819
C  C60  1  0.64530000  0.50730000  0.63900000  1.0 0.5600324766
C  C61  1  0.83900000  0.26610000  0.69630000  1.0 0.1165991466
C  C62  1  0.89280000  0.21550000  0.69420000  1.0 -0.1425258819
C  C63  1  0.86200000  0.35470000  0.63900000  1.0 0.5600324766
C  C64  1  0.57290000  0.83900000  0.69630000  1.0 0.1165991466
C  C65  1  0.67730000  0.89280000  0.69420000  1.0 -0.1425258819
C  C66  1  0.50730000  0.86200000  0.63900000  1.0 0.5600324766
C  C67  1  0.26610000  0.42710000  0.69630000  1.0 0.1165991466
C  C68  1  0.21550000  0.32270000  0.69420000  1.0 -0.1425258819
C  C69  1  0.35470000  0.49270000  0.63900000  1.0 0.5600324766
C  C70  1  0.16100000  0.73390000  0.69630000  1.0 0.1165991466
C  C71  1  0.10720000  0.78450000  0.69420000  1.0 -0.1425258819
C  C72  1  0.13800000  0.64530000  0.63900000  1.0 0.5600324766
C  C73  1  0.86525000  0.73050000  0.25000000  1.0 -0.0625185371
C  C74  1  0.26950000  0.13475000  0.25000000  1.0 -0.0625185371
C  C75  1  0.86525000  0.13475000  0.25000000  1.0 -0.0625185371
C  C76  1  0.13475000  0.26950000  0.25000000  1.0 -0.0625185371
C  C77  1  0.73050000  0.86525000  0.25000000  1.0 -0.0625185371
C  C78  1  0.13475000  0.86525000  0.25000000  1.0 -0.0625185371
C  C79  1  0.13475000  0.26950000  0.75000000  1.0 -0.0625185371
C  C80  1  0.73050000  0.86525000  0.75000000  1.0 -0.0625185371
C  C81  1  0.13475000  0.86525000  0.75000000  1.0 -0.0625185371
C  C82  1  0.86525000  0.73050000  0.75000000  1.0 -0.0625185371
C  C83  1  0.26950000  0.13475000  0.75000000  1.0 -0.0625185371
C  C84  1  0.86525000  0.13475000  0.75000000  1.0 -0.0625185371
N  N1  1  0.76090000  0.52180000  0.25000000  1.0 -0.3640809243
N  N2  1  0.47820000  0.23910000  0.25000000  1.0 -0.3640809243
N  N3  1  0.76090000  0.23910000  0.25000000  1.0 -0.3640809243
N  N4  1  0.23910000  0.47820000  0.25000000  1.0 -0.3640809243
N  N5  1  0.52180000  0.76090000  0.25000000  1.0 -0.3640809243
N  N6  1  0.23910000  0.76090000  0.25000000  1.0 -0.3640809243
N  N7  1  0.23910000  0.47820000  0.75000000  1.0 -0.3640809243
N  N8  1  0.52180000  0.76090000  0.75000000  1.0 -0.3640809243
N  N9  1  0.23910000  0.76090000  0.75000000  1.0 -0.3655603631
N  N10  1  0.76090000  0.52180000  0.75000000  1.0 -0.3640809243
N  N11  1  0.47820000  0.23910000  0.75000000  1.0 -0.3640809243
N  N12  1  0.76090000  0.23910000  0.75000000  1.0 -0.3640809243
O  O1  1  0.93830000  0.54970000  0.09190000  1.0 -0.6051104867
O  O2  1  0.80110000  0.41310000  0.14350000  1.0 -0.59035602
O  O3  1  0.45030000  0.38860000  0.09190000  1.0 -0.6051104867
O  O4  1  0.58690000  0.38800000  0.14350000  1.0 -0.59035602
O  O5  1  0.61140000  0.06170000  0.09190000  1.0 -0.6051104867
O  O6  1  0.61200000  0.19890000  0.14350000  1.0 -0.59035602
O  O7  1  0.06170000  0.45030000  0.09190000  1.0 -0.6051104867
O  O8  1  0.19890000  0.58690000  0.14350000  1.0 -0.59035602
O  O9  1  0.54970000  0.61140000  0.09190000  1.0 -0.6051104867
O  O10  1  0.41310000  0.61200000  0.14350000  1.0 -0.59035602
O  O11  1  0.38860000  0.93830000  0.09190000  1.0 -0.6051104867
O  O12  1  0.38800000  0.80110000  0.14350000  1.0 -0.59035602
O  O13  1  0.54970000  0.93830000  0.40810000  1.0 -0.6051104867
O  O14  1  0.41310000  0.80110000  0.35650000  1.0 -0.59035602
O  O15  1  0.38860000  0.45030000  0.40810000  1.0 -0.6051104867
O  O16  1  0.38800000  0.58690000  0.35650000  1.0 -0.59035602
O  O17  1  0.06170000  0.61140000  0.40810000  1.0 -0.6051104867
O  O18  1  0.19890000  0.61200000  0.35650000  1.0 -0.59035602
O  O19  1  0.45030000  0.06170000  0.40810000  1.0 -0.6051104867
O  O20  1  0.58690000  0.19890000  0.35650000  1.0 -0.59035602
O  O21  1  0.61140000  0.54970000  0.40810000  1.0 -0.6051104867
O  O22  1  0.61200000  0.41310000  0.35650000  1.0 -0.59035602
O  O23  1  0.93830000  0.38860000  0.40810000  1.0 -0.6051104867
O  O24  1  0.80110000  0.38800000  0.35650000  1.0 -0.59035602
O  O25  1  0.06170000  0.45030000  0.90810000  1.0 -0.6051104867
O  O26  1  0.19890000  0.58690000  0.85650000  1.0 -0.59035602
O  O27  1  0.54970000  0.61140000  0.90810000  1.0 -0.6051104867
O  O28  1  0.41310000  0.61200000  0.85650000  1.0 -0.59035602
O  O29  1  0.38860000  0.93830000  0.90810000  1.0 -0.6051104867
O  O30  1  0.38800000  0.80110000  0.85650000  1.0 -0.59035602
O  O31  1  0.93830000  0.54970000  0.90810000  1.0 -0.6051104867
O  O32  1  0.80110000  0.41310000  0.85650000  1.0 -0.59035602
O  O33  1  0.45030000  0.38860000  0.90810000  1.0 -0.6051104867
O  O34  1  0.58690000  0.38800000  0.85650000  1.0 -0.59035602
O  O35  1  0.61140000  0.06170000  0.90810000  1.0 -0.6051104867
O  O36  1  0.61200000  0.19890000  0.85650000  1.0 -0.59035602
O  O37  1  0.45030000  0.06170000  0.59190000  1.0 -0.6051104867
O  O38  1  0.58690000  0.19890000  0.64350000  1.0 -0.59035602
O  O39  1  0.61140000  0.54970000  0.59190000  1.0 -0.6051104867
O  O40  1  0.61200000  0.41310000  0.64350000  1.0 -0.59035602
O  O41  1  0.93830000  0.38860000  0.59190000  1.0 -0.6051104867
O  O42  1  0.80110000  0.38800000  0.64350000  1.0 -0.59035602
O  O43  1  0.54970000  0.93830000  0.59190000  1.0 -0.6051104867
O  O44  1  0.41310000  0.80110000  0.64350000  1.0 -0.59035602
O  O45  1  0.38860000  0.45030000  0.59190000  1.0 -0.6051104867
O  O46  1  0.38800000  0.58690000  0.64350000  1.0 -0.59035602
O  O47  1  0.06170000  0.61140000  0.59190000  1.0 -0.6051104867
O  O48  1  0.19890000  0.61200000  0.64350000  1.0 -0.59035602
O  O49  1  0.13310000  0.64450000  0.00000000  1.0 -0.5377892358
O  O50  1  0.35550000  0.48860000  0.00000000  1.0 -0.5377892358
O  O51  1  0.51140000  0.86690000  0.00000000  1.0 -0.5377892358
O  O52  1  0.86690000  0.35550000  0.00000000  1.0 -0.5377892358
O  O53  1  0.64450000  0.51140000  0.00000000  1.0 -0.5377892358
O  O54  1  0.48860000  0.13310000  0.00000000  1.0 -0.5377892358
O  O55  1  0.64450000  0.13310000  0.50000000  1.0 -0.5377892358
O  O56  1  0.48860000  0.35550000  0.50000000  1.0 -0.5377892358
O  O57  1  0.86690000  0.51140000  0.50000000  1.0 -0.5377892358
O  O58  1  0.35550000  0.86690000  0.50000000  1.0 -0.5377892358
O  O59  1  0.51140000  0.64450000  0.50000000  1.0 -0.5377892358
O  O60  1  0.13310000  0.48860000  0.50000000  1.0 -0.5377892358
