# DDEC6 charges by PACMAN v1.1 (https://github.com/mtap-research/PACMAN-charge/)
data_HUZKUJ_ASR_pacman
_symmetry_space_group_name_H-M   'P 1'
_cell_length_a   8.06740000
_cell_length_b   10.00600000
_cell_length_c   20.44320000
_cell_angle_alpha   100.97200000
_cell_angle_beta   95.06500000
_cell_angle_gamma   105.05300000
_symmetry_Int_Tables_number   1
_chemical_formula_structural   In4P5H5C4O23
_chemical_formula_sum   'In8 P10 H10 C8 O46'
_cell_volume   1547.87318044
_cell_formula_units_Z   2
loop_
 _symmetry_equiv_pos_site_id
 _symmetry_equiv_pos_as_xyz
  1  'x, y, z'
loop_
 _atom_site_type_symbol
 _atom_site_label
 _atom_site_symmetry_multiplicity
 _atom_site_fract_x
 _atom_site_fract_y
 _atom_site_fract_z
 _atom_site_occupancy
 _atom_site_charge
In  In1  1  0.11547000  0.46939000  0.62531000  1.0 1.5564205018
In  In2  1  0.88453000  0.53061000  0.37469000  1.0 1.5527795322
In  In3  1  0.90401000  0.90585000  0.66927000  1.0 1.5395110614
In  In4  1  0.09599000  0.09415000  0.33073000  1.0 1.5395110614
In  In5  1  0.65109000  0.68307000  0.82015000  1.0 1.5564205018
In  In6  1  0.34891000  0.31693000  0.17985000  1.0 1.5564205018
In  In7  1  0.02231000  0.36439000  0.88908000  1.0 1.5870637066
In  In8  1  0.97769000  0.63561000  0.11092000  1.0 1.5870637066
P  P1  1  0.75360000  0.54190000  0.95330000  1.0 1.4178627499
P  P2  1  0.24640000  0.45810000  0.04670000  1.0 1.4178627499
P  P3  1  0.01010000  0.67960000  0.75263000  1.0 1.1584419377
P  P4  1  0.98990000  0.32040000  0.24737000  1.0 1.1584419377
P  P5  1  0.97680000  0.67930000  0.53957000  1.0 1.2720250852
P  P6  1  0.02320000  0.32070000  0.46043000  1.0 1.2720250852
P  P7  1  0.48580000  0.74030000  0.67197000  1.0 1.2640833623
P  P8  1  0.51420000  0.25970000  0.32803000  1.0 1.2640833623
P  P9  1  0.83000000  0.02120000  0.83257000  1.0 1.0905257828
P  P10  1  0.17000000  0.97880000  0.16743000  1.0 1.0905257828
H  H1  1  0.71320000  0.03360000  0.82970000  1.0 0.1155846782
H  H2  1  0.28680000  0.96640000  0.17030000  1.0 0.1135457374
H  H3  1  0.56100000  0.48100000  0.94200000  1.0 -0.1591661506
H  H4  1  0.43900000  0.51900000  0.05800000  1.0 -0.1591661506
H  H5  1  0.07800000  0.72800000  0.81300000  1.0 -0.0400443625
H  H6  1  0.92200000  0.27200000  0.18700000  1.0 -0.0400443625
H  H7  1  0.14200000  0.69600000  0.52200000  1.0 -0.1195701741
H  H8  1  0.85800000  0.30400000  0.47800000  1.0 -0.1195701741
H  H9  1  0.41200000  0.84500000  0.66100000  1.0 -0.0772880807
H  H10  1  0.58800000  0.15500000  0.33900000  1.0 -0.0772880807
C  C1  1  0.31550000  0.59350000  0.87010000  1.0 0.4796377338
C  C2  1  0.68450000  0.40650000  0.12990000  1.0 0.4796377338
C  C3  1  0.34450000  0.45520000  0.83000000  1.0 0.4796377338
C  C4  1  0.65550000  0.54480000  0.17000000  1.0 0.4796377338
C  C5  1  0.91830000  0.18230000  0.63490000  1.0 0.4612649448
C  C6  1  0.08170000  0.81770000  0.36510000  1.0 0.4612649448
C  C7  1  0.10730000  0.19530000  0.66240000  1.0 0.4612649448
C  C8  1  0.89270000  0.80470000  0.33760000  1.0 0.4612649448
O  O1  1  0.36230000  0.60630000  0.63010000  1.0 -0.6620236866
O  O2  1  0.63770000  0.39370000  0.36990000  1.0 -0.6620236866
O  O3  1  0.94820000  0.57350000  0.58450000  1.0 -0.7050463788
O  O4  1  0.05180000  0.42650000  0.41550000  1.0 -0.7050463788
O  O5  1  0.07940000  0.55500000  0.72480000  1.0 -0.7050463788
O  O6  1  0.92060000  0.44500000  0.27520000  1.0 -0.7030459675
O  O7  1  0.85470000  0.62390000  0.47390000  1.0 -0.6801764004
O  O8  1  0.14530000  0.37610000  0.52610000  1.0 -0.6801764004
O  O9  1  0.88680000  0.28870000  0.61890000  1.0 -0.437553111
O  O10  1  0.11320000  0.71130000  0.38110000  1.0 -0.437553111
O  O11  1  0.21790000  0.31120000  0.66480000  1.0 -0.437553111
O  O12  1  0.78210000  0.68880000  0.33520000  1.0 -0.437553111
O  O13  1  0.65540000  0.76490000  0.64260000  1.0 -0.6920927398
O  O14  1  0.34460000  0.23510000  0.35740000  1.0 -0.6920927398
O  O15  1  0.85730000  0.00810000  0.76340000  1.0 -0.6920927398
O  O16  1  0.14270000  0.99190000  0.23660000  1.0 -0.6920927398
O  O17  1  0.96390000  0.82410000  0.57450000  1.0 -0.6801764004
O  O18  1  0.03610000  0.17590000  0.42550000  1.0 -0.6801764004
O  O19  1  0.05760000  0.80040000  0.71670000  1.0 -0.7030459675
O  O20  1  0.94240000  0.19960000  0.28330000  1.0 -0.7030459675
O  O21  1  0.80820000  0.06520000  0.62960000  1.0 -0.4508728616
O  O22  1  0.19180000  0.93480000  0.37040000  1.0 -0.4508728616
O  O23  1  0.13680000  0.09000000  0.67970000  1.0 -0.437553111
O  O24  1  0.86320000  0.91000000  0.32030000  1.0 -0.437553111
O  O25  1  0.80220000  0.89100000  0.86100000  1.0 -0.6470923655
O  O26  1  0.19780000  0.10900000  0.13900000  1.0 -0.6470923655
O  O27  1  0.81680000  0.62540000  0.75480000  1.0 -0.7050463788
O  O28  1  0.18320000  0.37460000  0.24520000  1.0 -0.7050463788
O  O29  1  0.78050000  0.63260000  0.90170000  1.0 -0.739111089
O  O30  1  0.21950000  0.36740000  0.09830000  1.0 -0.739111089
O  O31  1  0.50630000  0.74300000  0.74580000  1.0 -0.7267705135
O  O32  1  0.49370000  0.25700000  0.25420000  1.0 -0.7267705135
O  O33  1  0.47360000  0.46710000  0.80010000  1.0 -0.4508728616
O  O34  1  0.52640000  0.53290000  0.19990000  1.0 -0.4508728616
O  O35  1  0.43440000  0.70510000  0.87640000  1.0 -0.461906635
O  O36  1  0.56560000  0.29490000  0.12360000  1.0 -0.461906635
O  O37  1  0.82930000  0.41840000  0.93910000  1.0 -0.7485030226
O  O38  1  0.17070000  0.58160000  0.06090000  1.0 -0.7485030226
O  O39  1  0.92580000  0.14750000  0.88320000  1.0 -0.6241885655
O  O40  1  0.07420000  0.85250000  0.11680000  1.0 -0.6241885655
O  O41  1  0.81600000  0.63190000  0.02400000  1.0 -0.7267705135
O  O42  1  0.18400000  0.36810000  0.97600000  1.0 -0.7267705135
O  O43  1  0.17700000  0.58310000  0.89470000  1.0 -0.4664347403
O  O44  1  0.82300000  0.41690000  0.10530000  1.0 -0.4664347403
O  O45  1  0.23640000  0.34030000  0.83160000  1.0 -0.461906635
O  O46  1  0.76360000  0.65970000  0.16840000  1.0 -0.461906635
