# DDEC6 charges by PACMAN v1.1 (https://github.com/mtap-research/PACMAN-charge/)
data_HUZLIY_FSR_pacman
_symmetry_space_group_name_H-M   'P 1'
_cell_length_a   13.86840000
_cell_length_b   13.86840000
_cell_length_c   18.63680000
_cell_angle_alpha   90.00000000
_cell_angle_beta   90.00000000
_cell_angle_gamma   120.00000000
_symmetry_Int_Tables_number   1
_chemical_formula_structural   In4P7H13O24
_chemical_formula_sum   'In16 P28 H52 O96'
_cell_volume   3104.23574144
_cell_formula_units_Z   4
loop_
 _symmetry_equiv_pos_site_id
 _symmetry_equiv_pos_as_xyz
  1  'x, y, z'
loop_
 _atom_site_type_symbol
 _atom_site_label
 _atom_site_symmetry_multiplicity
 _atom_site_fract_x
 _atom_site_fract_y
 _atom_site_fract_z
 _atom_site_occupancy
 _atom_site_charge
In  In1  1  0.00000000  0.00000000  0.00000000  1.0 1.6224958674
In  In2  1  0.00000000  0.00000000  0.50000000  1.0 1.6224958674
In  In3  1  0.00000000  0.00000000  0.25000000  1.0 1.57491038
In  In4  1  0.00000000  0.00000000  0.75000000  1.0 1.57491038
In  In5  1  0.43918000  0.14564000  0.03980000  1.0 1.2863781468
In  In6  1  0.85436000  0.29354000  0.03980000  1.0 1.2863781468
In  In7  1  0.14564000  0.43918000  0.46020000  1.0 1.2863781468
In  In8  1  0.70646000  0.56082000  0.03980000  1.0 1.2863781468
In  In9  1  0.56082000  0.70646000  0.46020000  1.0 1.2863781468
In  In10  1  0.29354000  0.85436000  0.46020000  1.0 1.2863781468
In  In11  1  0.56082000  0.85436000  0.96020000  1.0 1.2863781468
In  In12  1  0.14564000  0.70646000  0.96020000  1.0 1.2863781468
In  In13  1  0.85436000  0.56082000  0.53980000  1.0 1.2830606476
In  In14  1  0.29354000  0.43918000  0.96020000  1.0 1.2863781468
In  In15  1  0.43918000  0.29354000  0.53980000  1.0 1.2863781468
In  In16  1  0.70646000  0.14564000  0.53980000  1.0 1.2830606476
P  P1  1  0.19152000  0.03160000  0.12807000  1.0 1.085206987
P  P2  1  0.96840000  0.15992000  0.12807000  1.0 1.085206987
P  P3  1  0.03160000  0.19152000  0.37193000  1.0 1.0841107146
P  P4  1  0.84008000  0.80848000  0.12807000  1.0 1.085206987
P  P5  1  0.80848000  0.84008000  0.37193000  1.0 1.085206987
P  P6  1  0.15992000  0.96840000  0.37193000  1.0 1.0841107146
P  P7  1  0.80848000  0.96840000  0.87193000  1.0 1.085206987
P  P8  1  0.03160000  0.84008000  0.87193000  1.0 1.085206987
P  P9  1  0.96840000  0.80848000  0.62807000  1.0 1.085206987
P  P10  1  0.15992000  0.19152000  0.87193000  1.0 1.085206987
P  P11  1  0.19152000  0.15992000  0.62807000  1.0 1.085206987
P  P12  1  0.84008000  0.03160000  0.62807000  1.0 1.085206987
P  P13  1  0.63055000  0.12406000  0.94196000  1.0 1.028345344
P  P14  1  0.87594000  0.50649000  0.94196000  1.0 1.028345344
P  P15  1  0.12406000  0.63055000  0.55804000  1.0 1.028345344
P  P16  1  0.49351000  0.36945000  0.94196000  1.0 1.028345344
P  P17  1  0.36945000  0.49351000  0.55804000  1.0 1.028345344
P  P18  1  0.50649000  0.87594000  0.55804000  1.0 1.028345344
P  P19  1  0.36945000  0.87594000  0.05804000  1.0 1.028345344
P  P20  1  0.12406000  0.49351000  0.05804000  1.0 1.028345344
P  P21  1  0.87594000  0.36945000  0.44196000  1.0 1.028345344
P  P22  1  0.50649000  0.63055000  0.05804000  1.0 1.028345344
P  P23  1  0.63055000  0.50649000  0.44196000  1.0 1.028345344
P  P24  1  0.49351000  0.12406000  0.44196000  1.0 1.028345344
P  P25  1  0.66666667  0.33333333  0.14100000  1.0 1.1116280929
P  P26  1  0.33333333  0.66666667  0.35900000  1.0 1.1116280929
P  P27  1  0.33333333  0.66666667  0.85900000  1.0 1.1116280929
P  P28  1  0.66666667  0.33333333  0.64100000  1.0 1.1116280929
H  H1  1  0.27300000  0.98800000  0.98500000  1.0 0.3940169588
H  H2  1  0.01200000  0.28500000  0.98500000  1.0 0.3940169588
H  H3  1  0.98800000  0.27300000  0.51500000  1.0 0.3940169588
H  H4  1  0.71500000  0.72700000  0.98500000  1.0 0.3940169588
H  H5  1  0.72700000  0.71500000  0.51500000  1.0 0.3940169588
H  H6  1  0.28500000  0.01200000  0.51500000  1.0 0.3940169588
H  H7  1  0.72700000  0.01200000  0.01500000  1.0 0.3940169588
H  H8  1  0.98800000  0.71500000  0.01500000  1.0 0.3940169588
H  H9  1  0.01200000  0.72700000  0.48500000  1.0 0.3940169588
H  H10  1  0.28500000  0.27300000  0.01500000  1.0 0.3940169588
H  H11  1  0.27300000  0.28500000  0.48500000  1.0 0.3940169588
H  H12  1  0.71500000  0.98800000  0.48500000  1.0 0.3940169588
H  H13  1  0.20190000  0.97400000  0.15140000  1.0 0.0531792766
H  H14  1  0.02600000  0.22790000  0.15140000  1.0 0.0531792766
H  H15  1  0.97400000  0.20190000  0.34860000  1.0 0.0531792766
H  H16  1  0.77210000  0.79810000  0.15140000  1.0 0.0531792766
H  H17  1  0.79810000  0.77210000  0.34860000  1.0 0.0531792766
H  H18  1  0.22790000  0.02600000  0.34860000  1.0 0.0531792766
H  H19  1  0.79810000  0.02600000  0.84860000  1.0 0.0531792766
H  H20  1  0.97400000  0.77210000  0.84860000  1.0 0.0531792766
H  H21  1  0.02600000  0.79810000  0.65140000  1.0 0.0531792766
H  H22  1  0.22790000  0.20190000  0.84860000  1.0 0.0531792766
H  H23  1  0.20190000  0.22790000  0.65140000  1.0 0.0531792766
H  H24  1  0.77210000  0.97400000  0.65140000  1.0 0.0531792766
H  H25  1  0.67490000  0.16470000  0.90000000  1.0 0.0669278515
H  H26  1  0.83530000  0.51020000  0.90000000  1.0 0.0669278515
H  H27  1  0.16470000  0.67490000  0.60000000  1.0 0.0669278515
H  H28  1  0.48980000  0.32510000  0.90000000  1.0 0.0669278515
H  H29  1  0.32510000  0.48980000  0.60000000  1.0 0.0669278515
H  H30  1  0.51020000  0.83530000  0.60000000  1.0 0.0669278515
H  H31  1  0.32510000  0.83530000  0.10000000  1.0 0.0669278515
H  H32  1  0.16470000  0.48980000  0.10000000  1.0 0.0669278515
H  H33  1  0.83530000  0.32510000  0.40000000  1.0 0.0669278515
H  H34  1  0.51020000  0.67490000  0.10000000  1.0 0.0669278515
H  H35  1  0.67490000  0.51020000  0.40000000  1.0 0.0669278515
H  H36  1  0.48980000  0.16470000  0.40000000  1.0 0.0669278515
H  H37  1  0.66666667  0.33333333  0.19360000  1.0 0.0669278515
H  H38  1  0.33333333  0.66666667  0.30640000  1.0 0.0669278515
H  H39  1  0.33333333  0.66666667  0.80640000  1.0 0.0669278515
H  H40  1  0.66666667  0.33333333  0.69360000  1.0 0.0669278515
H  H41  1  0.36500000  0.10300000  0.98700000  1.0 0.2171807588
H  H42  1  0.89700000  0.26200000  0.98700000  1.0 0.2171807588
H  H43  1  0.10300000  0.36500000  0.51300000  1.0 0.2171807588
H  H44  1  0.73800000  0.63500000  0.98700000  1.0 0.2171807588
H  H45  1  0.63500000  0.73800000  0.51300000  1.0 0.2171807588
H  H46  1  0.26200000  0.89700000  0.51300000  1.0 0.2171807588
H  H47  1  0.63500000  0.89700000  0.01300000  1.0 0.2171807588
H  H48  1  0.10300000  0.73800000  0.01300000  1.0 0.2171807588
H  H49  1  0.89700000  0.63500000  0.48700000  1.0 0.2171807588
H  H50  1  0.26200000  0.36500000  0.01300000  1.0 0.2171807588
H  H51  1  0.36500000  0.26200000  0.48700000  1.0 0.2171807588
H  H52  1  0.73800000  0.10300000  0.48700000  1.0 0.2171807588
O  O1  1  0.11610000  0.97750000  0.06340000  1.0 -0.6414372962
O  O2  1  0.02250000  0.13860000  0.06340000  1.0 -0.6414372962
O  O3  1  0.97750000  0.11610000  0.43660000  1.0 -0.6414372962
O  O4  1  0.86140000  0.88390000  0.06340000  1.0 -0.6414372962
O  O5  1  0.88390000  0.86140000  0.43660000  1.0 -0.6414372962
O  O6  1  0.13860000  0.02250000  0.43660000  1.0 -0.6414372962
O  O7  1  0.88390000  0.02250000  0.93660000  1.0 -0.6414372962
O  O8  1  0.97750000  0.86140000  0.93660000  1.0 -0.6414372962
O  O9  1  0.02250000  0.88390000  0.56340000  1.0 -0.6414372962
O  O10  1  0.13860000  0.11610000  0.93660000  1.0 -0.6414372962
O  O11  1  0.11610000  0.13860000  0.56340000  1.0 -0.6414372962
O  O12  1  0.86140000  0.97750000  0.56340000  1.0 -0.6414372962
O  O13  1  0.14590000  0.07760000  0.18480000  1.0 -0.6671254013
O  O14  1  0.92240000  0.06830000  0.18480000  1.0 -0.6671254013
O  O15  1  0.07760000  0.14590000  0.31520000  1.0 -0.6671254013
O  O16  1  0.93170000  0.85410000  0.18480000  1.0 -0.6671254013
O  O17  1  0.85410000  0.93170000  0.31520000  1.0 -0.6671254013
O  O18  1  0.06830000  0.92240000  0.31520000  1.0 -0.6671254013
O  O19  1  0.85410000  0.92240000  0.81520000  1.0 -0.6671254013
O  O20  1  0.07760000  0.93170000  0.81520000  1.0 -0.6671254013
O  O21  1  0.92240000  0.85410000  0.68480000  1.0 -0.6671254013
O  O22  1  0.06830000  0.14590000  0.81520000  1.0 -0.6671254013
O  O23  1  0.14590000  0.06830000  0.68480000  1.0 -0.6671254013
O  O24  1  0.93170000  0.07760000  0.68480000  1.0 -0.6671254013
O  O25  1  0.55760000  0.23320000  0.12060000  1.0 -0.6106495112
O  O26  1  0.76680000  0.32440000  0.12060000  1.0 -0.6106495112
O  O27  1  0.23320000  0.55760000  0.37940000  1.0 -0.6106495112
O  O28  1  0.67560000  0.44240000  0.12060000  1.0 -0.6106495112
O  O29  1  0.44240000  0.67560000  0.37940000  1.0 -0.6106495112
O  O30  1  0.32440000  0.76680000  0.37940000  1.0 -0.6106495112
O  O31  1  0.44240000  0.76680000  0.87940000  1.0 -0.6106495112
O  O32  1  0.23320000  0.67560000  0.87940000  1.0 -0.6106495112
O  O33  1  0.76680000  0.44240000  0.62060000  1.0 -0.6106495112
O  O34  1  0.32440000  0.55760000  0.87940000  1.0 -0.6106495112
O  O35  1  0.55760000  0.32440000  0.62060000  1.0 -0.6106495112
O  O36  1  0.67560000  0.23320000  0.62060000  1.0 -0.6106495112
O  O37  1  0.55290000  0.16830000  0.95740000  1.0 -0.6269889448
O  O38  1  0.83170000  0.38460000  0.95740000  1.0 -0.6269889448
O  O39  1  0.16830000  0.55290000  0.54260000  1.0 -0.6269889448
O  O40  1  0.61540000  0.44710000  0.95740000  1.0 -0.6269889448
O  O41  1  0.44710000  0.61540000  0.54260000  1.0 -0.6269889448
O  O42  1  0.38460000  0.83170000  0.54260000  1.0 -0.6269889448
O  O43  1  0.44710000  0.83170000  0.04260000  1.0 -0.6269889448
O  O44  1  0.16830000  0.61540000  0.04260000  1.0 -0.6269889448
O  O45  1  0.83170000  0.44710000  0.45740000  1.0 -0.6269889448
O  O46  1  0.38460000  0.55290000  0.04260000  1.0 -0.6269889448
O  O47  1  0.55290000  0.38460000  0.45740000  1.0 -0.6269889448
O  O48  1  0.61540000  0.16830000  0.45740000  1.0 -0.6269889448
O  O49  1  0.56800000  0.00170000  0.92180000  1.0 -0.6414372962
O  O50  1  0.99830000  0.56630000  0.92180000  1.0 -0.6414372962
O  O51  1  0.00170000  0.56800000  0.57820000  1.0 -0.6414372962
O  O52  1  0.43370000  0.43200000  0.92180000  1.0 -0.6414372962
O  O53  1  0.43200000  0.43370000  0.57820000  1.0 -0.6414372962
O  O54  1  0.56630000  0.99830000  0.57820000  1.0 -0.6414372962
O  O55  1  0.43200000  0.99830000  0.07820000  1.0 -0.6414372962
O  O56  1  0.00170000  0.43370000  0.07820000  1.0 -0.6414372962
O  O57  1  0.99830000  0.43200000  0.42180000  1.0 -0.6414372962
O  O58  1  0.56630000  0.56800000  0.07820000  1.0 -0.6414372962
O  O59  1  0.56800000  0.56630000  0.42180000  1.0 -0.6414372962
O  O60  1  0.43370000  0.00170000  0.42180000  1.0 -0.6414372962
O  O61  1  0.71270000  0.14570000  0.00290000  1.0 -0.6414372962
O  O62  1  0.85430000  0.56700000  0.00290000  1.0 -0.6414372962
O  O63  1  0.14570000  0.71270000  0.49710000  1.0 -0.6414372962
O  O64  1  0.43300000  0.28730000  0.00290000  1.0 -0.6414372962
O  O65  1  0.28730000  0.43300000  0.49710000  1.0 -0.6414372962
O  O66  1  0.56700000  0.85430000  0.49710000  1.0 -0.6414372962
O  O67  1  0.28730000  0.85430000  0.99710000  1.0 -0.6414372962
O  O68  1  0.14570000  0.43300000  0.99710000  1.0 -0.6414372962
O  O69  1  0.85430000  0.28730000  0.50290000  1.0 -0.6414372962
O  O70  1  0.56700000  0.71270000  0.99710000  1.0 -0.6414372962
O  O71  1  0.71270000  0.56700000  0.50290000  1.0 -0.6414372962
O  O72  1  0.43300000  0.14570000  0.50290000  1.0 -0.6414372962
O  O73  1  0.30710000  0.12620000  0.10710000  1.0 -0.6106495112
O  O74  1  0.87380000  0.18090000  0.10710000  1.0 -0.6106495112
O  O75  1  0.12620000  0.30710000  0.39290000  1.0 -0.6106495112
O  O76  1  0.81910000  0.69290000  0.10710000  1.0 -0.6106495112
O  O77  1  0.69290000  0.81910000  0.39290000  1.0 -0.6106495112
O  O78  1  0.18090000  0.87380000  0.39290000  1.0 -0.6106495112
O  O79  1  0.69290000  0.87380000  0.89290000  1.0 -0.6106495112
O  O80  1  0.12620000  0.81910000  0.89290000  1.0 -0.6106495112
O  O81  1  0.87380000  0.69290000  0.60710000  1.0 -0.6106495112
O  O82  1  0.18090000  0.30710000  0.89290000  1.0 -0.6106495112
O  O83  1  0.30710000  0.18090000  0.60710000  1.0 -0.6106495112
O  O84  1  0.81910000  0.12620000  0.60710000  1.0 -0.6106495112
O  O85  1  0.30850000  0.05260000  0.95570000  1.0 -0.6165274604
O  O86  1  0.94740000  0.25590000  0.95570000  1.0 -0.6165274604
O  O87  1  0.05260000  0.30850000  0.54430000  1.0 -0.6165274604
O  O88  1  0.74410000  0.69150000  0.95570000  1.0 -0.6165274604
O  O89  1  0.69150000  0.74410000  0.54430000  1.0 -0.6165274604
O  O90  1  0.25590000  0.94740000  0.54430000  1.0 -0.6165274604
O  O91  1  0.69150000  0.94740000  0.04430000  1.0 -0.6165274604
O  O92  1  0.05260000  0.74410000  0.04430000  1.0 -0.6165274604
O  O93  1  0.94740000  0.69150000  0.45570000  1.0 -0.6165274604
O  O94  1  0.25590000  0.30850000  0.04430000  1.0 -0.6165274604
O  O95  1  0.30850000  0.25590000  0.45570000  1.0 -0.6165274604
O  O96  1  0.74410000  0.05260000  0.45570000  1.0 -0.6165274604
