# DDEC6 charges by PACMAN v1.1 (https://github.com/mtap-research/PACMAN-charge/)
data_HUZSOL_ASR_pacman
_symmetry_space_group_name_H-M   'P 1'
_cell_length_a   17.10800000
_cell_length_b   21.64400000
_cell_length_c   25.25800000
_cell_angle_alpha   90.00000000
_cell_angle_beta   90.00000000
_cell_angle_gamma   90.00000000
_symmetry_Int_Tables_number   1
_chemical_formula_structural   Na2Zn3H44C60N2O15
_chemical_formula_sum   'Na8 Zn12 H176 C240 N8 O60'
_cell_volume   9352.67247242
_cell_formula_units_Z   4
loop_
 _symmetry_equiv_pos_site_id
 _symmetry_equiv_pos_as_xyz
  1  'x, y, z'
loop_
 _atom_site_type_symbol
 _atom_site_label
 _atom_site_symmetry_multiplicity
 _atom_site_fract_x
 _atom_site_fract_y
 _atom_site_fract_z
 _atom_site_occupancy
 _atom_site_charge
Na  Na1  1  0.10390000  0.75000000  0.28940000  1.0 0.8262824518
Na  Na2  1  0.39610000  0.25000000  0.78940000  1.0 0.8262824518
Na  Na3  1  0.89610000  0.25000000  0.71060000  1.0 0.8262824518
Na  Na4  1  0.60390000  0.75000000  0.21060000  1.0 0.8262824518
Na  Na5  1  0.78480000  0.75000000  0.26510000  1.0 0.6056274575
Na  Na6  1  0.71520000  0.25000000  0.76510000  1.0 0.6056274575
Na  Na7  1  0.21520000  0.25000000  0.73490000  1.0 0.6056274575
Na  Na8  1  0.28480000  0.75000000  0.23490000  1.0 0.6056274575
Zn  Zn1  1  0.88078000  0.75000000  0.31365000  1.0 0.8639701408
Zn  Zn2  1  0.61922000  0.25000000  0.81365000  1.0 0.8639701408
Zn  Zn3  1  0.11922000  0.25000000  0.68635000  1.0 0.8639701408
Zn  Zn4  1  0.38078000  0.75000000  0.18635000  1.0 0.8639701408
Zn  Zn5  1  0.99284000  0.66538000  0.38424000  1.0 0.92966039
Zn  Zn6  1  0.50716000  0.33462000  0.88424000  1.0 0.92966039
Zn  Zn7  1  0.00716000  0.16538000  0.61576000  1.0 0.92966039
Zn  Zn8  1  0.49284000  0.83462000  0.11576000  1.0 0.92966039
Zn  Zn9  1  0.00716000  0.33462000  0.61576000  1.0 0.92966039
Zn  Zn10  1  0.49284000  0.66538000  0.11576000  1.0 0.92966039
Zn  Zn11  1  0.99284000  0.83462000  0.38424000  1.0 0.92966039
Zn  Zn12  1  0.50716000  0.16538000  0.88424000  1.0 0.92966039
H  H1  1  0.88320000  0.46000000  0.07680000  1.0 0.1115243421
H  H2  1  0.61680000  0.54000000  0.57680000  1.0 0.1115243421
H  H3  1  0.11680000  0.96000000  0.92320000  1.0 0.1115243421
H  H4  1  0.38320000  0.04000000  0.42320000  1.0 0.1115243421
H  H5  1  0.11680000  0.54000000  0.92320000  1.0 0.1115243421
H  H6  1  0.38320000  0.46000000  0.42320000  1.0 0.1115243421
H  H7  1  0.88320000  0.04000000  0.07680000  1.0 0.1115243421
H  H8  1  0.61680000  0.96000000  0.57680000  1.0 0.1115243421
H  H9  1  0.02400000  0.37780000  0.97190000  1.0 0.1115243421
H  H10  1  0.47600000  0.62220000  0.47190000  1.0 0.1115243421
H  H11  1  0.97600000  0.87780000  0.02810000  1.0 0.1115243421
H  H12  1  0.52400000  0.12220000  0.52810000  1.0 0.1115243421
H  H13  1  0.97600000  0.62220000  0.02810000  1.0 0.1115243421
H  H14  1  0.52400000  0.37780000  0.52810000  1.0 0.1115243421
H  H15  1  0.02400000  0.12220000  0.97190000  1.0 0.1115243421
H  H16  1  0.47600000  0.87780000  0.47190000  1.0 0.1115243421
H  H17  1  0.11600000  0.46600000  0.09590000  1.0 0.1115243421
H  H18  1  0.38400000  0.53400000  0.59590000  1.0 0.1115243421
H  H19  1  0.88400000  0.96600000  0.90410000  1.0 0.1115243421
H  H20  1  0.61600000  0.03400000  0.40410000  1.0 0.1115243421
H  H21  1  0.88400000  0.53400000  0.90410000  1.0 0.1115243421
H  H22  1  0.61600000  0.46600000  0.40410000  1.0 0.1115243421
H  H23  1  0.11600000  0.03400000  0.09590000  1.0 0.1115243421
H  H24  1  0.38400000  0.96600000  0.59590000  1.0 0.1115243421
H  H25  1  0.89810000  0.55950000  0.11400000  1.0 0.1174239379
H  H26  1  0.60190000  0.44050000  0.61400000  1.0 0.1174239379
H  H27  1  0.10190000  0.05950000  0.88600000  1.0 0.1174239379
H  H28  1  0.39810000  0.94050000  0.38600000  1.0 0.1174239379
H  H29  1  0.10190000  0.44050000  0.88600000  1.0 0.1174239379
H  H30  1  0.39810000  0.55950000  0.38600000  1.0 0.1174239379
H  H31  1  0.89810000  0.94050000  0.11400000  1.0 0.1174239379
H  H32  1  0.60190000  0.05950000  0.61400000  1.0 0.1174239379
H  H33  1  0.88720000  0.62530000  0.18400000  1.0 0.1174239379
H  H34  1  0.61280000  0.37470000  0.68400000  1.0 0.1174239379
H  H35  1  0.11280000  0.12530000  0.81600000  1.0 0.1174239379
H  H36  1  0.38720000  0.87470000  0.31600000  1.0 0.1174239379
H  H37  1  0.11280000  0.37470000  0.81600000  1.0 0.1174239379
H  H38  1  0.38720000  0.62530000  0.31600000  1.0 0.1174239379
H  H39  1  0.88720000  0.87470000  0.18400000  1.0 0.1174239379
H  H40  1  0.61280000  0.12530000  0.68400000  1.0 0.1174239379
H  H41  1  0.06110000  0.53770000  0.25820000  1.0 0.1115243421
H  H42  1  0.43890000  0.46230000  0.75820000  1.0 0.1115243421
H  H43  1  0.93890000  0.03770000  0.74180000  1.0 0.1115243421
H  H44  1  0.56110000  0.96230000  0.24180000  1.0 0.1115243421
H  H45  1  0.93890000  0.46230000  0.74180000  1.0 0.1115243421
H  H46  1  0.56110000  0.53770000  0.24180000  1.0 0.1115243421
H  H47  1  0.06110000  0.96230000  0.25820000  1.0 0.1115243421
H  H48  1  0.43890000  0.03770000  0.75820000  1.0 0.1115243421
H  H49  1  0.07160000  0.47120000  0.18710000  1.0 0.1115243421
H  H50  1  0.42840000  0.52880000  0.68710000  1.0 0.1115243421
H  H51  1  0.92840000  0.97120000  0.81290000  1.0 0.1115243421
H  H52  1  0.57160000  0.02880000  0.31290000  1.0 0.1115243421
H  H53  1  0.92840000  0.52880000  0.81290000  1.0 0.1115243421
H  H54  1  0.57160000  0.47120000  0.31290000  1.0 0.1115243421
H  H55  1  0.07160000  0.02880000  0.18710000  1.0 0.1115243421
H  H56  1  0.42840000  0.97120000  0.68710000  1.0 0.1115243421
H  H57  1  0.79890000  0.38580000  0.05290000  1.0 0.1174239379
H  H58  1  0.70110000  0.61420000  0.55290000  1.0 0.1174239379
H  H59  1  0.20110000  0.88580000  0.94710000  1.0 0.1174239379
H  H60  1  0.29890000  0.11420000  0.44710000  1.0 0.1174239379
H  H61  1  0.20110000  0.61420000  0.94710000  1.0 0.1174239379
H  H62  1  0.29890000  0.38580000  0.44710000  1.0 0.1174239379
H  H63  1  0.79890000  0.11420000  0.05290000  1.0 0.1174239379
H  H64  1  0.70110000  0.88580000  0.55290000  1.0 0.1174239379
H  H65  1  0.68730000  0.36010000  0.00770000  1.0 0.1295979845
H  H66  1  0.81270000  0.63990000  0.50770000  1.0 0.1295979845
H  H67  1  0.31270000  0.86010000  0.99230000  1.0 0.1295979845
H  H68  1  0.18730000  0.13990000  0.49230000  1.0 0.1295979845
H  H69  1  0.31270000  0.63990000  0.99230000  1.0 0.1295979845
H  H70  1  0.18730000  0.36010000  0.49230000  1.0 0.1295979845
H  H71  1  0.68730000  0.13990000  0.00770000  1.0 0.1295979845
H  H72  1  0.81270000  0.86010000  0.50770000  1.0 0.1295979845
H  H73  1  0.80960000  0.36200000  0.87230000  1.0 0.1115243421
H  H74  1  0.69040000  0.63800000  0.37230000  1.0 0.1174239379
H  H75  1  0.19040000  0.86200000  0.12770000  1.0 0.1174239379
H  H76  1  0.30960000  0.13800000  0.62770000  1.0 0.1174239379
H  H77  1  0.19040000  0.63800000  0.12770000  1.0 0.1174239379
H  H78  1  0.30960000  0.36200000  0.62770000  1.0 0.1115243421
H  H79  1  0.80960000  0.13800000  0.87230000  1.0 0.1115243421
H  H80  1  0.69040000  0.86200000  0.37230000  1.0 0.1174239379
H  H81  1  0.91960000  0.39330000  0.91680000  1.0 0.1115243421
H  H82  1  0.58040000  0.60670000  0.41680000  1.0 0.1115243421
H  H83  1  0.08040000  0.89330000  0.08320000  1.0 0.1115243421
H  H84  1  0.41960000  0.10670000  0.58320000  1.0 0.1115243421
H  H85  1  0.08040000  0.60670000  0.08320000  1.0 0.1115243421
H  H86  1  0.41960000  0.39330000  0.58320000  1.0 0.1115243421
H  H87  1  0.91960000  0.10670000  0.91680000  1.0 0.1115243421
H  H88  1  0.58040000  0.89330000  0.41680000  1.0 0.1115243421
H  H89  1  0.14950000  0.32640000  0.97950000  1.0 0.1115243421
H  H90  1  0.35050000  0.67360000  0.47950000  1.0 0.1115243421
H  H91  1  0.85050000  0.82640000  0.02050000  1.0 0.1115243421
H  H92  1  0.64950000  0.17360000  0.52050000  1.0 0.1115243421
H  H93  1  0.85050000  0.67360000  0.02050000  1.0 0.1115243421
H  H94  1  0.64950000  0.32640000  0.52050000  1.0 0.1115243421
H  H95  1  0.14950000  0.17360000  0.97950000  1.0 0.1115243421
H  H96  1  0.35050000  0.82640000  0.47950000  1.0 0.1115243421
H  H97  1  0.27350000  0.31560000  0.94160000  1.0 0.1115243421
H  H98  1  0.22650000  0.68440000  0.44160000  1.0 0.1115243421
H  H99  1  0.72650000  0.81560000  0.05840000  1.0 0.1115243421
H  H100  1  0.77350000  0.18440000  0.55840000  1.0 0.1115243421
H  H101  1  0.72650000  0.68440000  0.05840000  1.0 0.1115243421
H  H102  1  0.77350000  0.31560000  0.55840000  1.0 0.1115243421
H  H103  1  0.27350000  0.18440000  0.94160000  1.0 0.1115243421
H  H104  1  0.22650000  0.81560000  0.44160000  1.0 0.1115243421
H  H105  1  0.32940000  0.48580000  0.98920000  1.0 0.1174239379
H  H106  1  0.17060000  0.51420000  0.48920000  1.0 0.1174239379
H  H107  1  0.67060000  0.98580000  0.01080000  1.0 0.1174239379
H  H108  1  0.82940000  0.01420000  0.51080000  1.0 0.1174239379
H  H109  1  0.67060000  0.51420000  0.01080000  1.0 0.1174239379
H  H110  1  0.82940000  0.48580000  0.51080000  1.0 0.1174239379
H  H111  1  0.32940000  0.01420000  0.98920000  1.0 0.1174239379
H  H112  1  0.17060000  0.98580000  0.48920000  1.0 0.1174239379
H  H113  1  0.20720000  0.49410000  0.02940000  1.0 0.1038403762
H  H114  1  0.29280000  0.50590000  0.52940000  1.0 0.1038403762
H  H115  1  0.79280000  0.99410000  0.97060000  1.0 0.1038403762
H  H116  1  0.70720000  0.00590000  0.47060000  1.0 0.1038403762
H  H117  1  0.79280000  0.50590000  0.97060000  1.0 0.1038403762
H  H118  1  0.70720000  0.49410000  0.47060000  1.0 0.1038403762
H  H119  1  0.20720000  0.00590000  0.02940000  1.0 0.1038403762
H  H120  1  0.29280000  0.99410000  0.52940000  1.0 0.1038403762
H  H121  1  0.14800000  0.62110000  0.31410000  1.0 0.1174239379
H  H122  1  0.35200000  0.37890000  0.81410000  1.0 0.1174239379
H  H123  1  0.85200000  0.12110000  0.68590000  1.0 0.1174239379
H  H124  1  0.64800000  0.87890000  0.18590000  1.0 0.1174239379
H  H125  1  0.85200000  0.37890000  0.68590000  1.0 0.1174239379
H  H126  1  0.64800000  0.62110000  0.18590000  1.0 0.1174239379
H  H127  1  0.14800000  0.87890000  0.31410000  1.0 0.1174239379
H  H128  1  0.35200000  0.12110000  0.81410000  1.0 0.1174239379
H  H129  1  0.18560000  0.46920000  0.30610000  1.0 0.1295979845
H  H130  1  0.31440000  0.53080000  0.80610000  1.0 0.1295979845
H  H131  1  0.81440000  0.96920000  0.69390000  1.0 0.1295979845
H  H132  1  0.68560000  0.03080000  0.19390000  1.0 0.1295979845
H  H133  1  0.81440000  0.53080000  0.69390000  1.0 0.1295979845
H  H134  1  0.68560000  0.46920000  0.19390000  1.0 0.1295979845
H  H135  1  0.18560000  0.03080000  0.30610000  1.0 0.1295979845
H  H136  1  0.31440000  0.96920000  0.80610000  1.0 0.1295979845
H  H137  1  0.26340000  0.48880000  0.33430000  1.0 0.1295979845
H  H138  1  0.23660000  0.51120000  0.83430000  1.0 0.1295979845
H  H139  1  0.73660000  0.98880000  0.66570000  1.0 0.1295979845
H  H140  1  0.76340000  0.01120000  0.16570000  1.0 0.1295979845
H  H141  1  0.73660000  0.51120000  0.66570000  1.0 0.1295979845
H  H142  1  0.76340000  0.48880000  0.16570000  1.0 0.1295979845
H  H143  1  0.26340000  0.01120000  0.33430000  1.0 0.1295979845
H  H144  1  0.23660000  0.98880000  0.83430000  1.0 0.1295979845
H  H145  1  0.18370000  0.51830000  0.35170000  1.0 0.1295979845
H  H146  1  0.31630000  0.48170000  0.85170000  1.0 0.1295979845
H  H147  1  0.81630000  0.01830000  0.64830000  1.0 0.1295979845
H  H148  1  0.68370000  0.98170000  0.14830000  1.0 0.1295979845
H  H149  1  0.81630000  0.48170000  0.64830000  1.0 0.1295979845
H  H150  1  0.68370000  0.51830000  0.14830000  1.0 0.1295979845
H  H151  1  0.18370000  0.98170000  0.35170000  1.0 0.1295979845
H  H152  1  0.31630000  0.01830000  0.85170000  1.0 0.1295979845
H  H153  1  0.28370000  0.56780000  0.21730000  1.0 0.1295979845
H  H154  1  0.21630000  0.43220000  0.71730000  1.0 0.1295979845
H  H155  1  0.71630000  0.06780000  0.78270000  1.0 0.1295979845
H  H156  1  0.78370000  0.93220000  0.28270000  1.0 0.1295979845
H  H157  1  0.71630000  0.43220000  0.78270000  1.0 0.1295979845
H  H158  1  0.78370000  0.56780000  0.28270000  1.0 0.1295979845
H  H159  1  0.28370000  0.93220000  0.21730000  1.0 0.1295979845
H  H160  1  0.21630000  0.06780000  0.71730000  1.0 0.1295979845
H  H161  1  0.29800000  0.50340000  0.24400000  1.0 0.1295979845
H  H162  1  0.20200000  0.49660000  0.74400000  1.0 0.1295979845
H  H163  1  0.70200000  0.00340000  0.75600000  1.0 0.1295979845
H  H164  1  0.79800000  0.99660000  0.25600000  1.0 0.1295979845
H  H165  1  0.70200000  0.49660000  0.75600000  1.0 0.1295979845
H  H166  1  0.79800000  0.50340000  0.25600000  1.0 0.1295979845
H  H167  1  0.29800000  0.99660000  0.24400000  1.0 0.1295979845
H  H168  1  0.20200000  0.00340000  0.74400000  1.0 0.1295979845
H  H169  1  0.22020000  0.51590000  0.21290000  1.0 0.1174239379
H  H170  1  0.27980000  0.48410000  0.71290000  1.0 0.1174239379
H  H171  1  0.77980000  0.01590000  0.78710000  1.0 0.1174239379
H  H172  1  0.72020000  0.98410000  0.28710000  1.0 0.1174239379
H  H173  1  0.77980000  0.48410000  0.78710000  1.0 0.1174239379
H  H174  1  0.72020000  0.51590000  0.28710000  1.0 0.1174239379
H  H175  1  0.22020000  0.98410000  0.21290000  1.0 0.1174239379
H  H176  1  0.27980000  0.01590000  0.71290000  1.0 0.1174239379
C  C1  1  0.99860000  0.47050000  0.09450000  1.0 0.0708233373
C  C2  1  0.50140000  0.52950000  0.59450000  1.0 0.0708233373
C  C3  1  0.00140000  0.97050000  0.90550000  1.0 0.0708233373
C  C4  1  0.49860000  0.02950000  0.40550000  1.0 0.0708233373
C  C5  1  0.00140000  0.52950000  0.90550000  1.0 0.0708233373
C  C6  1  0.49860000  0.47050000  0.40550000  1.0 0.0708233373
C  C7  1  0.99860000  0.02950000  0.09450000  1.0 0.0708233373
C  C8  1  0.50140000  0.97050000  0.59450000  1.0 0.0708233373
C  C9  1  0.93340000  0.45010000  0.06540000  1.0 -0.1980373589
C  C10  1  0.56660000  0.54990000  0.56540000  1.0 -0.1944662678
C  C11  1  0.06660000  0.95010000  0.93460000  1.0 -0.1980373589
C  C12  1  0.43340000  0.04990000  0.43460000  1.0 -0.1980373589
C  C13  1  0.06660000  0.54990000  0.93460000  1.0 -0.1944662678
C  C14  1  0.43340000  0.45010000  0.43460000  1.0 -0.1980373589
C  C15  1  0.93340000  0.04990000  0.06540000  1.0 -0.1980373589
C  C16  1  0.56660000  0.95010000  0.56540000  1.0 -0.1980373589
C  C17  1  0.94310000  0.41560000  0.02000000  1.0 0.0791399824
C  C18  1  0.55690000  0.58440000  0.52000000  1.0 0.0708233373
C  C19  1  0.05690000  0.91560000  0.98000000  1.0 0.0791399824
C  C20  1  0.44310000  0.08440000  0.48000000  1.0 0.0791399824
C  C21  1  0.05690000  0.58440000  0.98000000  1.0 0.0791399824
C  C22  1  0.44310000  0.41560000  0.48000000  1.0 0.0791399824
C  C23  1  0.94310000  0.08440000  0.02000000  1.0 0.0791399824
C  C24  1  0.55690000  0.91560000  0.52000000  1.0 0.0791399824
C  C25  1  0.01780000  0.40170000  0.00220000  1.0 -0.1980373589
C  C26  1  0.48220000  0.59830000  0.50220000  1.0 -0.1980373589
C  C27  1  0.98220000  0.90170000  0.99780000  1.0 -0.1980373589
C  C28  1  0.51780000  0.09830000  0.49780000  1.0 -0.1980373589
C  C29  1  0.98220000  0.59830000  0.99780000  1.0 -0.1980373589
C  C30  1  0.51780000  0.40170000  0.49780000  1.0 -0.1980373589
C  C31  1  0.01780000  0.09830000  0.00220000  1.0 -0.1980373589
C  C32  1  0.48220000  0.90170000  0.50220000  1.0 -0.1980373589
C  C33  1  0.08280000  0.42270000  0.02860000  1.0 0.0791399824
C  C34  1  0.41720000  0.57730000  0.52860000  1.0 0.0791399824
C  C35  1  0.91720000  0.92270000  0.97140000  1.0 0.0791399824
C  C36  1  0.58280000  0.07730000  0.47140000  1.0 0.0791399824
C  C37  1  0.91720000  0.57730000  0.97140000  1.0 0.0791399824
C  C38  1  0.58280000  0.42270000  0.47140000  1.0 0.0791399824
C  C39  1  0.08280000  0.07730000  0.02860000  1.0 0.0791399824
C  C40  1  0.41720000  0.92270000  0.52860000  1.0 0.0791399824
C  C41  1  0.07230000  0.45490000  0.07620000  1.0 -0.1980373589
C  C42  1  0.42770000  0.54510000  0.57620000  1.0 -0.1980373589
C  C43  1  0.92770000  0.95490000  0.92380000  1.0 -0.1980373589
C  C44  1  0.57230000  0.04510000  0.42380000  1.0 -0.1980373589
C  C45  1  0.92770000  0.54510000  0.92380000  1.0 -0.1980373589
C  C46  1  0.57230000  0.45490000  0.42380000  1.0 -0.1980373589
C  C47  1  0.07230000  0.04510000  0.07620000  1.0 -0.1980373589
C  C48  1  0.42770000  0.95490000  0.57620000  1.0 -0.1980373589
C  C49  1  0.98790000  0.51120000  0.14130000  1.0 0.0708233373
C  C50  1  0.51210000  0.48880000  0.64130000  1.0 0.0708233373
C  C51  1  0.01210000  0.01120000  0.85870000  1.0 0.0708233373
C  C52  1  0.48790000  0.98880000  0.35870000  1.0 0.0708233373
C  C53  1  0.01210000  0.48880000  0.85870000  1.0 0.0708233373
C  C54  1  0.48790000  0.51120000  0.35870000  1.0 0.0708233373
C  C55  1  0.98790000  0.98880000  0.14130000  1.0 0.0708233373
C  C56  1  0.51210000  0.01120000  0.64130000  1.0 0.0708233373
C  C57  1  0.93200000  0.55530000  0.14250000  1.0 -0.1530860542
C  C58  1  0.56800000  0.44470000  0.64250000  1.0 -0.1530860542
C  C59  1  0.06800000  0.05530000  0.85750000  1.0 -0.1530860542
C  C60  1  0.43200000  0.94470000  0.35750000  1.0 -0.1530860542
C  C61  1  0.06800000  0.44470000  0.85750000  1.0 -0.1530860542
C  C62  1  0.43200000  0.55530000  0.35750000  1.0 -0.1530860542
C  C63  1  0.93200000  0.94470000  0.14250000  1.0 -0.1530860542
C  C64  1  0.56800000  0.05530000  0.64250000  1.0 -0.1530860542
C  C65  1  0.92450000  0.59400000  0.18490000  1.0 -0.0982702179
C  C66  1  0.57550000  0.40600000  0.68490000  1.0 -0.0982702179
C  C67  1  0.07550000  0.09400000  0.81510000  1.0 -0.0982702179
C  C68  1  0.42450000  0.90600000  0.31510000  1.0 -0.0982702179
C  C69  1  0.07550000  0.40600000  0.81510000  1.0 -0.0982702179
C  C70  1  0.42450000  0.59400000  0.31510000  1.0 -0.0982702179
C  C71  1  0.92450000  0.90600000  0.18490000  1.0 -0.0982702179
C  C72  1  0.57550000  0.09400000  0.68490000  1.0 -0.0982702179
C  C73  1  0.97140000  0.58750000  0.22920000  1.0 -0.0316137323
C  C74  1  0.52860000  0.41250000  0.72920000  1.0 -0.0316137323
C  C75  1  0.02860000  0.08750000  0.77080000  1.0 -0.0316137323
C  C76  1  0.47140000  0.91250000  0.27080000  1.0 -0.0316137323
C  C77  1  0.02860000  0.41250000  0.77080000  1.0 -0.0316137323
C  C78  1  0.47140000  0.58750000  0.27080000  1.0 -0.0316137323
C  C79  1  0.97140000  0.91250000  0.22920000  1.0 -0.0316137323
C  C80  1  0.52860000  0.08750000  0.72920000  1.0 -0.0316137323
C  C81  1  0.02800000  0.54210000  0.22930000  1.0 -0.1081059026
C  C82  1  0.47200000  0.45790000  0.72930000  1.0 -0.1081059026
C  C83  1  0.97200000  0.04210000  0.77070000  1.0 -0.1081059026
C  C84  1  0.52800000  0.95790000  0.27070000  1.0 -0.1081059026
C  C85  1  0.97200000  0.45790000  0.77070000  1.0 -0.1081059026
C  C86  1  0.52800000  0.54210000  0.27070000  1.0 -0.1081059026
C  C87  1  0.02800000  0.95790000  0.22930000  1.0 -0.1081059026
C  C88  1  0.47200000  0.04210000  0.72930000  1.0 -0.1081059026
C  C89  1  0.03520000  0.50300000  0.18630000  1.0 -0.1530860542
C  C90  1  0.46480000  0.49700000  0.68630000  1.0 -0.1530860542
C  C91  1  0.96480000  0.00300000  0.81370000  1.0 -0.1530860542
C  C92  1  0.53520000  0.99700000  0.31370000  1.0 -0.1530860542
C  C93  1  0.96480000  0.49700000  0.81370000  1.0 -0.1530860542
C  C94  1  0.53520000  0.50300000  0.31370000  1.0 -0.1530860542
C  C95  1  0.03520000  0.99700000  0.18630000  1.0 -0.1530860542
C  C96  1  0.46480000  0.00300000  0.68630000  1.0 -0.1530860542
C  C97  1  0.87270000  0.39280000  0.99080000  1.0 0.0708233373
C  C98  1  0.62730000  0.60720000  0.49080000  1.0 0.0708233373
C  C99  1  0.12730000  0.89280000  0.00920000  1.0 0.0708233373
C  C100  1  0.37270000  0.10720000  0.50920000  1.0 0.0708233373
C  C101  1  0.12730000  0.60720000  0.00920000  1.0 0.0708233373
C  C102  1  0.37270000  0.39280000  0.50920000  1.0 0.0708233373
C  C103  1  0.87270000  0.10720000  0.99080000  1.0 0.0708233373
C  C104  1  0.62730000  0.89280000  0.49080000  1.0 0.0708233373
C  C105  1  0.80110000  0.38180000  0.01630000  1.0 -0.1586550009
C  C106  1  0.69890000  0.61820000  0.51630000  1.0 -0.1586550009
C  C107  1  0.19890000  0.88180000  0.98370000  1.0 -0.1586550009
C  C108  1  0.30110000  0.11820000  0.48370000  1.0 -0.1586550009
C  C109  1  0.19890000  0.61820000  0.98370000  1.0 -0.1586550009
C  C110  1  0.30110000  0.38180000  0.48370000  1.0 -0.1586550009
C  C111  1  0.80110000  0.11820000  0.01630000  1.0 -0.1586550009
C  C112  1  0.69890000  0.88180000  0.51630000  1.0 -0.1586550009
C  C113  1  0.73420000  0.36530000  0.98970000  1.0 -0.0938503659
C  C114  1  0.76580000  0.63470000  0.48970000  1.0 -0.0938503659
C  C115  1  0.26580000  0.86530000  0.01030000  1.0 -0.0938503659
C  C116  1  0.23420000  0.13470000  0.51030000  1.0 -0.0938503659
C  C117  1  0.26580000  0.63470000  0.01030000  1.0 -0.0938503659
C  C118  1  0.23420000  0.36530000  0.51030000  1.0 -0.0938503659
C  C119  1  0.73420000  0.13470000  0.98970000  1.0 -0.0938503659
C  C120  1  0.76580000  0.86530000  0.48970000  1.0 -0.0938503659
C  C121  1  0.73810000  0.35650000  0.93430000  1.0 -0.0316137323
C  C122  1  0.76190000  0.64350000  0.43430000  1.0 -0.0316137323
C  C123  1  0.26190000  0.85650000  0.06570000  1.0 -0.0316137323
C  C124  1  0.23810000  0.14350000  0.56570000  1.0 -0.0316137323
C  C125  1  0.26190000  0.64350000  0.06570000  1.0 -0.0316137323
C  C126  1  0.23810000  0.35650000  0.56570000  1.0 -0.0316137323
C  C127  1  0.73810000  0.14350000  0.93430000  1.0 -0.0316137323
C  C128  1  0.76190000  0.85650000  0.43430000  1.0 -0.0316137323
C  C129  1  0.80730000  0.36730000  0.90880000  1.0 -0.1081059026
C  C130  1  0.69270000  0.63270000  0.40880000  1.0 -0.1081059026
C  C131  1  0.19270000  0.86730000  0.09120000  1.0 -0.1081059026
C  C132  1  0.30730000  0.13270000  0.59120000  1.0 -0.1081059026
C  C133  1  0.19270000  0.63270000  0.09120000  1.0 -0.1081059026
C  C134  1  0.30730000  0.36730000  0.59120000  1.0 -0.1081059026
C  C135  1  0.80730000  0.13270000  0.90880000  1.0 -0.1081059026
C  C136  1  0.69270000  0.86730000  0.40880000  1.0 -0.1081059026
C  C137  1  0.87380000  0.38560000  0.93550000  1.0 -0.1680661376
C  C138  1  0.62620000  0.61440000  0.43550000  1.0 -0.1680661376
C  C139  1  0.12620000  0.88560000  0.06450000  1.0 -0.1680661376
C  C140  1  0.37380000  0.11440000  0.56450000  1.0 -0.1680661376
C  C141  1  0.12620000  0.61440000  0.06450000  1.0 -0.1680661376
C  C142  1  0.37380000  0.38560000  0.56450000  1.0 -0.1680661376
C  C143  1  0.87380000  0.11440000  0.93550000  1.0 -0.1680661376
C  C144  1  0.62620000  0.88560000  0.43550000  1.0 -0.1680661376
C  C145  1  0.16340000  0.41170000  0.00660000  1.0 0.0708233373
C  C146  1  0.33660000  0.58830000  0.50660000  1.0 0.0708233373
C  C147  1  0.83660000  0.91170000  0.99340000  1.0 0.0708233373
C  C148  1  0.66340000  0.08830000  0.49340000  1.0 0.0708233373
C  C149  1  0.83660000  0.58830000  0.99340000  1.0 0.0708233373
C  C150  1  0.66340000  0.41170000  0.49340000  1.0 0.0708233373
C  C151  1  0.16340000  0.08830000  0.00660000  1.0 0.0708233373
C  C152  1  0.33660000  0.91170000  0.50660000  1.0 0.0708233373
C  C153  1  0.18500000  0.35880000  0.98190000  1.0 -0.1680661376
C  C154  1  0.31500000  0.64120000  0.48190000  1.0 -0.1680661376
C  C155  1  0.81500000  0.85880000  0.01810000  1.0 -0.1680661376
C  C156  1  0.68500000  0.14120000  0.51810000  1.0 -0.1680661376
C  C157  1  0.81500000  0.64120000  0.01810000  1.0 -0.1680661376
C  C158  1  0.68500000  0.35880000  0.51810000  1.0 -0.1680661376
C  C159  1  0.18500000  0.14120000  0.98190000  1.0 -0.1680661376
C  C160  1  0.31500000  0.85880000  0.48190000  1.0 -0.1680661376
C  C161  1  0.26070000  0.35170000  0.95950000  1.0 -0.0982702179
C  C162  1  0.23930000  0.64830000  0.45950000  1.0 -0.0982702179
C  C163  1  0.73930000  0.85170000  0.04050000  1.0 -0.0982702179
C  C164  1  0.76070000  0.14830000  0.54050000  1.0 -0.0982702179
C  C165  1  0.73930000  0.64830000  0.04050000  1.0 -0.0982702179
C  C166  1  0.76070000  0.35170000  0.54050000  1.0 -0.0982702179
C  C167  1  0.26070000  0.14830000  0.95950000  1.0 -0.0982702179
C  C168  1  0.23930000  0.85170000  0.45950000  1.0 -0.0982702179
C  C169  1  0.31390000  0.39720000  0.96420000  1.0 -0.0131018182
C  C170  1  0.18610000  0.60280000  0.46420000  1.0 -0.0131018182
C  C171  1  0.68610000  0.89720000  0.03580000  1.0 -0.0131018182
C  C172  1  0.81390000  0.10280000  0.53580000  1.0 -0.0131018182
C  C173  1  0.68610000  0.60280000  0.03580000  1.0 -0.0131018182
C  C174  1  0.81390000  0.39720000  0.53580000  1.0 -0.0131018182
C  C175  1  0.31390000  0.10280000  0.96420000  1.0 -0.0131018182
C  C176  1  0.18610000  0.89720000  0.46420000  1.0 -0.0131018182
C  C177  1  0.29420000  0.45300000  0.98830000  1.0 -0.0938503659
C  C178  1  0.20580000  0.54700000  0.48830000  1.0 -0.0938503659
C  C179  1  0.70580000  0.95300000  0.01170000  1.0 -0.0938503659
C  C180  1  0.79420000  0.04700000  0.51170000  1.0 -0.0938503659
C  C181  1  0.70580000  0.54700000  0.01170000  1.0 -0.0938503659
C  C182  1  0.79420000  0.45300000  0.51170000  1.0 -0.0938503659
C  C183  1  0.29420000  0.04700000  0.98830000  1.0 -0.0938503659
C  C184  1  0.20580000  0.95300000  0.48830000  1.0 -0.0938503659
C  C185  1  0.21970000  0.45830000  0.01090000  1.0 -0.1586550009
C  C186  1  0.28030000  0.54170000  0.51090000  1.0 -0.1586550009
C  C187  1  0.78030000  0.95830000  0.98910000  1.0 -0.1586550009
C  C188  1  0.71970000  0.04170000  0.48910000  1.0 -0.1586550009
C  C189  1  0.78030000  0.54170000  0.98910000  1.0 -0.1586550009
C  C190  1  0.71970000  0.45830000  0.48910000  1.0 -0.1586550009
C  C191  1  0.21970000  0.04170000  0.01090000  1.0 -0.1586550009
C  C192  1  0.28030000  0.95830000  0.51090000  1.0 -0.1586550009
C  C193  1  0.96270000  0.63140000  0.27540000  1.0 0.5814114539
C  C194  1  0.53730000  0.36860000  0.77540000  1.0 0.5814114539
C  C195  1  0.03730000  0.13140000  0.72460000  1.0 0.5814114539
C  C196  1  0.46270000  0.86860000  0.22460000  1.0 0.5814114539
C  C197  1  0.03730000  0.36860000  0.72460000  1.0 0.5814114539
C  C198  1  0.46270000  0.63140000  0.22460000  1.0 0.5814114539
C  C199  1  0.96270000  0.86860000  0.27540000  1.0 0.5814114539
C  C200  1  0.53730000  0.13140000  0.77540000  1.0 0.5814114539
C  C201  1  0.66540000  0.33830000  0.90540000  1.0 0.5852738497
C  C202  1  0.83460000  0.66170000  0.40540000  1.0 0.5852738497
C  C203  1  0.33460000  0.83830000  0.09460000  1.0 0.5852738497
C  C204  1  0.16540000  0.16170000  0.59460000  1.0 0.5852738497
C  C205  1  0.33460000  0.66170000  0.09460000  1.0 0.5852738497
C  C206  1  0.16540000  0.33830000  0.59460000  1.0 0.5852738497
C  C207  1  0.66540000  0.16170000  0.90540000  1.0 0.5852738497
C  C208  1  0.83460000  0.83830000  0.40540000  1.0 0.5852738497
C  C209  1  0.39540000  0.38930000  0.93900000  1.0 0.5410281968
C  C210  1  0.10460000  0.61070000  0.43900000  1.0 0.5410281968
C  C211  1  0.60460000  0.88930000  0.06100000  1.0 0.5410281968
C  C212  1  0.89540000  0.11070000  0.56100000  1.0 0.5410281968
C  C213  1  0.60460000  0.61070000  0.06100000  1.0 0.5410281968
C  C214  1  0.89540000  0.38930000  0.56100000  1.0 0.5410281968
C  C215  1  0.39540000  0.11070000  0.93900000  1.0 0.5410281968
C  C216  1  0.10460000  0.88930000  0.43900000  1.0 0.5410281968
C  C217  1  0.19080000  0.62010000  0.29100000  1.0 0.2151327682
C  C218  1  0.30920000  0.37990000  0.79100000  1.0 0.2113223156
C  C219  1  0.80920000  0.12010000  0.70900000  1.0 0.2113223156
C  C220  1  0.69080000  0.87990000  0.20900000  1.0 0.2113223156
C  C221  1  0.80920000  0.37990000  0.70900000  1.0 0.2113223156
C  C222  1  0.69080000  0.62010000  0.20900000  1.0 0.2113223156
C  C223  1  0.19080000  0.87990000  0.29100000  1.0 0.2113223156
C  C224  1  0.30920000  0.12010000  0.79100000  1.0 0.2113223156
C  C225  1  0.21300000  0.50300000  0.32200000  1.0 -0.3434971172
C  C226  1  0.28700000  0.49700000  0.82200000  1.0 -0.3434971172
C  C227  1  0.78700000  0.00300000  0.67800000  1.0 -0.3434971172
C  C228  1  0.71300000  0.99700000  0.17800000  1.0 -0.3434971172
C  C229  1  0.78700000  0.49700000  0.67800000  1.0 -0.3434971172
C  C230  1  0.71300000  0.50300000  0.17800000  1.0 -0.3434971172
C  C231  1  0.21300000  0.99700000  0.32200000  1.0 -0.3434971172
C  C232  1  0.28700000  0.00300000  0.82200000  1.0 -0.3434971172
C  C233  1  0.25930000  0.53400000  0.23540000  1.0 -0.2909313376
C  C234  1  0.24070000  0.46600000  0.73540000  1.0 -0.2909313376
C  C235  1  0.74070000  0.03400000  0.76460000  1.0 -0.2909313376
C  C236  1  0.75930000  0.96600000  0.26460000  1.0 -0.2909313376
C  C237  1  0.74070000  0.46600000  0.76460000  1.0 -0.2909313376
C  C238  1  0.75930000  0.53400000  0.26460000  1.0 -0.2909313376
C  C239  1  0.25930000  0.96600000  0.23540000  1.0 -0.2909313376
C  C240  1  0.24070000  0.03400000  0.73540000  1.0 -0.2909313376
N  N1  1  0.22460000  0.55500000  0.28140000  1.0 -0.0178236105
N  N2  1  0.27540000  0.44500000  0.78140000  1.0 -0.0178236105
N  N3  1  0.77540000  0.05500000  0.71860000  1.0 -0.0178236105
N  N4  1  0.72460000  0.94500000  0.21860000  1.0 -0.0178236105
N  N5  1  0.77540000  0.44500000  0.71860000  1.0 -0.0178236105
N  N6  1  0.72460000  0.55500000  0.21860000  1.0 -0.0178236105
N  N7  1  0.22460000  0.94500000  0.28140000  1.0 -0.0178236105
N  N8  1  0.27540000  0.05500000  0.78140000  1.0 -0.0178236105
O  O1  1  0.99460000  0.61570000  0.31900000  1.0 -0.5675685006
O  O2  1  0.50540000  0.38430000  0.81900000  1.0 -0.5675685006
O  O3  1  0.00540000  0.11570000  0.68100000  1.0 -0.5675685006
O  O4  1  0.49460000  0.88430000  0.18100000  1.0 -0.5675685006
O  O5  1  0.00540000  0.38430000  0.68100000  1.0 -0.5675685006
O  O6  1  0.49460000  0.61570000  0.18100000  1.0 -0.5675685006
O  O7  1  0.99460000  0.88430000  0.31900000  1.0 -0.5675685006
O  O8  1  0.50540000  0.11570000  0.81900000  1.0 -0.5675685006
O  O9  1  0.92630000  0.68080000  0.26660000  1.0 -0.5675685006
O  O10  1  0.57370000  0.31920000  0.76660000  1.0 -0.5675685006
O  O11  1  0.07370000  0.18080000  0.73340000  1.0 -0.5675685006
O  O12  1  0.42630000  0.81920000  0.23340000  1.0 -0.5675685006
O  O13  1  0.07370000  0.31920000  0.73340000  1.0 -0.5675685006
O  O14  1  0.42630000  0.68080000  0.23340000  1.0 -0.5675685006
O  O15  1  0.92630000  0.81920000  0.26660000  1.0 -0.5675685006
O  O16  1  0.57370000  0.18080000  0.76660000  1.0 -0.5675685006
O  O17  1  0.44120000  0.43430000  0.94020000  1.0 -0.5216076533
O  O18  1  0.05880000  0.56570000  0.44020000  1.0 -0.5216076533
O  O19  1  0.55880000  0.93430000  0.05980000  1.0 -0.5216076533
O  O20  1  0.94120000  0.06570000  0.55980000  1.0 -0.5216076533
O  O21  1  0.55880000  0.56570000  0.05980000  1.0 -0.5216076533
O  O22  1  0.94120000  0.43430000  0.55980000  1.0 -0.5216076533
O  O23  1  0.44120000  0.06570000  0.94020000  1.0 -0.5216076533
O  O24  1  0.05880000  0.93430000  0.44020000  1.0 -0.5216076533
O  O25  1  0.40780000  0.34050000  0.91900000  1.0 -0.5216076533
O  O26  1  0.09220000  0.65950000  0.41900000  1.0 -0.5216076533
O  O27  1  0.59220000  0.84050000  0.08100000  1.0 -0.5216076533
O  O28  1  0.90780000  0.15950000  0.58100000  1.0 -0.5216076533
O  O29  1  0.59220000  0.65950000  0.08100000  1.0 -0.5216076533
O  O30  1  0.90780000  0.34050000  0.58100000  1.0 -0.5216076533
O  O31  1  0.40780000  0.15950000  0.91900000  1.0 -0.5216076533
O  O32  1  0.09220000  0.84050000  0.41900000  1.0 -0.5216076533
O  O33  1  0.67540000  0.31730000  0.85970000  1.0 -0.5831086683
O  O34  1  0.82460000  0.68270000  0.35970000  1.0 -0.5831086683
O  O35  1  0.32460000  0.81730000  0.14030000  1.0 -0.5831086683
O  O36  1  0.17540000  0.18270000  0.64030000  1.0 -0.5831086683
O  O37  1  0.32460000  0.68270000  0.14030000  1.0 -0.5831086683
O  O38  1  0.17540000  0.31730000  0.64030000  1.0 -0.5831086683
O  O39  1  0.67540000  0.18270000  0.85970000  1.0 -0.5831086683
O  O40  1  0.82460000  0.81730000  0.35970000  1.0 -0.5831086683
O  O41  1  0.60090000  0.34590000  0.92800000  1.0 -0.5147400769
O  O42  1  0.89910000  0.65410000  0.42800000  1.0 -0.5147400769
O  O43  1  0.39910000  0.84590000  0.07200000  1.0 -0.5147400769
O  O44  1  0.10090000  0.15410000  0.57200000  1.0 -0.5147400769
O  O45  1  0.39910000  0.65410000  0.07200000  1.0 -0.5147400769
O  O46  1  0.10090000  0.34590000  0.57200000  1.0 -0.5147400769
O  O47  1  0.60090000  0.15410000  0.92800000  1.0 -0.5147400769
O  O48  1  0.89910000  0.84590000  0.42800000  1.0 -0.5147400769
O  O49  1  0.98530000  0.75000000  0.35590000  1.0 -0.9737703699
O  O50  1  0.51470000  0.25000000  0.85590000  1.0 -0.9737703699
O  O51  1  0.01470000  0.25000000  0.64410000  1.0 -0.9737703699
O  O52  1  0.48530000  0.75000000  0.14410000  1.0 -0.9737703699
O  O53  1  0.20900000  0.66600000  0.27600000  1.0 -0.3866593488
O  O54  1  0.29100000  0.33400000  0.77600000  1.0 -0.3843029934
O  O55  1  0.79100000  0.16600000  0.72400000  1.0 -0.3866593488
O  O56  1  0.70900000  0.83400000  0.22400000  1.0 -0.3866593488
O  O57  1  0.79100000  0.33400000  0.72400000  1.0 -0.3843029934
O  O58  1  0.70900000  0.66600000  0.22400000  1.0 -0.3866593488
O  O59  1  0.20900000  0.83400000  0.27600000  1.0 -0.3866593488
O  O60  1  0.29100000  0.16600000  0.77600000  1.0 -0.3866593488
