# DDEC6 charges by PACMAN v1.1 (https://github.com/mtap-research/PACMAN-charge/)
data_HUZXIL_ASR_pacman
_symmetry_space_group_name_H-M   'P 1'
_cell_length_a   23.85860000
_cell_length_b   23.85860000
_cell_length_c   27.04550000
_cell_angle_alpha   55.90190000
_cell_angle_beta   124.09800000
_cell_angle_gamma   108.92800000
_symmetry_Int_Tables_number   1
_chemical_formula_structural   ZnH25C30NO6
_chemical_formula_sum   'Zn8 H200 C240 N8 O48'
_cell_volume   10555.57349953
_cell_formula_units_Z   8
loop_
 _symmetry_equiv_pos_site_id
 _symmetry_equiv_pos_as_xyz
  1  'x, y, z'
loop_
 _atom_site_type_symbol
 _atom_site_label
 _atom_site_symmetry_multiplicity
 _atom_site_fract_x
 _atom_site_fract_y
 _atom_site_fract_z
 _atom_site_occupancy
 _atom_site_charge
Zn  Zn1  1  0.59440000  0.89908000  0.70264000  1.0 0.8233612246
Zn  Zn2  1  0.89908000  0.59440000  0.79736000  1.0 0.8233612246
Zn  Zn3  1  0.40560000  0.10092000  0.29736000  1.0 0.8233612246
Zn  Zn4  1  0.10092000  0.40560000  0.20264000  1.0 0.8233612246
Zn  Zn5  1  0.70530000  0.80130000  0.80658000  1.0 0.8291568524
Zn  Zn6  1  0.80130000  0.70530000  0.69342000  1.0 0.8291568524
Zn  Zn7  1  0.29470000  0.19870000  0.19342000  1.0 0.8291568524
Zn  Zn8  1  0.19870000  0.29470000  0.30658000  1.0 0.8291568524
H  H1  1  0.07470000  0.14730000  0.23720000  1.0 0.1196092288
H  H2  1  0.14730000  0.07470000  0.26280000  1.0 0.1196092288
H  H3  1  0.92530000  0.85270000  0.76280000  1.0 0.1196092288
H  H4  1  0.85270000  0.92530000  0.73720000  1.0 0.1196092288
H  H5  1  0.00770000  0.08650000  0.17930000  1.0 0.1196092288
H  H6  1  0.08650000  0.00770000  0.32070000  1.0 0.1196092288
H  H7  1  0.99230000  0.91350000  0.82070000  1.0 0.1196092288
H  H8  1  0.91350000  0.99230000  0.67930000  1.0 0.1196092288
H  H9  1  0.88630000  0.24350000  0.02660000  1.0 0.1196092288
H  H10  1  0.24350000  0.88630000  0.47340000  1.0 0.1196092288
H  H11  1  0.11370000  0.75650000  0.97340000  1.0 0.1196092288
H  H12  1  0.75650000  0.11370000  0.52660000  1.0 0.1196092288
H  H13  1  0.94960000  0.30300000  0.08480000  1.0 0.1196092288
H  H14  1  0.30300000  0.94960000  0.41520000  1.0 0.1196092288
H  H15  1  0.05040000  0.69700000  0.91520000  1.0 0.1196092288
H  H16  1  0.69700000  0.05040000  0.58480000  1.0 0.1196092288
H  H17  1  0.90090000  0.03290000  0.13630000  1.0 0.1289491102
H  H18  1  0.03290000  0.90090000  0.36370000  1.0 0.1289491102
H  H19  1  0.09910000  0.96710000  0.86370000  1.0 0.1289491102
H  H20  1  0.96710000  0.09910000  0.63630000  1.0 0.1289491102
H  H21  1  0.82750000  0.14210000  0.90260000  1.0 0.1289491102
H  H22  1  0.14210000  0.82750000  0.59740000  1.0 0.1289491102
H  H23  1  0.17250000  0.85790000  0.09740000  1.0 0.1289491102
H  H24  1  0.85790000  0.17250000  0.40260000  1.0 0.1289491102
H  H25  1  0.79690000  0.87330000  0.95160000  1.0 0.1289491102
H  H26  1  0.87330000  0.79690000  0.54840000  1.0 0.1289491102
H  H27  1  0.20310000  0.12670000  0.04840000  1.0 0.1392987884
H  H28  1  0.12670000  0.20310000  0.45160000  1.0 0.1289491102
H  H29  1  0.84610000  0.92570000  0.01690000  1.0 0.1196092288
H  H30  1  0.92570000  0.84610000  0.48310000  1.0 0.1196092288
H  H31  1  0.15390000  0.07430000  0.98310000  1.0 0.1196092288
H  H32  1  0.07430000  0.15390000  0.51690000  1.0 0.1196092288
H  H33  1  0.71230000  0.07370000  0.86620000  1.0 0.1105299978
H  H34  1  0.07370000  0.71230000  0.63380000  1.0 0.1105299978
H  H35  1  0.28770000  0.92630000  0.13380000  1.0 0.1105299978
H  H36  1  0.92630000  0.28770000  0.36620000  1.0 0.1105299978
H  H37  1  0.66666667  0.01880000  0.80530000  1.0 0.1196092288
H  H38  1  0.01880000  0.66666667  0.69470000  1.0 0.1196092288
H  H39  1  0.33340000  0.98120000  0.19470000  1.0 0.1289491102
H  H40  1  0.98120000  0.33340000  0.30530000  1.0 0.1196092288
H  H41  1  0.90200000  0.92080000  0.19900000  1.0 0.0693542949
H  H42  1  0.92080000  0.90200000  0.30100000  1.0 0.0693542949
H  H43  1  0.09800000  0.07920000  0.80100000  1.0 0.0693542949
H  H44  1  0.07920000  0.09800000  0.69900000  1.0 0.0693542949
H  H45  1  0.82530000  0.92490000  0.17690000  1.0 0.0999060568
H  H46  1  0.92490000  0.82530000  0.32310000  1.0 0.0999060568
H  H47  1  0.17470000  0.07510000  0.82310000  1.0 0.0999060568
H  H48  1  0.07510000  0.17470000  0.67690000  1.0 0.0999060568
H  H49  1  0.83280000  0.84120000  0.13770000  1.0 0.1105299978
H  H50  1  0.84120000  0.83280000  0.36230000  1.0 0.1105299978
H  H51  1  0.16720000  0.15880000  0.86230000  1.0 0.1105299978
H  H52  1  0.15880000  0.16720000  0.63770000  1.0 0.1105299978
H  H53  1  0.87990000  0.81050000  0.21680000  1.0 0.1105299978
H  H54  1  0.81050000  0.87990000  0.28320000  1.0 0.1105299978
H  H55  1  0.12010000  0.18950000  0.78320000  1.0 0.1105299978
H  H56  1  0.18950000  0.12010000  0.71680000  1.0 0.1105299978
H  H57  1  0.76350000  0.75510000  0.19520000  1.0 0.1105299978
H  H58  1  0.75510000  0.76350000  0.30480000  1.0 0.1105299978
H  H59  1  0.23650000  0.24490000  0.80480000  1.0 0.1105299978
H  H60  1  0.24490000  0.23650000  0.69520000  1.0 0.1105299978
H  H61  1  0.73100000  0.82620000  0.15210000  1.0 0.1105299978
H  H62  1  0.82620000  0.73100000  0.34790000  1.0 0.1105299978
H  H63  1  0.26900000  0.17380000  0.84790000  1.0 0.1105299978
H  H64  1  0.17380000  0.26900000  0.65210000  1.0 0.1105299978
H  H65  1  0.85600000  0.25120000  0.84020000  1.0 0.1289491102
H  H66  1  0.25120000  0.85600000  0.65980000  1.0 0.1289491102
H  H67  1  0.14400000  0.74880000  0.15980000  1.0 0.1289491102
H  H68  1  0.74880000  0.14400000  0.34020000  1.0 0.1289491102
H  H69  1  0.85170000  0.31250000  0.84460000  1.0 0.1196092288
H  H70  1  0.31250000  0.85170000  0.65540000  1.0 0.1196092288
H  H71  1  0.14830000  0.68750000  0.15540000  1.0 0.1196092288
H  H72  1  0.68750000  0.14830000  0.34460000  1.0 0.1196092288
H  H73  1  0.74510000  0.19870000  0.84650000  1.0 0.1105299978
H  H74  1  0.19870000  0.74510000  0.65350000  1.0 0.1105299978
H  H75  1  0.25490000  0.80130000  0.15350000  1.0 0.1105299978
H  H76  1  0.80130000  0.25490000  0.34650000  1.0 0.1105299978
H  H77  1  0.72730000  0.27650000  0.79230000  1.0 0.1105299978
H  H78  1  0.27650000  0.72730000  0.70770000  1.0 0.1105299978
H  H79  1  0.27270000  0.72350000  0.20770000  1.0 0.1105299978
H  H80  1  0.72350000  0.27270000  0.29230000  1.0 0.1105299978
H  H81  1  0.71720000  0.24440000  0.87580000  1.0 0.1289491102
H  H82  1  0.24440000  0.71720000  0.62420000  1.0 0.1289491102
H  H83  1  0.28280000  0.75560000  0.12420000  1.0 0.1289491102
H  H84  1  0.75560000  0.28280000  0.37580000  1.0 0.1289491102
H  H85  1  0.79290000  0.22170000  0.92360000  1.0 0.1196092288
H  H86  1  0.22170000  0.79290000  0.57640000  1.0 0.1196092288
H  H87  1  0.20710000  0.77830000  0.07640000  1.0 0.1196092288
H  H88  1  0.77830000  0.20710000  0.42360000  1.0 0.1196092288
H  H89  1  0.77520000  0.29820000  0.87020000  1.0 0.1289491102
H  H90  1  0.29820000  0.77520000  0.62980000  1.0 0.1289491102
H  H91  1  0.22480000  0.70180000  0.12980000  1.0 0.1289491102
H  H92  1  0.70180000  0.22480000  0.37020000  1.0 0.1289491102
H  H93  1  0.36320000  0.40200000  0.41490000  1.0 0.1196092288
H  H94  1  0.40200000  0.36320000  0.08510000  1.0 0.1196092288
H  H95  1  0.63680000  0.59800000  0.58510000  1.0 0.1196092288
H  H96  1  0.59800000  0.63680000  0.91490000  1.0 0.1196092288
H  H97  1  0.42750000  0.45990000  0.47580000  1.0 0.1196092288
H  H98  1  0.45990000  0.42750000  0.02420000  1.0 0.1196092288
H  H99  1  0.57250000  0.54010000  0.52420000  1.0 0.1196092288
H  H100  1  0.54010000  0.57250000  0.97580000  1.0 0.1196092288
H  H101  1  0.28300000  0.59820000  0.34840000  1.0 0.1196092288
H  H102  1  0.59820000  0.28300000  0.15160000  1.0 0.1196092288
H  H103  1  0.71700000  0.40180000  0.65160000  1.0 0.1196092288
H  H104  1  0.40180000  0.71700000  0.84840000  1.0 0.1196092288
H  H105  1  0.21320000  0.53400000  0.29520000  1.0 0.1289491102
H  H106  1  0.53400000  0.21320000  0.20480000  1.0 0.1289491102
H  H107  1  0.78680000  0.46600000  0.70480000  1.0 0.1196092288
H  H108  1  0.46600000  0.78680000  0.79520000  1.0 0.1196092288
H  H109  1  0.49790000  0.56070000  0.60850000  1.0 0.1289491102
H  H110  1  0.56070000  0.49790000  0.89150000  1.0 0.1289491102
H  H111  1  0.50210000  0.43930000  0.39150000  1.0 0.1289491102
H  H112  1  0.43930000  0.50210000  0.10850000  1.0 0.1289491102
H  H113  1  0.39240000  0.66960000  0.36980000  1.0 0.1196092288
H  H114  1  0.66960000  0.39240000  0.13020000  1.0 0.1196092288
H  H115  1  0.60760000  0.33040000  0.63020000  1.0 0.1196092288
H  H116  1  0.33040000  0.60760000  0.86980000  1.0 0.1196092288
H  H117  1  0.48330000  0.81350000  0.56570000  1.0 0.1105299978
H  H118  1  0.81350000  0.48330000  0.93430000  1.0 0.1105299978
H  H119  1  0.51670000  0.18650000  0.43430000  1.0 0.1105299978
H  H120  1  0.18650000  0.51670000  0.06570000  1.0 0.1105299978
H  H121  1  0.43500000  0.75560000  0.50350000  1.0 0.1196092288
H  H122  1  0.75560000  0.43500000  0.99650000  1.0 0.1196092288
H  H123  1  0.56500000  0.24440000  0.49650000  1.0 0.1196092288
H  H124  1  0.24440000  0.56500000  0.00350000  1.0 0.1196092288
H  H125  1  0.59800000  0.63980000  0.63200000  1.0 0.1392987884
H  H126  1  0.63980000  0.59800000  0.86800000  1.0 0.1392987884
H  H127  1  0.40200000  0.36020000  0.36800000  1.0 0.1392987884
H  H128  1  0.36020000  0.40200000  0.13200000  1.0 0.1392987884
H  H129  1  0.54500000  0.45400000  0.65150000  1.0 0.1516394457
H  H130  1  0.45400000  0.54500000  0.84850000  1.0 0.1516394457
H  H131  1  0.45500000  0.54600000  0.34850000  1.0 0.1516394457
H  H132  1  0.54600000  0.45500000  0.15150000  1.0 0.1516394457
H  H133  1  0.48880000  0.44820000  0.66900000  1.0 0.1516394457
H  H134  1  0.44820000  0.48880000  0.83100000  1.0 0.1516394457
H  H135  1  0.51120000  0.55180000  0.33100000  1.0 0.1516394457
H  H136  1  0.55180000  0.51120000  0.16900000  1.0 0.1516394457
H  H137  1  0.38490000  0.78230000  0.31040000  1.0 0.0930900273
H  H138  1  0.78230000  0.38490000  0.18960000  1.0 0.0930900273
H  H139  1  0.61510000  0.21770000  0.68960000  1.0 0.0930900273
H  H140  1  0.21770000  0.61510000  0.81040000  1.0 0.0930900273
H  H141  1  0.45520000  0.75600000  0.33950000  1.0 0.0930900273
H  H142  1  0.75600000  0.45520000  0.16050000  1.0 0.0930900273
H  H143  1  0.54480000  0.24400000  0.66050000  1.0 0.0999060568
H  H144  1  0.24400000  0.54480000  0.83950000  1.0 0.0999060568
H  H145  1  0.50390000  0.86330000  0.34900000  1.0 0.1105299978
H  H146  1  0.86330000  0.50390000  0.15100000  1.0 0.1105299978
H  H147  1  0.49610000  0.13670000  0.65100000  1.0 0.1105299978
H  H148  1  0.13670000  0.49610000  0.84900000  1.0 0.1105299978
H  H149  1  0.42960000  0.88920000  0.29920000  1.0 0.1105299978
H  H150  1  0.88920000  0.42960000  0.20080000  1.0 0.1105299978
H  H151  1  0.57040000  0.11080000  0.70080000  1.0 0.1105299978
H  H152  1  0.11080000  0.57040000  0.79920000  1.0 0.1105299978
H  H153  1  0.48710000  0.93130000  0.24620000  1.0 0.1105299978
H  H154  1  0.93130000  0.48710000  0.25380000  1.0 0.1105299978
H  H155  1  0.51290000  0.06870000  0.75380000  1.0 0.1105299978
H  H156  1  0.06870000  0.51290000  0.74620000  1.0 0.1105299978
H  H157  1  0.50280000  0.85860000  0.27040000  1.0 0.1105299978
H  H158  1  0.85860000  0.50280000  0.22960000  1.0 0.1105299978
H  H159  1  0.49720000  0.14140000  0.72960000  1.0 0.1105299978
H  H160  1  0.14140000  0.49720000  0.77040000  1.0 0.1105299978
H  H161  1  0.42830000  0.88470000  0.22040000  1.0 0.1105299978
H  H162  1  0.88470000  0.42830000  0.27960000  1.0 0.1105299978
H  H163  1  0.57170000  0.11530000  0.77960000  1.0 0.1105299978
H  H164  1  0.11530000  0.57170000  0.72040000  1.0 0.1105299978
H  H165  1  0.50870000  0.97990000  0.54910000  1.0 0.1105299978
H  H166  1  0.97990000  0.50870000  0.95090000  1.0 0.1105299978
H  H167  1  0.49130000  0.02010000  0.45090000  1.0 0.1105299978
H  H168  1  0.02010000  0.49130000  0.04910000  1.0 0.1105299978
H  H169  1  0.42490000  0.04550000  0.47280000  1.0 0.1392987884
H  H170  1  0.04550000  0.42490000  0.02720000  1.0 0.1392987884
H  H171  1  0.57510000  0.95450000  0.52720000  1.0 0.1392987884
H  H172  1  0.95450000  0.57510000  0.97280000  1.0 0.1392987884
H  H173  1  0.43420000  0.06360000  0.61450000  1.0 0.1289491102
H  H174  1  0.06360000  0.43420000  0.88550000  1.0 0.1289491102
H  H175  1  0.56580000  0.93640000  0.38550000  1.0 0.1289491102
H  H176  1  0.93640000  0.56580000  0.11450000  1.0 0.1289491102
H  H177  1  0.51370000  0.97770000  0.69400000  1.0 0.1196092288
H  H178  1  0.97770000  0.51370000  0.80600000  1.0 0.1196092288
H  H179  1  0.48630000  0.02230000  0.30600000  1.0 0.1196092288
H  H180  1  0.02230000  0.48630000  0.19400000  1.0 0.1196092288
H  H181  1  0.23500000  0.16900000  0.32950000  1.0 0.1196092288
H  H182  1  0.16900000  0.23500000  0.17050000  1.0 0.1196092288
H  H183  1  0.76500000  0.83100000  0.67050000  1.0 0.1196092288
H  H184  1  0.83100000  0.76500000  0.82950000  1.0 0.1196092288
H  H185  1  0.31610000  0.08830000  0.40790000  1.0 0.1289491102
H  H186  1  0.08830000  0.31610000  0.09210000  1.0 0.1289491102
H  H187  1  0.68390000  0.91170000  0.59210000  1.0 0.1289491102
H  H188  1  0.91170000  0.68390000  0.90790000  1.0 0.1289491102
H  H189  1  0.39030000  0.16530000  0.53100000  1.0 0.1392987884
H  H190  1  0.16530000  0.39030000  0.96900000  1.0 0.1392987884
H  H191  1  0.60970000  0.83470000  0.46900000  1.0 0.1392987884
H  H192  1  0.83470000  0.60970000  0.03100000  1.0 0.1392987884
H  H193  1  0.31130000  0.24590000  0.44870000  1.0 0.1196092288
H  H194  1  0.24590000  0.31130000  0.05130000  1.0 0.1196092288
H  H195  1  0.68870000  0.75410000  0.55130000  1.0 0.1196092288
H  H196  1  0.75410000  0.68870000  0.94870000  1.0 0.1196092288
H  H197  1  0.77810000  0.79550000  0.23120000  1.0 0.0630190941
H  H198  1  0.79550000  0.77810000  0.26880000  1.0 0.0630190941
H  H199  1  0.22190000  0.20450000  0.76880000  1.0 0.0630190941
H  H200  1  0.20450000  0.22190000  0.73120000  1.0 0.0630190941
C  C1  1  0.06709000  0.27595000  0.19990000  1.0 0.5687244898
C  C2  1  0.27595000  0.06709000  0.30010000  1.0 0.5687244898
C  C3  1  0.93291000  0.72405000  0.80010000  1.0 0.5687244898
C  C4  1  0.72405000  0.93291000  0.69990000  1.0 0.5687244898
C  C5  1  0.02061000  0.23349000  0.16480000  1.0 -0.0295838827
C  C6  1  0.23349000  0.02061000  0.33520000  1.0 -0.0295838827
C  C7  1  0.97939000  0.76651000  0.83520000  1.0 -0.0295838827
C  C8  1  0.76651000  0.97939000  0.66480000  1.0 -0.0295838827
C  C9  1  0.03713000  0.16717000  0.19450000  1.0 -0.1109777027
C  C10  1  0.16717000  0.03713000  0.30550000  1.0 -0.1109777027
C  C11  1  0.96287000  0.83283000  0.80550000  1.0 -0.1109777027
C  C12  1  0.83283000  0.96287000  0.69450000  1.0 -0.1109777027
C  C13  1  0.99673000  0.13093000  0.15950000  1.0 -0.1575488917
C  C14  1  0.13093000  0.99673000  0.34050000  1.0 -0.1575488917
C  C15  1  0.00327000  0.86907000  0.84050000  1.0 -0.1575488917
C  C16  1  0.86907000  0.00327000  0.65950000  1.0 -0.1575488917
C  C17  1  0.94126000  0.15886000  0.09670000  1.0 0.0930900273
C  C18  1  0.15886000  0.94126000  0.40330000  1.0 0.0930900273
C  C19  1  0.05874000  0.84114000  0.90330000  1.0 0.0930900273
C  C20  1  0.84114000  0.05874000  0.59670000  1.0 0.0930900273
C  C21  1  0.92430000  0.22390000  0.06910000  1.0 -0.1403415178
C  C22  1  0.22390000  0.92430000  0.43090000  1.0 -0.1403415178
C  C23  1  0.07570000  0.77610000  0.93090000  1.0 -0.1403415178
C  C24  1  0.77610000  0.07570000  0.56910000  1.0 -0.1403415178
C  C25  1  0.96284000  0.25990000  0.10340000  1.0 -0.1034211261
C  C26  1  0.25990000  0.96284000  0.39660000  1.0 -0.1109777027
C  C27  1  0.03716000  0.74010000  0.89660000  1.0 -0.1034211261
C  C28  1  0.74010000  0.03716000  0.60340000  1.0 -0.1034211261
C  C29  1  0.85060000  0.01360000  0.05660000  1.0 0.2611218161
C  C30  1  0.01360000  0.85060000  0.44340000  1.0 0.2611218161
C  C31  1  0.14940000  0.98640000  0.94340000  1.0 0.2611218161
C  C32  1  0.98640000  0.14940000  0.55660000  1.0 0.2611218161
C  C33  1  0.88690000  0.05310000  0.09010000  1.0 -0.2590160937
C  C34  1  0.05310000  0.88690000  0.40990000  1.0 -0.2590160937
C  C35  1  0.11310000  0.94690000  0.90990000  1.0 -0.2590160937
C  C36  1  0.94690000  0.11310000  0.59010000  1.0 -0.2590160937
C  C37  1  0.90120000  0.11660000  0.05820000  1.0 0.0155253634
C  C38  1  0.11660000  0.90120000  0.44180000  1.0 0.0155253634
C  C39  1  0.09880000  0.88340000  0.94180000  1.0 0.0155253634
C  C40  1  0.88340000  0.09880000  0.55820000  1.0 0.0155253634
C  C41  1  0.88320000  0.14980000  0.98830000  1.0 0.2091119951
C  C42  1  0.14980000  0.88320000  0.51170000  1.0 0.2091119951
C  C43  1  0.11680000  0.85020000  0.01170000  1.0 0.2091119951
C  C44  1  0.85020000  0.11680000  0.48830000  1.0 0.2091119951
C  C45  1  0.84260000  0.11820000  0.94930000  1.0 -0.2690426045
C  C46  1  0.11820000  0.84260000  0.55070000  1.0 -0.2690426045
C  C47  1  0.15740000  0.88180000  0.05070000  1.0 -0.2690426045
C  C48  1  0.88180000  0.15740000  0.44930000  1.0 -0.2690426045
C  C49  1  0.82310000  0.04690000  0.98130000  1.0 -0.0295838827
C  C50  1  0.04690000  0.82310000  0.51870000  1.0 -0.0295838827
C  C51  1  0.17690000  0.95310000  0.01870000  1.0 -0.0295838827
C  C52  1  0.95310000  0.17690000  0.48130000  1.0 -0.0295838827
C  C53  1  0.78040000  0.91440000  0.93400000  1.0 -0.0894066821
C  C54  1  0.91440000  0.78040000  0.56600000  1.0 -0.0894066821
C  C55  1  0.21960000  0.08560000  0.06600000  1.0 -0.0894066821
C  C56  1  0.08560000  0.21960000  0.43400000  1.0 -0.0894066821
C  C57  1  0.81070000  0.94630000  0.97260000  1.0 -0.1403415178
C  C58  1  0.94630000  0.81070000  0.52740000  1.0 -0.1403415178
C  C59  1  0.18930000  0.05370000  0.02740000  1.0 -0.1335720503
C  C60  1  0.05370000  0.18930000  0.47260000  1.0 -0.1403415178
C  C61  1  0.78890000  0.00870000  0.94610000  1.0 0.0828653286
C  C62  1  0.00870000  0.78890000  0.55390000  1.0 0.0828653286
C  C63  1  0.21110000  0.99130000  0.05390000  1.0 0.0828653286
C  C64  1  0.99130000  0.21110000  0.44610000  1.0 0.0828653286
C  C65  1  0.73160000  0.03420000  0.88370000  1.0 -0.1479142783
C  C66  1  0.03420000  0.73160000  0.61630000  1.0 -0.1479142783
C  C67  1  0.26840000  0.96580000  0.11630000  1.0 -0.1479142783
C  C68  1  0.96580000  0.26840000  0.38370000  1.0 -0.1479142783
C  C69  1  0.70420000  0.00020000  0.84840000  1.0 -0.1109777027
C  C70  1  0.00020000  0.70420000  0.65160000  1.0 -0.1109777027
C  C71  1  0.29580000  0.99980000  0.15160000  1.0 -0.1109777027
C  C72  1  0.99980000  0.29580000  0.34840000  1.0 -0.1109777027
C  C73  1  0.72730000  0.94168000  0.87130000  1.0 -0.0124066227
C  C74  1  0.94168000  0.72730000  0.62870000  1.0 -0.0124066227
C  C75  1  0.27270000  0.05832000  0.12870000  1.0 -0.0124066227
C  C76  1  0.05832000  0.27270000  0.37130000  1.0 -0.0124066227
C  C77  1  0.69369000  0.90679000  0.82820000  1.0 0.590397603
C  C78  1  0.90679000  0.69369000  0.67180000  1.0 0.590397603
C  C79  1  0.30631000  0.09321000  0.17180000  1.0 0.590397603
C  C80  1  0.09321000  0.30631000  0.32820000  1.0 0.590397603
C  C81  1  0.85500000  0.91340000  0.17010000  1.0 -0.0894066821
C  C82  1  0.91340000  0.85500000  0.32990000  1.0 -0.0894066821
C  C83  1  0.14500000  0.08660000  0.82990000  1.0 -0.0894066821
C  C84  1  0.08660000  0.14500000  0.67010000  1.0 -0.0894066821
C  C85  1  0.84040000  0.83820000  0.17830000  1.0 -0.2321672895
C  C86  1  0.83820000  0.84040000  0.32170000  1.0 -0.2321672895
C  C87  1  0.15960000  0.16180000  0.82170000  1.0 -0.2321672895
C  C88  1  0.16180000  0.15960000  0.67830000  1.0 -0.2321672895
C  C89  1  0.77040000  0.79940000  0.19060000  1.0 -0.3227850058
C  C90  1  0.79940000  0.77040000  0.30940000  1.0 -0.3227850058
C  C91  1  0.22960000  0.20060000  0.80940000  1.0 -0.3227850058
C  C92  1  0.20060000  0.22960000  0.69060000  1.0 -0.3227850058
C  C93  1  0.84390000  0.26410000  0.86130000  1.0 -0.2877585822
C  C94  1  0.26410000  0.84390000  0.63870000  1.0 -0.2877585822
C  C95  1  0.15610000  0.73590000  0.13870000  1.0 -0.2877585822
C  C96  1  0.73590000  0.15610000  0.36130000  1.0 -0.2877585822
C  C97  1  0.75740000  0.24480000  0.83880000  1.0 -0.1403415178
C  C98  1  0.24480000  0.75740000  0.66120000  1.0 -0.1403415178
C  C99  1  0.24260000  0.75520000  0.16120000  1.0 -0.1403415178
C  C100  1  0.75520000  0.24260000  0.33880000  1.0 -0.1403415178
C  C101  1  0.76080000  0.25260000  0.87880000  1.0 -0.3111400166
C  C102  1  0.25260000  0.76080000  0.62120000  1.0 -0.3111400166
C  C103  1  0.23920000  0.74740000  0.12120000  1.0 -0.3111400166
C  C104  1  0.74740000  0.23920000  0.37880000  1.0 -0.3111400166
C  C105  1  0.23402000  0.42052000  0.31330000  1.0 0.5805201373
C  C106  1  0.42052000  0.23402000  0.18670000  1.0 0.5805201373
C  C107  1  0.76598000  0.57948000  0.68670000  1.0 0.5805201373
C  C108  1  0.57948000  0.76598000  0.81330000  1.0 0.5805201373
C  C109  1  0.28009000  0.46113000  0.34950000  1.0 -0.0203359806
C  C110  1  0.46113000  0.28009000  0.15050000  1.0 -0.0203359806
C  C111  1  0.71991000  0.53887000  0.65050000  1.0 -0.0203359806
C  C112  1  0.53887000  0.71991000  0.84950000  1.0 -0.0203359806
C  C113  1  0.34586000  0.44014000  0.40300000  1.0 -0.1109777027
C  C114  1  0.44014000  0.34586000  0.09700000  1.0 -0.1109777027
C  C115  1  0.65414000  0.55986000  0.59700000  1.0 -0.1109777027
C  C116  1  0.55986000  0.65414000  0.90300000  1.0 -0.1109777027
C  C117  1  0.38528000  0.47648000  0.43810000  1.0 -0.1479142783
C  C118  1  0.47648000  0.38528000  0.06190000  1.0 -0.1479142783
C  C119  1  0.61472000  0.52352000  0.56190000  1.0 -0.1479142783
C  C120  1  0.52352000  0.61472000  0.93810000  1.0 -0.1479142783
C  C121  1  0.36437000  0.53517000  0.41920000  1.0 0.0828653286
C  C122  1  0.53517000  0.36437000  0.08080000  1.0 0.0828653286
C  C123  1  0.63563000  0.46483000  0.58080000  1.0 0.0828653286
C  C124  1  0.46483000  0.63563000  0.91920000  1.0 0.0828653286
C  C125  1  0.29840000  0.55760000  0.36320000  1.0 -0.1479142783
C  C126  1  0.55760000  0.29840000  0.13680000  1.0 -0.1479142783
C  C127  1  0.70160000  0.44240000  0.63680000  1.0 -0.1479142783
C  C128  1  0.44240000  0.70160000  0.86320000  1.0 -0.1479142783
C  C129  1  0.25704000  0.51976000  0.33040000  1.0 -0.1034211261
C  C130  1  0.51976000  0.25704000  0.16960000  1.0 -0.1034211261
C  C131  1  0.74296000  0.48024000  0.66960000  1.0 -0.1034211261
C  C132  1  0.48024000  0.74296000  0.83040000  1.0 -0.1034211261
C  C133  1  0.40340000  0.57480000  0.45270000  1.0 -0.0295838827
C  C134  1  0.57480000  0.40340000  0.04730000  1.0 -0.0295838827
C  C135  1  0.59660000  0.42520000  0.54730000  1.0 -0.0295838827
C  C136  1  0.42520000  0.59660000  0.95270000  1.0 -0.0295838827
C  C137  1  0.44030000  0.54410000  0.52440000  1.0 0.2091119951
C  C138  1  0.54410000  0.44030000  0.97560000  1.0 0.2091119951
C  C139  1  0.55970000  0.45590000  0.47560000  1.0 0.2091119951
C  C140  1  0.45590000  0.55970000  0.02440000  1.0 0.2091119951
C  C141  1  0.44540000  0.68360000  0.45440000  1.0 0.2013177491
C  C142  1  0.68360000  0.44540000  0.04560000  1.0 0.2013177491
C  C143  1  0.55460000  0.31640000  0.54560000  1.0 0.2013177491
C  C144  1  0.31640000  0.55460000  0.95440000  1.0 0.2013177491
C  C145  1  0.47868000  0.65310000  0.52380000  1.0 -0.0295838827
C  C146  1  0.65310000  0.47868000  0.97620000  1.0 -0.0295838827
C  C147  1  0.52132000  0.34690000  0.47620000  1.0 -0.0295838827
C  C148  1  0.34690000  0.52132000  0.02380000  1.0 -0.0295838827
C  C149  1  0.47660000  0.58260000  0.56120000  1.0 -0.2590160937
C  C150  1  0.58260000  0.47660000  0.93880000  1.0 -0.2590160937
C  C151  1  0.52340000  0.41740000  0.43880000  1.0 -0.2590160937
C  C152  1  0.41740000  0.52340000  0.06120000  1.0 -0.2590160937
C  C153  1  0.41030000  0.64670000  0.41690000  1.0 -0.2877585822
C  C154  1  0.64670000  0.41030000  0.08310000  1.0 -0.2877585822
C  C155  1  0.58970000  0.35330000  0.58310000  1.0 -0.2877585822
C  C156  1  0.35330000  0.58970000  0.91690000  1.0 -0.2877585822
C  C157  1  0.50685000  0.77899000  0.57880000  1.0 -0.1034211261
C  C158  1  0.77899000  0.50685000  0.92120000  1.0 -0.1034211261
C  C159  1  0.49315000  0.22101000  0.42120000  1.0 -0.1034211261
C  C160  1  0.22101000  0.49315000  0.07880000  1.0 -0.1034211261
C  C161  1  0.47767000  0.74347000  0.54170000  1.0 -0.1575488917
C  C162  1  0.74347000  0.47767000  0.95830000  1.0 -0.1575488917
C  C163  1  0.52233000  0.25653000  0.45830000  1.0 -0.1575488917
C  C164  1  0.25653000  0.52233000  0.04170000  1.0 -0.1575488917
C  C165  1  0.51084000  0.69144000  0.56090000  1.0 0.0999060568
C  C166  1  0.69144000  0.51084000  0.93910000  1.0 0.0999060568
C  C167  1  0.48916000  0.30856000  0.43910000  1.0 0.0999060568
C  C168  1  0.30856000  0.48916000  0.06090000  1.0 0.0999060568
C  C169  1  0.57489000  0.67487000  0.61840000  1.0 -0.1791310596
C  C170  1  0.67487000  0.57489000  0.88160000  1.0 -0.1791310596
C  C171  1  0.42511000  0.32513000  0.38160000  1.0 -0.1791310596
C  C172  1  0.32513000  0.42511000  0.11840000  1.0 -0.1791310596
C  C173  1  0.60548000  0.70866000  0.65610000  1.0 0.0275072447
C  C174  1  0.70866000  0.60548000  0.84390000  1.0 0.0275072447
C  C175  1  0.39452000  0.29134000  0.34390000  1.0 0.0275072447
C  C176  1  0.29134000  0.39452000  0.15610000  1.0 0.0275072447
C  C177  1  0.57046000  0.76204000  0.63460000  1.0 -0.0623169476
C  C178  1  0.76204000  0.57046000  0.86540000  1.0 -0.0623169476
C  C179  1  0.42954000  0.23796000  0.36540000  1.0 -0.0623169476
C  C180  1  0.23796000  0.42954000  0.13460000  1.0 -0.0623169476
C  C181  1  0.60125000  0.79713000  0.67710000  1.0 0.5805201373
C  C182  1  0.79713000  0.60125000  0.82290000  1.0 0.5805201373
C  C183  1  0.39875000  0.20287000  0.32290000  1.0 0.5805201373
C  C184  1  0.20287000  0.39875000  0.17710000  1.0 0.5805201373
C  C185  1  0.49850000  0.44170000  0.64220000  1.0 -0.341022239
C  C186  1  0.44170000  0.49850000  0.85780000  1.0 -0.341022239
C  C187  1  0.50150000  0.55830000  0.35780000  1.0 -0.341022239
C  C188  1  0.55830000  0.50150000  0.14220000  1.0 -0.341022239
C  C189  1  0.43330000  0.78350000  0.34000000  1.0 -0.1034211261
C  C190  1  0.78350000  0.43330000  0.16000000  1.0 -0.1034211261
C  C191  1  0.56670000  0.21650000  0.66000000  1.0 -0.1034211261
C  C192  1  0.21650000  0.56670000  0.84000000  1.0 -0.1034211261
C  C193  1  0.46110000  0.86030000  0.31180000  1.0 -0.1479142783
C  C194  1  0.86030000  0.46110000  0.18820000  1.0 -0.1479142783
C  C195  1  0.53890000  0.13970000  0.68820000  1.0 -0.1479142783
C  C196  1  0.13970000  0.53890000  0.81180000  1.0 -0.1479142783
C  C197  1  0.47050000  0.88550000  0.25840000  1.0 -0.3309902036
C  C198  1  0.88550000  0.47050000  0.24160000  1.0 -0.3309902036
C  C199  1  0.52950000  0.11450000  0.74160000  1.0 -0.3309902036
C  C200  1  0.11450000  0.52950000  0.75840000  1.0 -0.3309902036
C  C201  1  0.49100000  0.99420000  0.56330000  1.0 0.0355967721
C  C202  1  0.99420000  0.49100000  0.93670000  1.0 0.0355967721
C  C203  1  0.50900000  0.00580000  0.43670000  1.0 0.0355967721
C  C204  1  0.00580000  0.50900000  0.06330000  1.0 0.0275072447
C  C205  1  0.44420000  0.03620000  0.51750000  1.0 -0.1791310596
C  C206  1  0.03620000  0.44420000  0.98250000  1.0 -0.1791310596
C  C207  1  0.55580000  0.96380000  0.48250000  1.0 -0.1791310596
C  C208  1  0.96380000  0.55580000  0.01750000  1.0 -0.1791310596
C  C209  1  0.42000000  0.06920000  0.52990000  1.0 0.1289491102
C  C210  1  0.06920000  0.42000000  0.97010000  1.0 0.1289491102
C  C211  1  0.58000000  0.93080000  0.47010000  1.0 0.1289491102
C  C212  1  0.93080000  0.58000000  0.02990000  1.0 0.1289491102
C  C213  1  0.44770000  0.04550000  0.60000000  1.0 -0.212135219
C  C214  1  0.04550000  0.44770000  0.90000000  1.0 -0.212135219
C  C215  1  0.55230000  0.95450000  0.40000000  1.0 -0.212135219
C  C216  1  0.95450000  0.55230000  0.10000000  1.0 -0.212135219
C  C217  1  0.49630000  0.99390000  0.64780000  1.0 0.0999060568
C  C218  1  0.99390000  0.49630000  0.85220000  1.0 0.0999060568
C  C219  1  0.50370000  0.00610000  0.35220000  1.0 0.0999060568
C  C220  1  0.00610000  0.50370000  0.14780000  1.0 0.0999060568
C  C221  1  0.26786000  0.16914000  0.37030000  1.0 0.0930900273
C  C222  1  0.16914000  0.26786000  0.12970000  1.0 0.0930900273
C  C223  1  0.73214000  0.83086000  0.62970000  1.0 0.0930900273
C  C224  1  0.83086000  0.73214000  0.87030000  1.0 0.0930900273
C  C225  1  0.31609000  0.12023000  0.41740000  1.0 -0.1791310596
C  C226  1  0.12023000  0.31609000  0.08260000  1.0 -0.1791310596
C  C227  1  0.68391000  0.87977000  0.58260000  1.0 -0.1791310596
C  C228  1  0.87977000  0.68391000  0.91740000  1.0 -0.1791310596
C  C229  1  0.36414000  0.11824000  0.47830000  1.0 0.1105299978
C  C230  1  0.11824000  0.36414000  0.02170000  1.0 0.1105299978
C  C231  1  0.63586000  0.88176000  0.52170000  1.0 0.1105299978
C  C232  1  0.88176000  0.63586000  0.97830000  1.0 0.1105299978
C  C233  1  0.35991000  0.16589000  0.48940000  1.0 -0.1745769316
C  C234  1  0.16589000  0.35991000  0.01060000  1.0 -0.1745769316
C  C235  1  0.64009000  0.83411000  0.51060000  1.0 -0.1791310596
C  C236  1  0.83411000  0.64009000  0.98940000  1.0 -0.1791310596
C  C237  1  0.31210000  0.21350000  0.44020000  1.0 0.0828653286
C  C238  1  0.21350000  0.31210000  0.05980000  1.0 0.0828653286
C  C239  1  0.68790000  0.78650000  0.55980000  1.0 0.0828653286
C  C240  1  0.78650000  0.68790000  0.94020000  1.0 0.0828653286
N  N1  1  0.51792000  0.96796000  0.63017000  1.0 -0.2010887274
N  N2  1  0.96796000  0.51792000  0.86983000  1.0 -0.2010887274
N  N3  1  0.48208000  0.03204000  0.36983000  1.0 -0.2010887274
N  N4  1  0.03204000  0.48208000  0.13017000  1.0 -0.2010887274
N  N5  1  0.26607000  0.21689000  0.38039000  1.0 -0.2010887274
N  N6  1  0.21689000  0.26607000  0.11961000  1.0 -0.2010887274
N  N7  1  0.73393000  0.78311000  0.61961000  1.0 -0.2010887274
N  N8  1  0.78311000  0.73393000  0.88039000  1.0 -0.2010887274
O  O1  1  0.05083000  0.33515000  0.17041000  1.0 -0.5310523549
O  O2  1  0.33515000  0.05083000  0.32959000  1.0 -0.5310523549
O  O3  1  0.94917000  0.66485000  0.82959000  1.0 -0.5310523549
O  O4  1  0.66485000  0.94917000  0.67041000  1.0 -0.5310523549
O  O5  1  0.12062000  0.24862000  0.25387000  1.0 -0.5371734583
O  O6  1  0.24862000  0.12062000  0.24613000  1.0 -0.5371734583
O  O7  1  0.87938000  0.75138000  0.74613000  1.0 -0.5371734583
O  O8  1  0.75138000  0.87938000  0.75387000  1.0 -0.5371734583
O  O9  1  0.83540000  0.95060000  0.09110000  1.0 -0.1575488917
O  O10  1  0.95060000  0.83540000  0.40890000  1.0 -0.1575488917
O  O11  1  0.16460000  0.04940000  0.90890000  1.0 -0.1575488917
O  O12  1  0.04940000  0.16460000  0.59110000  1.0 -0.1575488917
O  O13  1  0.89580000  0.21980000  0.95210000  1.0 -0.254437142
O  O14  1  0.21980000  0.89580000  0.54790000  1.0 -0.254437142
O  O15  1  0.10420000  0.78020000  0.04790000  1.0 -0.254437142
O  O16  1  0.78020000  0.10420000  0.45210000  1.0 -0.254437142
O  O17  1  0.64368000  0.93332000  0.77062000  1.0 -0.5310523549
O  O18  1  0.93332000  0.64368000  0.72938000  1.0 -0.5310523549
O  O19  1  0.35632000  0.06668000  0.22938000  1.0 -0.5310523549
O  O20  1  0.06668000  0.35632000  0.27062000  1.0 -0.5310523549
O  O21  1  0.72120000  0.85388000  0.85266000  1.0 -0.5310523549
O  O22  1  0.85388000  0.72120000  0.64734000  1.0 -0.5310523549
O  O23  1  0.27880000  0.14612000  0.14734000  1.0 -0.5310523549
O  O24  1  0.14612000  0.27880000  0.35266000  1.0 -0.5310523549
O  O25  1  0.17786000  0.44428000  0.26414000  1.0 -0.5310523549
O  O26  1  0.44428000  0.17786000  0.23586000  1.0 -0.5310523549
O  O27  1  0.82214000  0.55572000  0.73586000  1.0 -0.5310523549
O  O28  1  0.55572000  0.82214000  0.76414000  1.0 -0.5310523549
O  O29  1  0.25570000  0.36448000  0.33788000  1.0 -0.5371734583
O  O30  1  0.36448000  0.25570000  0.16212000  1.0 -0.5371734583
O  O31  1  0.74430000  0.63552000  0.66212000  1.0 -0.5371734583
O  O32  1  0.63552000  0.74430000  0.83788000  1.0 -0.5371734583
O  O33  1  0.44520000  0.47460000  0.56400000  1.0 -0.1204885179
O  O34  1  0.47460000  0.44520000  0.93600000  1.0 -0.1204885179
O  O35  1  0.55480000  0.52540000  0.43600000  1.0 -0.1204885179
O  O36  1  0.52540000  0.55480000  0.06400000  1.0 -0.1204885179
O  O37  1  0.44810000  0.75270000  0.41670000  1.0 -0.190451567
O  O38  1  0.75270000  0.44810000  0.08330000  1.0 -0.190451567
O  O39  1  0.55190000  0.24730000  0.58330000  1.0 -0.190451567
O  O40  1  0.24730000  0.55190000  0.91670000  1.0 -0.190451567
O  O41  1  0.56846000  0.84524000  0.65482000  1.0 -0.5541648799
O  O42  1  0.84524000  0.56846000  0.84518000  1.0 -0.5541648799
O  O43  1  0.43154000  0.15476000  0.34518000  1.0 -0.5541648799
O  O44  1  0.15476000  0.43154000  0.15482000  1.0 -0.5541648799
O  O45  1  0.65644000  0.77650000  0.73065000  1.0 -0.5246705943
O  O46  1  0.77650000  0.65644000  0.76935000  1.0 -0.5246705943
O  O47  1  0.34356000  0.22350000  0.26935000  1.0 -0.5310523549
O  O48  1  0.22350000  0.34356000  0.23065000  1.0 -0.5246705943
