# DDEC6 charges by PACMAN v1.1 (https://github.com/mtap-research/PACMAN-charge/)
data_HUZYEI_ASR_pacman
_symmetry_space_group_name_H-M   'P 1'
_cell_length_a   23.94510000
_cell_length_b   23.94510000
_cell_length_c   27.37220000
_cell_angle_alpha   55.20770000
_cell_angle_beta   124.79200000
_cell_angle_gamma   109.91500000
_symmetry_Int_Tables_number   1
_chemical_formula_structural   Zn2H83C76(NO4)3
_chemical_formula_sum   'Zn8 H332 C304 N12 O48'
_cell_volume   10581.85602847
_cell_formula_units_Z   4
loop_
 _symmetry_equiv_pos_site_id
 _symmetry_equiv_pos_as_xyz
  1  'x, y, z'
loop_
 _atom_site_type_symbol
 _atom_site_label
 _atom_site_symmetry_multiplicity
 _atom_site_fract_x
 _atom_site_fract_y
 _atom_site_fract_z
 _atom_site_occupancy
 _atom_site_charge
Zn  Zn1  1  0.79806000  0.70420000  0.69465000  1.0 0.8441946389
Zn  Zn2  1  0.29580000  0.20194000  0.19465000  1.0 0.8441946389
Zn  Zn3  1  0.89847000  0.59677000  0.79856000  1.0 0.8081441255
Zn  Zn4  1  0.40323000  0.10153000  0.29856000  1.0 0.8081441255
Zn  Zn5  1  0.70420000  0.79806000  0.80535000  1.0 0.8441946389
Zn  Zn6  1  0.20194000  0.29580000  0.30535000  1.0 0.8441946389
Zn  Zn7  1  0.59677000  0.89847000  0.70144000  1.0 0.8081441255
Zn  Zn8  1  0.10153000  0.40323000  0.20144000  1.0 0.8081441255
H  H1  1  0.81710000  0.47990000  0.69510000  1.0 0.1288720753
H  H2  1  0.52010000  0.18290000  0.19510000  1.0 0.1288720753
H  H3  1  0.78000000  0.44000000  0.62570000  1.0 0.1288720753
H  H4  1  0.56000000  0.22000000  0.12570000  1.0 0.1194987427
H  H5  1  0.62950000  0.57530000  0.48200000  1.0 0.1194987427
H  H6  1  0.42470000  0.37050000  0.98200000  1.0 0.1194987427
H  H7  1  0.69150000  0.63430000  0.54930000  1.0 0.1194987427
H  H8  1  0.36570000  0.30850000  0.04930000  1.0 0.1194987427
H  H9  1  0.54960000  0.20900000  0.40340000  1.0 0.1194987427
H  H10  1  0.79100000  0.45040000  0.90340000  1.0 0.1194987427
H  H11  1  0.60550000  0.26910000  0.46910000  1.0 0.1288720753
H  H12  1  0.73090000  0.39450000  0.96910000  1.0 0.1288720753
H  H13  1  0.47230000  0.41630000  0.31390000  1.0 0.1194987427
H  H14  1  0.58370000  0.52770000  0.81390000  1.0 0.1194987427
H  H15  1  0.40910000  0.35370000  0.26650000  1.0 0.1104045275
H  H16  1  0.64630000  0.59090000  0.76650000  1.0 0.1104045275
H  H17  1  0.66460000  0.41140000  0.41940000  1.0 0.1407387214
H  H18  1  0.58860000  0.33540000  0.91940000  1.0 0.1407387214
H  H19  1  0.56230000  0.46850000  0.49120000  1.0 0.1194987427
H  H20  1  0.53150000  0.43770000  0.99120000  1.0 0.1194987427
H  H21  1  0.76980000  0.44840000  0.45010000  1.0 0.0908601007
H  H22  1  0.55160000  0.23020000  0.95010000  1.0 0.0908601007
H  H23  1  0.79250000  0.52270000  0.43690000  1.0 0.1104045275
H  H24  1  0.47730000  0.20750000  0.93690000  1.0 0.1104045275
H  H25  1  0.87840000  0.40880000  0.53970000  1.0 0.1194987427
H  H26  1  0.59120000  0.12160000  0.03970000  1.0 0.1194987427
H  H27  1  0.90320000  0.48600000  0.51820000  1.0 0.1104045275
H  H28  1  0.51400000  0.09680000  0.01820000  1.0 0.1104045275
H  H29  1  0.86550000  0.39850000  0.62790000  1.0 0.0908601007
H  H30  1  0.60150000  0.13450000  0.12790000  1.0 0.0908601007
H  H31  1  0.83470000  0.47290000  0.57920000  1.0 0.1003120304
H  H32  1  0.52710000  0.16530000  0.07920000  1.0 0.1003120304
H  H33  1  0.96750000  0.46190000  0.60890000  1.0 0.0701897977
H  H34  1  0.53810000  0.03250000  0.10890000  1.0 0.0701897977
H  H35  1  0.96610000  0.45730000  0.66730000  1.0 0.1003120304
H  H36  1  0.54270000  0.03390000  0.16730000  1.0 0.1003120304
H  H37  1  0.93430000  0.57570000  0.53970000  1.0 0.0701897977
H  H38  1  0.42430000  0.06570000  0.03970000  1.0 0.0701897977
H  H39  1  0.93320000  0.57100000  0.59880000  1.0 0.1003120304
H  H40  1  0.42900000  0.06680000  0.09880000  1.0 0.1003120304
H  H41  1  0.05410000  0.56250000  0.66680000  1.0 0.1003120304
H  H42  1  0.43750000  0.94590000  0.16680000  1.0 0.1003120304
H  H43  1  0.05830000  0.55050000  0.61700000  1.0 0.0701897977
H  H44  1  0.44950000  0.94170000  0.11700000  1.0 0.0701897977
H  H45  1  0.04830000  0.67790000  0.56400000  1.0 0.0813887685
H  H46  1  0.32210000  0.95170000  0.06400000  1.0 0.0813887685
H  H47  1  0.98430000  0.65050000  0.51710000  1.0 0.1003120304
H  H48  1  0.34950000  0.01570000  0.01710000  1.0 0.1003120304
H  H49  1  0.98020000  0.66220000  0.56580000  1.0 0.1104045275
H  H50  1  0.33780000  0.01980000  0.06580000  1.0 0.1104045275
H  H51  1  0.47700000  0.48560000  0.42040000  1.0 0.1003120304
H  H52  1  0.51440000  0.52300000  0.92040000  1.0 0.1003120304
H  H53  1  0.42680000  0.42980000  0.44380000  1.0 0.1104045275
H  H54  1  0.57020000  0.57320000  0.94380000  1.0 0.1104045275
H  H55  1  0.34870000  0.46350000  0.34930000  1.0 0.1194987427
H  H56  1  0.53650000  0.65130000  0.84930000  1.0 0.1194987427
H  H57  1  0.39010000  0.46470000  0.32110000  1.0 0.1194987427
H  H58  1  0.53530000  0.60990000  0.82110000  1.0 0.1194987427
H  H59  1  0.34890000  0.55630000  0.25840000  1.0 0.1003120304
H  H60  1  0.44370000  0.65110000  0.75840000  1.0 0.1003120304
H  H61  1  0.36100000  0.56400000  0.31670000  1.0 0.1003120304
H  H62  1  0.43600000  0.63900000  0.81670000  1.0 0.1003120304
H  H63  1  0.45630000  0.59670000  0.27290000  1.0 0.1104045275
H  H64  1  0.40330000  0.54370000  0.77290000  1.0 0.1104045275
H  H65  1  0.48610000  0.57630000  0.34960000  1.0 0.0908601007
H  H66  1  0.42370000  0.51390000  0.84960000  1.0 0.0908601007
H  H67  1  0.43370000  0.68650000  0.24500000  1.0 0.0390880894
H  H68  1  0.31350000  0.56630000  0.74500000  1.0 0.0390880894
H  H69  1  0.37990000  0.64810000  0.27030000  1.0 0.0908601007
H  H70  1  0.35190000  0.62010000  0.77030000  1.0 0.0908601007
H  H71  1  0.49730000  0.70350000  0.32380000  1.0 0.1003120304
H  H72  1  0.29650000  0.50270000  0.82380000  1.0 0.1003120304
H  H73  1  0.49660000  0.62780000  0.37530000  1.0 0.0908601007
H  H74  1  0.37220000  0.50340000  0.87530000  1.0 0.0908601007
H  H75  1  0.49790000  0.69130000  0.40790000  1.0 0.1288720753
H  H76  1  0.30870000  0.50210000  0.90790000  1.0 0.1288720753
H  H77  1  0.43020000  0.72600000  0.34140000  1.0 0.1288720753
H  H78  1  0.27400000  0.56980000  0.84140000  1.0 0.1288720753
H  H79  1  0.42960000  0.64880000  0.39400000  1.0 0.1288720753
H  H80  1  0.35120000  0.57040000  0.89400000  1.0 0.1288720753
H  H81  1  0.29520000  0.95040000  0.23320000  1.0 0.1194987427
H  H82  1  0.04960000  0.70480000  0.73320000  1.0 0.1194987427
H  H83  1  0.25570000  0.91370000  0.14910000  1.0 0.1194987427
H  H84  1  0.08630000  0.74430000  0.64910000  1.0 0.1194987427
H  H85  1  0.08270000  0.02730000  0.03290000  1.0 0.1003120304
H  H86  1  0.97270000  0.91730000  0.53290000  1.0 0.1003120304
H  H87  1  0.15370000  0.08670000  0.09490000  1.0 0.1288720753
H  H88  1  0.91330000  0.84630000  0.59490000  1.0 0.1288720753
H  H89  1  0.86580000  0.80820000  0.80780000  1.0 0.1194987427
H  H90  1  0.19180000  0.13420000  0.30780000  1.0 0.1194987427
H  H91  1  0.93210000  0.86990000  0.86900000  1.0 0.1288720753
H  H92  1  0.13010000  0.06790000  0.36900000  1.0 0.1288720753
H  H93  1  0.06150000  0.71750000  0.01040000  1.0 0.1288720753
H  H94  1  0.28250000  0.93850000  0.51040000  1.0 0.1288720753
H  H95  1  0.01020000  0.66920000  0.94990000  1.0 0.1194987427
H  H96  1  0.33080000  0.98980000  0.44990000  1.0 0.1194987427
H  H97  1  0.96470000  0.85970000  0.97960000  1.0 0.1104045275
H  H98  1  0.14030000  0.03530000  0.47960000  1.0 0.1104045275
H  H99  1  0.20030000  0.87050000  0.09100000  1.0 0.1288720753
H  H100  1  0.12950000  0.79970000  0.59100000  1.0 0.1288720753
H  H101  1  0.96320000  0.83640000  0.05560000  1.0 0.1003120304
H  H102  1  0.16360000  0.03680000  0.55560000  1.0 0.1003120304
H  H103  1  0.93800000  0.89960000  0.03880000  1.0 0.1194987427
H  H104  1  0.10040000  0.06200000  0.53880000  1.0 0.1194987427
H  H105  1  0.98200000  0.80260000  0.17620000  1.0 0.1003120304
H  H106  1  0.19740000  0.01800000  0.67620000  1.0 0.1003120304
H  H107  1  0.92240000  0.77460000  0.12720000  1.0 0.1194987427
H  H108  1  0.22540000  0.07760000  0.62720000  1.0 0.1194987427
H  H109  1  0.27020000  0.83260000  0.07910000  1.0 0.1104045275
H  H110  1  0.16740000  0.72980000  0.57910000  1.0 0.1104045275
H  H111  1  0.26280000  0.83860000  0.01430000  1.0 0.1194987427
H  H112  1  0.16140000  0.73720000  0.51430000  1.0 0.1104045275
H  H113  1  0.23080000  0.70820000  0.11030000  1.0 0.1288720753
H  H114  1  0.29180000  0.76920000  0.61030000  1.0 0.1288720753
H  H115  1  0.24970000  0.71750000  0.05920000  1.0 0.1104045275
H  H116  1  0.28250000  0.75030000  0.55920000  1.0 0.1104045275
H  H117  1  0.34640000  0.72940000  0.11370000  1.0 0.1003120304
H  H118  1  0.27060000  0.65360000  0.61370000  1.0 0.1003120304
H  H119  1  0.32800000  0.68260000  0.17150000  1.0 0.1104045275
H  H120  1  0.31740000  0.67200000  0.67150000  1.0 0.1104045275
H  H121  1  0.41190000  0.74610000  0.20290000  1.0 0.0701897977
H  H122  1  0.25390000  0.58810000  0.70290000  1.0 0.0701897977
H  H123  1  0.34970000  0.76790000  0.19190000  1.0 0.1194987427
H  H124  1  0.23210000  0.65030000  0.69190000  1.0 0.1194987427
H  H125  1  0.73200000  0.80220000  0.54480000  1.0 0.1104045275
H  H126  1  0.19780000  0.26800000  0.04480000  1.0 0.1104045275
H  H127  1  0.65320000  0.88760000  0.46380000  1.0 0.1288720753
H  H128  1  0.11240000  0.34680000  0.96380000  1.0 0.1288720753
H  H129  1  0.58650000  0.81790000  0.58840000  1.0 0.1288720753
H  H130  1  0.18210000  0.41350000  0.08840000  1.0 0.1288720753
H  H131  1  0.67160000  0.73800000  0.66990000  1.0 0.1194987427
H  H132  1  0.26200000  0.32840000  0.16990000  1.0 0.1194987427
H  H133  1  0.47180000  0.00960000  0.30690000  1.0 0.1288720753
H  H134  1  0.99040000  0.52820000  0.80690000  1.0 0.1288720753
H  H135  1  0.56600000  0.94360000  0.38770000  1.0 0.1194987427
H  H136  1  0.05640000  0.43400000  0.88770000  1.0 0.1194987427
H  H137  1  0.47760000  0.01720000  0.44480000  1.0 0.1104045275
H  H138  1  0.98280000  0.52240000  0.94480000  1.0 0.1104045275
H  H139  1  0.56180000  0.94340000  0.52330000  1.0 0.1194987427
H  H140  1  0.05660000  0.43820000  0.02330000  1.0 0.1194987427
H  H141  1  0.88290000  0.91230000  0.07860000  1.0 0.1194987427
H  H142  1  0.08770000  0.11710000  0.57860000  1.0 0.1194987427
H  H143  1  0.83880000  0.84380000  0.10140000  1.0 0.1288720753
H  H144  1  0.15620000  0.16120000  0.60140000  1.0 0.1288720753
H  H145  1  0.95520000  0.79900000  0.21750000  1.0 0.0529609689
H  H146  1  0.20100000  0.04480000  0.71750000  1.0 0.0529609689
H  H147  1  0.91620000  0.84660000  0.21120000  1.0 0.0908601007
H  H148  1  0.15340000  0.08380000  0.71120000  1.0 0.0908601007
H  H149  1  0.03680000  0.87960000  0.21380000  1.0 0.1003120304
H  H150  1  0.12040000  0.96320000  0.71380000  1.0 0.1003120304
H  H151  1  0.98750000  0.91670000  0.13690000  1.0 0.0813887685
H  H152  1  0.08330000  0.01250000  0.63690000  1.0 0.0813887685
H  H153  1  0.05880000  0.96060000  0.22070000  1.0 0.1003120304
H  H154  1  0.03940000  0.94120000  0.72070000  1.0 0.1104045275
H  H155  1  0.98240000  0.98480000  0.17330000  1.0 0.1104045275
H  H156  1  0.01520000  0.01760000  0.67330000  1.0 0.1104045275
H  H157  1  0.04280000  0.05260000  0.10160000  1.0 0.1104045275
H  H158  1  0.94740000  0.95720000  0.60160000  1.0 0.1104045275
H  H159  1  0.98420000  0.00800000  0.07110000  1.0 0.1104045275
H  H160  1  0.99200000  0.01580000  0.57110000  1.0 0.1104045275
H  H161  1  0.05970000  0.98410000  0.11800000  1.0 0.1194987427
H  H162  1  0.01590000  0.94030000  0.61800000  1.0 0.1194987427
H  H163  1  0.35050000  0.88850000  0.08400000  1.0 0.1104045275
H  H164  1  0.11150000  0.64950000  0.58400000  1.0 0.1104045275
H  H165  1  0.42200000  0.86680000  0.10660000  1.0 0.1194987427
H  H166  1  0.13320000  0.57800000  0.60660000  1.0 0.1194987427
H  H167  1  0.47990000  0.81710000  0.80490000  1.0 0.1288720753
H  H168  1  0.18290000  0.52010000  0.30490000  1.0 0.1288720753
H  H169  1  0.44000000  0.78000000  0.87430000  1.0 0.1194987427
H  H170  1  0.22000000  0.56000000  0.37430000  1.0 0.1288720753
H  H171  1  0.57530000  0.62950000  0.01800000  1.0 0.1194987427
H  H172  1  0.37050000  0.42470000  0.51800000  1.0 0.1194987427
H  H173  1  0.63430000  0.69150000  0.95070000  1.0 0.1194987427
H  H174  1  0.30850000  0.36570000  0.45070000  1.0 0.1194987427
H  H175  1  0.20900000  0.54960000  0.09660000  1.0 0.1194987427
H  H176  1  0.45040000  0.79100000  0.59660000  1.0 0.1194987427
H  H177  1  0.26910000  0.60550000  0.03090000  1.0 0.1288720753
H  H178  1  0.39450000  0.73090000  0.53090000  1.0 0.1288720753
H  H179  1  0.41630000  0.47230000  0.18610000  1.0 0.1194987427
H  H180  1  0.52770000  0.58370000  0.68610000  1.0 0.1194987427
H  H181  1  0.35370000  0.40910000  0.23350000  1.0 0.1104045275
H  H182  1  0.59090000  0.64630000  0.73350000  1.0 0.1104045275
H  H183  1  0.41140000  0.66460000  0.08060000  1.0 0.1407387214
H  H184  1  0.33540000  0.58860000  0.58060000  1.0 0.1407387214
H  H185  1  0.46850000  0.56230000  0.00880000  1.0 0.1194987427
H  H186  1  0.43770000  0.53150000  0.50880000  1.0 0.1194987427
H  H187  1  0.44840000  0.76980000  0.04990000  1.0 0.0908601007
H  H188  1  0.23020000  0.55160000  0.54990000  1.0 0.0908601007
H  H189  1  0.52270000  0.79250000  0.06310000  1.0 0.1104045275
H  H190  1  0.20750000  0.47730000  0.56310000  1.0 0.1104045275
H  H191  1  0.40880000  0.87840000  0.96030000  1.0 0.1194987427
H  H192  1  0.12160000  0.59120000  0.46030000  1.0 0.1194987427
H  H193  1  0.48600000  0.90320000  0.98180000  1.0 0.1194987427
H  H194  1  0.09680000  0.51400000  0.48180000  1.0 0.1104045275
H  H195  1  0.39850000  0.86550000  0.87210000  1.0 0.0908601007
H  H196  1  0.13450000  0.60150000  0.37210000  1.0 0.0908601007
H  H197  1  0.47290000  0.83470000  0.92080000  1.0 0.1003120304
H  H198  1  0.16530000  0.52710000  0.42080000  1.0 0.1003120304
H  H199  1  0.46190000  0.96750000  0.89110000  1.0 0.0701897977
H  H200  1  0.03250000  0.53810000  0.39110000  1.0 0.0701897977
H  H201  1  0.45730000  0.96610000  0.83270000  1.0 0.1003120304
H  H202  1  0.03390000  0.54270000  0.33270000  1.0 0.1003120304
H  H203  1  0.57570000  0.93430000  0.96030000  1.0 0.0701897977
H  H204  1  0.06570000  0.42430000  0.46030000  1.0 0.0701897977
H  H205  1  0.57100000  0.93320000  0.90120000  1.0 0.0908601007
H  H206  1  0.06680000  0.42900000  0.40120000  1.0 0.1003120304
H  H207  1  0.56250000  0.05410000  0.83320000  1.0 0.1003120304
H  H208  1  0.94590000  0.43750000  0.33320000  1.0 0.1003120304
H  H209  1  0.55050000  0.05830000  0.88300000  1.0 0.0701897977
H  H210  1  0.94170000  0.44950000  0.38300000  1.0 0.0701897977
H  H211  1  0.67790000  0.04830000  0.93600000  1.0 0.0813887685
H  H212  1  0.95170000  0.32210000  0.43600000  1.0 0.0813887685
H  H213  1  0.65050000  0.98430000  0.98290000  1.0 0.1003120304
H  H214  1  0.01570000  0.34950000  0.48290000  1.0 0.1003120304
H  H215  1  0.66220000  0.98020000  0.93420000  1.0 0.1104045275
H  H216  1  0.01980000  0.33780000  0.43420000  1.0 0.1104045275
H  H217  1  0.48560000  0.47700000  0.07960000  1.0 0.1003120304
H  H218  1  0.52300000  0.51440000  0.57960000  1.0 0.1003120304
H  H219  1  0.42980000  0.42680000  0.05620000  1.0 0.1104045275
H  H220  1  0.57320000  0.57020000  0.55620000  1.0 0.1104045275
H  H221  1  0.46350000  0.34870000  0.15070000  1.0 0.1194987427
H  H222  1  0.65130000  0.53650000  0.65070000  1.0 0.1194987427
H  H223  1  0.46470000  0.39010000  0.17890000  1.0 0.1194987427
H  H224  1  0.60990000  0.53530000  0.67890000  1.0 0.1194987427
H  H225  1  0.55630000  0.34890000  0.24160000  1.0 0.1003120304
H  H226  1  0.65110000  0.44370000  0.74160000  1.0 0.1003120304
H  H227  1  0.56400000  0.36100000  0.18330000  1.0 0.1003120304
H  H228  1  0.63900000  0.43600000  0.68330000  1.0 0.1003120304
H  H229  1  0.59670000  0.45630000  0.22710000  1.0 0.1104045275
H  H230  1  0.54370000  0.40330000  0.72710000  1.0 0.1104045275
H  H231  1  0.57630000  0.48610000  0.15040000  1.0 0.0908601007
H  H232  1  0.51390000  0.42370000  0.65040000  1.0 0.0908601007
H  H233  1  0.68650000  0.43370000  0.25500000  1.0 0.0390880894
H  H234  1  0.56630000  0.31350000  0.75500000  1.0 0.0390880894
H  H235  1  0.64810000  0.37990000  0.22970000  1.0 0.0908601007
H  H236  1  0.62010000  0.35190000  0.72970000  1.0 0.0908601007
H  H237  1  0.70350000  0.49730000  0.17620000  1.0 0.1003120304
H  H238  1  0.50270000  0.29650000  0.67620000  1.0 0.1003120304
H  H239  1  0.62780000  0.49660000  0.12470000  1.0 0.0908601007
H  H240  1  0.50340000  0.37220000  0.62470000  1.0 0.0908601007
H  H241  1  0.69130000  0.49790000  0.09210000  1.0 0.1288720753
H  H242  1  0.50210000  0.30870000  0.59210000  1.0 0.1288720753
H  H243  1  0.72600000  0.43020000  0.15860000  1.0 0.1288720753
H  H244  1  0.56980000  0.27400000  0.65860000  1.0 0.1288720753
H  H245  1  0.64880000  0.42960000  0.10600000  1.0 0.1288720753
H  H246  1  0.57040000  0.35120000  0.60600000  1.0 0.1288720753
H  H247  1  0.95040000  0.29520000  0.26680000  1.0 0.1194987427
H  H248  1  0.70480000  0.04960000  0.76680000  1.0 0.1194987427
H  H249  1  0.91370000  0.25570000  0.35090000  1.0 0.1194987427
H  H250  1  0.74430000  0.08630000  0.85090000  1.0 0.1194987427
H  H251  1  0.02730000  0.08270000  0.46710000  1.0 0.1003120304
H  H252  1  0.91730000  0.97270000  0.96710000  1.0 0.1003120304
H  H253  1  0.08670000  0.15370000  0.40510000  1.0 0.1288720753
H  H254  1  0.84630000  0.91330000  0.90510000  1.0 0.1288720753
H  H255  1  0.80820000  0.86580000  0.69220000  1.0 0.1194987427
H  H256  1  0.13420000  0.19180000  0.19220000  1.0 0.1194987427
H  H257  1  0.86990000  0.93210000  0.63100000  1.0 0.1288720753
H  H258  1  0.06790000  0.13010000  0.13100000  1.0 0.1288720753
H  H259  1  0.71750000  0.06150000  0.48960000  1.0 0.1288720753
H  H260  1  0.93850000  0.28250000  0.98960000  1.0 0.1288720753
H  H261  1  0.66920000  0.01020000  0.55010000  1.0 0.1194987427
H  H262  1  0.98980000  0.33080000  0.05010000  1.0 0.1194987427
H  H263  1  0.85970000  0.96470000  0.52040000  1.0 0.1104045275
H  H264  1  0.03530000  0.14030000  0.02040000  1.0 0.1104045275
H  H265  1  0.87050000  0.20030000  0.40900000  1.0 0.1288720753
H  H266  1  0.79970000  0.12950000  0.90900000  1.0 0.1288720753
H  H267  1  0.83640000  0.96320000  0.44440000  1.0 0.1003120304
H  H268  1  0.03680000  0.16360000  0.94440000  1.0 0.1003120304
H  H269  1  0.89960000  0.93800000  0.46120000  1.0 0.1194987427
H  H270  1  0.06200000  0.10040000  0.96120000  1.0 0.1194987427
H  H271  1  0.80260000  0.98200000  0.32380000  1.0 0.1003120304
H  H272  1  0.01800000  0.19740000  0.82380000  1.0 0.1003120304
H  H273  1  0.77460000  0.92240000  0.37280000  1.0 0.1194987427
H  H274  1  0.07760000  0.22540000  0.87280000  1.0 0.1194987427
H  H275  1  0.83260000  0.27020000  0.42090000  1.0 0.1104045275
H  H276  1  0.72980000  0.16740000  0.92090000  1.0 0.1104045275
H  H277  1  0.83860000  0.26280000  0.48570000  1.0 0.1104045275
H  H278  1  0.73720000  0.16140000  0.98570000  1.0 0.1194987427
H  H279  1  0.70820000  0.23080000  0.38970000  1.0 0.1288720753
H  H280  1  0.76920000  0.29180000  0.88970000  1.0 0.1288720753
H  H281  1  0.71750000  0.24970000  0.44080000  1.0 0.1104045275
H  H282  1  0.75030000  0.28250000  0.94080000  1.0 0.1104045275
H  H283  1  0.72940000  0.34640000  0.38630000  1.0 0.1003120304
H  H284  1  0.65360000  0.27060000  0.88630000  1.0 0.1003120304
H  H285  1  0.68260000  0.32800000  0.32850000  1.0 0.1104045275
H  H286  1  0.67200000  0.31740000  0.82850000  1.0 0.1104045275
H  H287  1  0.74610000  0.41190000  0.29710000  1.0 0.0701897977
H  H288  1  0.58810000  0.25390000  0.79710000  1.0 0.0701897977
H  H289  1  0.76790000  0.34970000  0.30810000  1.0 0.1194987427
H  H290  1  0.65030000  0.23210000  0.80810000  1.0 0.1194987427
H  H291  1  0.80220000  0.73200000  0.95520000  1.0 0.1104045275
H  H292  1  0.26800000  0.19780000  0.45520000  1.0 0.1104045275
H  H293  1  0.88760000  0.65320000  0.03620000  1.0 0.1288720753
H  H294  1  0.34680000  0.11240000  0.53620000  1.0 0.1288720753
H  H295  1  0.81790000  0.58650000  0.91160000  1.0 0.1288720753
H  H296  1  0.41350000  0.18210000  0.41160000  1.0 0.1288720753
H  H297  1  0.73800000  0.67160000  0.83010000  1.0 0.1194987427
H  H298  1  0.32840000  0.26200000  0.33010000  1.0 0.1194987427
H  H299  1  0.00960000  0.47180000  0.19310000  1.0 0.1288720753
H  H300  1  0.52820000  0.99040000  0.69310000  1.0 0.1288720753
H  H301  1  0.94360000  0.56600000  0.11230000  1.0 0.1194987427
H  H302  1  0.43400000  0.05640000  0.61230000  1.0 0.1194987427
H  H303  1  0.01720000  0.47760000  0.05520000  1.0 0.1104045275
H  H304  1  0.52240000  0.98280000  0.55520000  1.0 0.1104045275
H  H305  1  0.94340000  0.56180000  0.97670000  1.0 0.1194987427
H  H306  1  0.43820000  0.05660000  0.47670000  1.0 0.1194987427
H  H307  1  0.91230000  0.88290000  0.42140000  1.0 0.1194987427
H  H308  1  0.11710000  0.08770000  0.92140000  1.0 0.1194987427
H  H309  1  0.84380000  0.83880000  0.39860000  1.0 0.1288720753
H  H310  1  0.16120000  0.15620000  0.89860000  1.0 0.1288720753
H  H311  1  0.79900000  0.95520000  0.28250000  1.0 0.0529609689
H  H312  1  0.04480000  0.20100000  0.78250000  1.0 0.0529609689
H  H313  1  0.84660000  0.91620000  0.28880000  1.0 0.0908601007
H  H314  1  0.08380000  0.15340000  0.78880000  1.0 0.0908601007
H  H315  1  0.87960000  0.03680000  0.28620000  1.0 0.1003120304
H  H316  1  0.96320000  0.12040000  0.78620000  1.0 0.1003120304
H  H317  1  0.91670000  0.98750000  0.36310000  1.0 0.0813887685
H  H318  1  0.01250000  0.08330000  0.86310000  1.0 0.0813887685
H  H319  1  0.96060000  0.05880000  0.27930000  1.0 0.1003120304
H  H320  1  0.94120000  0.03940000  0.77930000  1.0 0.1104045275
H  H321  1  0.98480000  0.98240000  0.32670000  1.0 0.1104045275
H  H322  1  0.01760000  0.01520000  0.82670000  1.0 0.1104045275
H  H323  1  0.05260000  0.04280000  0.39840000  1.0 0.1104045275
H  H324  1  0.95720000  0.94740000  0.89840000  1.0 0.1104045275
H  H325  1  0.00800000  0.98420000  0.42890000  1.0 0.1104045275
H  H326  1  0.01580000  0.99200000  0.92890000  1.0 0.1104045275
H  H327  1  0.98410000  0.05970000  0.38200000  1.0 0.1194987427
H  H328  1  0.94030000  0.01590000  0.88200000  1.0 0.1194987427
H  H329  1  0.88850000  0.35050000  0.41600000  1.0 0.1104045275
H  H330  1  0.64950000  0.11150000  0.91600000  1.0 0.1104045275
H  H331  1  0.86680000  0.42200000  0.39340000  1.0 0.1194987427
H  H332  1  0.57800000  0.13320000  0.89340000  1.0 0.1194987427
C  C1  1  0.79750000  0.59810000  0.66830000  1.0 0.5783146651
C  C2  1  0.40190000  0.20250000  0.16830000  1.0 0.5749547513
C  C3  1  0.76360000  0.56500000  0.62640000  1.0 -0.0524641393
C  C4  1  0.43500000  0.23640000  0.12640000  1.0 -0.0524641393
C  C5  1  0.78430000  0.50370000  0.64990000  1.0 -0.0960418792
C  C6  1  0.49630000  0.21570000  0.14990000  1.0 -0.0960418792
C  C7  1  0.75800000  0.47740000  0.60890000  1.0 -0.1210471901
C  C8  1  0.52260000  0.24200000  0.10890000  1.0 -0.1210471901
C  C9  1  0.70610000  0.49790000  0.54930000  1.0 0.1104045275
C  C10  1  0.50210000  0.29390000  0.04930000  1.0 0.1104045275
C  C11  1  0.67070000  0.55990000  0.52220000  1.0 -0.2289751041
C  C12  1  0.44010000  0.32930000  0.02220000  1.0 -0.2289751041
C  C13  1  0.70720000  0.59360000  0.56480000  1.0 -0.110106147
C  C14  1  0.40640000  0.29280000  0.06480000  1.0 -0.110106147
C  C15  1  0.42870000  0.22910000  0.29800000  1.0 0.5783146651
C  C16  1  0.77090000  0.57130000  0.79800000  1.0 0.5783146651
C  C17  1  0.47080000  0.28020000  0.32550000  1.0 -0.0377781751
C  C18  1  0.71980000  0.52920000  0.82550000  1.0 -0.0377781751
C  C19  1  0.53330000  0.24910000  0.38830000  1.0 -0.1316766088
C  C20  1  0.75090000  0.46670000  0.88830000  1.0 -0.1316766088
C  C21  1  0.56810000  0.28750000  0.42570000  1.0 -0.16230503
C  C22  1  0.71250000  0.43190000  0.92570000  1.0 -0.16230503
C  C23  1  0.54660000  0.34760000  0.39810000  1.0 0.0813887685
C  C24  1  0.65240000  0.45340000  0.89810000  1.0 0.0813887685
C  C25  1  0.48630000  0.37290000  0.33430000  1.0 -0.16230503
C  C26  1  0.62710000  0.51370000  0.83430000  1.0 -0.16230503
C  C27  1  0.45130000  0.33770000  0.30500000  1.0 -0.081005501
C  C28  1  0.66230000  0.54870000  0.80500000  1.0 -0.081005501
C  C29  1  0.58560000  0.39580000  0.42780000  1.0 0.0173831241
C  C30  1  0.60420000  0.41440000  0.92780000  1.0 0.0173831241
C  C31  1  0.64530000  0.41690000  0.43770000  1.0 -0.2192971712
C  C32  1  0.58310000  0.35470000  0.93770000  1.0 -0.2192971712
C  C33  1  0.68640000  0.45380000  0.48380000  1.0 0.2078766408
C  C34  1  0.54620000  0.31360000  0.98380000  1.0 0.2078766408
C  C35  1  0.65800000  0.46180000  0.50510000  1.0 -0.0633670225
C  C36  1  0.53820000  0.34200000  0.00510000  1.0 -0.0633670225
C  C37  1  0.58160000  0.45400000  0.47900000  1.0 -0.4104734031
C  C38  1  0.54600000  0.41840000  0.97900000  1.0 -0.4104734031
C  C39  1  0.53810000  0.42290000  0.43390000  1.0 0.2688077496
C  C40  1  0.57710000  0.46190000  0.93390000  1.0 0.2688077496
C  C41  1  0.79050000  0.47670000  0.47150000  1.0 -0.0377781751
C  C42  1  0.52330000  0.20950000  0.97150000  1.0 -0.0377781751
C  C43  1  0.87030000  0.45190000  0.53010000  1.0 -0.2385550825
C  C44  1  0.54810000  0.12970000  0.03010000  1.0 -0.2385550825
C  C45  1  0.86870000  0.44510000  0.59460000  1.0 -0.1990849538
C  C46  1  0.55490000  0.13130000  0.09460000  1.0 -0.1990849538
C  C47  1  0.94360000  0.47720000  0.61820000  1.0 -0.150036908
C  C48  1  0.52280000  0.05640000  0.11820000  1.0 -0.150036908
C  C49  1  0.95460000  0.55380000  0.58880000  1.0 -0.169222389
C  C50  1  0.44620000  0.04540000  0.08880000  1.0 -0.169222389
C  C51  1  0.03270000  0.57010000  0.62100000  1.0 -0.1394125904
C  C52  1  0.42990000  0.96730000  0.12100000  1.0 -0.1394125904
C  C53  1  0.00890000  0.64830000  0.56070000  1.0 -0.3289038656
C  C54  1  0.35170000  0.99110000  0.06070000  1.0 -0.3289038656
C  C55  1  0.44410000  0.45050000  0.41230000  1.0 -0.081005501
C  C56  1  0.54950000  0.55590000  0.91230000  1.0 -0.081005501
C  C57  1  0.38980000  0.48180000  0.34560000  1.0 -0.1990849538
C  C58  1  0.51820000  0.61020000  0.84560000  1.0 -0.1990849538
C  C59  1  0.38130000  0.54830000  0.30460000  1.0 -0.169222389
C  C60  1  0.45170000  0.61870000  0.80460000  1.0 -0.169222389
C  C61  1  0.44660000  0.59340000  0.30440000  1.0 -0.169222389
C  C62  1  0.40660000  0.55340000  0.80440000  1.0 -0.169222389
C  C63  1  0.42770000  0.65090000  0.28410000  1.0 -0.16230503
C  C64  1  0.34910000  0.57230000  0.78410000  1.0 -0.16230503
C  C65  1  0.46760000  0.66680000  0.33850000  1.0 -0.1394125904
C  C66  1  0.33320000  0.53240000  0.83850000  1.0 -0.1394125904
C  C67  1  0.45530000  0.68470000  0.37330000  1.0 -0.3669269649
C  C68  1  0.31530000  0.54470000  0.87330000  1.0 -0.3669269649
C  C69  1  0.27460000  0.06760000  0.20100000  1.0 0.5887080015
C  C70  1  0.93240000  0.72540000  0.70100000  1.0 0.5887080015
C  C71  1  0.22520000  0.02480000  0.16470000  1.0 -0.008640471
C  C72  1  0.97520000  0.77480000  0.66470000  1.0 -0.008640471
C  C73  1  0.25710000  0.96770000  0.19010000  1.0 -0.110106147
C  C74  1  0.03230000  0.74290000  0.69010000  1.0 -0.110106147
C  C75  1  0.23040000  0.93580000  0.14900000  1.0 -0.1990849538
C  C76  1  0.06420000  0.76960000  0.64900000  1.0 -0.1990849538
C  C77  1  0.15590000  0.94430000  0.10710000  1.0 0.1194987427
C  C78  1  0.05570000  0.84410000  0.60710000  1.0 0.1194987427
C  C79  1  0.12410000  0.01150000  0.07250000  1.0 -0.2385550825
C  C80  1  0.98850000  0.87590000  0.57250000  1.0 -0.2385550825
C  C81  1  0.16810000  0.04510000  0.11090000  1.0 -0.0712107403
C  C82  1  0.95490000  0.83190000  0.61090000  1.0 -0.0712107403
C  C83  1  0.90090000  0.70250000  0.82460000  1.0 0.5887080015
C  C84  1  0.29750000  0.09910000  0.32460000  1.0 0.5887080015
C  C85  1  0.93900000  0.73680000  0.87200000  1.0 -0.0316635771
C  C86  1  0.26320000  0.06100000  0.37200000  1.0 -0.0316635771
C  C87  1  0.90780000  0.79360000  0.84680000  1.0 -0.0912638424
C  C88  1  0.20640000  0.09220000  0.34680000  1.0 -0.0912638424
C  C89  1  0.94570000  0.82750000  0.88600000  1.0 -0.16230503
C  C90  1  0.17250000  0.05430000  0.38600000  1.0 -0.16230503
C  C91  1  0.00230000  0.79850000  0.94900000  1.0 0.0908601007
C  C92  1  0.20150000  0.99770000  0.44900000  1.0 0.0908601007
C  C93  1  0.02310000  0.73790000  0.96840000  1.0 -0.1316766088
C  C94  1  0.26210000  0.97690000  0.46840000  1.0 -0.1316766088
C  C95  1  0.99380000  0.71000000  0.93330000  1.0 -0.081005501
C  C96  1  0.29000000  0.00620000  0.43330000  1.0 -0.081005501
C  C97  1  0.04690000  0.83390000  0.99740000  1.0 0.0529609689
C  C98  1  0.16610000  0.95310000  0.49740000  1.0 0.0529609689
C  C99  1  0.01190000  0.85890000  0.00310000  1.0 -0.2289751041
C  C100  1  0.14110000  0.98810000  0.50310000  1.0 -0.2289751041
C  C101  1  0.05610000  0.88650000  0.05200000  1.0 0.1407387214
C  C102  1  0.11350000  0.94390000  0.55200000  1.0 0.1407387214
C  C103  1  0.10940000  0.90820000  0.06230000  1.0 0.0074202899
C  C104  1  0.09180000  0.89060000  0.56230000  1.0 0.0074202899
C  C105  1  0.15330000  0.86750000  0.06510000  1.0 -0.2706671027
C  C106  1  0.13250000  0.84670000  0.56510000  1.0 -0.2706671027
C  C107  1  0.12930000  0.82690000  0.03280000  1.0 -0.0316635771
C  C108  1  0.17310000  0.87070000  0.53280000  1.0 -0.0316635771
C  C109  1  0.97130000  0.86410000  0.07460000  1.0 0.1003120304
C  C110  1  0.13590000  0.02870000  0.57460000  1.0 0.1003120304
C  C111  1  0.94420000  0.81560000  0.13030000  1.0 -0.3233574597
C  C112  1  0.18440000  0.05580000  0.63030000  1.0 -0.3233574597
C  C113  1  0.25020000  0.81280000  0.04980000  1.0 0.00076991
C  C114  1  0.18720000  0.74980000  0.54980000  1.0 0.00076991
C  C115  1  0.25930000  0.73330000  0.08900000  1.0 -0.150036908
C  C116  1  0.26670000  0.74070000  0.58900000  1.0 -0.150036908
C  C117  1  0.32370000  0.72870000  0.13420000  1.0 -0.169222389
C  C118  1  0.27130000  0.67630000  0.63420000  1.0 -0.169222389
C  C119  1  0.36900000  0.76940000  0.16820000  1.0 -0.2083379893
C  C120  1  0.23060000  0.63100000  0.66820000  1.0 -0.2083379893
C  C121  1  0.70910000  0.81150000  0.55760000  1.0 0.1003120304
C  C122  1  0.18850000  0.29090000  0.05760000  1.0 0.1003120304
C  C123  1  0.66080000  0.86300000  0.50830000  1.0 -0.16230503
C  C124  1  0.13700000  0.33920000  0.00830000  1.0 -0.16230503
C  C125  1  0.62930000  0.87610000  0.52190000  1.0 0.1104045275
C  C126  1  0.12390000  0.37070000  0.02190000  1.0 0.1104045275
C  C127  1  0.62230000  0.82030000  0.58290000  1.0 -0.1990849538
C  C128  1  0.17970000  0.37770000  0.08290000  1.0 -0.1990849538
C  C129  1  0.67180000  0.77340000  0.62970000  1.0 0.0390880894
C  C130  1  0.22660000  0.32820000  0.12970000  1.0 0.0390880894
C  C131  1  0.49390000  0.99990000  0.35190000  1.0 0.0074202899
C  C132  1  0.00010000  0.50610000  0.85190000  1.0 0.00076991
C  C133  1  0.54630000  0.95370000  0.40280000  1.0 -0.110106147
C  C134  1  0.04630000  0.45370000  0.90280000  1.0 -0.110106147
C  C135  1  0.57340000  0.92060000  0.47290000  1.0 -0.0633670225
C  C136  1  0.07940000  0.42660000  0.97290000  1.0 -0.0633670225
C  C137  1  0.49580000  0.00420000  0.43050000  1.0 0.0616701854
C  C138  1  0.99580000  0.50420000  0.93050000  1.0 0.0616701854
C  C139  1  0.54510000  0.95490000  0.47860000  1.0 -0.1210471901
C  C140  1  0.04510000  0.45490000  0.97860000  1.0 -0.1210471901
C  C141  1  0.88400000  0.86420000  0.11100000  1.0 -0.2827836541
C  C142  1  0.13580000  0.11600000  0.61100000  1.0 -0.2827836541
C  C143  1  0.93690000  0.84390000  0.19080000  1.0 -0.1394125904
C  C144  1  0.15610000  0.06310000  0.69080000  1.0 -0.1316766088
C  C145  1  0.99510000  0.90510000  0.18040000  1.0 -0.180892641
C  C146  1  0.09490000  0.00490000  0.68040000  1.0 -0.180892641
C  C147  1  0.01640000  0.96440000  0.17980000  1.0 -0.1316766088
C  C148  1  0.03560000  0.98360000  0.67980000  1.0 -0.1316766088
C  C149  1  0.02690000  0.00690000  0.11000000  1.0 -0.4962087838
C  C150  1  0.99310000  0.97310000  0.61000000  1.0 -0.4907624034
C  C151  1  0.38910000  0.85870000  0.12010000  1.0 -0.5986789285
C  C152  1  0.14130000  0.61090000  0.62010000  1.0 -0.5986789285
C  C153  1  0.59810000  0.79750000  0.83170000  1.0 0.5783146651
C  C154  1  0.20250000  0.40190000  0.33170000  1.0 0.5749547513
C  C155  1  0.56500000  0.76360000  0.87360000  1.0 -0.0524641393
C  C156  1  0.23640000  0.43500000  0.37360000  1.0 -0.0524641393
C  C157  1  0.50370000  0.78430000  0.85010000  1.0 -0.0960418792
C  C158  1  0.21570000  0.49630000  0.35010000  1.0 -0.0960418792
C  C159  1  0.47740000  0.75800000  0.89110000  1.0 -0.1210471901
C  C160  1  0.24200000  0.52260000  0.39110000  1.0 -0.1210471901
C  C161  1  0.49790000  0.70610000  0.95070000  1.0 0.1104045275
C  C162  1  0.29390000  0.50210000  0.45070000  1.0 0.1104045275
C  C163  1  0.55990000  0.67070000  0.97780000  1.0 -0.2385550825
C  C164  1  0.32930000  0.44010000  0.47780000  1.0 -0.2385550825
C  C165  1  0.59360000  0.70720000  0.93520000  1.0 -0.110106147
C  C166  1  0.29280000  0.40640000  0.43520000  1.0 -0.110106147
C  C167  1  0.22910000  0.42870000  0.20200000  1.0 0.5783146651
C  C168  1  0.57130000  0.77090000  0.70200000  1.0 0.5783146651
C  C169  1  0.28020000  0.47080000  0.17450000  1.0 -0.0377781751
C  C170  1  0.52920000  0.71980000  0.67450000  1.0 -0.0377781751
C  C171  1  0.24910000  0.53330000  0.11170000  1.0 -0.1316766088
C  C172  1  0.46670000  0.75090000  0.61170000  1.0 -0.1316766088
C  C173  1  0.28750000  0.56810000  0.07430000  1.0 -0.16230503
C  C174  1  0.43190000  0.71250000  0.57430000  1.0 -0.16230503
C  C175  1  0.34760000  0.54660000  0.10190000  1.0 0.0813887685
C  C176  1  0.45340000  0.65240000  0.60190000  1.0 0.0813887685
C  C177  1  0.37290000  0.48630000  0.16570000  1.0 -0.16230503
C  C178  1  0.51370000  0.62710000  0.66570000  1.0 -0.16230503
C  C179  1  0.33770000  0.45130000  0.19500000  1.0 -0.081005501
C  C180  1  0.54870000  0.66230000  0.69500000  1.0 -0.081005501
C  C181  1  0.39580000  0.58560000  0.07220000  1.0 0.0173831241
C  C182  1  0.41440000  0.60420000  0.57220000  1.0 0.0173831241
C  C183  1  0.41690000  0.64530000  0.06230000  1.0 -0.2192971712
C  C184  1  0.35470000  0.58310000  0.56230000  1.0 -0.2192971712
C  C185  1  0.45380000  0.68640000  0.01620000  1.0 0.2078766408
C  C186  1  0.31360000  0.54620000  0.51620000  1.0 0.2078766408
C  C187  1  0.46180000  0.65800000  0.99490000  1.0 -0.0712107403
C  C188  1  0.34200000  0.53820000  0.49490000  1.0 -0.0633670225
C  C189  1  0.45400000  0.58160000  0.02100000  1.0 -0.4104734031
C  C190  1  0.41840000  0.54600000  0.52100000  1.0 -0.4104734031
C  C191  1  0.42290000  0.53810000  0.06610000  1.0 0.2688077496
C  C192  1  0.46190000  0.57710000  0.56610000  1.0 0.2688077496
C  C193  1  0.47670000  0.79050000  0.02850000  1.0 -0.0377781751
C  C194  1  0.20950000  0.52330000  0.52850000  1.0 -0.0377781751
C  C195  1  0.45190000  0.87030000  0.96990000  1.0 -0.2385550825
C  C196  1  0.12970000  0.54810000  0.46990000  1.0 -0.2385550825
C  C197  1  0.44510000  0.86870000  0.90540000  1.0 -0.1990849538
C  C198  1  0.13130000  0.55490000  0.40540000  1.0 -0.1990849538
C  C199  1  0.47720000  0.94360000  0.88180000  1.0 -0.150036908
C  C200  1  0.05640000  0.52280000  0.38180000  1.0 -0.150036908
C  C201  1  0.55380000  0.95460000  0.91120000  1.0 -0.169222389
C  C202  1  0.04540000  0.44620000  0.41120000  1.0 -0.169222389
C  C203  1  0.57010000  0.03270000  0.87900000  1.0 -0.1394125904
C  C204  1  0.96730000  0.42990000  0.37900000  1.0 -0.1394125904
C  C205  1  0.64830000  0.00890000  0.93930000  1.0 -0.3289038656
C  C206  1  0.99110000  0.35170000  0.43930000  1.0 -0.3289038656
C  C207  1  0.45050000  0.44410000  0.08770000  1.0 -0.0912638424
C  C208  1  0.55590000  0.54950000  0.58770000  1.0 -0.081005501
C  C209  1  0.48180000  0.38980000  0.15440000  1.0 -0.1990849538
C  C210  1  0.61020000  0.51820000  0.65440000  1.0 -0.1990849538
C  C211  1  0.54830000  0.38130000  0.19540000  1.0 -0.169222389
C  C212  1  0.61870000  0.45170000  0.69540000  1.0 -0.169222389
C  C213  1  0.59340000  0.44660000  0.19560000  1.0 -0.169222389
C  C214  1  0.55340000  0.40660000  0.69560000  1.0 -0.169222389
C  C215  1  0.65090000  0.42770000  0.21590000  1.0 -0.16230503
C  C216  1  0.57230000  0.34910000  0.71590000  1.0 -0.16230503
C  C217  1  0.66680000  0.46760000  0.16150000  1.0 -0.1394125904
C  C218  1  0.53240000  0.33320000  0.66150000  1.0 -0.1394125904
C  C219  1  0.68470000  0.45530000  0.12670000  1.0 -0.3669269649
C  C220  1  0.54470000  0.31530000  0.62670000  1.0 -0.3669269649
C  C221  1  0.06760000  0.27460000  0.29900000  1.0 0.5887080015
C  C222  1  0.72540000  0.93240000  0.79900000  1.0 0.5887080015
C  C223  1  0.02480000  0.22520000  0.33530000  1.0 -0.008640471
C  C224  1  0.77480000  0.97520000  0.83530000  1.0 -0.008640471
C  C225  1  0.96770000  0.25710000  0.30990000  1.0 -0.110106147
C  C226  1  0.74290000  0.03230000  0.80990000  1.0 -0.110106147
C  C227  1  0.93580000  0.23040000  0.35100000  1.0 -0.1990849538
C  C228  1  0.76960000  0.06420000  0.85100000  1.0 -0.1990849538
C  C229  1  0.94430000  0.15590000  0.39290000  1.0 0.1194987427
C  C230  1  0.84410000  0.05570000  0.89290000  1.0 0.1194987427
C  C231  1  0.01150000  0.12410000  0.42750000  1.0 -0.2385550825
C  C232  1  0.87590000  0.98850000  0.92750000  1.0 -0.2385550825
C  C233  1  0.04510000  0.16810000  0.38910000  1.0 -0.0712107403
C  C234  1  0.83190000  0.95490000  0.88910000  1.0 -0.0712107403
C  C235  1  0.70250000  0.90090000  0.67540000  1.0 0.5887080015
C  C236  1  0.09910000  0.29750000  0.17540000  1.0 0.5887080015
C  C237  1  0.73680000  0.93900000  0.62800000  1.0 -0.0316635771
C  C238  1  0.06100000  0.26320000  0.12800000  1.0 -0.0316635771
C  C239  1  0.79360000  0.90780000  0.65320000  1.0 -0.0912638424
C  C240  1  0.09220000  0.20640000  0.15320000  1.0 -0.0912638424
C  C241  1  0.82750000  0.94570000  0.61400000  1.0 -0.16230503
C  C242  1  0.05430000  0.17250000  0.11400000  1.0 -0.16230503
C  C243  1  0.79850000  0.00230000  0.55100000  1.0 0.0908601007
C  C244  1  0.99770000  0.20150000  0.05100000  1.0 0.0908601007
C  C245  1  0.73790000  0.02310000  0.53160000  1.0 -0.1316766088
C  C246  1  0.97690000  0.26210000  0.03160000  1.0 -0.1316766088
C  C247  1  0.71000000  0.99380000  0.56670000  1.0 -0.081005501
C  C248  1  0.00620000  0.29000000  0.06670000  1.0 -0.081005501
C  C249  1  0.83390000  0.04690000  0.50260000  1.0 0.0529609689
C  C250  1  0.95310000  0.16610000  0.00260000  1.0 0.0529609689
C  C251  1  0.85890000  0.01190000  0.49690000  1.0 -0.2289751041
C  C252  1  0.98810000  0.14110000  0.99690000  1.0 -0.2289751041
C  C253  1  0.88650000  0.05610000  0.44800000  1.0 0.1407387214
C  C254  1  0.94390000  0.11350000  0.94800000  1.0 0.1407387214
C  C255  1  0.90820000  0.10940000  0.43770000  1.0 0.0074202899
C  C256  1  0.89060000  0.09180000  0.93770000  1.0 0.0074202899
C  C257  1  0.86750000  0.15330000  0.43490000  1.0 -0.2706671027
C  C258  1  0.84670000  0.13250000  0.93490000  1.0 -0.2706671027
C  C259  1  0.82690000  0.12930000  0.46720000  1.0 -0.0316635771
C  C260  1  0.87070000  0.17310000  0.96720000  1.0 -0.0316635771
C  C261  1  0.86410000  0.97130000  0.42540000  1.0 0.1104045275
C  C262  1  0.02870000  0.13590000  0.92540000  1.0 0.1003120304
C  C263  1  0.81560000  0.94420000  0.36970000  1.0 -0.3233574597
C  C264  1  0.05580000  0.18440000  0.86970000  1.0 -0.3233574597
C  C265  1  0.81280000  0.25020000  0.45020000  1.0 0.00076991
C  C266  1  0.74980000  0.18720000  0.95020000  1.0 0.00076991
C  C267  1  0.73330000  0.25930000  0.41100000  1.0 -0.150036908
C  C268  1  0.74070000  0.26670000  0.91100000  1.0 -0.150036908
C  C269  1  0.72870000  0.32370000  0.36580000  1.0 -0.169222389
C  C270  1  0.67630000  0.27130000  0.86580000  1.0 -0.169222389
C  C271  1  0.76940000  0.36900000  0.33180000  1.0 -0.2083379893
C  C272  1  0.63100000  0.23060000  0.83180000  1.0 -0.2083379893
C  C273  1  0.81150000  0.70910000  0.94240000  1.0 0.1003120304
C  C274  1  0.29090000  0.18850000  0.44240000  1.0 0.1003120304
C  C275  1  0.86300000  0.66080000  0.99170000  1.0 -0.16230503
C  C276  1  0.33920000  0.13700000  0.49170000  1.0 -0.16230503
C  C277  1  0.87610000  0.62930000  0.97810000  1.0 0.1104045275
C  C278  1  0.37070000  0.12390000  0.47810000  1.0 0.1104045275
C  C279  1  0.82030000  0.62230000  0.91710000  1.0 -0.1990849538
C  C280  1  0.37770000  0.17970000  0.41710000  1.0 -0.1990849538
C  C281  1  0.77340000  0.67180000  0.87030000  1.0 0.0390880894
C  C282  1  0.32820000  0.22660000  0.37030000  1.0 0.0390880894
C  C283  1  0.99990000  0.49390000  0.14810000  1.0 0.0074202899
C  C284  1  0.50610000  0.00010000  0.64810000  1.0 0.0074202899
C  C285  1  0.95370000  0.54630000  0.09720000  1.0 -0.110106147
C  C286  1  0.45370000  0.04630000  0.59720000  1.0 -0.110106147
C  C287  1  0.92060000  0.57340000  0.02710000  1.0 -0.0633670225
C  C288  1  0.42660000  0.07940000  0.52710000  1.0 -0.0633670225
C  C289  1  0.00420000  0.49580000  0.06950000  1.0 0.0616701854
C  C290  1  0.50420000  0.99580000  0.56950000  1.0 0.0616701854
C  C291  1  0.95490000  0.54510000  0.02140000  1.0 -0.1316766088
C  C292  1  0.45490000  0.04510000  0.52140000  1.0 -0.1210471901
C  C293  1  0.86420000  0.88400000  0.38900000  1.0 -0.2827836541
C  C294  1  0.11600000  0.13580000  0.88900000  1.0 -0.2827836541
C  C295  1  0.84390000  0.93690000  0.30920000  1.0 -0.1316766088
C  C296  1  0.06310000  0.15610000  0.80920000  1.0 -0.1316766088
C  C297  1  0.90510000  0.99510000  0.31960000  1.0 -0.1852291791
C  C298  1  0.00490000  0.09490000  0.81960000  1.0 -0.180892641
C  C299  1  0.96440000  0.01640000  0.32020000  1.0 -0.1316766088
C  C300  1  0.98360000  0.03560000  0.82020000  1.0 -0.1316766088
C  C301  1  0.00690000  0.02690000  0.39000000  1.0 -0.4907624034
C  C302  1  0.97310000  0.99310000  0.89000000  1.0 -0.4907624034
C  C303  1  0.85870000  0.38910000  0.37990000  1.0 -0.5986789285
C  C304  1  0.61090000  0.14130000  0.87990000  1.0 -0.5986789285
N  N1  1  0.72210000  0.77810000  0.61790000  1.0 -0.1990849538
N  N2  1  0.22190000  0.27790000  0.11790000  1.0 -0.1990849538
N  N3  1  0.47610000  0.03050000  0.37060000  1.0 -0.1210471901
N  N4  1  0.96950000  0.52390000  0.87060000  1.0 -0.1210471901
N  N5  1  0.50072000  0.99172000  0.40070000  1.0 0.1407387214
N  N6  1  0.00828000  0.49928000  0.90070000  1.0 0.1407387214
N  N7  1  0.77810000  0.72210000  0.88210000  1.0 -0.1990849538
N  N8  1  0.27790000  0.22190000  0.38210000  1.0 -0.1990849538
N  N9  1  0.03050000  0.47610000  0.12940000  1.0 -0.1210471901
N  N10  1  0.52390000  0.96950000  0.62940000  1.0 -0.1210471901
N  N11  1  0.99172000  0.50072000  0.09930000  1.0 0.1407387214
N  N12  1  0.49928000  0.00828000  0.59930000  1.0 0.1407387214
O  O1  1  0.84630000  0.57290000  0.72460000  1.0 -0.4847375123
O  O2  1  0.42710000  0.15370000  0.22460000  1.0 -0.4847375123
O  O3  1  0.77500000  0.65600000  0.64420000  1.0 -0.5489327876
O  O4  1  0.34400000  0.22500000  0.14420000  1.0 -0.5489327876
O  O5  1  0.44550000  0.16890000  0.33000000  1.0 -0.5373617975
O  O6  1  0.83110000  0.55450000  0.83000000  1.0 -0.5373617975
O  O7  1  0.36990000  0.25390000  0.24370000  1.0 -0.5754718153
O  O8  1  0.74610000  0.63010000  0.74370000  1.0 -0.5754718153
O  O9  1  0.74570000  0.47650000  0.48860000  1.0 -0.180892641
O  O10  1  0.52350000  0.25430000  0.98860000  1.0 -0.180892641
O  O11  1  0.47840000  0.39980000  0.42740000  1.0 -0.150036908
O  O12  1  0.60020000  0.52160000  0.92740000  1.0 -0.150036908
O  O13  1  0.33510000  0.05110000  0.24420000  1.0 -0.5327902255
O  O14  1  0.94890000  0.66490000  0.74420000  1.0 -0.5327902255
O  O15  1  0.24509000  0.12529000  0.17020000  1.0 -0.5873699753
O  O16  1  0.87471000  0.75491000  0.67020000  1.0 -0.5873699753
O  O17  1  0.93530000  0.65110000  0.84830000  1.0 -0.6115428774
O  O18  1  0.34890000  0.06470000  0.34830000  1.0 -0.6115428774
O  O19  1  0.84961000  0.72939000  0.76982000  1.0 -0.5070777057
O  O20  1  0.27061000  0.15039000  0.26982000  1.0 -0.5070777057
O  O21  1  0.18320000  0.79760000  0.02760000  1.0 -0.110106147
O  O22  1  0.20240000  0.81680000  0.52760000  1.0 -0.110106147
O  O23  1  0.01420000  0.88800000  0.07690000  1.0 -0.1210471901
O  O24  1  0.11200000  0.98580000  0.57690000  1.0 -0.1210471901
O  O25  1  0.57290000  0.84630000  0.77540000  1.0 -0.4907624034
O  O26  1  0.15370000  0.42710000  0.27540000  1.0 -0.4907624034
O  O27  1  0.65600000  0.77500000  0.85580000  1.0 -0.5489327876
O  O28  1  0.22500000  0.34400000  0.35580000  1.0 -0.5489327876
O  O29  1  0.16890000  0.44550000  0.17000000  1.0 -0.5373617975
O  O30  1  0.55450000  0.83110000  0.67000000  1.0 -0.5373617975
O  O31  1  0.25390000  0.36990000  0.25630000  1.0 -0.5754718153
O  O32  1  0.63010000  0.74610000  0.75630000  1.0 -0.5754718153
O  O33  1  0.47650000  0.74570000  0.01140000  1.0 -0.180892641
O  O34  1  0.25430000  0.52350000  0.51140000  1.0 -0.180892641
O  O35  1  0.39980000  0.47840000  0.07260000  1.0 -0.150036908
O  O36  1  0.52160000  0.60020000  0.57260000  1.0 -0.150036908
O  O37  1  0.05110000  0.33510000  0.25580000  1.0 -0.5327902255
O  O38  1  0.66490000  0.94890000  0.75580000  1.0 -0.5327902255
O  O39  1  0.12529000  0.24509000  0.32980000  1.0 -0.5873699753
O  O40  1  0.75491000  0.87471000  0.82980000  1.0 -0.5873699753
O  O41  1  0.65110000  0.93530000  0.65170000  1.0 -0.6115428774
O  O42  1  0.06470000  0.34890000  0.15170000  1.0 -0.6115428774
O  O43  1  0.72939000  0.84961000  0.73018000  1.0 -0.5070777057
O  O44  1  0.15039000  0.27061000  0.23018000  1.0 -0.5070777057
O  O45  1  0.79760000  0.18320000  0.47240000  1.0 -0.110106147
O  O46  1  0.81680000  0.20240000  0.97240000  1.0 -0.110106147
O  O47  1  0.88800000  0.01420000  0.42310000  1.0 -0.1210471901
O  O48  1  0.98580000  0.11200000  0.92310000  1.0 -0.1210471901
