# DDEC6 charges by PACMAN v1.1 (https://github.com/mtap-research/PACMAN-charge/)
data_IBABOF_ASR_pacman
_symmetry_space_group_name_H-M   'P 1'
_cell_length_a   12.66660000
_cell_length_b   17.96970000
_cell_length_c   21.84050000
_cell_angle_alpha   90.00000000
_cell_angle_beta   90.00000000
_cell_angle_gamma   90.00000000
_symmetry_Int_Tables_number   1
_chemical_formula_structural   Co2H20C30S2N5O12
_chemical_formula_sum   'Co8 H80 C120 S8 N20 O48'
_cell_volume   4971.22545162
_cell_formula_units_Z   4
loop_
 _symmetry_equiv_pos_site_id
 _symmetry_equiv_pos_as_xyz
  1  'x, y, z'
loop_
 _atom_site_type_symbol
 _atom_site_label
 _atom_site_symmetry_multiplicity
 _atom_site_fract_x
 _atom_site_fract_y
 _atom_site_fract_z
 _atom_site_occupancy
 _atom_site_charge
Co  Co1  1  0.03428000  0.33730000  0.72967000  1.0 0.9221423901
Co  Co2  1  0.53428000  0.66270000  0.27033000  1.0 0.9221423901
Co  Co3  1  0.53428000  0.16270000  0.22967000  1.0 0.9221423901
Co  Co4  1  0.03428000  0.83730000  0.77033000  1.0 0.9221423901
Co  Co5  1  0.02627000  0.17418000  0.72165000  1.0 0.9344387613
Co  Co6  1  0.52627000  0.82582000  0.27835000  1.0 0.9344387613
Co  Co7  1  0.52627000  0.32582000  0.22165000  1.0 0.9344387613
Co  Co8  1  0.02627000  0.67418000  0.77835000  1.0 0.9344387613
H  H1  1  0.72080000  0.16270000  0.67670000  1.0 0.128707867
H  H2  1  0.22080000  0.83730000  0.32330000  1.0 0.128707867
H  H3  1  0.22080000  0.33730000  0.17670000  1.0 0.128707867
H  H4  1  0.72080000  0.66270000  0.82330000  1.0 0.128707867
H  H5  1  0.54880000  0.15080000  0.64370000  1.0 0.128707867
H  H6  1  0.04880000  0.84920000  0.35630000  1.0 0.128707867
H  H7  1  0.04880000  0.34920000  0.14370000  1.0 0.128707867
H  H8  1  0.54880000  0.65080000  0.85630000  1.0 0.128707867
H  H9  1  0.52640000  0.37370000  0.63160000  1.0 0.128707867
H  H10  1  0.02640000  0.62630000  0.36840000  1.0 0.128707867
H  H11  1  0.02640000  0.12630000  0.13160000  1.0 0.128707867
H  H12  1  0.52640000  0.87370000  0.86840000  1.0 0.128707867
H  H13  1  0.69890000  0.38400000  0.66600000  1.0 0.128707867
H  H14  1  0.19890000  0.61600000  0.33400000  1.0 0.128707867
H  H15  1  0.19890000  0.11600000  0.16600000  1.0 0.128707867
H  H16  1  0.69890000  0.88400000  0.83400000  1.0 0.128707867
H  H17  1  0.44280000  0.14760000  0.51360000  1.0 0.128707867
H  H18  1  0.94280000  0.85240000  0.48640000  1.0 0.128707867
H  H19  1  0.94280000  0.35240000  0.01360000  1.0 0.128707867
H  H20  1  0.44280000  0.64760000  0.98640000  1.0 0.128707867
H  H21  1  0.47180000  0.15620000  0.40850000  1.0 0.1351511962
H  H22  1  0.97180000  0.84380000  0.59150000  1.0 0.1351511962
H  H23  1  0.97180000  0.34380000  0.90850000  1.0 0.1351511962
H  H24  1  0.47180000  0.65620000  0.09150000  1.0 0.1351511962
H  H25  1  0.41950000  0.37650000  0.41560000  1.0 0.128707867
H  H26  1  0.91950000  0.62350000  0.58440000  1.0 0.128707867
H  H27  1  0.91950000  0.12350000  0.91560000  1.0 0.128707867
H  H28  1  0.41950000  0.87650000  0.08440000  1.0 0.128707867
H  H29  1  0.38820000  0.36800000  0.52040000  1.0 0.128707867
H  H30  1  0.88820000  0.63200000  0.47960000  1.0 0.128707867
H  H31  1  0.88820000  0.13200000  0.02040000  1.0 0.128707867
H  H32  1  0.38820000  0.86800000  0.97960000  1.0 0.128707867
H  H33  1  0.38120000  0.34690000  0.77640000  1.0 0.128707867
H  H34  1  0.88120000  0.65310000  0.22360000  1.0 0.128707867
H  H35  1  0.88120000  0.15310000  0.27640000  1.0 0.128707867
H  H36  1  0.38120000  0.84690000  0.72360000  1.0 0.128707867
H  H37  1  0.55780000  0.32840000  0.80320000  1.0 0.1247623421
H  H38  1  0.05780000  0.67160000  0.19680000  1.0 0.1247623421
H  H39  1  0.05780000  0.17160000  0.30320000  1.0 0.1247623421
H  H40  1  0.55780000  0.82840000  0.69680000  1.0 0.1247623421
H  H41  1  0.50940000  0.10910000  0.81090000  1.0 0.128707867
H  H42  1  0.00940000  0.89090000  0.18910000  1.0 0.128707867
H  H43  1  0.00940000  0.39090000  0.31090000  1.0 0.128707867
H  H44  1  0.50940000  0.60910000  0.68910000  1.0 0.128707867
H  H45  1  0.33580000  0.12660000  0.77980000  1.0 0.128707867
H  H46  1  0.83580000  0.87340000  0.22020000  1.0 0.128707867
H  H47  1  0.83580000  0.37340000  0.27980000  1.0 0.128707867
H  H48  1  0.33580000  0.62660000  0.72020000  1.0 0.128707867
H  H49  1  0.68620000  0.32540000  0.92590000  1.0 0.1247623421
H  H50  1  0.18620000  0.67460000  0.07410000  1.0 0.128707867
H  H51  1  0.18620000  0.17460000  0.42590000  1.0 0.128707867
H  H52  1  0.68620000  0.82540000  0.57410000  1.0 0.128707867
H  H53  1  0.64970000  0.33630000  0.02970000  1.0 0.128707867
H  H54  1  0.14970000  0.66370000  0.97030000  1.0 0.128707867
H  H55  1  0.14970000  0.16370000  0.52970000  1.0 0.128707867
H  H56  1  0.64970000  0.83630000  0.47030000  1.0 0.128707867
H  H57  1  0.59280000  0.11740000  0.03830000  1.0 0.128707867
H  H58  1  0.09280000  0.88260000  0.96170000  1.0 0.128707867
H  H59  1  0.09280000  0.38260000  0.53830000  1.0 0.128707867
H  H60  1  0.59280000  0.61740000  0.46170000  1.0 0.128707867
H  H61  1  0.62640000  0.10630000  0.93460000  1.0 0.128707867
H  H62  1  0.12640000  0.89370000  0.06540000  1.0 0.128707867
H  H63  1  0.12640000  0.39370000  0.43460000  1.0 0.128707867
H  H64  1  0.62640000  0.60630000  0.56540000  1.0 0.128707867
H  H65  1  0.88600000  0.56200000  0.71900000  1.0 0.3216325479
H  H66  1  0.38600000  0.43800000  0.28100000  1.0 0.3216325479
H  H67  1  0.38600000  0.93800000  0.21900000  1.0 0.3216325479
H  H68  1  0.88600000  0.06200000  0.78100000  1.0 0.3216325479
H  H69  1  0.89600000  0.47400000  0.71100000  1.0 0.3216325479
H  H70  1  0.39600000  0.52600000  0.28900000  1.0 0.3216325479
H  H71  1  0.39600000  0.02600000  0.21100000  1.0 0.3216325479
H  H72  1  0.89600000  0.97400000  0.78900000  1.0 0.3216325479
H  H73  1  0.26500000  0.54900000  0.86200000  1.0 0.3137132338
H  H74  1  0.76500000  0.45100000  0.13800000  1.0 0.3137132338
H  H75  1  0.76500000  0.95100000  0.36200000  1.0 0.3137132338
H  H76  1  0.26500000  0.04900000  0.63800000  1.0 0.3137132338
H  H77  1  0.19900000  0.61160000  0.85700000  1.0 0.3216325479
H  H78  1  0.69900000  0.38840000  0.14300000  1.0 0.3216325479
H  H79  1  0.69900000  0.88840000  0.35700000  1.0 0.3216325479
H  H80  1  0.19900000  0.11160000  0.64300000  1.0 0.3216325479
C  C1  1  0.84090000  0.28110000  0.69310000  1.0 0.5952577032
C  C2  1  0.34090000  0.71890000  0.30690000  1.0 0.5952577032
C  C3  1  0.34090000  0.21890000  0.19310000  1.0 0.5952577032
C  C4  1  0.84090000  0.78110000  0.80690000  1.0 0.5952577032
C  C5  1  0.72750000  0.27440000  0.67300000  1.0 -0.0003672236
C  C6  1  0.22750000  0.72560000  0.32700000  1.0 -0.0003672236
C  C7  1  0.22750000  0.22560000  0.17300000  1.0 -0.0003672236
C  C8  1  0.72750000  0.77440000  0.82700000  1.0 -0.0003672236
C  C9  1  0.68170000  0.20500000  0.66730000  1.0 -0.0804307492
C  C10  1  0.18170000  0.79500000  0.33270000  1.0 -0.0804307492
C  C11  1  0.18170000  0.29500000  0.16730000  1.0 -0.0804307492
C  C12  1  0.68170000  0.70500000  0.83270000  1.0 -0.0804307492
C  C13  1  0.57910000  0.19760000  0.64790000  1.0 -0.108835696
C  C14  1  0.07910000  0.80240000  0.35210000  1.0 -0.108835696
C  C15  1  0.07910000  0.30240000  0.14790000  1.0 -0.108835696
C  C16  1  0.57910000  0.69760000  0.85210000  1.0 -0.108835696
C  C17  1  0.52160000  0.26070000  0.63480000  1.0 -0.0710683112
C  C18  1  0.02160000  0.73930000  0.36520000  1.0 -0.0710683112
C  C19  1  0.02160000  0.23930000  0.13480000  1.0 -0.0710683112
C  C20  1  0.52160000  0.76070000  0.86520000  1.0 -0.0710683112
C  C21  1  0.56560000  0.33140000  0.64080000  1.0 -0.108835696
C  C22  1  0.06560000  0.66860000  0.35920000  1.0 -0.108835696
C  C23  1  0.06560000  0.16860000  0.14080000  1.0 -0.108835696
C  C24  1  0.56560000  0.83140000  0.85920000  1.0 -0.108835696
C  C25  1  0.66870000  0.33730000  0.66080000  1.0 -0.0874478333
C  C26  1  0.16870000  0.66270000  0.33920000  1.0 -0.0874478333
C  C27  1  0.16870000  0.16270000  0.16080000  1.0 -0.0874478333
C  C28  1  0.66870000  0.83730000  0.83920000  1.0 -0.0874478333
C  C29  1  0.41150000  0.25720000  0.52510000  1.0 -0.0710683112
C  C30  1  0.91150000  0.74280000  0.47490000  1.0 -0.0710683112
C  C31  1  0.91150000  0.24280000  0.02510000  1.0 -0.0710683112
C  C32  1  0.41150000  0.75720000  0.97490000  1.0 -0.0710683112
C  C33  1  0.43760000  0.19310000  0.49360000  1.0 -0.108835696
C  C34  1  0.93760000  0.80690000  0.50640000  1.0 -0.108835696
C  C35  1  0.93760000  0.30690000  0.99360000  1.0 -0.108835696
C  C36  1  0.43760000  0.69310000  0.00640000  1.0 -0.108835696
C  C37  1  0.45580000  0.19870000  0.43100000  1.0 -0.0804307492
C  C38  1  0.95580000  0.80130000  0.56900000  1.0 -0.0804307492
C  C39  1  0.95580000  0.30130000  0.93100000  1.0 -0.0804307492
C  C40  1  0.45580000  0.69870000  0.06900000  1.0 -0.0804307492
C  C41  1  0.45050000  0.26640000  0.40210000  1.0 -0.0067432907
C  C42  1  0.95050000  0.73360000  0.59790000  1.0 -0.0067432907
C  C43  1  0.95050000  0.23360000  0.90210000  1.0 -0.0067432907
C  C44  1  0.45050000  0.76640000  0.09790000  1.0 -0.0067432907
C  C45  1  0.42410000  0.33070000  0.43540000  1.0 -0.0874478333
C  C46  1  0.92410000  0.66930000  0.56460000  1.0 -0.0874478333
C  C47  1  0.92410000  0.16930000  0.93540000  1.0 -0.0874478333
C  C48  1  0.42410000  0.83070000  0.06460000  1.0 -0.0874478333
C  C49  1  0.40500000  0.32580000  0.49770000  1.0 -0.108835696
C  C50  1  0.90500000  0.67420000  0.50230000  1.0 -0.108835696
C  C51  1  0.90500000  0.17420000  0.99770000  1.0 -0.108835696
C  C52  1  0.40500000  0.82580000  0.00230000  1.0 -0.108835696
C  C53  1  0.47600000  0.27250000  0.33540000  1.0 0.5913332141
C  C54  1  0.97600000  0.72750000  0.66460000  1.0 0.5913332141
C  C55  1  0.97600000  0.22750000  0.83540000  1.0 0.5913332141
C  C56  1  0.47600000  0.77250000  0.16460000  1.0 0.5913332141
C  C57  1  0.22730000  0.25000000  0.75730000  1.0 0.5913332141
C  C58  1  0.72730000  0.75000000  0.24270000  1.0 0.5913332141
C  C59  1  0.72730000  0.25000000  0.25730000  1.0 0.5913332141
C  C60  1  0.22730000  0.75000000  0.74270000  1.0 0.5913332141
C  C61  1  0.34150000  0.23850000  0.77560000  1.0 0.0016717402
C  C62  1  0.84150000  0.76150000  0.22440000  1.0 0.0016717402
C  C63  1  0.84150000  0.26150000  0.27560000  1.0 0.0016717402
C  C64  1  0.34150000  0.73850000  0.72440000  1.0 0.0016717402
C  C65  1  0.40690000  0.29900000  0.78280000  1.0 -0.0804307492
C  C66  1  0.90690000  0.70100000  0.21720000  1.0 -0.0804307492
C  C67  1  0.90690000  0.20100000  0.28280000  1.0 -0.0804307492
C  C68  1  0.40690000  0.79900000  0.71720000  1.0 -0.0804307492
C  C69  1  0.51220000  0.28800000  0.79990000  1.0 -0.099601579
C  C70  1  0.01220000  0.71200000  0.20010000  1.0 -0.099601579
C  C71  1  0.01220000  0.21200000  0.29990000  1.0 -0.099601579
C  C72  1  0.51220000  0.78800000  0.70010000  1.0 -0.099601579
C  C73  1  0.54720000  0.21860000  0.81150000  1.0 -0.0710683112
C  C74  1  0.04720000  0.78140000  0.18850000  1.0 -0.0710683112
C  C75  1  0.04720000  0.28140000  0.31150000  1.0 -0.0710683112
C  C76  1  0.54720000  0.71860000  0.68850000  1.0 -0.0710683112
C  C77  1  0.48340000  0.15680000  0.80390000  1.0 -0.108835696
C  C78  1  0.98340000  0.84320000  0.19610000  1.0 -0.108835696
C  C79  1  0.98340000  0.34320000  0.30390000  1.0 -0.108835696
C  C80  1  0.48340000  0.65680000  0.69610000  1.0 -0.108835696
C  C81  1  0.37980000  0.16740000  0.78550000  1.0 -0.0804307492
C  C82  1  0.87980000  0.83260000  0.21450000  1.0 -0.0804307492
C  C83  1  0.87980000  0.33260000  0.28550000  1.0 -0.0804307492
C  C84  1  0.37980000  0.66740000  0.71450000  1.0 -0.0804307492
C  C85  1  0.65820000  0.21510000  0.92030000  1.0 -0.0804307492
C  C86  1  0.15820000  0.78490000  0.07970000  1.0 -0.0804307492
C  C87  1  0.15820000  0.28490000  0.42030000  1.0 -0.0804307492
C  C88  1  0.65820000  0.71510000  0.57970000  1.0 -0.0804307492
C  C89  1  0.66640000  0.28380000  0.94840000  1.0 -0.099601579
C  C90  1  0.16640000  0.71620000  0.05160000  1.0 -0.099601579
C  C91  1  0.16640000  0.21620000  0.44840000  1.0 -0.099601579
C  C92  1  0.66640000  0.78380000  0.55160000  1.0 -0.099601579
C  C93  1  0.64500000  0.29010000  0.01050000  1.0 -0.0874478333
C  C94  1  0.14500000  0.70990000  0.98950000  1.0 -0.0874478333
C  C95  1  0.14500000  0.20990000  0.51050000  1.0 -0.0874478333
C  C96  1  0.64500000  0.79010000  0.48950000  1.0 -0.0874478333
C  C97  1  0.61660000  0.22770000  0.04410000  1.0 0.0016717402
C  C98  1  0.11660000  0.77230000  0.95590000  1.0 0.0016717402
C  C99  1  0.11660000  0.27230000  0.54410000  1.0 0.0016717402
C  C100  1  0.61660000  0.72770000  0.45590000  1.0 0.0016717402
C  C101  1  0.61070000  0.15940000  0.01560000  1.0 -0.0804307492
C  C102  1  0.11070000  0.84060000  0.98440000  1.0 -0.0804307492
C  C103  1  0.11070000  0.34060000  0.51560000  1.0 -0.0804307492
C  C104  1  0.61070000  0.65940000  0.48440000  1.0 -0.0804307492
C  C105  1  0.63100000  0.15250000  0.95370000  1.0 -0.108835696
C  C106  1  0.13100000  0.84750000  0.04630000  1.0 -0.108835696
C  C107  1  0.13100000  0.34750000  0.45370000  1.0 -0.108835696
C  C108  1  0.63100000  0.65250000  0.54630000  1.0 -0.108835696
C  C109  1  0.58890000  0.23450000  0.11140000  1.0 0.5913332141
C  C110  1  0.08890000  0.76550000  0.88860000  1.0 0.5913332141
C  C111  1  0.08890000  0.26550000  0.61140000  1.0 0.5913332141
C  C112  1  0.58890000  0.73450000  0.38860000  1.0 0.5913332141
C  C113  1  0.99790000  0.50580000  0.75920000  1.0 0.5053604133
C  C114  1  0.49790000  0.49420000  0.24080000  1.0 0.5053604133
C  C115  1  0.49790000  0.99420000  0.25920000  1.0 0.5053604133
C  C116  1  0.99790000  0.00580000  0.74080000  1.0 0.5053604133
C  C117  1  0.13000000  0.53060000  0.81620000  1.0 0.4970713295
C  C118  1  0.63000000  0.46940000  0.18380000  1.0 0.4970713295
C  C119  1  0.63000000  0.96940000  0.31620000  1.0 0.4970713295
C  C120  1  0.13000000  0.03060000  0.68380000  1.0 0.4970713295
S  S1  1  0.39188000  0.25065000  0.60570000  1.0 0.9344387613
S  S2  1  0.89188000  0.74935000  0.39430000  1.0 0.9344387613
S  S3  1  0.89188000  0.24935000  0.10570000  1.0 0.9344387613
S  S4  1  0.39188000  0.75065000  0.89430000  1.0 0.9344387613
S  S5  1  0.67729000  0.20725000  0.84057000  1.0 0.948522333
S  S6  1  0.17729000  0.79275000  0.15943000  1.0 0.948522333
S  S7  1  0.17729000  0.29275000  0.34057000  1.0 0.948522333
S  S8  1  0.67729000  0.70725000  0.65943000  1.0 0.948522333
N  N1  1  0.05260000  0.44300000  0.76030000  1.0 -0.3409066163
N  N2  1  0.55260000  0.55700000  0.23970000  1.0 -0.3409066163
N  N3  1  0.55260000  0.05700000  0.26030000  1.0 -0.3409066163
N  N4  1  0.05260000  0.94300000  0.73970000  1.0 -0.3409066163
N  N5  1  0.04150000  0.56160000  0.79200000  1.0 -0.5173716657
N  N6  1  0.54150000  0.43840000  0.20800000  1.0 -0.5173716657
N  N7  1  0.54150000  0.93840000  0.29200000  1.0 -0.5173716657
N  N8  1  0.04150000  0.06160000  0.70800000  1.0 -0.5173716657
N  N9  1  0.13760000  0.45980000  0.79950000  1.0 -0.2893381678
N  N10  1  0.63760000  0.54020000  0.20050000  1.0 -0.2893381678
N  N11  1  0.63760000  0.04020000  0.29950000  1.0 -0.2893381678
N  N12  1  0.13760000  0.95980000  0.70050000  1.0 -0.2893381678
N  N13  1  0.90270000  0.51300000  0.73110000  1.0 -0.6069968306
N  N14  1  0.40270000  0.48700000  0.26890000  1.0 -0.6069968306
N  N15  1  0.40270000  0.98700000  0.23110000  1.0 -0.6069968306
N  N16  1  0.90270000  0.01300000  0.76890000  1.0 -0.6069968306
N  N17  1  0.19800000  0.56450000  0.85290000  1.0 -0.5694675707
N  N18  1  0.69800000  0.43550000  0.14710000  1.0 -0.5694675707
N  N19  1  0.69800000  0.93550000  0.35290000  1.0 -0.5694675707
N  N20  1  0.19800000  0.06450000  0.64710000  1.0 -0.5694675707
O  O1  1  0.50090000  0.21340000  0.30910000  1.0 -0.5398082845
O  O2  1  0.00090000  0.78660000  0.69090000  1.0 -0.5398082845
O  O3  1  0.00090000  0.28660000  0.80910000  1.0 -0.5398082845
O  O4  1  0.50090000  0.71340000  0.19090000  1.0 -0.5398082845
O  O5  1  0.57200000  0.17500000  0.14040000  1.0 -0.533589419
O  O6  1  0.07200000  0.82500000  0.85960000  1.0 -0.533589419
O  O7  1  0.07200000  0.32500000  0.64040000  1.0 -0.533589419
O  O8  1  0.57200000  0.67500000  0.35960000  1.0 -0.533589419
O  O9  1  0.87790000  0.34450000  0.70410000  1.0 -0.5398082845
O  O10  1  0.37790000  0.65550000  0.29590000  1.0 -0.5398082845
O  O11  1  0.37790000  0.15550000  0.20410000  1.0 -0.5398082845
O  O12  1  0.87790000  0.84450000  0.79590000  1.0 -0.5398082845
O  O13  1  0.19470000  0.31580000  0.75240000  1.0 -0.5102407225
O  O14  1  0.69470000  0.68420000  0.24760000  1.0 -0.5102407225
O  O15  1  0.69470000  0.18420000  0.25240000  1.0 -0.5102407225
O  O16  1  0.19470000  0.81580000  0.74760000  1.0 -0.5102407225
O  O17  1  0.89220000  0.22090000  0.69480000  1.0 -0.5694675707
O  O18  1  0.39220000  0.77910000  0.30520000  1.0 -0.5694675707
O  O19  1  0.39220000  0.27910000  0.19480000  1.0 -0.5694675707
O  O20  1  0.89220000  0.72090000  0.80520000  1.0 -0.5694675707
O  O21  1  0.17430000  0.19160000  0.74920000  1.0 -0.5577034318
O  O22  1  0.67430000  0.80840000  0.25080000  1.0 -0.5577034318
O  O23  1  0.67430000  0.30840000  0.24920000  1.0 -0.5577034318
O  O24  1  0.17430000  0.69160000  0.75080000  1.0 -0.5577034318
O  O25  1  0.47340000  0.33590000  0.31000000  1.0 -0.5398082845
O  O26  1  0.97340000  0.66410000  0.69000000  1.0 -0.5398082845
O  O27  1  0.97340000  0.16410000  0.81000000  1.0 -0.5398082845
O  O28  1  0.47340000  0.83590000  0.19000000  1.0 -0.5398082845
O  O29  1  0.58300000  0.29820000  0.13310000  1.0 -0.5398082845
O  O30  1  0.08300000  0.70180000  0.86690000  1.0 -0.5398082845
O  O31  1  0.08300000  0.20180000  0.63310000  1.0 -0.5398082845
O  O32  1  0.58300000  0.79820000  0.36690000  1.0 -0.5398082845
O  O33  1  0.35560000  0.17730000  0.62020000  1.0 -0.5173716657
O  O34  1  0.85560000  0.82270000  0.37980000  1.0 -0.5173716657
O  O35  1  0.85560000  0.32270000  0.12020000  1.0 -0.5173716657
O  O36  1  0.35560000  0.67730000  0.87980000  1.0 -0.5173716657
O  O37  1  0.33110000  0.31330000  0.62490000  1.0 -0.4773173444
O  O38  1  0.83110000  0.68670000  0.37510000  1.0 -0.4773173444
O  O39  1  0.83110000  0.18670000  0.12490000  1.0 -0.4773173444
O  O40  1  0.33110000  0.81330000  0.87510000  1.0 -0.4773173444
O  O41  1  0.71100000  0.13180000  0.82710000  1.0 -0.5102407225
O  O42  1  0.21100000  0.86820000  0.17290000  1.0 -0.5102407225
O  O43  1  0.21100000  0.36820000  0.32710000  1.0 -0.5102407225
O  O44  1  0.71100000  0.63180000  0.67290000  1.0 -0.5102407225
O  O45  1  0.74060000  0.26850000  0.82060000  1.0 -0.4773173444
O  O46  1  0.24060000  0.73150000  0.17940000  1.0 -0.4773173444
O  O47  1  0.24060000  0.23150000  0.32060000  1.0 -0.4773173444
O  O48  1  0.74060000  0.76850000  0.67940000  1.0 -0.4773173444
