# DDEC6 charges by PACMAN v1.1 (https://github.com/mtap-research/PACMAN-charge/)
data_IBACAS_ASR_pacman
_symmetry_space_group_name_H-M   'P 1'
_cell_length_a   12.70700000
_cell_length_b   18.01560000
_cell_length_c   21.75980000
_cell_angle_alpha   90.00000000
_cell_angle_beta   90.00000000
_cell_angle_gamma   90.00000000
_symmetry_Int_Tables_number   1
_chemical_formula_structural   Co2H20C30S2N5O12
_chemical_formula_sum   'Co8 H80 C120 S8 N20 O48'
_cell_volume   4981.34544255
_cell_formula_units_Z   4
loop_
 _symmetry_equiv_pos_site_id
 _symmetry_equiv_pos_as_xyz
  1  'x, y, z'
loop_
 _atom_site_type_symbol
 _atom_site_label
 _atom_site_symmetry_multiplicity
 _atom_site_fract_x
 _atom_site_fract_y
 _atom_site_fract_z
 _atom_site_occupancy
 _atom_site_charge
Co  Co1  1  0.03861000  0.33485000  0.73629000  1.0 0.9323780789
Co  Co2  1  0.53861000  0.66515000  0.26371000  1.0 0.9323780789
Co  Co3  1  0.53861000  0.16515000  0.23629000  1.0 0.9323780789
Co  Co4  1  0.03861000  0.83485000  0.76371000  1.0 0.9323780789
Co  Co5  1  0.03151000  0.17260000  0.72688000  1.0 0.9417132019
Co  Co6  1  0.53151000  0.82740000  0.27312000  1.0 0.9417132019
Co  Co7  1  0.53151000  0.32740000  0.22688000  1.0 0.9417132019
Co  Co8  1  0.03151000  0.67260000  0.77312000  1.0 0.9417132019
H  H1  1  0.88380000  0.46980000  0.71210000  1.0 0.327386058
H  H2  1  0.38380000  0.53020000  0.28790000  1.0 0.327386058
H  H3  1  0.38380000  0.03020000  0.21210000  1.0 0.327386058
H  H4  1  0.88380000  0.96980000  0.78790000  1.0 0.327386058
H  H5  1  0.87800000  0.55040000  0.72680000  1.0 0.327386058
H  H6  1  0.37800000  0.44960000  0.27320000  1.0 0.327386058
H  H7  1  0.37800000  0.94960000  0.22680000  1.0 0.327386058
H  H8  1  0.87800000  0.05040000  0.77320000  1.0 0.327386058
H  H9  1  0.25110000  0.54300000  0.86980000  1.0 0.327386058
H  H10  1  0.75110000  0.45700000  0.13020000  1.0 0.327386058
H  H11  1  0.75110000  0.95700000  0.36980000  1.0 0.327386058
H  H12  1  0.25110000  0.04300000  0.63020000  1.0 0.327386058
H  H13  1  0.19230000  0.61350000  0.85990000  1.0 0.327386058
H  H14  1  0.69230000  0.38650000  0.14010000  1.0 0.327386058
H  H15  1  0.69230000  0.88650000  0.35990000  1.0 0.327386058
H  H16  1  0.19230000  0.11350000  0.64010000  1.0 0.327386058
H  H17  1  0.73520000  0.16160000  0.66420000  1.0 0.1365632965
H  H18  1  0.23520000  0.83840000  0.33580000  1.0 0.1365632965
H  H19  1  0.23520000  0.33840000  0.16420000  1.0 0.1365632965
H  H20  1  0.73520000  0.66160000  0.83580000  1.0 0.1365632965
H  H21  1  0.69650000  0.37720000  0.68430000  1.0 0.13014054
H  H22  1  0.19650000  0.62280000  0.31570000  1.0 0.13014054
H  H23  1  0.19650000  0.12280000  0.18430000  1.0 0.13014054
H  H24  1  0.69650000  0.87720000  0.81570000  1.0 0.13014054
H  H25  1  0.38370000  0.34280000  0.79660000  1.0 0.13014054
H  H26  1  0.88370000  0.65720000  0.20340000  1.0 0.13014054
H  H27  1  0.88370000  0.15720000  0.29660000  1.0 0.13014054
H  H28  1  0.38370000  0.84280000  0.70340000  1.0 0.13014054
H  H29  1  0.34570000  0.12610000  0.77010000  1.0 0.13014054
H  H30  1  0.84570000  0.87390000  0.22990000  1.0 0.13014054
H  H31  1  0.84570000  0.37390000  0.27010000  1.0 0.13014054
H  H32  1  0.34570000  0.62610000  0.72990000  1.0 0.13014054
H  H33  1  0.56310000  0.14960000  0.63640000  1.0 0.13014054
H  H34  1  0.06310000  0.85040000  0.36360000  1.0 0.13014054
H  H35  1  0.06310000  0.35040000  0.13640000  1.0 0.13014054
H  H36  1  0.56310000  0.64960000  0.86360000  1.0 0.13014054
H  H37  1  0.52270000  0.36780000  0.65470000  1.0 0.13014054
H  H38  1  0.02270000  0.63220000  0.34530000  1.0 0.13014054
H  H39  1  0.02270000  0.13220000  0.15470000  1.0 0.13014054
H  H40  1  0.52270000  0.86780000  0.84530000  1.0 0.13014054
H  H41  1  0.55180000  0.32460000  0.82970000  1.0 0.1241883702
H  H42  1  0.05180000  0.67540000  0.17030000  1.0 0.1241883702
H  H43  1  0.05180000  0.17540000  0.32970000  1.0 0.1241883702
H  H44  1  0.55180000  0.82460000  0.67030000  1.0 0.1241883702
H  H45  1  0.51810000  0.10850000  0.80220000  1.0 0.13014054
H  H46  1  0.01810000  0.89150000  0.19780000  1.0 0.13014054
H  H47  1  0.01810000  0.39150000  0.30220000  1.0 0.13014054
H  H48  1  0.51810000  0.60850000  0.69780000  1.0 0.13014054
H  H49  1  0.44130000  0.14800000  0.51720000  1.0 0.1241883702
H  H50  1  0.94130000  0.85200000  0.48280000  1.0 0.1241883702
H  H51  1  0.94130000  0.35200000  0.01720000  1.0 0.1241883702
H  H52  1  0.44130000  0.64800000  0.98280000  1.0 0.1241883702
H  H53  1  0.39970000  0.36860000  0.52860000  1.0 0.1241883702
H  H54  1  0.89970000  0.63140000  0.47140000  1.0 0.1241883702
H  H55  1  0.89970000  0.13140000  0.02860000  1.0 0.1241883702
H  H56  1  0.39970000  0.86860000  0.97140000  1.0 0.1241883702
H  H57  1  0.69260000  0.31860000  0.93250000  1.0 0.13014054
H  H58  1  0.19260000  0.68140000  0.06750000  1.0 0.13014054
H  H59  1  0.19260000  0.18140000  0.43250000  1.0 0.13014054
H  H60  1  0.69260000  0.81860000  0.56750000  1.0 0.13014054
H  H61  1  0.62990000  0.10320000  0.94180000  1.0 0.13014054
H  H62  1  0.12990000  0.89680000  0.05820000  1.0 0.13014054
H  H63  1  0.12990000  0.39680000  0.44180000  1.0 0.13014054
H  H64  1  0.62990000  0.60320000  0.55820000  1.0 0.13014054
H  H65  1  0.47210000  0.15960000  0.41040000  1.0 0.13014054
H  H66  1  0.97210000  0.84040000  0.58960000  1.0 0.13014054
H  H67  1  0.97210000  0.34040000  0.91040000  1.0 0.13014054
H  H68  1  0.47210000  0.65960000  0.08960000  1.0 0.13014054
H  H69  1  0.42580000  0.37970000  0.42380000  1.0 0.13014054
H  H70  1  0.92580000  0.62030000  0.57620000  1.0 0.13014054
H  H71  1  0.92580000  0.12030000  0.92380000  1.0 0.13014054
H  H72  1  0.42580000  0.87970000  0.07620000  1.0 0.13014054
H  H73  1  0.66060000  0.32950000  0.03430000  1.0 0.13014054
H  H74  1  0.16060000  0.67050000  0.96570000  1.0 0.13014054
H  H75  1  0.16060000  0.17050000  0.53430000  1.0 0.13014054
H  H76  1  0.66060000  0.82950000  0.46570000  1.0 0.13014054
H  H77  1  0.59660000  0.11360000  0.04710000  1.0 0.13014054
H  H78  1  0.09660000  0.88640000  0.95290000  1.0 0.13014054
H  H79  1  0.09660000  0.38640000  0.54710000  1.0 0.13014054
H  H80  1  0.59660000  0.61360000  0.45290000  1.0 0.13014054
C  C1  1  0.00170000  0.50320000  0.76140000  1.0 0.4989576219
C  C2  1  0.50170000  0.49680000  0.23860000  1.0 0.4989576219
C  C3  1  0.50170000  0.99680000  0.26140000  1.0 0.4989576219
C  C4  1  0.00170000  0.00320000  0.73860000  1.0 0.4989576219
C  C5  1  0.84440000  0.27640000  0.69880000  1.0 0.604323025
C  C6  1  0.34440000  0.72360000  0.30120000  1.0 0.604323025
C  C7  1  0.34440000  0.22360000  0.19880000  1.0 0.604323025
C  C8  1  0.84440000  0.77640000  0.80120000  1.0 0.604323025
C  C9  1  0.23290000  0.24970000  0.76310000  1.0 0.5910947526
C  C10  1  0.73290000  0.75030000  0.23690000  1.0 0.5910947526
C  C11  1  0.73290000  0.25030000  0.26310000  1.0 0.5910947526
C  C12  1  0.23290000  0.74970000  0.73690000  1.0 0.5910947526
C  C13  1  0.13100000  0.53100000  0.81770000  1.0 0.4989576219
C  C14  1  0.63100000  0.46900000  0.18230000  1.0 0.4989576219
C  C15  1  0.63100000  0.96900000  0.31770000  1.0 0.4989576219
C  C16  1  0.13100000  0.03100000  0.68230000  1.0 0.4989576219
C  C17  1  0.73090000  0.26940000  0.67950000  1.0 -0.0034671573
C  C18  1  0.23090000  0.73060000  0.32050000  1.0 -0.0034671573
C  C19  1  0.23090000  0.23060000  0.17950000  1.0 -0.0034671573
C  C20  1  0.73090000  0.76940000  0.82050000  1.0 -0.0034671573
C  C21  1  0.34510000  0.23550000  0.78230000  1.0 -0.0034671573
C  C22  1  0.84510000  0.76450000  0.21770000  1.0 -0.0034671573
C  C23  1  0.84510000  0.26450000  0.28230000  1.0 -0.0034671573
C  C24  1  0.34510000  0.73550000  0.71770000  1.0 -0.0034671573
C  C25  1  0.69200000  0.20320000  0.66340000  1.0 -0.0798650563
C  C26  1  0.19200000  0.79680000  0.33660000  1.0 -0.0798650563
C  C27  1  0.19200000  0.29680000  0.16340000  1.0 -0.0798650563
C  C28  1  0.69200000  0.70320000  0.83660000  1.0 -0.0798650563
C  C29  1  0.66850000  0.33090000  0.67490000  1.0 -0.0875408565
C  C30  1  0.16850000  0.66910000  0.32510000  1.0 -0.0875408565
C  C31  1  0.16850000  0.16910000  0.17490000  1.0 -0.0875408565
C  C32  1  0.66850000  0.83090000  0.82510000  1.0 -0.0875408565
C  C33  1  0.41020000  0.29480000  0.79870000  1.0 -0.0798650563
C  C34  1  0.91020000  0.70520000  0.20130000  1.0 -0.0798650563
C  C35  1  0.91020000  0.20520000  0.29870000  1.0 -0.0798650563
C  C36  1  0.41020000  0.79480000  0.70130000  1.0 -0.0798650563
C  C37  1  0.38620000  0.16640000  0.78240000  1.0 -0.0798650563
C  C38  1  0.88620000  0.83360000  0.21760000  1.0 -0.0798650563
C  C39  1  0.88620000  0.33360000  0.28240000  1.0 -0.0798650563
C  C40  1  0.38620000  0.66640000  0.71760000  1.0 -0.0798650563
C  C41  1  0.58960000  0.19630000  0.64580000  1.0 -0.109298453
C  C42  1  0.08960000  0.80370000  0.35420000  1.0 -0.109298453
C  C43  1  0.08960000  0.30370000  0.14580000  1.0 -0.109298453
C  C44  1  0.58960000  0.69630000  0.85420000  1.0 -0.109298453
C  C45  1  0.56500000  0.32580000  0.65680000  1.0 -0.109298453
C  C46  1  0.06500000  0.67420000  0.34320000  1.0 -0.109298453
C  C47  1  0.06500000  0.17420000  0.15680000  1.0 -0.109298453
C  C48  1  0.56500000  0.82580000  0.84320000  1.0 -0.109298453
C  C49  1  0.51060000  0.28460000  0.81740000  1.0 -0.109298453
C  C50  1  0.01060000  0.71540000  0.18260000  1.0 -0.109298453
C  C51  1  0.01060000  0.21540000  0.31740000  1.0 -0.109298453
C  C52  1  0.51060000  0.78460000  0.68260000  1.0 -0.109298453
C  C53  1  0.49020000  0.15620000  0.80120000  1.0 -0.109298453
C  C54  1  0.99020000  0.84380000  0.19880000  1.0 -0.109298453
C  C55  1  0.99020000  0.34380000  0.30120000  1.0 -0.109298453
C  C56  1  0.49020000  0.65620000  0.69880000  1.0 -0.109298453
C  C57  1  0.52530000  0.25640000  0.64160000  1.0 -0.0798650563
C  C58  1  0.02530000  0.74360000  0.35840000  1.0 -0.0798650563
C  C59  1  0.02530000  0.24360000  0.14160000  1.0 -0.0798650563
C  C60  1  0.52530000  0.75640000  0.85840000  1.0 -0.0798650563
C  C61  1  0.55040000  0.21330000  0.81780000  1.0 -0.0694990362
C  C62  1  0.05040000  0.78670000  0.18220000  1.0 -0.0694990362
C  C63  1  0.05040000  0.28670000  0.31780000  1.0 -0.0694990362
C  C64  1  0.55040000  0.71330000  0.68220000  1.0 -0.0694990362
C  C65  1  0.41560000  0.25810000  0.53190000  1.0 -0.0798650563
C  C66  1  0.91560000  0.74190000  0.46810000  1.0 -0.0798650563
C  C67  1  0.91560000  0.24190000  0.03190000  1.0 -0.0798650563
C  C68  1  0.41560000  0.75810000  0.96810000  1.0 -0.0798650563
C  C69  1  0.66240000  0.20780000  0.92640000  1.0 -0.0694990362
C  C70  1  0.16240000  0.79220000  0.07360000  1.0 -0.0694990362
C  C71  1  0.16240000  0.29220000  0.42640000  1.0 -0.0694990362
C  C72  1  0.66240000  0.70780000  0.57360000  1.0 -0.0694990362
C  C73  1  0.43860000  0.19410000  0.49820000  1.0 -0.1158467707
C  C74  1  0.93860000  0.80590000  0.50180000  1.0 -0.1158467707
C  C75  1  0.93860000  0.30590000  0.99820000  1.0 -0.1158467707
C  C76  1  0.43860000  0.69410000  0.00180000  1.0 -0.1158467707
C  C77  1  0.41310000  0.32660000  0.50490000  1.0 -0.109298453
C  C78  1  0.91310000  0.67340000  0.49510000  1.0 -0.109298453
C  C79  1  0.91310000  0.17340000  0.00490000  1.0 -0.109298453
C  C80  1  0.41310000  0.82660000  0.99510000  1.0 -0.109298453
C  C81  1  0.67260000  0.27710000  0.95520000  1.0 -0.1044344799
C  C82  1  0.17260000  0.72290000  0.04480000  1.0 -0.1044344799
C  C83  1  0.17260000  0.22290000  0.45520000  1.0 -0.1044344799
C  C84  1  0.67260000  0.77710000  0.54480000  1.0 -0.1044344799
C  C85  1  0.63540000  0.14950000  0.96060000  1.0 -0.109298453
C  C86  1  0.13540000  0.85050000  0.03940000  1.0 -0.109298453
C  C87  1  0.13540000  0.35050000  0.46060000  1.0 -0.109298453
C  C88  1  0.63540000  0.64950000  0.53940000  1.0 -0.109298453
C  C89  1  0.45770000  0.20110000  0.43440000  1.0 -0.0875408565
C  C90  1  0.95770000  0.79890000  0.56560000  1.0 -0.0875408565
C  C91  1  0.95770000  0.29890000  0.93440000  1.0 -0.0875408565
C  C92  1  0.45770000  0.70110000  0.06560000  1.0 -0.0875408565
C  C93  1  0.43040000  0.33350000  0.44270000  1.0 -0.0875408565
C  C94  1  0.93040000  0.66650000  0.55730000  1.0 -0.0875408565
C  C95  1  0.93040000  0.16650000  0.94270000  1.0 -0.0875408565
C  C96  1  0.43040000  0.83350000  0.05730000  1.0 -0.0875408565
C  C97  1  0.65310000  0.28330000  0.01590000  1.0 -0.0875408565
C  C98  1  0.15310000  0.71670000  0.98410000  1.0 -0.0875408565
C  C99  1  0.15310000  0.21670000  0.51590000  1.0 -0.0875408565
C  C100  1  0.65310000  0.78330000  0.48410000  1.0 -0.0875408565
C  C101  1  0.61500000  0.15500000  0.02400000  1.0 -0.0798650563
C  C102  1  0.11500000  0.84500000  0.97600000  1.0 -0.0798650563
C  C103  1  0.11500000  0.34500000  0.52400000  1.0 -0.0798650563
C  C104  1  0.61500000  0.65500000  0.47600000  1.0 -0.0798650563
C  C105  1  0.45460000  0.27130000  0.40850000  1.0 0.0019287418
C  C106  1  0.95460000  0.72870000  0.59150000  1.0 0.0019287418
C  C107  1  0.95460000  0.22870000  0.90850000  1.0 0.0019287418
C  C108  1  0.45460000  0.77130000  0.09150000  1.0 0.0019287418
C  C109  1  0.62330000  0.22530000  0.05110000  1.0 -0.0079834308
C  C110  1  0.12330000  0.77470000  0.94890000  1.0 -0.0079834308
C  C111  1  0.12330000  0.27470000  0.55110000  1.0 -0.0079834308
C  C112  1  0.62330000  0.72530000  0.44890000  1.0 -0.0079834308
C  C113  1  0.48020000  0.27870000  0.34130000  1.0 0.5910947526
C  C114  1  0.98020000  0.72130000  0.65870000  1.0 0.5910947526
C  C115  1  0.98020000  0.22130000  0.84130000  1.0 0.5910947526
C  C116  1  0.48020000  0.77870000  0.15870000  1.0 0.5910947526
C  C117  1  0.59610000  0.23390000  0.11790000  1.0 0.5910947526
C  C118  1  0.09610000  0.76610000  0.88210000  1.0 0.5910947526
C  C119  1  0.09610000  0.26610000  0.61790000  1.0 0.5910947526
C  C120  1  0.59610000  0.73390000  0.38210000  1.0 0.5910947526
S  S1  1  0.39780000  0.24760000  0.61212000  1.0 0.9417132019
S  S2  1  0.89780000  0.75240000  0.38788000  1.0 0.9417132019
S  S3  1  0.89780000  0.25240000  0.11212000  1.0 0.9417132019
S  S4  1  0.39780000  0.74760000  0.88788000  1.0 0.9417132019
S  S5  1  0.68040000  0.19990000  0.84617000  1.0 0.9492102518
S  S6  1  0.18040000  0.80010000  0.15383000  1.0 0.9492102518
S  S7  1  0.18040000  0.30010000  0.34617000  1.0 0.9492102518
S  S8  1  0.68040000  0.69990000  0.65383000  1.0 0.9492102518
N  N1  1  0.05240000  0.44040000  0.76650000  1.0 -0.3388048754
N  N2  1  0.55240000  0.55960000  0.23350000  1.0 -0.3388048754
N  N3  1  0.55240000  0.05960000  0.26650000  1.0 -0.3388048754
N  N4  1  0.05240000  0.94040000  0.73350000  1.0 -0.3388048754
N  N5  1  0.04640000  0.56190000  0.79120000  1.0 -0.5195525394
N  N6  1  0.54640000  0.43810000  0.20880000  1.0 -0.5195525394
N  N7  1  0.54640000  0.93810000  0.29120000  1.0 -0.5195525394
N  N8  1  0.04640000  0.06190000  0.70880000  1.0 -0.5195525394
N  N9  1  0.13740000  0.45840000  0.80540000  1.0 -0.2913732947
N  N10  1  0.63740000  0.54160000  0.19460000  1.0 -0.2913732947
N  N11  1  0.63740000  0.04160000  0.30540000  1.0 -0.2913732947
N  N12  1  0.13740000  0.95840000  0.69460000  1.0 -0.2913732947
N  N13  1  0.90990000  0.50850000  0.72950000  1.0 -0.606031333
N  N14  1  0.40990000  0.49150000  0.27050000  1.0 -0.606031333
N  N15  1  0.40990000  0.99150000  0.22950000  1.0 -0.606031333
N  N16  1  0.90990000  0.00850000  0.77050000  1.0 -0.606031333
N  N17  1  0.19960000  0.56680000  0.85340000  1.0 -0.5813561276
N  N18  1  0.69960000  0.43320000  0.14660000  1.0 -0.5813561276
N  N19  1  0.69960000  0.93320000  0.35340000  1.0 -0.5813561276
N  N20  1  0.19960000  0.06680000  0.64660000  1.0 -0.5813561276
O  O1  1  0.88330000  0.34030000  0.70970000  1.0 -0.5503087388
O  O2  1  0.38330000  0.65970000  0.29030000  1.0 -0.5503087388
O  O3  1  0.38330000  0.15970000  0.20970000  1.0 -0.5503087388
O  O4  1  0.88330000  0.84030000  0.79030000  1.0 -0.5503087388
O  O5  1  0.19860000  0.31400000  0.76120000  1.0 -0.4941832171
O  O6  1  0.69860000  0.68600000  0.23880000  1.0 -0.4941832171
O  O7  1  0.69860000  0.18600000  0.26120000  1.0 -0.4961165236
O  O8  1  0.19860000  0.81400000  0.73880000  1.0 -0.4961165236
O  O9  1  0.50460000  0.21970000  0.31330000  1.0 -0.5598272355
O  O10  1  0.00460000  0.78030000  0.68670000  1.0 -0.5598272355
O  O11  1  0.00460000  0.28030000  0.81330000  1.0 -0.5598272355
O  O12  1  0.50460000  0.71970000  0.18670000  1.0 -0.5598272355
O  O13  1  0.58150000  0.17520000  0.14830000  1.0 -0.53218994
O  O14  1  0.08150000  0.82480000  0.85170000  1.0 -0.53218994
O  O15  1  0.08150000  0.32480000  0.64830000  1.0 -0.53218994
O  O16  1  0.58150000  0.67520000  0.35170000  1.0 -0.53218994
O  O17  1  0.89600000  0.21720000  0.70090000  1.0 -0.5598272355
O  O18  1  0.39600000  0.78280000  0.29910000  1.0 -0.5598272355
O  O19  1  0.39600000  0.28280000  0.20090000  1.0 -0.5598272355
O  O20  1  0.89600000  0.71720000  0.79910000  1.0 -0.5598272355
O  O21  1  0.18090000  0.19000000  0.75170000  1.0 -0.5727268056
O  O22  1  0.68090000  0.81000000  0.24830000  1.0 -0.5727268056
O  O23  1  0.68090000  0.31000000  0.25170000  1.0 -0.5727268056
O  O24  1  0.18090000  0.69000000  0.74830000  1.0 -0.5727268056
O  O25  1  0.47950000  0.34190000  0.31650000  1.0 -0.53218994
O  O26  1  0.97950000  0.65810000  0.68350000  1.0 -0.53218994
O  O27  1  0.97950000  0.15810000  0.81650000  1.0 -0.53218994
O  O28  1  0.47950000  0.84190000  0.18350000  1.0 -0.53218994
O  O29  1  0.58520000  0.29870000  0.13780000  1.0 -0.5503087388
O  O30  1  0.08520000  0.70130000  0.86220000  1.0 -0.5503087388
O  O31  1  0.08520000  0.20130000  0.63780000  1.0 -0.5503087388
O  O32  1  0.58520000  0.79870000  0.36220000  1.0 -0.5503087388
O  O33  1  0.36240000  0.17280000  0.62370000  1.0 -0.5105075839
O  O34  1  0.86240000  0.82720000  0.37630000  1.0 -0.5195525394
O  O35  1  0.86240000  0.32720000  0.12370000  1.0 -0.5105075839
O  O36  1  0.36240000  0.67280000  0.87630000  1.0 -0.5105075839
O  O37  1  0.33690000  0.30910000  0.63430000  1.0 -0.4802379058
O  O38  1  0.83690000  0.69090000  0.36570000  1.0 -0.4802379058
O  O39  1  0.83690000  0.19090000  0.13430000  1.0 -0.4802379058
O  O40  1  0.33690000  0.80910000  0.86570000  1.0 -0.4802379058
O  O41  1  0.71150000  0.12420000  0.83240000  1.0 -0.5105075839
O  O42  1  0.21150000  0.87580000  0.16760000  1.0 -0.5105075839
O  O43  1  0.21150000  0.37580000  0.33240000  1.0 -0.5105075839
O  O44  1  0.71150000  0.62420000  0.66760000  1.0 -0.5105075839
O  O45  1  0.74490000  0.26020000  0.82610000  1.0 -0.4703225837
O  O46  1  0.24490000  0.73980000  0.17390000  1.0 -0.4703225837
O  O47  1  0.24490000  0.23980000  0.32610000  1.0 -0.4703225837
O  O48  1  0.74490000  0.76020000  0.67390000  1.0 -0.4703225837
