# DDEC6 charges by PACMAN v1.1 (https://github.com/mtap-research/PACMAN-charge/)
data_IBIYUO_ASR_pacman
_symmetry_space_group_name_H-M   'P 1'
_cell_length_a   24.80300000
_cell_length_b   24.80300000
_cell_length_c   28.41200000
_cell_angle_alpha   90.00000000
_cell_angle_beta   90.00000000
_cell_angle_gamma   90.00000000
_symmetry_Int_Tables_number   1
_chemical_formula_structural   Cu4H24WC30S4(IN3)2
_chemical_formula_sum   'Cu64 H384 W16 C480 S64 I32 N96'
_cell_volume   17478.74444131
_cell_formula_units_Z   16
loop_
 _symmetry_equiv_pos_site_id
 _symmetry_equiv_pos_as_xyz
  1  'x, y, z'
loop_
 _atom_site_type_symbol
 _atom_site_label
 _atom_site_symmetry_multiplicity
 _atom_site_fract_x
 _atom_site_fract_y
 _atom_site_fract_z
 _atom_site_occupancy
 _atom_site_charge
Cu  Cu1  1  0.07677000  0.32677000  0.12500000  1.0 0.2664470595
Cu  Cu2  1  0.92323000  0.67323000  0.87500000  1.0 0.2664470595
Cu  Cu3  1  0.42323000  0.67323000  0.62500000  1.0 0.2664470595
Cu  Cu4  1  0.57677000  0.32677000  0.37500000  1.0 0.2664470595
Cu  Cu5  1  0.92323000  0.82677000  0.37500000  1.0 0.2664470595
Cu  Cu6  1  0.07677000  0.17323000  0.62500000  1.0 0.2664470595
Cu  Cu7  1  0.57677000  0.17323000  0.87500000  1.0 0.2664470595
Cu  Cu8  1  0.42323000  0.82677000  0.12500000  1.0 0.2664470595
Cu  Cu9  1  0.42323000  0.32677000  0.87500000  1.0 0.2664470595
Cu  Cu10  1  0.57677000  0.67323000  0.12500000  1.0 0.2664470595
Cu  Cu11  1  0.07677000  0.67323000  0.37500000  1.0 0.2664470595
Cu  Cu12  1  0.92323000  0.32677000  0.62500000  1.0 0.2664470595
Cu  Cu13  1  0.57677000  0.82677000  0.62500000  1.0 0.2664470595
Cu  Cu14  1  0.42323000  0.17323000  0.37500000  1.0 0.2664470595
Cu  Cu15  1  0.92323000  0.17323000  0.12500000  1.0 0.2664470595
Cu  Cu16  1  0.07677000  0.82677000  0.87500000  1.0 0.2664470595
Cu  Cu17  1  0.92322000  0.32678000  0.12500000  1.0 0.2664470595
Cu  Cu18  1  0.07678000  0.67322000  0.87500000  1.0 0.2664470595
Cu  Cu19  1  0.57678000  0.67322000  0.62500000  1.0 0.2664470595
Cu  Cu20  1  0.42322000  0.32678000  0.37500000  1.0 0.2664470595
Cu  Cu21  1  0.92322000  0.67322000  0.37500000  1.0 0.2664470595
Cu  Cu22  1  0.07678000  0.32678000  0.62500000  1.0 0.2664470595
Cu  Cu23  1  0.57678000  0.32678000  0.87500000  1.0 0.2664470595
Cu  Cu24  1  0.42322000  0.67322000  0.12500000  1.0 0.2664470595
Cu  Cu25  1  0.42322000  0.82678000  0.62500000  1.0 0.2664470595
Cu  Cu26  1  0.57678000  0.17322000  0.37500000  1.0 0.2664470595
Cu  Cu27  1  0.07678000  0.17322000  0.12500000  1.0 0.2664470595
Cu  Cu28  1  0.92322000  0.82678000  0.87500000  1.0 0.2664470595
Cu  Cu29  1  0.42322000  0.17322000  0.87500000  1.0 0.2664470595
Cu  Cu30  1  0.57678000  0.82678000  0.12500000  1.0 0.2664470595
Cu  Cu31  1  0.07678000  0.82678000  0.37500000  1.0 0.2664470595
Cu  Cu32  1  0.92322000  0.17322000  0.62500000  1.0 0.2664470595
Cu  Cu33  1  0.42986000  0.16700000  0.11801000  1.0 0.2532637023
Cu  Cu34  1  0.57014000  0.83300000  0.88199000  1.0 0.2532637023
Cu  Cu35  1  0.07014000  0.83300000  0.61801000  1.0 0.2532637023
Cu  Cu36  1  0.92986000  0.16700000  0.38199000  1.0 0.2532637023
Cu  Cu37  1  0.08300000  0.17986000  0.36801000  1.0 0.2532637023
Cu  Cu38  1  0.91700000  0.82014000  0.63199000  1.0 0.2532637023
Cu  Cu39  1  0.41700000  0.82014000  0.86801000  1.0 0.2532637023
Cu  Cu40  1  0.58300000  0.17986000  0.13199000  1.0 0.2532637023
Cu  Cu41  1  0.07014000  0.16700000  0.88199000  1.0 0.2532637023
Cu  Cu42  1  0.92986000  0.83300000  0.11801000  1.0 0.2532637023
Cu  Cu43  1  0.42986000  0.83300000  0.38199000  1.0 0.2532637023
Cu  Cu44  1  0.57014000  0.16700000  0.61801000  1.0 0.2532637023
Cu  Cu45  1  0.41700000  0.17986000  0.63199000  1.0 0.2532637023
Cu  Cu46  1  0.58300000  0.82014000  0.36801000  1.0 0.2532637023
Cu  Cu47  1  0.08300000  0.82014000  0.13199000  1.0 0.2532637023
Cu  Cu48  1  0.91700000  0.17986000  0.86801000  1.0 0.2532637023
Cu  Cu49  1  0.92986000  0.66700000  0.61801000  1.0 0.2532637023
Cu  Cu50  1  0.07014000  0.33300000  0.38199000  1.0 0.2532637023
Cu  Cu51  1  0.57014000  0.33300000  0.11801000  1.0 0.2532637023
Cu  Cu52  1  0.42986000  0.66700000  0.88199000  1.0 0.2532637023
Cu  Cu53  1  0.58300000  0.67986000  0.86801000  1.0 0.2532637023
Cu  Cu54  1  0.41700000  0.32014000  0.13199000  1.0 0.2532637023
Cu  Cu55  1  0.91700000  0.32014000  0.36801000  1.0 0.2532637023
Cu  Cu56  1  0.08300000  0.67986000  0.63199000  1.0 0.2532637023
Cu  Cu57  1  0.57014000  0.66700000  0.38199000  1.0 0.2532637023
Cu  Cu58  1  0.42986000  0.33300000  0.61801000  1.0 0.2532637023
Cu  Cu59  1  0.92986000  0.33300000  0.88199000  1.0 0.2532637023
Cu  Cu60  1  0.07014000  0.66700000  0.11801000  1.0 0.2532637023
Cu  Cu61  1  0.91700000  0.67986000  0.13199000  1.0 0.2532637023
Cu  Cu62  1  0.08300000  0.32014000  0.86801000  1.0 0.2532637023
Cu  Cu63  1  0.58300000  0.32014000  0.63199000  1.0 0.2532637023
Cu  Cu64  1  0.41700000  0.67986000  0.36801000  1.0 0.2532637023
H  H1  1  0.10030000  0.30310000  0.02380000  1.0 0.1101260392
H  H2  1  0.89970000  0.69690000  0.97620000  1.0 0.1101260392
H  H3  1  0.39970000  0.69690000  0.52380000  1.0 0.1101260392
H  H4  1  0.60030000  0.30310000  0.47620000  1.0 0.1101260392
H  H5  1  0.94690000  0.85030000  0.27380000  1.0 0.1101260392
H  H6  1  0.05310000  0.14970000  0.72620000  1.0 0.1101260392
H  H7  1  0.55310000  0.14970000  0.77380000  1.0 0.1101260392
H  H8  1  0.44690000  0.85030000  0.22620000  1.0 0.1101260392
H  H9  1  0.39970000  0.30310000  0.97620000  1.0 0.1101260392
H  H10  1  0.60030000  0.69690000  0.02380000  1.0 0.1101260392
H  H11  1  0.10030000  0.69690000  0.47620000  1.0 0.1101260392
H  H12  1  0.89970000  0.30310000  0.52380000  1.0 0.1101260392
H  H13  1  0.55310000  0.85030000  0.72620000  1.0 0.1101260392
H  H14  1  0.44690000  0.14970000  0.27380000  1.0 0.1101260392
H  H15  1  0.94690000  0.14970000  0.22620000  1.0 0.1101260392
H  H16  1  0.05310000  0.85030000  0.77380000  1.0 0.1101260392
H  H17  1  0.60030000  0.80310000  0.52380000  1.0 0.1101260392
H  H18  1  0.39970000  0.19690000  0.47620000  1.0 0.1101260392
H  H19  1  0.89970000  0.19690000  0.02380000  1.0 0.1101260392
H  H20  1  0.10030000  0.80310000  0.97620000  1.0 0.1101260392
H  H21  1  0.44690000  0.35030000  0.77380000  1.0 0.1101260392
H  H22  1  0.55310000  0.64970000  0.22620000  1.0 0.1101260392
H  H23  1  0.05310000  0.64970000  0.27380000  1.0 0.1101260392
H  H24  1  0.94690000  0.35030000  0.72620000  1.0 0.1101260392
H  H25  1  0.89970000  0.80310000  0.47620000  1.0 0.1101260392
H  H26  1  0.10030000  0.19690000  0.52380000  1.0 0.1101260392
H  H27  1  0.60030000  0.19690000  0.97620000  1.0 0.1101260392
H  H28  1  0.39970000  0.80310000  0.02380000  1.0 0.1101260392
H  H29  1  0.05310000  0.35030000  0.22620000  1.0 0.1101260392
H  H30  1  0.94690000  0.64970000  0.77380000  1.0 0.1101260392
H  H31  1  0.44690000  0.64970000  0.72620000  1.0 0.1101260392
H  H32  1  0.55310000  0.35030000  0.27380000  1.0 0.1101260392
H  H33  1  0.17200000  0.30760000  0.97270000  1.0 0.1402129499
H  H34  1  0.82800000  0.69240000  0.02730000  1.0 0.1402129499
H  H35  1  0.32800000  0.69240000  0.47270000  1.0 0.1402129499
H  H36  1  0.67200000  0.30760000  0.52730000  1.0 0.1402129499
H  H37  1  0.94240000  0.92200000  0.22270000  1.0 0.1402129499
H  H38  1  0.05760000  0.07800000  0.77730000  1.0 0.1402129499
H  H39  1  0.55760000  0.07800000  0.72270000  1.0 0.1402129499
H  H40  1  0.44240000  0.92200000  0.27730000  1.0 0.1402129499
H  H41  1  0.32800000  0.30760000  0.02730000  1.0 0.1402129499
H  H42  1  0.67200000  0.69240000  0.97270000  1.0 0.1402129499
H  H43  1  0.17200000  0.69240000  0.52730000  1.0 0.1402129499
H  H44  1  0.82800000  0.30760000  0.47270000  1.0 0.1402129499
H  H45  1  0.55760000  0.92200000  0.77730000  1.0 0.1402129499
H  H46  1  0.44240000  0.07800000  0.22270000  1.0 0.1402129499
H  H47  1  0.94240000  0.07800000  0.27730000  1.0 0.1402129499
H  H48  1  0.05760000  0.92200000  0.72270000  1.0 0.1402129499
H  H49  1  0.67200000  0.80760000  0.47270000  1.0 0.1402129499
H  H50  1  0.32800000  0.19240000  0.52730000  1.0 0.1402129499
H  H51  1  0.82800000  0.19240000  0.97270000  1.0 0.1402129499
H  H52  1  0.17200000  0.80760000  0.02730000  1.0 0.1402129499
H  H53  1  0.44240000  0.42200000  0.72270000  1.0 0.1402129499
H  H54  1  0.55760000  0.57800000  0.27730000  1.0 0.1402129499
H  H55  1  0.05760000  0.57800000  0.22270000  1.0 0.1402129499
H  H56  1  0.94240000  0.42200000  0.77730000  1.0 0.1402129499
H  H57  1  0.82800000  0.80760000  0.52730000  1.0 0.1402129499
H  H58  1  0.17200000  0.19240000  0.47270000  1.0 0.1402129499
H  H59  1  0.67200000  0.19240000  0.02730000  1.0 0.1402129499
H  H60  1  0.32800000  0.80760000  0.97270000  1.0 0.1402129499
H  H61  1  0.05760000  0.42200000  0.27730000  1.0 0.1402129499
H  H62  1  0.94240000  0.57800000  0.72270000  1.0 0.1402129499
H  H63  1  0.44240000  0.57800000  0.77730000  1.0 0.1402129499
H  H64  1  0.55760000  0.42200000  0.22270000  1.0 0.1402129499
H  H65  1  0.26430000  0.36470000  0.07430000  1.0 0.1402129499
H  H66  1  0.73570000  0.63530000  0.92570000  1.0 0.1402129499
H  H67  1  0.23570000  0.63530000  0.57430000  1.0 0.1402129499
H  H68  1  0.76430000  0.36470000  0.42570000  1.0 0.1402129499
H  H69  1  0.88530000  0.01430000  0.32430000  1.0 0.1402129499
H  H70  1  0.11470000  0.98570000  0.67570000  1.0 0.1402129499
H  H71  1  0.61470000  0.98570000  0.82430000  1.0 0.1402129499
H  H72  1  0.38530000  0.01430000  0.17570000  1.0 0.1402129499
H  H73  1  0.23570000  0.36470000  0.92570000  1.0 0.1402129499
H  H74  1  0.76430000  0.63530000  0.07430000  1.0 0.1402129499
H  H75  1  0.26430000  0.63530000  0.42570000  1.0 0.1402129499
H  H76  1  0.73570000  0.36470000  0.57430000  1.0 0.1402129499
H  H77  1  0.61470000  0.01430000  0.67570000  1.0 0.1402129499
H  H78  1  0.38530000  0.98570000  0.32430000  1.0 0.1402129499
H  H79  1  0.88530000  0.98570000  0.17570000  1.0 0.1402129499
H  H80  1  0.11470000  0.01430000  0.82430000  1.0 0.1402129499
H  H81  1  0.76430000  0.86470000  0.57430000  1.0 0.1402129499
H  H82  1  0.23570000  0.13530000  0.42570000  1.0 0.1402129499
H  H83  1  0.73570000  0.13530000  0.07430000  1.0 0.1402129499
H  H84  1  0.26430000  0.86470000  0.92570000  1.0 0.1402129499
H  H85  1  0.38530000  0.51430000  0.82430000  1.0 0.1402129499
H  H86  1  0.61470000  0.48570000  0.17570000  1.0 0.1402129499
H  H87  1  0.11470000  0.48570000  0.32430000  1.0 0.1402129499
H  H88  1  0.88530000  0.51430000  0.67570000  1.0 0.1402129499
H  H89  1  0.73570000  0.86470000  0.42570000  1.0 0.1402129499
H  H90  1  0.26430000  0.13530000  0.57430000  1.0 0.1402129499
H  H91  1  0.76430000  0.13530000  0.92570000  1.0 0.1402129499
H  H92  1  0.23570000  0.86470000  0.07430000  1.0 0.1402129499
H  H93  1  0.11470000  0.51430000  0.17570000  1.0 0.1402129499
H  H94  1  0.88530000  0.48570000  0.82430000  1.0 0.1402129499
H  H95  1  0.38530000  0.48570000  0.67570000  1.0 0.1402129499
H  H96  1  0.61470000  0.51430000  0.32430000  1.0 0.1402129499
H  H97  1  0.19230000  0.36030000  0.12250000  1.0 0.1101260392
H  H98  1  0.80770000  0.63970000  0.87750000  1.0 0.1101260392
H  H99  1  0.30770000  0.63970000  0.62250000  1.0 0.1101260392
H  H100  1  0.69230000  0.36030000  0.37750000  1.0 0.1101260392
H  H101  1  0.88970000  0.94230000  0.37250000  1.0 0.1101260392
H  H102  1  0.11030000  0.05770000  0.62750000  1.0 0.1101260392
H  H103  1  0.61030000  0.05770000  0.87250000  1.0 0.1101260392
H  H104  1  0.38970000  0.94230000  0.12750000  1.0 0.1101260392
H  H105  1  0.30770000  0.36030000  0.87750000  1.0 0.1101260392
H  H106  1  0.69230000  0.63970000  0.12250000  1.0 0.1101260392
H  H107  1  0.19230000  0.63970000  0.37750000  1.0 0.1101260392
H  H108  1  0.80770000  0.36030000  0.62250000  1.0 0.1101260392
H  H109  1  0.61030000  0.94230000  0.62750000  1.0 0.1101260392
H  H110  1  0.38970000  0.05770000  0.37250000  1.0 0.1101260392
H  H111  1  0.88970000  0.05770000  0.12750000  1.0 0.1101260392
H  H112  1  0.11030000  0.94230000  0.87250000  1.0 0.1101260392
H  H113  1  0.69230000  0.86030000  0.62250000  1.0 0.1101260392
H  H114  1  0.30770000  0.13970000  0.37750000  1.0 0.1101260392
H  H115  1  0.80770000  0.13970000  0.12250000  1.0 0.1101260392
H  H116  1  0.19230000  0.86030000  0.87750000  1.0 0.1101260392
H  H117  1  0.38970000  0.44230000  0.87250000  1.0 0.1101260392
H  H118  1  0.61030000  0.55770000  0.12750000  1.0 0.1101260392
H  H119  1  0.11030000  0.55770000  0.37250000  1.0 0.1101260392
H  H120  1  0.88970000  0.44230000  0.62750000  1.0 0.1101260392
H  H121  1  0.80770000  0.86030000  0.37750000  1.0 0.1101260392
H  H122  1  0.19230000  0.13970000  0.62250000  1.0 0.1101260392
H  H123  1  0.69230000  0.13970000  0.87750000  1.0 0.1101260392
H  H124  1  0.30770000  0.86030000  0.12250000  1.0 0.1101260392
H  H125  1  0.11030000  0.44230000  0.12750000  1.0 0.1101260392
H  H126  1  0.88970000  0.55770000  0.87250000  1.0 0.1101260392
H  H127  1  0.38970000  0.55770000  0.62750000  1.0 0.1101260392
H  H128  1  0.61030000  0.44230000  0.37250000  1.0 0.1101260392
H  H129  1  0.93860000  0.44700000  0.12360000  1.0 0.1101260392
H  H130  1  0.06140000  0.55300000  0.87640000  1.0 0.1101260392
H  H131  1  0.56140000  0.55300000  0.62360000  1.0 0.1101260392
H  H132  1  0.43860000  0.44700000  0.37640000  1.0 0.1101260392
H  H133  1  0.80300000  0.68860000  0.37360000  1.0 0.1101260392
H  H134  1  0.19700000  0.31140000  0.62640000  1.0 0.1101260392
H  H135  1  0.69700000  0.31140000  0.87360000  1.0 0.1101260392
H  H136  1  0.30300000  0.68860000  0.12640000  1.0 0.1101260392
H  H137  1  0.56140000  0.44700000  0.87640000  1.0 0.1101260392
H  H138  1  0.43860000  0.55300000  0.12360000  1.0 0.1101260392
H  H139  1  0.93860000  0.55300000  0.37640000  1.0 0.1101260392
H  H140  1  0.06140000  0.44700000  0.62360000  1.0 0.1101260392
H  H141  1  0.69700000  0.68860000  0.62640000  1.0 0.1101260392
H  H142  1  0.30300000  0.31140000  0.37360000  1.0 0.1101260392
H  H143  1  0.80300000  0.31140000  0.12640000  1.0 0.1101260392
H  H144  1  0.19700000  0.68860000  0.87360000  1.0 0.1101260392
H  H145  1  0.43860000  0.94700000  0.62360000  1.0 0.1101260392
H  H146  1  0.56140000  0.05300000  0.37640000  1.0 0.1101260392
H  H147  1  0.06140000  0.05300000  0.12360000  1.0 0.1101260392
H  H148  1  0.93860000  0.94700000  0.87640000  1.0 0.1101260392
H  H149  1  0.30300000  0.18860000  0.87360000  1.0 0.1101260392
H  H150  1  0.69700000  0.81140000  0.12640000  1.0 0.1101260392
H  H151  1  0.19700000  0.81140000  0.37360000  1.0 0.1101260392
H  H152  1  0.80300000  0.18860000  0.62640000  1.0 0.1101260392
H  H153  1  0.06140000  0.94700000  0.37640000  1.0 0.1101260392
H  H154  1  0.93860000  0.05300000  0.62360000  1.0 0.1101260392
H  H155  1  0.43860000  0.05300000  0.87640000  1.0 0.1101260392
H  H156  1  0.56140000  0.94700000  0.12360000  1.0 0.1101260392
H  H157  1  0.19700000  0.18860000  0.12640000  1.0 0.1101260392
H  H158  1  0.80300000  0.81140000  0.87360000  1.0 0.1101260392
H  H159  1  0.30300000  0.81140000  0.62640000  1.0 0.1101260392
H  H160  1  0.69700000  0.18860000  0.37360000  1.0 0.1101260392
H  H161  1  0.94530000  0.51840000  0.17250000  1.0 0.134151539
H  H162  1  0.05470000  0.48160000  0.82750000  1.0 0.134151539
H  H163  1  0.55470000  0.48160000  0.67250000  1.0 0.134151539
H  H164  1  0.44530000  0.51840000  0.32750000  1.0 0.134151539
H  H165  1  0.73160000  0.69530000  0.42250000  1.0 0.134151539
H  H166  1  0.26840000  0.30470000  0.57750000  1.0 0.134151539
H  H167  1  0.76840000  0.30470000  0.92250000  1.0 0.134151539
H  H168  1  0.23160000  0.69530000  0.07750000  1.0 0.134151539
H  H169  1  0.55470000  0.51840000  0.82750000  1.0 0.134151539
H  H170  1  0.44530000  0.48160000  0.17250000  1.0 0.134151539
H  H171  1  0.94530000  0.48160000  0.32750000  1.0 0.134151539
H  H172  1  0.05470000  0.51840000  0.67250000  1.0 0.134151539
H  H173  1  0.76840000  0.69530000  0.57750000  1.0 0.134151539
H  H174  1  0.23160000  0.30470000  0.42250000  1.0 0.134151539
H  H175  1  0.73160000  0.30470000  0.07750000  1.0 0.134151539
H  H176  1  0.26840000  0.69530000  0.92250000  1.0 0.134151539
H  H177  1  0.44530000  0.01840000  0.67250000  1.0 0.134151539
H  H178  1  0.55470000  0.98160000  0.32750000  1.0 0.134151539
H  H179  1  0.05470000  0.98160000  0.17250000  1.0 0.134151539
H  H180  1  0.94530000  0.01840000  0.82750000  1.0 0.134151539
H  H181  1  0.23160000  0.19530000  0.92250000  1.0 0.134151539
H  H182  1  0.76840000  0.80470000  0.07750000  1.0 0.134151539
H  H183  1  0.26840000  0.80470000  0.42250000  1.0 0.134151539
H  H184  1  0.73160000  0.19530000  0.57750000  1.0 0.134151539
H  H185  1  0.05470000  0.01840000  0.32750000  1.0 0.134151539
H  H186  1  0.94530000  0.98160000  0.67250000  1.0 0.134151539
H  H187  1  0.44530000  0.98160000  0.82750000  1.0 0.134151539
H  H188  1  0.55470000  0.01840000  0.17250000  1.0 0.134151539
H  H189  1  0.26840000  0.19530000  0.07750000  1.0 0.134151539
H  H190  1  0.73160000  0.80470000  0.92250000  1.0 0.134151539
H  H191  1  0.23160000  0.80470000  0.57750000  1.0 0.134151539
H  H192  1  0.76840000  0.19530000  0.42250000  1.0 0.134151539
H  H193  1  0.91210000  0.41670000  0.27880000  1.0 0.1402129499
H  H194  1  0.08790000  0.58330000  0.72120000  1.0 0.1402129499
H  H195  1  0.58790000  0.58330000  0.77880000  1.0 0.1402129499
H  H196  1  0.41210000  0.41670000  0.22120000  1.0 0.1402129499
H  H197  1  0.83330000  0.66210000  0.52880000  1.0 0.1402129499
H  H198  1  0.16670000  0.33790000  0.47120000  1.0 0.1402129499
H  H199  1  0.66666667  0.33790000  0.02880000  1.0 0.1402129499
H  H200  1  0.33333333  0.66210000  0.97120000  1.0 0.1402129499
H  H201  1  0.58790000  0.41670000  0.72120000  1.0 0.1402129499
H  H202  1  0.41210000  0.58330000  0.27880000  1.0 0.1402129499
H  H203  1  0.91210000  0.58330000  0.22120000  1.0 0.1402129499
H  H204  1  0.08790000  0.41670000  0.77880000  1.0 0.1402129499
H  H205  1  0.66666667  0.66210000  0.47120000  1.0 0.1402129499
H  H206  1  0.33333333  0.33790000  0.52880000  1.0 0.1402129499
H  H207  1  0.83330000  0.33790000  0.97120000  1.0 0.1402129499
H  H208  1  0.16670000  0.66210000  0.02880000  1.0 0.1402129499
H  H209  1  0.41210000  0.91670000  0.77880000  1.0 0.1402129499
H  H210  1  0.58790000  0.08330000  0.22120000  1.0 0.1402129499
H  H211  1  0.08790000  0.08330000  0.27880000  1.0 0.1402129499
H  H212  1  0.91210000  0.91670000  0.72120000  1.0 0.1402129499
H  H213  1  0.33333333  0.16210000  0.02880000  1.0 0.1402129499
H  H214  1  0.66666667  0.83790000  0.97120000  1.0 0.1402129499
H  H215  1  0.16670000  0.83790000  0.52880000  1.0 0.1402129499
H  H216  1  0.83330000  0.16210000  0.47120000  1.0 0.1402129499
H  H217  1  0.08790000  0.91670000  0.22120000  1.0 0.1402129499
H  H218  1  0.91210000  0.08330000  0.77880000  1.0 0.1402129499
H  H219  1  0.41210000  0.08330000  0.72120000  1.0 0.1402129499
H  H220  1  0.58790000  0.91670000  0.27880000  1.0 0.1402129499
H  H221  1  0.16670000  0.16210000  0.97120000  1.0 0.1402129499
H  H222  1  0.83330000  0.83790000  0.02880000  1.0 0.1402129499
H  H223  1  0.33333333  0.83790000  0.47120000  1.0 0.1402129499
H  H224  1  0.66666667  0.16210000  0.52880000  1.0 0.1402129499
H  H225  1  0.90470000  0.34940000  0.22600000  1.0 0.1101260392
H  H226  1  0.09530000  0.65060000  0.77400000  1.0 0.1101260392
H  H227  1  0.59530000  0.65060000  0.72600000  1.0 0.1101260392
H  H228  1  0.40470000  0.34940000  0.27400000  1.0 0.1101260392
H  H229  1  0.90060000  0.65470000  0.47600000  1.0 0.1101260392
H  H230  1  0.09940000  0.34530000  0.52400000  1.0 0.1101260392
H  H231  1  0.59940000  0.34530000  0.97600000  1.0 0.1101260392
H  H232  1  0.40060000  0.65470000  0.02400000  1.0 0.1101260392
H  H233  1  0.59530000  0.34940000  0.77400000  1.0 0.1101260392
H  H234  1  0.40470000  0.65060000  0.22600000  1.0 0.1101260392
H  H235  1  0.90470000  0.65060000  0.27400000  1.0 0.1101260392
H  H236  1  0.09530000  0.34940000  0.72600000  1.0 0.1101260392
H  H237  1  0.59940000  0.65470000  0.52400000  1.0 0.1101260392
H  H238  1  0.40060000  0.34530000  0.47600000  1.0 0.1101260392
H  H239  1  0.90060000  0.34530000  0.02400000  1.0 0.1101260392
H  H240  1  0.09940000  0.65470000  0.97600000  1.0 0.1101260392
H  H241  1  0.40470000  0.84940000  0.72600000  1.0 0.1101260392
H  H242  1  0.59530000  0.15060000  0.27400000  1.0 0.1101260392
H  H243  1  0.09530000  0.15060000  0.22600000  1.0 0.1101260392
H  H244  1  0.90470000  0.84940000  0.77400000  1.0 0.1101260392
H  H245  1  0.40060000  0.15470000  0.97600000  1.0 0.1101260392
H  H246  1  0.59940000  0.84530000  0.02400000  1.0 0.1101260392
H  H247  1  0.09940000  0.84530000  0.47600000  1.0 0.1101260392
H  H248  1  0.90060000  0.15470000  0.52400000  1.0 0.1101260392
H  H249  1  0.09530000  0.84940000  0.27400000  1.0 0.1101260392
H  H250  1  0.90470000  0.15060000  0.72600000  1.0 0.1101260392
H  H251  1  0.40470000  0.15060000  0.77400000  1.0 0.1101260392
H  H252  1  0.59530000  0.84940000  0.22600000  1.0 0.1101260392
H  H253  1  0.09940000  0.15470000  0.02400000  1.0 0.1101260392
H  H254  1  0.90060000  0.84530000  0.97600000  1.0 0.1101260392
H  H255  1  0.40060000  0.84530000  0.52400000  1.0 0.1101260392
H  H256  1  0.59940000  0.15470000  0.47600000  1.0 0.1101260392
H  H257  1  0.48620000  0.14590000  0.03660000  1.0 0.134151539
H  H258  1  0.51380000  0.85410000  0.96340000  1.0 0.1402129499
H  H259  1  0.01380000  0.85410000  0.53660000  1.0 0.1402129499
H  H260  1  0.98620000  0.14590000  0.46340000  1.0 0.1402129499
H  H261  1  0.10410000  0.23620000  0.28660000  1.0 0.134151539
H  H262  1  0.89590000  0.76380000  0.71340000  1.0 0.1402129499
H  H263  1  0.39590000  0.76380000  0.78660000  1.0 0.1402129499
H  H264  1  0.60410000  0.23620000  0.21340000  1.0 0.1402129499
H  H265  1  0.01380000  0.14590000  0.96340000  1.0 0.1402129499
H  H266  1  0.98620000  0.85410000  0.03660000  1.0 0.134151539
H  H267  1  0.48620000  0.85410000  0.46340000  1.0 0.1402129499
H  H268  1  0.51380000  0.14590000  0.53660000  1.0 0.1402129499
H  H269  1  0.39590000  0.23620000  0.71340000  1.0 0.1402129499
H  H270  1  0.60410000  0.76380000  0.28660000  1.0 0.134151539
H  H271  1  0.10410000  0.76380000  0.21340000  1.0 0.1402129499
H  H272  1  0.89590000  0.23620000  0.78660000  1.0 0.1402129499
H  H273  1  0.98620000  0.64590000  0.53660000  1.0 0.1402129499
H  H274  1  0.01380000  0.35410000  0.46340000  1.0 0.1402129499
H  H275  1  0.51380000  0.35410000  0.03660000  1.0 0.1402129499
H  H276  1  0.48620000  0.64590000  0.96340000  1.0 0.1402129499
H  H277  1  0.60410000  0.73620000  0.78660000  1.0 0.1402129499
H  H278  1  0.39590000  0.26380000  0.21340000  1.0 0.1402129499
H  H279  1  0.89590000  0.26380000  0.28660000  1.0 0.134151539
H  H280  1  0.10410000  0.73620000  0.71340000  1.0 0.1402129499
H  H281  1  0.51380000  0.64590000  0.46340000  1.0 0.1402129499
H  H282  1  0.48620000  0.35410000  0.53660000  1.0 0.1402129499
H  H283  1  0.98620000  0.35410000  0.96340000  1.0 0.1402129499
H  H284  1  0.01380000  0.64590000  0.03660000  1.0 0.1402129499
H  H285  1  0.89590000  0.73620000  0.21340000  1.0 0.1402129499
H  H286  1  0.10410000  0.26380000  0.78660000  1.0 0.1402129499
H  H287  1  0.60410000  0.26380000  0.71340000  1.0 0.1402129499
H  H288  1  0.39590000  0.73620000  0.28660000  1.0 0.1402129499
H  H289  1  0.45700000  0.05200000  0.12100000  1.0 0.1006343175
H  H290  1  0.54300000  0.94800000  0.87900000  1.0 0.1006343175
H  H291  1  0.04300000  0.94800000  0.62100000  1.0 0.1006343175
H  H292  1  0.95700000  0.05200000  0.37900000  1.0 0.1006343175
H  H293  1  0.19800000  0.20700000  0.37100000  1.0 0.1006343175
H  H294  1  0.80200000  0.79300000  0.62900000  1.0 0.1006343175
H  H295  1  0.30200000  0.79300000  0.87100000  1.0 0.1006343175
H  H296  1  0.69800000  0.20700000  0.12900000  1.0 0.1006343175
H  H297  1  0.04300000  0.05200000  0.87900000  1.0 0.1006343175
H  H298  1  0.95700000  0.94800000  0.12100000  1.0 0.1006343175
H  H299  1  0.45700000  0.94800000  0.37900000  1.0 0.1006343175
H  H300  1  0.54300000  0.05200000  0.62100000  1.0 0.1006343175
H  H301  1  0.30200000  0.20700000  0.62900000  1.0 0.1006343175
H  H302  1  0.69800000  0.79300000  0.37100000  1.0 0.1006343175
H  H303  1  0.19800000  0.79300000  0.12900000  1.0 0.1006343175
H  H304  1  0.80200000  0.20700000  0.87100000  1.0 0.1006343175
H  H305  1  0.95700000  0.55200000  0.62100000  1.0 0.1006343175
H  H306  1  0.04300000  0.44800000  0.37900000  1.0 0.1006343175
H  H307  1  0.54300000  0.44800000  0.12100000  1.0 0.1006343175
H  H308  1  0.45700000  0.55200000  0.87900000  1.0 0.1006343175
H  H309  1  0.69800000  0.70700000  0.87100000  1.0 0.1006343175
H  H310  1  0.30200000  0.29300000  0.12900000  1.0 0.1006343175
H  H311  1  0.80200000  0.29300000  0.37100000  1.0 0.1006343175
H  H312  1  0.19800000  0.70700000  0.62900000  1.0 0.1006343175
H  H313  1  0.54300000  0.55200000  0.37900000  1.0 0.1006343175
H  H314  1  0.45700000  0.44800000  0.62100000  1.0 0.1006343175
H  H315  1  0.95700000  0.44800000  0.87900000  1.0 0.1006343175
H  H316  1  0.04300000  0.55200000  0.12100000  1.0 0.1006343175
H  H317  1  0.80200000  0.70700000  0.12900000  1.0 0.1006343175
H  H318  1  0.19800000  0.29300000  0.87100000  1.0 0.1006343175
H  H319  1  0.69800000  0.29300000  0.62900000  1.0 0.1006343175
H  H320  1  0.30200000  0.70700000  0.37100000  1.0 0.1006343175
H  H321  1  0.47300000  0.97000000  0.07000000  1.0 0.1195431444
H  H322  1  0.52700000  0.03000000  0.93000000  1.0 0.1195431444
H  H323  1  0.02700000  0.03000000  0.57000000  1.0 0.1195431444
H  H324  1  0.97300000  0.97000000  0.43000000  1.0 0.1195431444
H  H325  1  0.28000000  0.22300000  0.32000000  1.0 0.1195431444
H  H326  1  0.72000000  0.77700000  0.68000000  1.0 0.1195431444
H  H327  1  0.22000000  0.77700000  0.82000000  1.0 0.1195431444
H  H328  1  0.78000000  0.22300000  0.18000000  1.0 0.1195431444
H  H329  1  0.02700000  0.97000000  0.93000000  1.0 0.1195431444
H  H330  1  0.97300000  0.03000000  0.07000000  1.0 0.1195431444
H  H331  1  0.47300000  0.03000000  0.43000000  1.0 0.1195431444
H  H332  1  0.52700000  0.97000000  0.57000000  1.0 0.1195431444
H  H333  1  0.22000000  0.22300000  0.68000000  1.0 0.1195431444
H  H334  1  0.78000000  0.77700000  0.32000000  1.0 0.1195431444
H  H335  1  0.28000000  0.77700000  0.18000000  1.0 0.1195431444
H  H336  1  0.72000000  0.22300000  0.82000000  1.0 0.1195431444
H  H337  1  0.97300000  0.47000000  0.57000000  1.0 0.1195431444
H  H338  1  0.02700000  0.53000000  0.43000000  1.0 0.1195431444
H  H339  1  0.52700000  0.53000000  0.07000000  1.0 0.1195431444
H  H340  1  0.47300000  0.47000000  0.93000000  1.0 0.1195431444
H  H341  1  0.78000000  0.72300000  0.82000000  1.0 0.1195431444
H  H342  1  0.22000000  0.27700000  0.18000000  1.0 0.1195431444
H  H343  1  0.72000000  0.27700000  0.32000000  1.0 0.1195431444
H  H344  1  0.28000000  0.72300000  0.68000000  1.0 0.1195431444
H  H345  1  0.52700000  0.47000000  0.43000000  1.0 0.1195431444
H  H346  1  0.47300000  0.53000000  0.57000000  1.0 0.1195431444
H  H347  1  0.97300000  0.53000000  0.93000000  1.0 0.1195431444
H  H348  1  0.02700000  0.47000000  0.07000000  1.0 0.1195431444
H  H349  1  0.72000000  0.72300000  0.18000000  1.0 0.1195431444
H  H350  1  0.28000000  0.27700000  0.82000000  1.0 0.1195431444
H  H351  1  0.78000000  0.27700000  0.68000000  1.0 0.1195431444
H  H352  1  0.22000000  0.72300000  0.32000000  1.0 0.1195431444
H  H353  1  0.50530000  0.08000000  0.97600000  1.0 0.1195431444
H  H354  1  0.49470000  0.92000000  0.02400000  1.0 0.1195431444
H  H355  1  0.99470000  0.92000000  0.47600000  1.0 0.1195431444
H  H356  1  0.00530000  0.08000000  0.52400000  1.0 0.1195431444
H  H357  1  0.17000000  0.25530000  0.22600000  1.0 0.1195431444
H  H358  1  0.83000000  0.74470000  0.77400000  1.0 0.1195431444
H  H359  1  0.33000000  0.74470000  0.72600000  1.0 0.1195431444
H  H360  1  0.67000000  0.25530000  0.27400000  1.0 0.1195431444
H  H361  1  0.99470000  0.08000000  0.02400000  1.0 0.1195431444
H  H362  1  0.00530000  0.92000000  0.97600000  1.0 0.1195431444
H  H363  1  0.50530000  0.92000000  0.52400000  1.0 0.1195431444
H  H364  1  0.49470000  0.08000000  0.47600000  1.0 0.1195431444
H  H365  1  0.33000000  0.25530000  0.77400000  1.0 0.1195431444
H  H366  1  0.67000000  0.74470000  0.22600000  1.0 0.1195431444
H  H367  1  0.17000000  0.74470000  0.27400000  1.0 0.1195431444
H  H368  1  0.83000000  0.25530000  0.72600000  1.0 0.1195431444
H  H369  1  0.00530000  0.58000000  0.47600000  1.0 0.1195431444
H  H370  1  0.99470000  0.42000000  0.52400000  1.0 0.1195431444
H  H371  1  0.49470000  0.42000000  0.97600000  1.0 0.1195431444
H  H372  1  0.50530000  0.58000000  0.02400000  1.0 0.1195431444
H  H373  1  0.67000000  0.75530000  0.72600000  1.0 0.1195431444
H  H374  1  0.33000000  0.24470000  0.27400000  1.0 0.1195431444
H  H375  1  0.83000000  0.24470000  0.22600000  1.0 0.1195431444
H  H376  1  0.17000000  0.75530000  0.77400000  1.0 0.1195431444
H  H377  1  0.49470000  0.58000000  0.52400000  1.0 0.1195431444
H  H378  1  0.50530000  0.42000000  0.47600000  1.0 0.1195431444
H  H379  1  0.00530000  0.42000000  0.02400000  1.0 0.1195431444
H  H380  1  0.99470000  0.58000000  0.97600000  1.0 0.1195431444
H  H381  1  0.83000000  0.75530000  0.27400000  1.0 0.1195431444
H  H382  1  0.17000000  0.24470000  0.72600000  1.0 0.1195431444
H  H383  1  0.67000000  0.24470000  0.77400000  1.0 0.1195431444
H  H384  1  0.33000000  0.75530000  0.22600000  1.0 0.1195431444
W  W1  1  0.00000000  0.25000000  0.12500000  1.0 0.7418641268
W  W2  1  0.00000000  0.75000000  0.87500000  1.0 0.7418641268
W  W3  1  0.50000000  0.75000000  0.62500000  1.0 0.7418641268
W  W4  1  0.50000000  0.25000000  0.37500000  1.0 0.7418641268
W  W5  1  0.00000000  0.75000000  0.37500000  1.0 0.7418641268
W  W6  1  0.00000000  0.25000000  0.62500000  1.0 0.7418641268
W  W7  1  0.50000000  0.25000000  0.87500000  1.0 0.7418641268
W  W8  1  0.50000000  0.75000000  0.12500000  1.0 0.7418641268
W  W9  1  0.50000000  0.25000000  0.12500000  1.0 0.7637527032
W  W10  1  0.50000000  0.75000000  0.87500000  1.0 0.7637527032
W  W11  1  0.00000000  0.75000000  0.62500000  1.0 0.7637527032
W  W12  1  0.00000000  0.25000000  0.37500000  1.0 0.7637527032
W  W13  1  0.00000000  0.25000000  0.87500000  1.0 0.7637527032
W  W14  1  0.00000000  0.75000000  0.12500000  1.0 0.7637527032
W  W15  1  0.50000000  0.75000000  0.37500000  1.0 0.7637527032
W  W16  1  0.50000000  0.25000000  0.62500000  1.0 0.7637527032
C  C1  1  0.13420000  0.31670000  0.03380000  1.0 0.0905992694
C  C2  1  0.86580000  0.68330000  0.96620000  1.0 0.0905992694
C  C3  1  0.36580000  0.68330000  0.53380000  1.0 0.0905992694
C  C4  1  0.63420000  0.31670000  0.46620000  1.0 0.0905992694
C  C5  1  0.93330000  0.88420000  0.28380000  1.0 0.0905992694
C  C6  1  0.06670000  0.11580000  0.71620000  1.0 0.0905992694
C  C7  1  0.56670000  0.11580000  0.78380000  1.0 0.0905992694
C  C8  1  0.43330000  0.88420000  0.21620000  1.0 0.0905992694
C  C9  1  0.36580000  0.31670000  0.96620000  1.0 0.0905992694
C  C10  1  0.63420000  0.68330000  0.03380000  1.0 0.0905992694
C  C11  1  0.13420000  0.68330000  0.46620000  1.0 0.0905992694
C  C12  1  0.86580000  0.31670000  0.53380000  1.0 0.0905992694
C  C13  1  0.56670000  0.88420000  0.71620000  1.0 0.0905992694
C  C14  1  0.43330000  0.11580000  0.28380000  1.0 0.0905992694
C  C15  1  0.93330000  0.11580000  0.21620000  1.0 0.0905992694
C  C16  1  0.06670000  0.88420000  0.78380000  1.0 0.0905992694
C  C17  1  0.63420000  0.81670000  0.53380000  1.0 0.0905992694
C  C18  1  0.36580000  0.18330000  0.46620000  1.0 0.0905992694
C  C19  1  0.86580000  0.18330000  0.03380000  1.0 0.0905992694
C  C20  1  0.13420000  0.81670000  0.96620000  1.0 0.0905992694
C  C21  1  0.43330000  0.38420000  0.78380000  1.0 0.0905992694
C  C22  1  0.56670000  0.61580000  0.21620000  1.0 0.0905992694
C  C23  1  0.06670000  0.61580000  0.28380000  1.0 0.0905992694
C  C24  1  0.93330000  0.38420000  0.71620000  1.0 0.0905992694
C  C25  1  0.86580000  0.81670000  0.46620000  1.0 0.0905992694
C  C26  1  0.13420000  0.18330000  0.53380000  1.0 0.0905992694
C  C27  1  0.63420000  0.18330000  0.96620000  1.0 0.0905992694
C  C28  1  0.36580000  0.81670000  0.03380000  1.0 0.0905992694
C  C29  1  0.06670000  0.38420000  0.21620000  1.0 0.0905992694
C  C30  1  0.93330000  0.61580000  0.78380000  1.0 0.0905992694
C  C31  1  0.43330000  0.61580000  0.71620000  1.0 0.0905992694
C  C32  1  0.56670000  0.38420000  0.28380000  1.0 0.0905992694
C  C33  1  0.17810000  0.31840000  0.00430000  1.0 -0.1798884173
C  C34  1  0.82190000  0.68160000  0.99570000  1.0 -0.1798884173
C  C35  1  0.32190000  0.68160000  0.50430000  1.0 -0.1798884173
C  C36  1  0.67810000  0.31840000  0.49570000  1.0 -0.1798884173
C  C37  1  0.93160000  0.92810000  0.25430000  1.0 -0.1798884173
C  C38  1  0.06840000  0.07190000  0.74570000  1.0 -0.1798884173
C  C39  1  0.56840000  0.07190000  0.75430000  1.0 -0.1798884173
C  C40  1  0.43160000  0.92810000  0.24570000  1.0 -0.1798884173
C  C41  1  0.32190000  0.31840000  0.99570000  1.0 -0.1798884173
C  C42  1  0.67810000  0.68160000  0.00430000  1.0 -0.1798884173
C  C43  1  0.17810000  0.68160000  0.49570000  1.0 -0.1798884173
C  C44  1  0.82190000  0.31840000  0.50430000  1.0 -0.1798884173
C  C45  1  0.56840000  0.92810000  0.74570000  1.0 -0.1798884173
C  C46  1  0.43160000  0.07190000  0.25430000  1.0 -0.1798884173
C  C47  1  0.93160000  0.07190000  0.24570000  1.0 -0.1798884173
C  C48  1  0.06840000  0.92810000  0.75430000  1.0 -0.1798884173
C  C49  1  0.67810000  0.81840000  0.50430000  1.0 -0.1798884173
C  C50  1  0.32190000  0.18160000  0.49570000  1.0 -0.1798884173
C  C51  1  0.82190000  0.18160000  0.00430000  1.0 -0.1798884173
C  C52  1  0.17810000  0.81840000  0.99570000  1.0 -0.1798884173
C  C53  1  0.43160000  0.42810000  0.75430000  1.0 -0.1798884173
C  C54  1  0.56840000  0.57190000  0.24570000  1.0 -0.1798884173
C  C55  1  0.06840000  0.57190000  0.25430000  1.0 -0.1798884173
C  C56  1  0.93160000  0.42810000  0.74570000  1.0 -0.1798884173
C  C57  1  0.82190000  0.81840000  0.49570000  1.0 -0.1798884173
C  C58  1  0.17810000  0.18160000  0.50430000  1.0 -0.1798884173
C  C59  1  0.67810000  0.18160000  0.99570000  1.0 -0.1798884173
C  C60  1  0.32190000  0.81840000  0.00430000  1.0 -0.1798884173
C  C61  1  0.06840000  0.42810000  0.24570000  1.0 -0.1798884173
C  C62  1  0.93160000  0.57190000  0.75430000  1.0 -0.1798884173
C  C63  1  0.43160000  0.57190000  0.74570000  1.0 -0.1798884173
C  C64  1  0.56840000  0.42810000  0.25430000  1.0 -0.1798884173
C  C65  1  0.22680000  0.33400000  0.01560000  1.0 0.1101260392
C  C66  1  0.77320000  0.66600000  0.98440000  1.0 0.1101260392
C  C67  1  0.27320000  0.66600000  0.51560000  1.0 0.1101260392
C  C68  1  0.72680000  0.33400000  0.48440000  1.0 0.1101260392
C  C69  1  0.91600000  0.97680000  0.26560000  1.0 0.1101260392
C  C70  1  0.08400000  0.02320000  0.73440000  1.0 0.1101260392
C  C71  1  0.58400000  0.02320000  0.76560000  1.0 0.1101260392
C  C72  1  0.41600000  0.97680000  0.23440000  1.0 0.1101260392
C  C73  1  0.27320000  0.33400000  0.98440000  1.0 0.1101260392
C  C74  1  0.72680000  0.66600000  0.01560000  1.0 0.1101260392
C  C75  1  0.22680000  0.66600000  0.48440000  1.0 0.1101260392
C  C76  1  0.77320000  0.33400000  0.51560000  1.0 0.1101260392
C  C77  1  0.58400000  0.97680000  0.73440000  1.0 0.1101260392
C  C78  1  0.41600000  0.02320000  0.26560000  1.0 0.1101260392
C  C79  1  0.91600000  0.02320000  0.23440000  1.0 0.1101260392
C  C80  1  0.08400000  0.97680000  0.76560000  1.0 0.1101260392
C  C81  1  0.72680000  0.83400000  0.51560000  1.0 0.1101260392
C  C82  1  0.27320000  0.16600000  0.48440000  1.0 0.1101260392
C  C83  1  0.77320000  0.16600000  0.01560000  1.0 0.1101260392
C  C84  1  0.22680000  0.83400000  0.98440000  1.0 0.1101260392
C  C85  1  0.41600000  0.47680000  0.76560000  1.0 0.1101260392
C  C86  1  0.58400000  0.52320000  0.23440000  1.0 0.1101260392
C  C87  1  0.08400000  0.52320000  0.26560000  1.0 0.1101260392
C  C88  1  0.91600000  0.47680000  0.73440000  1.0 0.1101260392
C  C89  1  0.77320000  0.83400000  0.48440000  1.0 0.1101260392
C  C90  1  0.22680000  0.16600000  0.51560000  1.0 0.1101260392
C  C91  1  0.72680000  0.16600000  0.98440000  1.0 0.1101260392
C  C92  1  0.27320000  0.83400000  0.01560000  1.0 0.1101260392
C  C93  1  0.08400000  0.47680000  0.23440000  1.0 0.1101260392
C  C94  1  0.91600000  0.52320000  0.76560000  1.0 0.1101260392
C  C95  1  0.41600000  0.52320000  0.73440000  1.0 0.1101260392
C  C96  1  0.58400000  0.47680000  0.26560000  1.0 0.1101260392
C  C97  1  0.23060000  0.35170000  0.06320000  1.0 -0.2098458932
C  C98  1  0.76940000  0.64830000  0.93680000  1.0 -0.2098458932
C  C99  1  0.26940000  0.64830000  0.56320000  1.0 -0.2098458932
C  C100  1  0.73060000  0.35170000  0.43680000  1.0 -0.2098458932
C  C101  1  0.89830000  0.98060000  0.31320000  1.0 -0.2098458932
C  C102  1  0.10170000  0.01940000  0.68680000  1.0 -0.2098458932
C  C103  1  0.60170000  0.01940000  0.81320000  1.0 -0.2098458932
C  C104  1  0.39830000  0.98060000  0.18680000  1.0 -0.2098458932
C  C105  1  0.26940000  0.35170000  0.93680000  1.0 -0.2098458932
C  C106  1  0.73060000  0.64830000  0.06320000  1.0 -0.2098458932
C  C107  1  0.23060000  0.64830000  0.43680000  1.0 -0.2098458932
C  C108  1  0.76940000  0.35170000  0.56320000  1.0 -0.2098458932
C  C109  1  0.60170000  0.98060000  0.68680000  1.0 -0.2098458932
C  C110  1  0.39830000  0.01940000  0.31320000  1.0 -0.2098458932
C  C111  1  0.89830000  0.01940000  0.18680000  1.0 -0.2098458932
C  C112  1  0.10170000  0.98060000  0.81320000  1.0 -0.2098458932
C  C113  1  0.73060000  0.85170000  0.56320000  1.0 -0.2098458932
C  C114  1  0.26940000  0.14830000  0.43680000  1.0 -0.2098458932
C  C115  1  0.76940000  0.14830000  0.06320000  1.0 -0.2098458932
C  C116  1  0.23060000  0.85170000  0.93680000  1.0 -0.2098458932
C  C117  1  0.39830000  0.48060000  0.81320000  1.0 -0.2098458932
C  C118  1  0.60170000  0.51940000  0.18680000  1.0 -0.2098458932
C  C119  1  0.10170000  0.51940000  0.31320000  1.0 -0.2098458932
C  C120  1  0.89830000  0.48060000  0.68680000  1.0 -0.2098458932
C  C121  1  0.76940000  0.85170000  0.43680000  1.0 -0.2098458932
C  C122  1  0.23060000  0.14830000  0.56320000  1.0 -0.2098458932
C  C123  1  0.73060000  0.14830000  0.93680000  1.0 -0.2098458932
C  C124  1  0.26940000  0.85170000  0.06320000  1.0 -0.2098458932
C  C125  1  0.10170000  0.48060000  0.18680000  1.0 -0.2098458932
C  C126  1  0.89830000  0.51940000  0.81320000  1.0 -0.2098458932
C  C127  1  0.39830000  0.51940000  0.68680000  1.0 -0.2098458932
C  C128  1  0.60170000  0.48060000  0.31320000  1.0 -0.2098458932
C  C129  1  0.18780000  0.34950000  0.09060000  1.0 0.0634608089
C  C130  1  0.81220000  0.65050000  0.90940000  1.0 0.0634608089
C  C131  1  0.31220000  0.65050000  0.59060000  1.0 0.0634608089
C  C132  1  0.68780000  0.34950000  0.40940000  1.0 0.0634608089
C  C133  1  0.90050000  0.93780000  0.34060000  1.0 0.0634608089
C  C134  1  0.09950000  0.06220000  0.65940000  1.0 0.0634608089
C  C135  1  0.59950000  0.06220000  0.84060000  1.0 0.0634608089
C  C136  1  0.40050000  0.93780000  0.15940000  1.0 0.0634608089
C  C137  1  0.31220000  0.34950000  0.90940000  1.0 0.0634608089
C  C138  1  0.68780000  0.65050000  0.09060000  1.0 0.0634608089
C  C139  1  0.18780000  0.65050000  0.40940000  1.0 0.0634608089
C  C140  1  0.81220000  0.34950000  0.59060000  1.0 0.0634608089
C  C141  1  0.59950000  0.93780000  0.65940000  1.0 0.0634608089
C  C142  1  0.40050000  0.06220000  0.34060000  1.0 0.0634608089
C  C143  1  0.90050000  0.06220000  0.15940000  1.0 0.0634608089
C  C144  1  0.09950000  0.93780000  0.84060000  1.0 0.0634608089
C  C145  1  0.68780000  0.84950000  0.59060000  1.0 0.0634608089
C  C146  1  0.31220000  0.15050000  0.40940000  1.0 0.0634608089
C  C147  1  0.81220000  0.15050000  0.09060000  1.0 0.0634608089
C  C148  1  0.18780000  0.84950000  0.90940000  1.0 0.0634608089
C  C149  1  0.40050000  0.43780000  0.84060000  1.0 0.0634608089
C  C150  1  0.59950000  0.56220000  0.15940000  1.0 0.0634608089
C  C151  1  0.09950000  0.56220000  0.34060000  1.0 0.0634608089
C  C152  1  0.90050000  0.43780000  0.65940000  1.0 0.0634608089
C  C153  1  0.81220000  0.84950000  0.40940000  1.0 0.0634608089
C  C154  1  0.18780000  0.15050000  0.59060000  1.0 0.0634608089
C  C155  1  0.68780000  0.15050000  0.90940000  1.0 0.0634608089
C  C156  1  0.31220000  0.84950000  0.09060000  1.0 0.0634608089
C  C157  1  0.09950000  0.43780000  0.15940000  1.0 0.0634608089
C  C158  1  0.90050000  0.56220000  0.84060000  1.0 0.0634608089
C  C159  1  0.40050000  0.56220000  0.65940000  1.0 0.0634608089
C  C160  1  0.59950000  0.43780000  0.34060000  1.0 0.0634608089
C  C161  1  0.93350000  0.44170000  0.15640000  1.0 0.0544112501
C  C162  1  0.06650000  0.55830000  0.84360000  1.0 0.0544112501
C  C163  1  0.56650000  0.55830000  0.65640000  1.0 0.0544112501
C  C164  1  0.43350000  0.44170000  0.34360000  1.0 0.0544112501
C  C165  1  0.80830000  0.68350000  0.40640000  1.0 0.0544112501
C  C166  1  0.19170000  0.31650000  0.59360000  1.0 0.0544112501
C  C167  1  0.69170000  0.31650000  0.90640000  1.0 0.0544112501
C  C168  1  0.30830000  0.68350000  0.09360000  1.0 0.0544112501
C  C169  1  0.56650000  0.44170000  0.84360000  1.0 0.0544112501
C  C170  1  0.43350000  0.55830000  0.15640000  1.0 0.0544112501
C  C171  1  0.93350000  0.55830000  0.34360000  1.0 0.0544112501
C  C172  1  0.06650000  0.44170000  0.65640000  1.0 0.0544112501
C  C173  1  0.69170000  0.68350000  0.59360000  1.0 0.0544112501
C  C174  1  0.30830000  0.31650000  0.40640000  1.0 0.0544112501
C  C175  1  0.80830000  0.31650000  0.09360000  1.0 0.0544112501
C  C176  1  0.19170000  0.68350000  0.90640000  1.0 0.0544112501
C  C177  1  0.43350000  0.94170000  0.65640000  1.0 0.0544112501
C  C178  1  0.56650000  0.05830000  0.34360000  1.0 0.0544112501
C  C179  1  0.06650000  0.05830000  0.15640000  1.0 0.0544112501
C  C180  1  0.93350000  0.94170000  0.84360000  1.0 0.0544112501
C  C181  1  0.30830000  0.18350000  0.90640000  1.0 0.0544112501
C  C182  1  0.69170000  0.81650000  0.09360000  1.0 0.0544112501
C  C183  1  0.19170000  0.81650000  0.40640000  1.0 0.0544112501
C  C184  1  0.80830000  0.18350000  0.59360000  1.0 0.0544112501
C  C185  1  0.06650000  0.94170000  0.34360000  1.0 0.0544112501
C  C186  1  0.93350000  0.05830000  0.65640000  1.0 0.0544112501
C  C187  1  0.43350000  0.05830000  0.84360000  1.0 0.0544112501
C  C188  1  0.56650000  0.94170000  0.15640000  1.0 0.0544112501
C  C189  1  0.19170000  0.18350000  0.09360000  1.0 0.0544112501
C  C190  1  0.80830000  0.81650000  0.90640000  1.0 0.0544112501
C  C191  1  0.30830000  0.81650000  0.59360000  1.0 0.0544112501
C  C192  1  0.69170000  0.18350000  0.40640000  1.0 0.0544112501
C  C193  1  0.93670000  0.48360000  0.18440000  1.0 -0.1798884173
C  C194  1  0.06330000  0.51640000  0.81560000  1.0 -0.1798884173
C  C195  1  0.56330000  0.51640000  0.68440000  1.0 -0.1798884173
C  C196  1  0.43670000  0.48360000  0.31560000  1.0 -0.1798884173
C  C197  1  0.76640000  0.68670000  0.43440000  1.0 -0.1798884173
C  C198  1  0.23360000  0.31330000  0.56560000  1.0 -0.1798884173
C  C199  1  0.73360000  0.31330000  0.93440000  1.0 -0.1798884173
C  C200  1  0.26640000  0.68670000  0.06560000  1.0 -0.1798884173
C  C201  1  0.56330000  0.48360000  0.81560000  1.0 -0.1798884173
C  C202  1  0.43670000  0.51640000  0.18440000  1.0 -0.1798884173
C  C203  1  0.93670000  0.51640000  0.31560000  1.0 -0.1798884173
C  C204  1  0.06330000  0.48360000  0.68440000  1.0 -0.1798884173
C  C205  1  0.73360000  0.68670000  0.56560000  1.0 -0.1798884173
C  C206  1  0.26640000  0.31330000  0.43440000  1.0 -0.1798884173
C  C207  1  0.76640000  0.31330000  0.06560000  1.0 -0.1798884173
C  C208  1  0.23360000  0.68670000  0.93440000  1.0 -0.1798884173
C  C209  1  0.43670000  0.98360000  0.68440000  1.0 -0.1798884173
C  C210  1  0.56330000  0.01640000  0.31560000  1.0 -0.1798884173
C  C211  1  0.06330000  0.01640000  0.18440000  1.0 -0.1798884173
C  C212  1  0.93670000  0.98360000  0.81560000  1.0 -0.1798884173
C  C213  1  0.26640000  0.18670000  0.93440000  1.0 -0.1798884173
C  C214  1  0.73360000  0.81330000  0.06560000  1.0 -0.1798884173
C  C215  1  0.23360000  0.81330000  0.43440000  1.0 -0.1798884173
C  C216  1  0.76640000  0.18670000  0.56560000  1.0 -0.1798884173
C  C217  1  0.06330000  0.98360000  0.31560000  1.0 -0.1798884173
C  C218  1  0.93670000  0.01640000  0.68440000  1.0 -0.1798884173
C  C219  1  0.43670000  0.01640000  0.81560000  1.0 -0.1798884173
C  C220  1  0.56330000  0.98360000  0.18440000  1.0 -0.1798884173
C  C221  1  0.23360000  0.18670000  0.06560000  1.0 -0.1798884173
C  C222  1  0.76640000  0.81330000  0.93440000  1.0 -0.1798884173
C  C223  1  0.26640000  0.81330000  0.56560000  1.0 -0.1798884173
C  C224  1  0.73360000  0.18670000  0.43440000  1.0 -0.1798884173
C  C225  1  0.92730000  0.47700000  0.23290000  1.0 0.1195431444
C  C226  1  0.07270000  0.52300000  0.76710000  1.0 0.1195431444
C  C227  1  0.57270000  0.52300000  0.73290000  1.0 0.1195431444
C  C228  1  0.42730000  0.47700000  0.26710000  1.0 0.1195431444
C  C229  1  0.77300000  0.67730000  0.48290000  1.0 0.1195431444
C  C230  1  0.22700000  0.32270000  0.51710000  1.0 0.1195431444
C  C231  1  0.72700000  0.32270000  0.98290000  1.0 0.1195431444
C  C232  1  0.27300000  0.67730000  0.01710000  1.0 0.1195431444
C  C233  1  0.57270000  0.47700000  0.76710000  1.0 0.1195431444
C  C234  1  0.42730000  0.52300000  0.23290000  1.0 0.1195431444
C  C235  1  0.92730000  0.52300000  0.26710000  1.0 0.1195431444
C  C236  1  0.07270000  0.47700000  0.73290000  1.0 0.1195431444
C  C237  1  0.72700000  0.67730000  0.51710000  1.0 0.1195431444
C  C238  1  0.27300000  0.32270000  0.48290000  1.0 0.1195431444
C  C239  1  0.77300000  0.32270000  0.01710000  1.0 0.1195431444
C  C240  1  0.22700000  0.67730000  0.98290000  1.0 0.1195431444
C  C241  1  0.42730000  0.97700000  0.73290000  1.0 0.1195431444
C  C242  1  0.57270000  0.02300000  0.26710000  1.0 0.1195431444
C  C243  1  0.07270000  0.02300000  0.23290000  1.0 0.1195431444
C  C244  1  0.92730000  0.97700000  0.76710000  1.0 0.1195431444
C  C245  1  0.27300000  0.17730000  0.98290000  1.0 0.1195431444
C  C246  1  0.72700000  0.82270000  0.01710000  1.0 0.1195431444
C  C247  1  0.22700000  0.82270000  0.48290000  1.0 0.1195431444
C  C248  1  0.77300000  0.17730000  0.51710000  1.0 0.1195431444
C  C249  1  0.07270000  0.97700000  0.26710000  1.0 0.1195431444
C  C250  1  0.92730000  0.02300000  0.73290000  1.0 0.1195431444
C  C251  1  0.42730000  0.02300000  0.76710000  1.0 0.1195431444
C  C252  1  0.57270000  0.97700000  0.23290000  1.0 0.1195431444
C  C253  1  0.22700000  0.17730000  0.01710000  1.0 0.1195431444
C  C254  1  0.77300000  0.82270000  0.98290000  1.0 0.1195431444
C  C255  1  0.27300000  0.82270000  0.51710000  1.0 0.1195431444
C  C256  1  0.72700000  0.17730000  0.48290000  1.0 0.1195431444
C  C257  1  0.91720000  0.42420000  0.24630000  1.0 -0.1908693849
C  C258  1  0.08280000  0.57580000  0.75370000  1.0 -0.1908693849
C  C259  1  0.58280000  0.57580000  0.74630000  1.0 -0.1908693849
C  C260  1  0.41720000  0.42420000  0.25370000  1.0 -0.1908693849
C  C261  1  0.82580000  0.66720000  0.49630000  1.0 -0.1908693849
C  C262  1  0.17420000  0.33280000  0.50370000  1.0 -0.1908693849
C  C263  1  0.67420000  0.33280000  0.99630000  1.0 -0.1908693849
C  C264  1  0.32580000  0.66720000  0.00370000  1.0 -0.1908693849
C  C265  1  0.58280000  0.42420000  0.75370000  1.0 -0.1908693849
C  C266  1  0.41720000  0.57580000  0.24630000  1.0 -0.1908693849
C  C267  1  0.91720000  0.57580000  0.25370000  1.0 -0.1908693849
C  C268  1  0.08280000  0.42420000  0.74630000  1.0 -0.1908693849
C  C269  1  0.67420000  0.66720000  0.50370000  1.0 -0.1908693849
C  C270  1  0.32580000  0.33280000  0.49630000  1.0 -0.1908693849
C  C271  1  0.82580000  0.33280000  0.00370000  1.0 -0.1908693849
C  C272  1  0.17420000  0.66720000  0.99630000  1.0 -0.1908693849
C  C273  1  0.41720000  0.92420000  0.74630000  1.0 -0.1908693849
C  C274  1  0.58280000  0.07580000  0.25370000  1.0 -0.1908693849
C  C275  1  0.08280000  0.07580000  0.24630000  1.0 -0.1908693849
C  C276  1  0.91720000  0.92420000  0.75370000  1.0 -0.1908693849
C  C277  1  0.32580000  0.16720000  0.99630000  1.0 -0.1908693849
C  C278  1  0.67420000  0.83280000  0.00370000  1.0 -0.1908693849
C  C279  1  0.17420000  0.83280000  0.49630000  1.0 -0.1908693849
C  C280  1  0.82580000  0.16720000  0.50370000  1.0 -0.1908693849
C  C281  1  0.08280000  0.92420000  0.25370000  1.0 -0.1908693849
C  C282  1  0.91720000  0.07580000  0.74630000  1.0 -0.1908693849
C  C283  1  0.41720000  0.07580000  0.75370000  1.0 -0.1908693849
C  C284  1  0.58280000  0.92420000  0.24630000  1.0 -0.1908693849
C  C285  1  0.17420000  0.16720000  0.00370000  1.0 -0.1908693849
C  C286  1  0.82580000  0.83280000  0.99630000  1.0 -0.1908693849
C  C287  1  0.32580000  0.83280000  0.50370000  1.0 -0.1908693849
C  C288  1  0.67420000  0.16720000  0.49630000  1.0 -0.1908693849
C  C289  1  0.91360000  0.38460000  0.21520000  1.0 0.0905992694
C  C290  1  0.08640000  0.61540000  0.78480000  1.0 0.0905992694
C  C291  1  0.58640000  0.61540000  0.71520000  1.0 0.0905992694
C  C292  1  0.41360000  0.38460000  0.28480000  1.0 0.0905992694
C  C293  1  0.86540000  0.66360000  0.46520000  1.0 0.0905992694
C  C294  1  0.13460000  0.33640000  0.53480000  1.0 0.0905992694
C  C295  1  0.63460000  0.33640000  0.96520000  1.0 0.0905992694
C  C296  1  0.36540000  0.66360000  0.03480000  1.0 0.0905992694
C  C297  1  0.58640000  0.38460000  0.78480000  1.0 0.0905992694
C  C298  1  0.41360000  0.61540000  0.21520000  1.0 0.0905992694
C  C299  1  0.91360000  0.61540000  0.28480000  1.0 0.0905992694
C  C300  1  0.08640000  0.38460000  0.71520000  1.0 0.0905992694
C  C301  1  0.63460000  0.66360000  0.53480000  1.0 0.0905992694
C  C302  1  0.36540000  0.33640000  0.46520000  1.0 0.0905992694
C  C303  1  0.86540000  0.33640000  0.03480000  1.0 0.0905992694
C  C304  1  0.13460000  0.66360000  0.96520000  1.0 0.0905992694
C  C305  1  0.41360000  0.88460000  0.71520000  1.0 0.0905992694
C  C306  1  0.58640000  0.11540000  0.28480000  1.0 0.0905992694
C  C307  1  0.08640000  0.11540000  0.21520000  1.0 0.0905992694
C  C308  1  0.91360000  0.88460000  0.78480000  1.0 0.0905992694
C  C309  1  0.36540000  0.16360000  0.96520000  1.0 0.0905992694
C  C310  1  0.63460000  0.83640000  0.03480000  1.0 0.0905992694
C  C311  1  0.13460000  0.83640000  0.46520000  1.0 0.0905992694
C  C312  1  0.86540000  0.16360000  0.53480000  1.0 0.0905992694
C  C313  1  0.08640000  0.88460000  0.28480000  1.0 0.0905992694
C  C314  1  0.91360000  0.11540000  0.71520000  1.0 0.0905992694
C  C315  1  0.41360000  0.11540000  0.78480000  1.0 0.0905992694
C  C316  1  0.58640000  0.88460000  0.21520000  1.0 0.0905992694
C  C317  1  0.13460000  0.16360000  0.03480000  1.0 0.0905992694
C  C318  1  0.86540000  0.83640000  0.96520000  1.0 0.0905992694
C  C319  1  0.36540000  0.83640000  0.53480000  1.0 0.0905992694
C  C320  1  0.63460000  0.16360000  0.46520000  1.0 0.0905992694
C  C321  1  0.48620000  0.11590000  0.03660000  1.0 0.0401426462
C  C322  1  0.51380000  0.88410000  0.96340000  1.0 0.0401426462
C  C323  1  0.01380000  0.88410000  0.53660000  1.0 0.0401426462
C  C324  1  0.98620000  0.11590000  0.46340000  1.0 0.0401426462
C  C325  1  0.13410000  0.23620000  0.28660000  1.0 0.0401426462
C  C326  1  0.86590000  0.76380000  0.71340000  1.0 0.0401426462
C  C327  1  0.36590000  0.76380000  0.78660000  1.0 0.0401426462
C  C328  1  0.63410000  0.23620000  0.21340000  1.0 0.0401426462
C  C329  1  0.01380000  0.11590000  0.96340000  1.0 0.0401426462
C  C330  1  0.98620000  0.88410000  0.03660000  1.0 0.0401426462
C  C331  1  0.48620000  0.88410000  0.46340000  1.0 0.0401426462
C  C332  1  0.51380000  0.11590000  0.53660000  1.0 0.0401426462
C  C333  1  0.36590000  0.23620000  0.71340000  1.0 0.0401426462
C  C334  1  0.63410000  0.76380000  0.28660000  1.0 0.0401426462
C  C335  1  0.13410000  0.76380000  0.21340000  1.0 0.0401426462
C  C336  1  0.86590000  0.23620000  0.78660000  1.0 0.0401426462
C  C337  1  0.98620000  0.61590000  0.53660000  1.0 0.0401426462
C  C338  1  0.01380000  0.38410000  0.46340000  1.0 0.0401426462
C  C339  1  0.51380000  0.38410000  0.03660000  1.0 0.0401426462
C  C340  1  0.48620000  0.61590000  0.96340000  1.0 0.0401426462
C  C341  1  0.63410000  0.73620000  0.78660000  1.0 0.0401426462
C  C342  1  0.36590000  0.26380000  0.21340000  1.0 0.0401426462
C  C343  1  0.86590000  0.26380000  0.28660000  1.0 0.0401426462
C  C344  1  0.13410000  0.73620000  0.71340000  1.0 0.0401426462
C  C345  1  0.51380000  0.61590000  0.46340000  1.0 0.0401426462
C  C346  1  0.48620000  0.38410000  0.53660000  1.0 0.0401426462
C  C347  1  0.98620000  0.38410000  0.96340000  1.0 0.0401426462
C  C348  1  0.01380000  0.61590000  0.03660000  1.0 0.0401426462
C  C349  1  0.86590000  0.73620000  0.21340000  1.0 0.0401426462
C  C350  1  0.13410000  0.26380000  0.78660000  1.0 0.0401426462
C  C351  1  0.63410000  0.26380000  0.71340000  1.0 0.0401426462
C  C352  1  0.36590000  0.73620000  0.28660000  1.0 0.0401426462
C  C353  1  0.50530000  0.07400000  0.00860000  1.0 -0.1644029346
C  C354  1  0.49470000  0.92600000  0.99140000  1.0 -0.1644029346
C  C355  1  0.99470000  0.92600000  0.50860000  1.0 -0.1644029346
C  C356  1  0.00530000  0.07400000  0.49140000  1.0 -0.1644029346
C  C357  1  0.17600000  0.25530000  0.25860000  1.0 -0.1644029346
C  C358  1  0.82400000  0.74470000  0.74140000  1.0 -0.1644029346
C  C359  1  0.32400000  0.74470000  0.75860000  1.0 -0.1644029346
C  C360  1  0.67600000  0.25530000  0.24140000  1.0 -0.1644029346
C  C361  1  0.99470000  0.07400000  0.99140000  1.0 -0.1644029346
C  C362  1  0.00530000  0.92600000  0.00860000  1.0 -0.1644029346
C  C363  1  0.50530000  0.92600000  0.49140000  1.0 -0.1644029346
C  C364  1  0.49470000  0.07400000  0.50860000  1.0 -0.1644029346
C  C365  1  0.32400000  0.25530000  0.74140000  1.0 -0.1644029346
C  C366  1  0.67600000  0.74470000  0.25860000  1.0 -0.1644029346
C  C367  1  0.17600000  0.74470000  0.24140000  1.0 -0.1644029346
C  C368  1  0.82400000  0.25530000  0.75860000  1.0 -0.1644029346
C  C369  1  0.00530000  0.57400000  0.50860000  1.0 -0.1644029346
C  C370  1  0.99470000  0.42600000  0.49140000  1.0 -0.1644029346
C  C371  1  0.49470000  0.42600000  0.00860000  1.0 -0.1644029346
C  C372  1  0.50530000  0.57400000  0.99140000  1.0 -0.1644029346
C  C373  1  0.67600000  0.75530000  0.75860000  1.0 -0.1644029346
C  C374  1  0.32400000  0.24470000  0.24140000  1.0 -0.1644029346
C  C375  1  0.82400000  0.24470000  0.25860000  1.0 -0.1644029346
C  C376  1  0.17600000  0.75530000  0.74140000  1.0 -0.1644029346
C  C377  1  0.49470000  0.57400000  0.49140000  1.0 -0.1644029346
C  C378  1  0.50530000  0.42600000  0.50860000  1.0 -0.1644029346
C  C379  1  0.00530000  0.42600000  0.99140000  1.0 -0.1644029346
C  C380  1  0.99470000  0.57400000  0.00860000  1.0 -0.1644029346
C  C381  1  0.82400000  0.75530000  0.24140000  1.0 -0.1644029346
C  C382  1  0.17600000  0.24470000  0.75860000  1.0 -0.1644029346
C  C383  1  0.67600000  0.24470000  0.74140000  1.0 -0.1644029346
C  C384  1  0.32400000  0.75530000  0.25860000  1.0 -0.1644029346
C  C385  1  0.49100000  0.02140000  0.01450000  1.0 0.0905992694
C  C386  1  0.50900000  0.97860000  0.98550000  1.0 0.0905992694
C  C387  1  0.00900000  0.97860000  0.51450000  1.0 0.0905992694
C  C388  1  0.99100000  0.02140000  0.48550000  1.0 0.0905992694
C  C389  1  0.22860000  0.24100000  0.26450000  1.0 0.0905992694
C  C390  1  0.77140000  0.75900000  0.73550000  1.0 0.0905992694
C  C391  1  0.27140000  0.75900000  0.76450000  1.0 0.0905992694
C  C392  1  0.72860000  0.24100000  0.23550000  1.0 0.0905992694
C  C393  1  0.00900000  0.02140000  0.98550000  1.0 0.0905992694
C  C394  1  0.99100000  0.97860000  0.01450000  1.0 0.0905992694
C  C395  1  0.49100000  0.97860000  0.48550000  1.0 0.0905992694
C  C396  1  0.50900000  0.02140000  0.51450000  1.0 0.0905992694
C  C397  1  0.27140000  0.24100000  0.73550000  1.0 0.0905992694
C  C398  1  0.72860000  0.75900000  0.26450000  1.0 0.0905992694
C  C399  1  0.22860000  0.75900000  0.23550000  1.0 0.0905992694
C  C400  1  0.77140000  0.24100000  0.76450000  1.0 0.0905992694
C  C401  1  0.99100000  0.52140000  0.51450000  1.0 0.0905992694
C  C402  1  0.00900000  0.47860000  0.48550000  1.0 0.0905992694
C  C403  1  0.50900000  0.47860000  0.01450000  1.0 0.0905992694
C  C404  1  0.49100000  0.52140000  0.98550000  1.0 0.0905992694
C  C405  1  0.72860000  0.74100000  0.76450000  1.0 0.0905992694
C  C406  1  0.27140000  0.25900000  0.23550000  1.0 0.0905992694
C  C407  1  0.77140000  0.25900000  0.26450000  1.0 0.0905992694
C  C408  1  0.22860000  0.74100000  0.73550000  1.0 0.0905992694
C  C409  1  0.50900000  0.52140000  0.48550000  1.0 0.0905992694
C  C410  1  0.49100000  0.47860000  0.51450000  1.0 0.0905992694
C  C411  1  0.99100000  0.47860000  0.98550000  1.0 0.0905992694
C  C412  1  0.00900000  0.52140000  0.01450000  1.0 0.0905992694
C  C413  1  0.77140000  0.74100000  0.23550000  1.0 0.0905992694
C  C414  1  0.22860000  0.25900000  0.76450000  1.0 0.0905992694
C  C415  1  0.72860000  0.25900000  0.73550000  1.0 0.0905992694
C  C416  1  0.27140000  0.74100000  0.26450000  1.0 0.0905992694
C  C417  1  0.47300000  0.00900000  0.06600000  1.0 -0.2098458932
C  C418  1  0.52700000  0.99100000  0.93400000  1.0 -0.2098458932
C  C419  1  0.02700000  0.99100000  0.56600000  1.0 -0.2098458932
C  C420  1  0.97300000  0.00900000  0.43400000  1.0 -0.2098458932
C  C421  1  0.24100000  0.22300000  0.31600000  1.0 -0.2098458932
C  C422  1  0.75900000  0.77700000  0.68400000  1.0 -0.2098458932
C  C423  1  0.25900000  0.77700000  0.81600000  1.0 -0.2098458932
C  C424  1  0.74100000  0.22300000  0.18400000  1.0 -0.2098458932
C  C425  1  0.02700000  0.00900000  0.93400000  1.0 -0.2098458932
C  C426  1  0.97300000  0.99100000  0.06600000  1.0 -0.2098458932
C  C427  1  0.47300000  0.99100000  0.43400000  1.0 -0.2098458932
C  C428  1  0.52700000  0.00900000  0.56600000  1.0 -0.2098458932
C  C429  1  0.25900000  0.22300000  0.68400000  1.0 -0.2098458932
C  C430  1  0.74100000  0.77700000  0.31600000  1.0 -0.2098458932
C  C431  1  0.24100000  0.77700000  0.18400000  1.0 -0.2098458932
C  C432  1  0.75900000  0.22300000  0.81600000  1.0 -0.2098458932
C  C433  1  0.97300000  0.50900000  0.56600000  1.0 -0.2098458932
C  C434  1  0.02700000  0.49100000  0.43400000  1.0 -0.2098458932
C  C435  1  0.52700000  0.49100000  0.06600000  1.0 -0.2098458932
C  C436  1  0.47300000  0.50900000  0.93400000  1.0 -0.2098458932
C  C437  1  0.74100000  0.72300000  0.81600000  1.0 -0.2098458932
C  C438  1  0.25900000  0.27700000  0.18400000  1.0 -0.2098458932
C  C439  1  0.75900000  0.27700000  0.31600000  1.0 -0.2098458932
C  C440  1  0.24100000  0.72300000  0.68400000  1.0 -0.2098458932
C  C441  1  0.52700000  0.50900000  0.43400000  1.0 -0.2098458932
C  C442  1  0.47300000  0.49100000  0.56600000  1.0 -0.2098458932
C  C443  1  0.97300000  0.49100000  0.93400000  1.0 -0.2098458932
C  C444  1  0.02700000  0.50900000  0.06600000  1.0 -0.2098458932
C  C445  1  0.75900000  0.72300000  0.18400000  1.0 -0.2098458932
C  C446  1  0.24100000  0.27700000  0.81600000  1.0 -0.2098458932
C  C447  1  0.74100000  0.27700000  0.68400000  1.0 -0.2098458932
C  C448  1  0.25900000  0.72300000  0.31600000  1.0 -0.2098458932
C  C449  1  0.45700000  0.05700000  0.09100000  1.0 0.0832554816
C  C450  1  0.54300000  0.94300000  0.90900000  1.0 0.0832554816
C  C451  1  0.04300000  0.94300000  0.59100000  1.0 0.0832554816
C  C452  1  0.95700000  0.05700000  0.40900000  1.0 0.0832554816
C  C453  1  0.19300000  0.20700000  0.34100000  1.0 0.0832554816
C  C454  1  0.80700000  0.79300000  0.65900000  1.0 0.0832554816
C  C455  1  0.30700000  0.79300000  0.84100000  1.0 0.0832554816
C  C456  1  0.69300000  0.20700000  0.15900000  1.0 0.0832554816
C  C457  1  0.04300000  0.05700000  0.90900000  1.0 0.0832554816
C  C458  1  0.95700000  0.94300000  0.09100000  1.0 0.0832554816
C  C459  1  0.45700000  0.94300000  0.40900000  1.0 0.0832554816
C  C460  1  0.54300000  0.05700000  0.59100000  1.0 0.0832554816
C  C461  1  0.30700000  0.20700000  0.65900000  1.0 0.0832554816
C  C462  1  0.69300000  0.79300000  0.34100000  1.0 0.0832554816
C  C463  1  0.19300000  0.79300000  0.15900000  1.0 0.0832554816
C  C464  1  0.80700000  0.20700000  0.84100000  1.0 0.0832554816
C  C465  1  0.95700000  0.55700000  0.59100000  1.0 0.0832554816
C  C466  1  0.04300000  0.44300000  0.40900000  1.0 0.0832554816
C  C467  1  0.54300000  0.44300000  0.09100000  1.0 0.0832554816
C  C468  1  0.45700000  0.55700000  0.90900000  1.0 0.0832554816
C  C469  1  0.69300000  0.70700000  0.84100000  1.0 0.0832554816
C  C470  1  0.30700000  0.29300000  0.15900000  1.0 0.0832554816
C  C471  1  0.80700000  0.29300000  0.34100000  1.0 0.0832554816
C  C472  1  0.19300000  0.70700000  0.65900000  1.0 0.0832554816
C  C473  1  0.54300000  0.55700000  0.40900000  1.0 0.0832554816
C  C474  1  0.45700000  0.44300000  0.59100000  1.0 0.0832554816
C  C475  1  0.95700000  0.44300000  0.90900000  1.0 0.0832554816
C  C476  1  0.04300000  0.55700000  0.09100000  1.0 0.0832554816
C  C477  1  0.80700000  0.70700000  0.15900000  1.0 0.0832554816
C  C478  1  0.19300000  0.29300000  0.84100000  1.0 0.0832554816
C  C479  1  0.69300000  0.29300000  0.65900000  1.0 0.0832554816
C  C480  1  0.30700000  0.70700000  0.34100000  1.0 0.0832554816
S  S1  1  0.99980000  0.32390000  0.08030000  1.0 -0.4883724249
S  S2  1  0.00020000  0.67610000  0.91970000  1.0 -0.4847715677
S  S3  1  0.50020000  0.67610000  0.58030000  1.0 -0.4847715677
S  S4  1  0.49980000  0.32390000  0.41970000  1.0 -0.4883724249
S  S5  1  0.92610000  0.74980000  0.33030000  1.0 -0.4883724249
S  S6  1  0.07390000  0.25020000  0.66970000  1.0 -0.4847715677
S  S7  1  0.57390000  0.25020000  0.83030000  1.0 -0.4883724249
S  S8  1  0.42610000  0.74980000  0.16970000  1.0 -0.4883724249
S  S9  1  0.50020000  0.32390000  0.91970000  1.0 -0.4883724249
S  S10  1  0.49980000  0.67610000  0.08030000  1.0 -0.4883724249
S  S11  1  0.99980000  0.67610000  0.41970000  1.0 -0.4883724249
S  S12  1  0.00020000  0.32390000  0.58030000  1.0 -0.4847715677
S  S13  1  0.57390000  0.74980000  0.66970000  1.0 -0.4883724249
S  S14  1  0.42610000  0.25020000  0.33030000  1.0 -0.4847715677
S  S15  1  0.92610000  0.25020000  0.16970000  1.0 -0.4883724249
S  S16  1  0.07390000  0.74980000  0.83030000  1.0 -0.4847715677
S  S17  1  0.49980000  0.82390000  0.58030000  1.0 -0.4847715677
S  S18  1  0.50020000  0.17610000  0.41970000  1.0 -0.4883724249
S  S19  1  0.00020000  0.17610000  0.08030000  1.0 -0.4847715677
S  S20  1  0.99980000  0.82390000  0.91970000  1.0 -0.4883724249
S  S21  1  0.42610000  0.24980000  0.83030000  1.0 -0.4883724249
S  S22  1  0.57390000  0.75020000  0.16970000  1.0 -0.4883724249
S  S23  1  0.07390000  0.75020000  0.33030000  1.0 -0.4847715677
S  S24  1  0.92610000  0.24980000  0.66970000  1.0 -0.4883724249
S  S25  1  0.00020000  0.82390000  0.41970000  1.0 -0.4883724249
S  S26  1  0.99980000  0.17610000  0.58030000  1.0 -0.4883724249
S  S27  1  0.49980000  0.17610000  0.91970000  1.0 -0.4883724249
S  S28  1  0.50020000  0.82390000  0.08030000  1.0 -0.4883724249
S  S29  1  0.07390000  0.24980000  0.16970000  1.0 -0.4847715677
S  S30  1  0.92610000  0.75020000  0.83030000  1.0 -0.4883724249
S  S31  1  0.42610000  0.75020000  0.66970000  1.0 -0.4883724249
S  S32  1  0.57390000  0.24980000  0.33030000  1.0 -0.4847715677
S  S33  1  0.42690000  0.24890000  0.07910000  1.0 -0.4412579717
S  S34  1  0.57310000  0.75110000  0.92090000  1.0 -0.4412579717
S  S35  1  0.07310000  0.75110000  0.57910000  1.0 -0.4412579717
S  S36  1  0.92690000  0.24890000  0.42090000  1.0 -0.4412579717
S  S37  1  0.00110000  0.17690000  0.32910000  1.0 -0.4412579717
S  S38  1  0.99890000  0.82310000  0.67090000  1.0 -0.4412579717
S  S39  1  0.49890000  0.82310000  0.82910000  1.0 -0.4412579717
S  S40  1  0.50110000  0.17690000  0.17090000  1.0 -0.4412579717
S  S41  1  0.07310000  0.24890000  0.92090000  1.0 -0.4412579717
S  S42  1  0.92690000  0.75110000  0.07910000  1.0 -0.4412579717
S  S43  1  0.42690000  0.75110000  0.42090000  1.0 -0.4412579717
S  S44  1  0.57310000  0.24890000  0.57910000  1.0 -0.4412579717
S  S45  1  0.49890000  0.17690000  0.67090000  1.0 -0.4412579717
S  S46  1  0.50110000  0.82310000  0.32910000  1.0 -0.4412579717
S  S47  1  0.00110000  0.82310000  0.17090000  1.0 -0.4412579717
S  S48  1  0.99890000  0.17690000  0.82910000  1.0 -0.4412579717
S  S49  1  0.92690000  0.74890000  0.57910000  1.0 -0.4412579717
S  S50  1  0.07310000  0.25110000  0.42090000  1.0 -0.4412579717
S  S51  1  0.57310000  0.25110000  0.07910000  1.0 -0.4412579717
S  S52  1  0.42690000  0.74890000  0.92090000  1.0 -0.4412579717
S  S53  1  0.50110000  0.67690000  0.82910000  1.0 -0.4412579717
S  S54  1  0.49890000  0.32310000  0.17090000  1.0 -0.4412579717
S  S55  1  0.99890000  0.32310000  0.32910000  1.0 -0.4412579717
S  S56  1  0.00110000  0.67690000  0.67090000  1.0 -0.4412579717
S  S57  1  0.57310000  0.74890000  0.42090000  1.0 -0.4412579717
S  S58  1  0.42690000  0.25110000  0.57910000  1.0 -0.4412579717
S  S59  1  0.92690000  0.25110000  0.92090000  1.0 -0.4412579717
S  S60  1  0.07310000  0.74890000  0.07910000  1.0 -0.4412579717
S  S61  1  0.99890000  0.67690000  0.17090000  1.0 -0.4412579717
S  S62  1  0.00110000  0.32310000  0.82910000  1.0 -0.4412579717
S  S63  1  0.50110000  0.32310000  0.67090000  1.0 -0.4412579717
S  S64  1  0.49890000  0.67690000  0.32910000  1.0 -0.4412579717
I  I1  1  0.33892000  0.13411000  0.15176000  1.0 -0.4883724249
I  I2  1  0.66108000  0.86589000  0.84824000  1.0 -0.4883724249
I  I3  1  0.16108000  0.86589000  0.65176000  1.0 -0.4883724249
I  I4  1  0.83892000  0.13411000  0.34824000  1.0 -0.4883724249
I  I5  1  0.11589000  0.08892000  0.40176000  1.0 -0.4883724249
I  I6  1  0.88411000  0.91108000  0.59824000  1.0 -0.4883724249
I  I7  1  0.38411000  0.91108000  0.90176000  1.0 -0.4883724249
I  I8  1  0.61589000  0.08892000  0.09824000  1.0 -0.4883724249
I  I9  1  0.16108000  0.13411000  0.84824000  1.0 -0.4883724249
I  I10  1  0.83892000  0.86589000  0.15176000  1.0 -0.4883724249
I  I11  1  0.33892000  0.86589000  0.34824000  1.0 -0.4883724249
I  I12  1  0.66108000  0.13411000  0.65176000  1.0 -0.4883724249
I  I13  1  0.38411000  0.08892000  0.59824000  1.0 -0.4883724249
I  I14  1  0.61589000  0.91108000  0.40176000  1.0 -0.4883724249
I  I15  1  0.11589000  0.91108000  0.09824000  1.0 -0.4883724249
I  I16  1  0.88411000  0.08892000  0.90176000  1.0 -0.4883724249
I  I17  1  0.83892000  0.63411000  0.65176000  1.0 -0.4883724249
I  I18  1  0.16108000  0.36589000  0.34824000  1.0 -0.4883724249
I  I19  1  0.66108000  0.36589000  0.15176000  1.0 -0.4883724249
I  I20  1  0.33892000  0.63411000  0.84824000  1.0 -0.4883724249
I  I21  1  0.61589000  0.58892000  0.90176000  1.0 -0.4883724249
I  I22  1  0.38411000  0.41108000  0.09824000  1.0 -0.4883724249
I  I23  1  0.88411000  0.41108000  0.40176000  1.0 -0.4883724249
I  I24  1  0.11589000  0.58892000  0.59824000  1.0 -0.4883724249
I  I25  1  0.66108000  0.63411000  0.34824000  1.0 -0.4883724249
I  I26  1  0.33892000  0.36589000  0.65176000  1.0 -0.4883724249
I  I27  1  0.83892000  0.36589000  0.84824000  1.0 -0.4883724249
I  I28  1  0.16108000  0.63411000  0.15176000  1.0 -0.4883724249
I  I29  1  0.88411000  0.58892000  0.09824000  1.0 -0.4883724249
I  I30  1  0.11589000  0.41108000  0.90176000  1.0 -0.4883724249
I  I31  1  0.61589000  0.41108000  0.59824000  1.0 -0.4883724249
I  I32  1  0.38411000  0.58892000  0.40176000  1.0 -0.4883724249
N  N1  1  0.13970000  0.33230000  0.07840000  1.0 -0.1798884173
N  N2  1  0.86030000  0.66770000  0.92160000  1.0 -0.1798884173
N  N3  1  0.36030000  0.66770000  0.57840000  1.0 -0.1798884173
N  N4  1  0.63970000  0.33230000  0.42160000  1.0 -0.1798884173
N  N5  1  0.91770000  0.88970000  0.32840000  1.0 -0.1798884173
N  N6  1  0.08230000  0.11030000  0.67160000  1.0 -0.1798884173
N  N7  1  0.58230000  0.11030000  0.82840000  1.0 -0.1798884173
N  N8  1  0.41770000  0.88970000  0.17160000  1.0 -0.1798884173
N  N9  1  0.36030000  0.33230000  0.92160000  1.0 -0.1798884173
N  N10  1  0.63970000  0.66770000  0.07840000  1.0 -0.1798884173
N  N11  1  0.13970000  0.66770000  0.42160000  1.0 -0.1798884173
N  N12  1  0.86030000  0.33230000  0.57840000  1.0 -0.1798884173
N  N13  1  0.58230000  0.88970000  0.67160000  1.0 -0.1798884173
N  N14  1  0.41770000  0.11030000  0.32840000  1.0 -0.1798884173
N  N15  1  0.91770000  0.11030000  0.17160000  1.0 -0.1798884173
N  N16  1  0.08230000  0.88970000  0.82840000  1.0 -0.1798884173
N  N17  1  0.63970000  0.83230000  0.57840000  1.0 -0.1798884173
N  N18  1  0.36030000  0.16770000  0.42160000  1.0 -0.1798884173
N  N19  1  0.86030000  0.16770000  0.07840000  1.0 -0.1798884173
N  N20  1  0.13970000  0.83230000  0.92160000  1.0 -0.1798884173
N  N21  1  0.41770000  0.38970000  0.82840000  1.0 -0.1798884173
N  N22  1  0.58230000  0.61030000  0.17160000  1.0 -0.1798884173
N  N23  1  0.08230000  0.61030000  0.32840000  1.0 -0.1798884173
N  N24  1  0.91770000  0.38970000  0.67160000  1.0 -0.1798884173
N  N25  1  0.86030000  0.83230000  0.42160000  1.0 -0.1798884173
N  N26  1  0.13970000  0.16770000  0.57840000  1.0 -0.1798884173
N  N27  1  0.63970000  0.16770000  0.92160000  1.0 -0.1798884173
N  N28  1  0.36030000  0.83230000  0.07840000  1.0 -0.1798884173
N  N29  1  0.08230000  0.38970000  0.17160000  1.0 -0.1798884173
N  N30  1  0.91770000  0.61030000  0.82840000  1.0 -0.1798884173
N  N31  1  0.41770000  0.61030000  0.67160000  1.0 -0.1798884173
N  N32  1  0.58230000  0.38970000  0.32840000  1.0 -0.1798884173
N  N33  1  0.92270000  0.39130000  0.17090000  1.0 -0.1908693849
N  N34  1  0.07730000  0.60870000  0.82910000  1.0 -0.1908693849
N  N35  1  0.57730000  0.60870000  0.67090000  1.0 -0.1908693849
N  N36  1  0.42270000  0.39130000  0.32910000  1.0 -0.1908693849
N  N37  1  0.85870000  0.67270000  0.42090000  1.0 -0.1908693849
N  N38  1  0.14130000  0.32730000  0.57910000  1.0 -0.1908693849
N  N39  1  0.64130000  0.32730000  0.92090000  1.0 -0.1908693849
N  N40  1  0.35870000  0.67270000  0.07910000  1.0 -0.1908693849
N  N41  1  0.57730000  0.39130000  0.82910000  1.0 -0.1908693849
N  N42  1  0.42270000  0.60870000  0.17090000  1.0 -0.1908693849
N  N43  1  0.92270000  0.60870000  0.32910000  1.0 -0.1908693849
N  N44  1  0.07730000  0.39130000  0.67090000  1.0 -0.1908693849
N  N45  1  0.64130000  0.67270000  0.57910000  1.0 -0.1908693849
N  N46  1  0.35870000  0.32730000  0.42090000  1.0 -0.1908693849
N  N47  1  0.85870000  0.32730000  0.07910000  1.0 -0.1908693849
N  N48  1  0.14130000  0.67270000  0.92090000  1.0 -0.1908693849
N  N49  1  0.42270000  0.89130000  0.67090000  1.0 -0.1908693849
N  N50  1  0.57730000  0.10870000  0.32910000  1.0 -0.1908693849
N  N51  1  0.07730000  0.10870000  0.17090000  1.0 -0.1908693849
N  N52  1  0.92270000  0.89130000  0.82910000  1.0 -0.1908693849
N  N53  1  0.35870000  0.17270000  0.92090000  1.0 -0.1908693849
N  N54  1  0.64130000  0.82730000  0.07910000  1.0 -0.1908693849
N  N55  1  0.14130000  0.82730000  0.42090000  1.0 -0.1908693849
N  N56  1  0.85870000  0.17270000  0.57910000  1.0 -0.1908693849
N  N57  1  0.07730000  0.89130000  0.32910000  1.0 -0.1908693849
N  N58  1  0.92270000  0.10870000  0.67090000  1.0 -0.1908693849
N  N59  1  0.42270000  0.10870000  0.82910000  1.0 -0.1908693849
N  N60  1  0.57730000  0.89130000  0.17090000  1.0 -0.1908693849
N  N61  1  0.14130000  0.17270000  0.07910000  1.0 -0.1908693849
N  N62  1  0.85870000  0.82730000  0.92090000  1.0 -0.1908693849
N  N63  1  0.35870000  0.82730000  0.57910000  1.0 -0.1908693849
N  N64  1  0.64130000  0.17270000  0.42090000  1.0 -0.1908693849
N  N65  1  0.45170000  0.10540000  0.07180000  1.0 -0.1908693849
N  N66  1  0.54830000  0.89460000  0.92820000  1.0 -0.1908693849
N  N67  1  0.04830000  0.89460000  0.57180000  1.0 -0.1908693849
N  N68  1  0.95170000  0.10540000  0.42820000  1.0 -0.1908693849
N  N69  1  0.14460000  0.20170000  0.32180000  1.0 -0.1908693849
N  N70  1  0.85540000  0.79830000  0.67820000  1.0 -0.1908693849
N  N71  1  0.35540000  0.79830000  0.82180000  1.0 -0.1908693849
N  N72  1  0.64460000  0.20170000  0.17820000  1.0 -0.1908693849
N  N73  1  0.04830000  0.10540000  0.92820000  1.0 -0.1908693849
N  N74  1  0.95170000  0.89460000  0.07180000  1.0 -0.1908693849
N  N75  1  0.45170000  0.89460000  0.42820000  1.0 -0.1908693849
N  N76  1  0.54830000  0.10540000  0.57180000  1.0 -0.1908693849
N  N77  1  0.35540000  0.20170000  0.67820000  1.0 -0.1908693849
N  N78  1  0.64460000  0.79830000  0.32180000  1.0 -0.1908693849
N  N79  1  0.14460000  0.79830000  0.17820000  1.0 -0.1908693849
N  N80  1  0.85540000  0.20170000  0.82180000  1.0 -0.1908693849
N  N81  1  0.95170000  0.60540000  0.57180000  1.0 -0.1908693849
N  N82  1  0.04830000  0.39460000  0.42820000  1.0 -0.1908693849
N  N83  1  0.54830000  0.39460000  0.07180000  1.0 -0.1908693849
N  N84  1  0.45170000  0.60540000  0.92820000  1.0 -0.1908693849
N  N85  1  0.64460000  0.70170000  0.82180000  1.0 -0.1908693849
N  N86  1  0.35540000  0.29830000  0.17820000  1.0 -0.1908693849
N  N87  1  0.85540000  0.29830000  0.32180000  1.0 -0.1908693849
N  N88  1  0.14460000  0.70170000  0.67820000  1.0 -0.1908693849
N  N89  1  0.54830000  0.60540000  0.42820000  1.0 -0.1908693849
N  N90  1  0.45170000  0.39460000  0.57180000  1.0 -0.1908693849
N  N91  1  0.95170000  0.39460000  0.92820000  1.0 -0.1908693849
N  N92  1  0.04830000  0.60540000  0.07180000  1.0 -0.1908693849
N  N93  1  0.85540000  0.70170000  0.17820000  1.0 -0.1908693849
N  N94  1  0.14460000  0.29830000  0.82180000  1.0 -0.1908693849
N  N95  1  0.64460000  0.29830000  0.67820000  1.0 -0.1908693849
N  N96  1  0.35540000  0.70170000  0.32180000  1.0 -0.1908693849
