# DDEC6 charges by PACMAN v1.1 (https://github.com/mtap-research/PACMAN-charge/)
data_ICAREL_ASR_pacman
_symmetry_space_group_name_H-M   'P 1'
_cell_length_a   33.42320000
_cell_length_b   33.42320000
_cell_length_c   33.42320000
_cell_angle_alpha   60.49520000
_cell_angle_beta   60.49520000
_cell_angle_gamma   60.49520000
_symmetry_Int_Tables_number   1
_chemical_formula_structural   Cu4H71C103N3O16
_chemical_formula_sum   'Cu24 H426 C618 N18 O96'
_cell_volume   26697.01046761
_cell_formula_units_Z   6
loop_
 _symmetry_equiv_pos_site_id
 _symmetry_equiv_pos_as_xyz
  1  'x, y, z'
loop_
 _atom_site_type_symbol
 _atom_site_label
 _atom_site_symmetry_multiplicity
 _atom_site_fract_x
 _atom_site_fract_y
 _atom_site_fract_z
 _atom_site_occupancy
 _atom_site_charge
Cu  Cu1  1  0.59310000  0.59310000  0.05553000  1.0 0.7108456316
Cu  Cu2  1  0.05553000  0.59310000  0.59310000  1.0 0.7108456316
Cu  Cu3  1  0.59310000  0.05553000  0.59310000  1.0 0.7108456316
Cu  Cu4  1  0.59423000  0.05462000  0.13286000  1.0 0.6687121414
Cu  Cu5  1  0.13286000  0.59423000  0.05462000  1.0 0.6687121414
Cu  Cu6  1  0.05462000  0.13286000  0.59423000  1.0 0.6687121414
Cu  Cu7  1  0.59423000  0.13286000  0.05462000  1.0 0.6687121414
Cu  Cu8  1  0.13286000  0.05462000  0.59423000  1.0 0.6687121414
Cu  Cu9  1  0.05462000  0.59423000  0.13286000  1.0 0.6687121414
Cu  Cu10  1  0.59467000  0.59467000  0.13300000  1.0 0.8423311832
Cu  Cu11  1  0.13300000  0.59467000  0.59467000  1.0 0.8423311832
Cu  Cu12  1  0.59467000  0.13300000  0.59467000  1.0 0.8423311832
Cu  Cu13  1  0.40690000  0.94447000  0.40690000  1.0 0.7108456316
Cu  Cu14  1  0.94447000  0.40690000  0.40690000  1.0 0.7108456316
Cu  Cu15  1  0.40690000  0.40690000  0.94447000  1.0 0.7108456316
Cu  Cu16  1  0.40577000  0.86714000  0.94538000  1.0 0.6687121414
Cu  Cu17  1  0.86714000  0.94538000  0.40577000  1.0 0.6687121414
Cu  Cu18  1  0.94538000  0.40577000  0.86714000  1.0 0.6687121414
Cu  Cu19  1  0.40577000  0.94538000  0.86714000  1.0 0.6687121414
Cu  Cu20  1  0.86714000  0.40577000  0.94538000  1.0 0.6687121414
Cu  Cu21  1  0.94538000  0.86714000  0.40577000  1.0 0.6687121414
Cu  Cu22  1  0.40533000  0.86700000  0.40533000  1.0 0.8423311832
Cu  Cu23  1  0.86700000  0.40533000  0.40533000  1.0 0.8423311832
Cu  Cu24  1  0.40533000  0.40533000  0.86700000  1.0 0.8423311832
H  H1  1  0.56550000  0.08810000  0.97250000  1.0 0.1197436057
H  H2  1  0.97250000  0.56550000  0.08810000  1.0 0.1197436057
H  H3  1  0.08810000  0.97250000  0.56550000  1.0 0.1197436057
H  H4  1  0.56550000  0.97250000  0.08810000  1.0 0.1197436057
H  H5  1  0.97250000  0.08810000  0.56550000  1.0 0.1197436057
H  H6  1  0.08810000  0.56550000  0.97250000  1.0 0.1197436057
H  H7  1  0.56570000  0.04810000  0.93250000  1.0 0.1098813839
H  H8  1  0.93250000  0.56570000  0.04810000  1.0 0.1098813839
H  H9  1  0.04810000  0.93250000  0.56570000  1.0 0.1098813839
H  H10  1  0.56570000  0.93250000  0.04810000  1.0 0.1098813839
H  H11  1  0.93250000  0.04810000  0.56570000  1.0 0.1098813839
H  H12  1  0.04810000  0.56570000  0.93250000  1.0 0.1098813839
H  H13  1  0.56710000  0.89630000  0.01450000  1.0 0.0989287665
H  H14  1  0.01450000  0.56710000  0.89630000  1.0 0.0989287665
H  H15  1  0.89630000  0.01450000  0.56710000  1.0 0.0989287665
H  H16  1  0.56710000  0.01450000  0.89630000  1.0 0.0989287665
H  H17  1  0.01450000  0.89630000  0.56710000  1.0 0.0989287665
H  H18  1  0.89630000  0.56710000  0.01450000  1.0 0.0989287665
H  H19  1  0.60340000  0.81750000  0.02910000  1.0 0.0989287665
H  H20  1  0.02910000  0.60340000  0.81750000  1.0 0.0989287665
H  H21  1  0.81750000  0.02910000  0.60340000  1.0 0.0989287665
H  H22  1  0.60340000  0.02910000  0.81750000  1.0 0.0989287665
H  H23  1  0.02910000  0.81750000  0.60340000  1.0 0.0989287665
H  H24  1  0.81750000  0.60340000  0.02910000  1.0 0.0989287665
H  H25  1  0.60470000  0.73840000  0.07030000  1.0 0.1098813839
H  H26  1  0.07030000  0.60470000  0.73840000  1.0 0.1098813839
H  H27  1  0.73840000  0.07030000  0.60470000  1.0 0.1098813839
H  H28  1  0.60470000  0.07030000  0.73840000  1.0 0.1098813839
H  H29  1  0.07030000  0.73840000  0.60470000  1.0 0.1098813839
H  H30  1  0.73840000  0.60470000  0.07030000  1.0 0.1098813839
H  H31  1  0.53350000  0.83490000  0.94990000  1.0 0.1098813839
H  H32  1  0.94990000  0.53350000  0.83490000  1.0 0.1098813839
H  H33  1  0.83490000  0.94990000  0.53350000  1.0 0.1098813839
H  H34  1  0.53350000  0.94990000  0.83490000  1.0 0.1098813839
H  H35  1  0.94990000  0.83490000  0.53350000  1.0 0.1098813839
H  H36  1  0.83490000  0.53350000  0.94990000  1.0 0.1098813839
H  H37  1  0.53880000  0.75420000  0.98870000  1.0 0.0912781485
H  H38  1  0.98870000  0.53880000  0.75420000  1.0 0.0912781485
H  H39  1  0.75420000  0.98870000  0.53880000  1.0 0.0912781485
H  H40  1  0.53880000  0.98870000  0.75420000  1.0 0.0912781485
H  H41  1  0.98870000  0.75420000  0.53880000  1.0 0.0912781485
H  H42  1  0.75420000  0.53880000  0.98870000  1.0 0.0912781485
H  H43  1  0.56670000  0.89530000  0.89530000  1.0 0.0989287665
H  H44  1  0.89530000  0.56670000  0.89530000  1.0 0.0989287665
H  H45  1  0.89530000  0.89530000  0.56670000  1.0 0.0989287665
H  H46  1  0.61990000  0.21470000  0.10090000  1.0 0.1284357961
H  H47  1  0.10090000  0.61990000  0.21470000  1.0 0.1284357961
H  H48  1  0.21470000  0.10090000  0.61990000  1.0 0.1284357961
H  H49  1  0.61990000  0.10090000  0.21470000  1.0 0.1284357961
H  H50  1  0.10090000  0.21470000  0.61990000  1.0 0.1284357961
H  H51  1  0.21470000  0.61990000  0.10090000  1.0 0.1284357961
H  H52  1  0.62640000  0.25300000  0.13860000  1.0 0.1098813839
H  H53  1  0.13860000  0.62640000  0.25300000  1.0 0.1098813839
H  H54  1  0.25300000  0.13860000  0.62640000  1.0 0.1098813839
H  H55  1  0.62640000  0.13860000  0.25300000  1.0 0.1098813839
H  H56  1  0.13860000  0.25300000  0.62640000  1.0 0.1098813839
H  H57  1  0.25300000  0.62640000  0.13860000  1.0 0.1098813839
H  H58  1  0.62170000  0.29110000  0.17240000  1.0 0.1098813839
H  H59  1  0.17240000  0.62170000  0.29110000  1.0 0.1098813839
H  H60  1  0.29110000  0.17240000  0.62170000  1.0 0.1098813839
H  H61  1  0.62170000  0.17240000  0.29110000  1.0 0.1098813839
H  H62  1  0.17240000  0.29110000  0.62170000  1.0 0.1098813839
H  H63  1  0.29110000  0.62170000  0.17240000  1.0 0.1098813839
H  H64  1  0.61360000  0.29430000  0.29430000  1.0 0.1098813839
H  H65  1  0.29430000  0.61360000  0.29430000  1.0 0.1098813839
H  H66  1  0.29430000  0.29430000  0.61360000  1.0 0.1098813839
H  H67  1  0.59320000  0.36850000  0.15140000  1.0 0.1098813839
H  H68  1  0.15140000  0.59320000  0.36850000  1.0 0.1098813839
H  H69  1  0.36850000  0.15140000  0.59320000  1.0 0.1098813839
H  H70  1  0.59320000  0.15140000  0.36850000  1.0 0.1098813839
H  H71  1  0.15140000  0.36850000  0.59320000  1.0 0.1098813839
H  H72  1  0.36850000  0.59320000  0.15140000  1.0 0.1098813839
H  H73  1  0.59000000  0.44770000  0.11320000  1.0 0.1284357961
H  H74  1  0.11320000  0.59000000  0.44770000  1.0 0.1284357961
H  H75  1  0.44770000  0.11320000  0.59000000  1.0 0.1284357961
H  H76  1  0.59000000  0.11320000  0.44770000  1.0 0.1284357961
H  H77  1  0.11320000  0.44770000  0.59000000  1.0 0.1284357961
H  H78  1  0.44770000  0.59000000  0.11320000  1.0 0.1284357961
H  H79  1  0.62720000  0.43920000  0.21320000  1.0 0.1197436057
H  H80  1  0.21320000  0.62720000  0.43920000  1.0 0.1197436057
H  H81  1  0.43920000  0.21320000  0.62720000  1.0 0.1197436057
H  H82  1  0.62720000  0.21320000  0.43920000  1.0 0.1197436057
H  H83  1  0.21320000  0.43920000  0.62720000  1.0 0.1197436057
H  H84  1  0.43920000  0.62720000  0.21320000  1.0 0.1197436057
H  H85  1  0.63400000  0.35830000  0.25040000  1.0 0.1098813839
H  H86  1  0.25040000  0.63400000  0.35830000  1.0 0.1098813839
H  H87  1  0.35830000  0.25040000  0.63400000  1.0 0.1098813839
H  H88  1  0.63400000  0.25040000  0.35830000  1.0 0.1098813839
H  H89  1  0.25040000  0.35830000  0.63400000  1.0 0.1098813839
H  H90  1  0.35830000  0.63400000  0.25040000  1.0 0.1098813839
H  H91  1  0.74620000  0.08400000  0.96900000  1.0 0.1284357961
H  H92  1  0.96900000  0.74620000  0.08400000  1.0 0.1284357961
H  H93  1  0.08400000  0.96900000  0.74620000  1.0 0.1284357961
H  H94  1  0.74620000  0.96900000  0.08400000  1.0 0.1284357961
H  H95  1  0.96900000  0.08400000  0.74620000  1.0 0.1284357961
H  H96  1  0.08400000  0.74620000  0.96900000  1.0 0.1284357961
H  H97  1  0.82460000  0.04590000  0.93020000  1.0 0.1098813839
H  H98  1  0.93020000  0.82460000  0.04590000  1.0 0.1098813839
H  H99  1  0.04590000  0.93020000  0.82460000  1.0 0.1098813839
H  H100  1  0.82460000  0.93020000  0.04590000  1.0 0.1098813839
H  H101  1  0.93020000  0.04590000  0.82460000  1.0 0.1098813839
H  H102  1  0.04590000  0.82460000  0.93020000  1.0 0.1098813839
H  H103  1  0.89500000  0.01330000  0.89510000  1.0 0.0989287665
H  H104  1  0.89510000  0.89500000  0.01330000  1.0 0.0989287665
H  H105  1  0.01330000  0.89510000  0.89500000  1.0 0.0989287665
H  H106  1  0.44410000  0.22270000  0.10570000  1.0 0.1098813839
H  H107  1  0.10570000  0.44410000  0.22270000  1.0 0.1098813839
H  H108  1  0.22270000  0.10570000  0.44410000  1.0 0.1098813839
H  H109  1  0.44410000  0.10570000  0.22270000  1.0 0.1098813839
H  H110  1  0.10570000  0.22270000  0.44410000  1.0 0.1098813839
H  H111  1  0.22270000  0.44410000  0.10570000  1.0 0.1098813839
H  H112  1  0.29720000  0.17810000  0.29720000  1.0 0.1098813839
H  H113  1  0.29720000  0.29720000  0.17810000  1.0 0.1098813839
H  H114  1  0.17810000  0.29720000  0.29720000  1.0 0.1098813839
H  H115  1  0.36690000  0.26190000  0.14580000  1.0 0.1098813839
H  H116  1  0.14580000  0.36690000  0.26190000  1.0 0.1098813839
H  H117  1  0.26190000  0.14580000  0.36690000  1.0 0.1098813839
H  H118  1  0.36690000  0.14580000  0.26190000  1.0 0.1098813839
H  H119  1  0.14580000  0.26190000  0.36690000  1.0 0.1098813839
H  H120  1  0.26190000  0.36690000  0.14580000  1.0 0.1098813839
H  H121  1  0.60140000  0.87220000  0.29200000  1.0 0.1098813839
H  H122  1  0.29200000  0.60140000  0.87220000  1.0 0.1098813839
H  H123  1  0.87220000  0.29200000  0.60140000  1.0 0.1098813839
H  H124  1  0.60140000  0.29200000  0.87220000  1.0 0.1098813839
H  H125  1  0.29200000  0.87220000  0.60140000  1.0 0.1098813839
H  H126  1  0.87220000  0.60140000  0.29200000  1.0 0.1098813839
H  H127  1  0.56110000  0.97120000  0.17450000  1.0 0.1197436057
H  H128  1  0.17450000  0.56110000  0.97120000  1.0 0.1197436057
H  H129  1  0.97120000  0.17450000  0.56110000  1.0 0.1197436057
H  H130  1  0.56110000  0.17450000  0.97120000  1.0 0.1197436057
H  H131  1  0.17450000  0.97120000  0.56110000  1.0 0.1197436057
H  H132  1  0.97120000  0.56110000  0.17450000  1.0 0.1197436057
H  H133  1  0.56310000  0.89690000  0.23780000  1.0 0.1098813839
H  H134  1  0.23780000  0.56310000  0.89690000  1.0 0.1098813839
H  H135  1  0.89690000  0.23780000  0.56310000  1.0 0.1098813839
H  H136  1  0.56310000  0.23780000  0.89690000  1.0 0.1098813839
H  H137  1  0.23780000  0.89690000  0.56310000  1.0 0.1098813839
H  H138  1  0.89690000  0.56310000  0.23780000  1.0 0.1098813839
H  H139  1  0.63680000  0.92180000  0.28380000  1.0 0.0989287665
H  H140  1  0.28380000  0.63680000  0.92180000  1.0 0.0989287665
H  H141  1  0.92180000  0.28380000  0.63680000  1.0 0.0989287665
H  H142  1  0.63680000  0.28380000  0.92180000  1.0 0.0989287665
H  H143  1  0.28380000  0.92180000  0.63680000  1.0 0.0989287665
H  H144  1  0.92180000  0.63680000  0.28380000  1.0 0.0989287665
H  H145  1  0.63460000  0.99600000  0.22020000  1.0 0.1197436057
H  H146  1  0.22020000  0.63460000  0.99600000  1.0 0.1197436057
H  H147  1  0.99600000  0.22020000  0.63460000  1.0 0.1197436057
H  H148  1  0.63460000  0.22020000  0.99600000  1.0 0.1197436057
H  H149  1  0.22020000  0.99600000  0.63460000  1.0 0.1197436057
H  H150  1  0.99600000  0.63460000  0.22020000  1.0 0.1197436057
H  H151  1  0.55170000  0.55180000  0.02430000  1.0 0.0989287665
H  H152  1  0.02430000  0.55170000  0.55180000  1.0 0.0989287665
H  H153  1  0.55180000  0.02430000  0.55170000  1.0 0.0989287665
H  H154  1  0.55640000  0.55640000  0.94540000  1.0 0.1098813839
H  H155  1  0.94540000  0.55640000  0.55640000  1.0 0.1098813839
H  H156  1  0.55640000  0.94540000  0.55640000  1.0 0.1098813839
H  H157  1  0.58900000  0.58920000  0.88690000  1.0 0.0989287665
H  H158  1  0.88690000  0.58900000  0.58920000  1.0 0.0989287665
H  H159  1  0.58920000  0.88690000  0.58900000  1.0 0.0989287665
H  H160  1  0.63390000  0.63350000  0.87390000  1.0 0.1197436057
H  H161  1  0.87390000  0.63390000  0.63350000  1.0 0.1197436057
H  H162  1  0.63350000  0.87390000  0.63390000  1.0 0.1197436057
H  H163  1  0.63240000  0.63250000  0.94750000  1.0 0.0989287665
H  H164  1  0.94750000  0.63240000  0.63250000  1.0 0.0989287665
H  H165  1  0.63250000  0.94750000  0.63240000  1.0 0.0989287665
H  H166  1  0.53970000  0.83460000  0.05180000  1.0 0.0989287665
H  H167  1  0.05180000  0.53970000  0.83460000  1.0 0.0989287665
H  H168  1  0.83460000  0.05180000  0.53970000  1.0 0.0989287665
H  H169  1  0.53970000  0.05180000  0.83460000  1.0 0.0989287665
H  H170  1  0.05180000  0.83460000  0.53970000  1.0 0.0989287665
H  H171  1  0.83460000  0.53970000  0.05180000  1.0 0.0989287665
H  H172  1  0.53300000  0.76090000  0.08840000  1.0 0.1098813839
H  H173  1  0.08840000  0.53300000  0.76090000  1.0 0.1098813839
H  H174  1  0.76090000  0.08840000  0.53300000  1.0 0.1098813839
H  H175  1  0.53300000  0.08840000  0.76090000  1.0 0.1098813839
H  H176  1  0.08840000  0.76090000  0.53300000  1.0 0.1098813839
H  H177  1  0.76090000  0.53300000  0.08840000  1.0 0.1098813839
H  H178  1  0.59920000  0.73780000  0.96190000  1.0 0.0989287665
H  H179  1  0.96190000  0.59920000  0.73780000  1.0 0.0989287665
H  H180  1  0.73780000  0.96190000  0.59920000  1.0 0.0989287665
H  H181  1  0.59920000  0.96190000  0.73780000  1.0 0.0989287665
H  H182  1  0.96190000  0.73780000  0.59920000  1.0 0.0989287665
H  H183  1  0.73780000  0.59920000  0.96190000  1.0 0.0989287665
H  H184  1  0.60050000  0.81840000  0.92110000  1.0 0.0989287665
H  H185  1  0.92110000  0.60050000  0.81840000  1.0 0.0989287665
H  H186  1  0.81840000  0.92110000  0.60050000  1.0 0.0989287665
H  H187  1  0.60050000  0.92110000  0.81840000  1.0 0.0989287665
H  H188  1  0.92110000  0.81840000  0.60050000  1.0 0.0989287665
H  H189  1  0.81840000  0.60050000  0.92110000  1.0 0.0989287665
H  H190  1  0.66280000  0.95110000  0.16950000  1.0 0.1197436057
H  H191  1  0.16950000  0.66280000  0.95110000  1.0 0.1197436057
H  H192  1  0.95110000  0.16950000  0.66280000  1.0 0.1197436057
H  H193  1  0.66280000  0.16950000  0.95110000  1.0 0.1197436057
H  H194  1  0.16950000  0.95110000  0.66280000  1.0 0.1197436057
H  H195  1  0.95110000  0.66280000  0.16950000  1.0 0.1197436057
H  H196  1  0.65880000  0.87690000  0.22010000  1.0 0.1098813839
H  H197  1  0.22010000  0.65880000  0.87690000  1.0 0.1098813839
H  H198  1  0.87690000  0.22010000  0.65880000  1.0 0.1098813839
H  H199  1  0.65880000  0.22010000  0.87690000  1.0 0.1098813839
H  H200  1  0.22010000  0.87690000  0.65880000  1.0 0.1098813839
H  H201  1  0.87690000  0.65880000  0.22010000  1.0 0.1098813839
H  H202  1  0.53780000  0.01920000  0.24500000  1.0 0.1197436057
H  H203  1  0.24500000  0.53780000  0.01920000  1.0 0.1197436057
H  H204  1  0.01920000  0.24500000  0.53780000  1.0 0.1197436057
H  H205  1  0.53780000  0.24500000  0.01920000  1.0 0.1197436057
H  H206  1  0.24500000  0.01920000  0.53780000  1.0 0.1197436057
H  H207  1  0.01920000  0.53780000  0.24500000  1.0 0.1197436057
H  H208  1  0.53910000  0.94030000  0.30430000  1.0 0.1197436057
H  H209  1  0.30430000  0.53910000  0.94030000  1.0 0.1197436057
H  H210  1  0.94030000  0.30430000  0.53910000  1.0 0.1197436057
H  H211  1  0.53910000  0.30430000  0.94030000  1.0 0.1197436057
H  H212  1  0.30430000  0.94030000  0.53910000  1.0 0.1197436057
H  H213  1  0.94030000  0.53910000  0.30430000  1.0 0.1197436057
H  H214  1  0.43450000  0.02750000  0.91190000  1.0 0.1197436057
H  H215  1  0.02750000  0.91190000  0.43450000  1.0 0.1197436057
H  H216  1  0.91190000  0.43450000  0.02750000  1.0 0.1197436057
H  H217  1  0.43450000  0.91190000  0.02750000  1.0 0.1197436057
H  H218  1  0.02750000  0.43450000  0.91190000  1.0 0.1197436057
H  H219  1  0.91190000  0.02750000  0.43450000  1.0 0.1197436057
H  H220  1  0.43430000  0.06750000  0.95190000  1.0 0.1098813839
H  H221  1  0.06750000  0.95190000  0.43430000  1.0 0.1098813839
H  H222  1  0.95190000  0.43430000  0.06750000  1.0 0.1098813839
H  H223  1  0.43430000  0.95190000  0.06750000  1.0 0.1098813839
H  H224  1  0.06750000  0.43430000  0.95190000  1.0 0.1098813839
H  H225  1  0.95190000  0.06750000  0.43430000  1.0 0.1098813839
H  H226  1  0.43290000  0.98550000  0.10370000  1.0 0.0989287665
H  H227  1  0.98550000  0.10370000  0.43290000  1.0 0.0989287665
H  H228  1  0.10370000  0.43290000  0.98550000  1.0 0.0989287665
H  H229  1  0.43290000  0.10370000  0.98550000  1.0 0.0989287665
H  H230  1  0.98550000  0.43290000  0.10370000  1.0 0.0989287665
H  H231  1  0.10370000  0.98550000  0.43290000  1.0 0.0989287665
H  H232  1  0.39660000  0.97090000  0.18250000  1.0 0.0989287665
H  H233  1  0.97090000  0.18250000  0.39660000  1.0 0.0989287665
H  H234  1  0.18250000  0.39660000  0.97090000  1.0 0.0989287665
H  H235  1  0.39660000  0.18250000  0.97090000  1.0 0.0989287665
H  H236  1  0.97090000  0.39660000  0.18250000  1.0 0.0989287665
H  H237  1  0.18250000  0.97090000  0.39660000  1.0 0.0989287665
H  H238  1  0.39530000  0.92970000  0.26160000  1.0 0.1098813839
H  H239  1  0.92970000  0.26160000  0.39530000  1.0 0.1098813839
H  H240  1  0.26160000  0.39530000  0.92970000  1.0 0.1098813839
H  H241  1  0.39530000  0.26160000  0.92970000  1.0 0.1098813839
H  H242  1  0.92970000  0.39530000  0.26160000  1.0 0.1098813839
H  H243  1  0.26160000  0.92970000  0.39530000  1.0 0.1098813839
H  H244  1  0.46650000  0.05010000  0.16510000  1.0 0.1098813839
H  H245  1  0.05010000  0.16510000  0.46650000  1.0 0.1098813839
H  H246  1  0.16510000  0.46650000  0.05010000  1.0 0.1098813839
H  H247  1  0.46650000  0.16510000  0.05010000  1.0 0.1098813839
H  H248  1  0.05010000  0.46650000  0.16510000  1.0 0.1098813839
H  H249  1  0.16510000  0.05010000  0.46650000  1.0 0.1098813839
H  H250  1  0.46120000  0.01130000  0.24580000  1.0 0.0912781485
H  H251  1  0.01130000  0.24580000  0.46120000  1.0 0.0912781485
H  H252  1  0.24580000  0.46120000  0.01130000  1.0 0.0912781485
H  H253  1  0.46120000  0.24580000  0.01130000  1.0 0.0912781485
H  H254  1  0.01130000  0.46120000  0.24580000  1.0 0.0912781485
H  H255  1  0.24580000  0.01130000  0.46120000  1.0 0.0912781485
H  H256  1  0.43330000  0.10470000  0.10470000  1.0 0.0989287665
H  H257  1  0.10470000  0.10470000  0.43330000  1.0 0.0989287665
H  H258  1  0.10470000  0.43330000  0.10470000  1.0 0.0989287665
H  H259  1  0.38010000  0.89910000  0.78530000  1.0 0.1284357961
H  H260  1  0.89910000  0.78530000  0.38010000  1.0 0.1284357961
H  H261  1  0.78530000  0.38010000  0.89910000  1.0 0.1284357961
H  H262  1  0.38010000  0.78530000  0.89910000  1.0 0.1284357961
H  H263  1  0.89910000  0.38010000  0.78530000  1.0 0.1284357961
H  H264  1  0.78530000  0.89910000  0.38010000  1.0 0.1284357961
H  H265  1  0.37360000  0.86140000  0.74700000  1.0 0.1098813839
H  H266  1  0.86140000  0.74700000  0.37360000  1.0 0.1098813839
H  H267  1  0.74700000  0.37360000  0.86140000  1.0 0.1098813839
H  H268  1  0.37360000  0.74700000  0.86140000  1.0 0.1098813839
H  H269  1  0.86140000  0.37360000  0.74700000  1.0 0.1098813839
H  H270  1  0.74700000  0.86140000  0.37360000  1.0 0.1098813839
H  H271  1  0.37830000  0.82760000  0.70890000  1.0 0.1098813839
H  H272  1  0.82760000  0.70890000  0.37830000  1.0 0.1098813839
H  H273  1  0.70890000  0.37830000  0.82760000  1.0 0.1098813839
H  H274  1  0.37830000  0.70890000  0.82760000  1.0 0.1098813839
H  H275  1  0.82760000  0.37830000  0.70890000  1.0 0.1098813839
H  H276  1  0.70890000  0.82760000  0.37830000  1.0 0.1098813839
H  H277  1  0.38640000  0.70570000  0.70570000  1.0 0.1098813839
H  H278  1  0.70570000  0.70570000  0.38640000  1.0 0.1098813839
H  H279  1  0.70570000  0.38640000  0.70570000  1.0 0.1098813839
H  H280  1  0.40680000  0.84860000  0.63150000  1.0 0.1098813839
H  H281  1  0.84860000  0.63150000  0.40680000  1.0 0.1197436057
H  H282  1  0.63150000  0.40680000  0.84860000  1.0 0.1197436057
H  H283  1  0.40680000  0.63150000  0.84860000  1.0 0.1098813839
H  H284  1  0.84860000  0.40680000  0.63150000  1.0 0.1098813839
H  H285  1  0.63150000  0.84860000  0.40680000  1.0 0.1098813839
H  H286  1  0.41000000  0.88680000  0.55230000  1.0 0.1284357961
H  H287  1  0.88680000  0.55230000  0.41000000  1.0 0.1284357961
H  H288  1  0.55230000  0.41000000  0.88680000  1.0 0.1284357961
H  H289  1  0.41000000  0.55230000  0.88680000  1.0 0.1284357961
H  H290  1  0.88680000  0.41000000  0.55230000  1.0 0.1284357961
H  H291  1  0.55230000  0.88680000  0.41000000  1.0 0.1284357961
H  H292  1  0.37280000  0.78680000  0.56080000  1.0 0.1197436057
H  H293  1  0.78680000  0.56080000  0.37280000  1.0 0.1197436057
H  H294  1  0.56080000  0.37280000  0.78680000  1.0 0.1197436057
H  H295  1  0.37280000  0.56080000  0.78680000  1.0 0.1197436057
H  H296  1  0.78680000  0.37280000  0.56080000  1.0 0.1197436057
H  H297  1  0.56080000  0.78680000  0.37280000  1.0 0.1197436057
H  H298  1  0.36600000  0.74960000  0.64170000  1.0 0.1098813839
H  H299  1  0.74960000  0.64170000  0.36600000  1.0 0.1098813839
H  H300  1  0.64170000  0.36600000  0.74960000  1.0 0.1098813839
H  H301  1  0.36600000  0.64170000  0.74960000  1.0 0.1098813839
H  H302  1  0.74960000  0.36600000  0.64170000  1.0 0.1098813839
H  H303  1  0.64170000  0.74960000  0.36600000  1.0 0.1098813839
H  H304  1  0.25380000  0.03100000  0.91600000  1.0 0.1284357961
H  H305  1  0.03100000  0.91600000  0.25380000  1.0 0.1284357961
H  H306  1  0.91600000  0.25380000  0.03100000  1.0 0.1284357961
H  H307  1  0.25380000  0.91600000  0.03100000  1.0 0.1284357961
H  H308  1  0.03100000  0.25380000  0.91600000  1.0 0.1284357961
H  H309  1  0.91600000  0.03100000  0.25380000  1.0 0.1284357961
H  H310  1  0.17540000  0.06980000  0.95410000  1.0 0.1098813839
H  H311  1  0.06980000  0.95410000  0.17540000  1.0 0.1098813839
H  H312  1  0.95410000  0.17540000  0.06980000  1.0 0.1098813839
H  H313  1  0.17540000  0.95410000  0.06980000  1.0 0.1098813839
H  H314  1  0.06980000  0.17540000  0.95410000  1.0 0.1098813839
H  H315  1  0.95410000  0.06980000  0.17540000  1.0 0.1098813839
H  H316  1  0.10500000  0.10490000  0.98670000  1.0 0.0989287665
H  H317  1  0.10490000  0.98670000  0.10500000  1.0 0.0989287665
H  H318  1  0.98670000  0.10500000  0.10490000  1.0 0.0989287665
H  H319  1  0.55590000  0.89430000  0.77730000  1.0 0.1098813839
H  H320  1  0.89430000  0.77730000  0.55590000  1.0 0.1098813839
H  H321  1  0.77730000  0.55590000  0.89430000  1.0 0.1098813839
H  H322  1  0.55590000  0.77730000  0.89430000  1.0 0.1098813839
H  H323  1  0.89430000  0.55590000  0.77730000  1.0 0.1098813839
H  H324  1  0.77730000  0.89430000  0.55590000  1.0 0.1098813839
H  H325  1  0.70280000  0.70280000  0.82190000  1.0 0.1098813839
H  H326  1  0.70280000  0.82190000  0.70280000  1.0 0.1098813839
H  H327  1  0.82190000  0.70280000  0.70280000  1.0 0.1098813839
H  H328  1  0.63310000  0.85420000  0.73810000  1.0 0.1098813839
H  H329  1  0.85420000  0.73810000  0.63310000  1.0 0.1098813839
H  H330  1  0.73810000  0.63310000  0.85420000  1.0 0.1098813839
H  H331  1  0.63310000  0.73810000  0.85420000  1.0 0.1098813839
H  H332  1  0.85420000  0.63310000  0.73810000  1.0 0.1098813839
H  H333  1  0.73810000  0.85420000  0.63310000  1.0 0.1098813839
H  H334  1  0.39860000  0.70800000  0.12780000  1.0 0.1098813839
H  H335  1  0.70800000  0.12780000  0.39860000  1.0 0.1098813839
H  H336  1  0.12780000  0.39860000  0.70800000  1.0 0.1098813839
H  H337  1  0.39860000  0.12780000  0.70800000  1.0 0.1098813839
H  H338  1  0.70800000  0.39860000  0.12780000  1.0 0.1098813839
H  H339  1  0.12780000  0.70800000  0.39860000  1.0 0.1098813839
H  H340  1  0.43890000  0.82550000  0.02880000  1.0 0.1197436057
H  H341  1  0.82550000  0.02880000  0.43890000  1.0 0.1197436057
H  H342  1  0.02880000  0.43890000  0.82550000  1.0 0.1197436057
H  H343  1  0.43890000  0.02880000  0.82550000  1.0 0.1197436057
H  H344  1  0.82550000  0.43890000  0.02880000  1.0 0.1197436057
H  H345  1  0.02880000  0.82550000  0.43890000  1.0 0.1197436057
H  H346  1  0.43690000  0.76220000  0.10310000  1.0 0.1098813839
H  H347  1  0.76220000  0.10310000  0.43690000  1.0 0.1098813839
H  H348  1  0.10310000  0.43690000  0.76220000  1.0 0.1098813839
H  H349  1  0.43690000  0.10310000  0.76220000  1.0 0.1098813839
H  H350  1  0.76220000  0.43690000  0.10310000  1.0 0.1098813839
H  H351  1  0.10310000  0.76220000  0.43690000  1.0 0.1098813839
H  H352  1  0.36320000  0.71620000  0.07820000  1.0 0.0989287665
H  H353  1  0.71620000  0.07820000  0.36320000  1.0 0.0989287665
H  H354  1  0.07820000  0.36320000  0.71620000  1.0 0.0989287665
H  H355  1  0.36320000  0.07820000  0.71620000  1.0 0.0989287665
H  H356  1  0.71620000  0.36320000  0.07820000  1.0 0.0989287665
H  H357  1  0.07820000  0.71620000  0.36320000  1.0 0.0989287665
H  H358  1  0.36540000  0.77980000  0.00400000  1.0 0.1197436057
H  H359  1  0.77980000  0.00400000  0.36540000  1.0 0.1197436057
H  H360  1  0.00400000  0.36540000  0.77980000  1.0 0.1197436057
H  H361  1  0.36540000  0.00400000  0.77980000  1.0 0.1197436057
H  H362  1  0.77980000  0.36540000  0.00400000  1.0 0.1197436057
H  H363  1  0.00400000  0.77980000  0.36540000  1.0 0.1098813839
H  H364  1  0.44830000  0.97570000  0.44820000  1.0 0.0989287665
H  H365  1  0.97570000  0.44820000  0.44830000  1.0 0.0989287665
H  H366  1  0.44820000  0.44830000  0.97570000  1.0 0.0989287665
H  H367  1  0.44360000  0.05460000  0.44360000  1.0 0.1098813839
H  H368  1  0.05460000  0.44360000  0.44360000  1.0 0.1098813839
H  H369  1  0.44360000  0.44360000  0.05460000  1.0 0.1098813839
H  H370  1  0.41100000  0.11310000  0.41080000  1.0 0.0989287665
H  H371  1  0.11310000  0.41080000  0.41100000  1.0 0.1098813839
H  H372  1  0.41080000  0.41100000  0.11310000  1.0 0.1098813839
H  H373  1  0.36610000  0.12610000  0.36650000  1.0 0.1197436057
H  H374  1  0.12610000  0.36650000  0.36610000  1.0 0.1197436057
H  H375  1  0.36650000  0.36610000  0.12610000  1.0 0.1197436057
H  H376  1  0.36760000  0.05250000  0.36750000  1.0 0.0989287665
H  H377  1  0.05250000  0.36750000  0.36760000  1.0 0.0989287665
H  H378  1  0.36750000  0.36760000  0.05250000  1.0 0.0989287665
H  H379  1  0.46030000  0.94820000  0.16540000  1.0 0.0989287665
H  H380  1  0.94820000  0.16540000  0.46030000  1.0 0.0989287665
H  H381  1  0.16540000  0.46030000  0.94820000  1.0 0.0989287665
H  H382  1  0.46030000  0.16540000  0.94820000  1.0 0.0989287665
H  H383  1  0.94820000  0.46030000  0.16540000  1.0 0.0989287665
H  H384  1  0.16540000  0.94820000  0.46030000  1.0 0.0989287665
H  H385  1  0.46700000  0.91160000  0.23910000  1.0 0.1098813839
H  H386  1  0.91160000  0.23910000  0.46700000  1.0 0.1098813839
H  H387  1  0.23910000  0.46700000  0.91160000  1.0 0.1098813839
H  H388  1  0.46700000  0.23910000  0.91160000  1.0 0.1098813839
H  H389  1  0.91160000  0.46700000  0.23910000  1.0 0.1098813839
H  H390  1  0.23910000  0.91160000  0.46700000  1.0 0.1098813839
H  H391  1  0.40080000  0.03810000  0.26220000  1.0 0.0989287665
H  H392  1  0.03810000  0.26220000  0.40080000  1.0 0.0989287665
H  H393  1  0.26220000  0.40080000  0.03810000  1.0 0.0989287665
H  H394  1  0.40080000  0.26220000  0.03810000  1.0 0.0989287665
H  H395  1  0.03810000  0.40080000  0.26220000  1.0 0.0989287665
H  H396  1  0.26220000  0.03810000  0.40080000  1.0 0.0989287665
H  H397  1  0.39950000  0.07890000  0.18160000  1.0 0.0989287665
H  H398  1  0.07890000  0.18160000  0.39950000  1.0 0.0989287665
H  H399  1  0.18160000  0.39950000  0.07890000  1.0 0.0989287665
H  H400  1  0.39950000  0.18160000  0.07890000  1.0 0.0989287665
H  H401  1  0.07890000  0.39950000  0.18160000  1.0 0.0989287665
H  H402  1  0.18160000  0.07890000  0.39950000  1.0 0.0989287665
H  H403  1  0.33720000  0.83050000  0.04890000  1.0 0.1197436057
H  H404  1  0.83050000  0.04890000  0.33720000  1.0 0.1197436057
H  H405  1  0.04890000  0.33720000  0.83050000  1.0 0.1197436057
H  H406  1  0.33720000  0.04890000  0.83050000  1.0 0.1197436057
H  H407  1  0.83050000  0.33720000  0.04890000  1.0 0.1197436057
H  H408  1  0.04890000  0.83050000  0.33720000  1.0 0.1197436057
H  H409  1  0.34120000  0.77990000  0.12310000  1.0 0.1098813839
H  H410  1  0.77990000  0.12310000  0.34120000  1.0 0.1098813839
H  H411  1  0.12310000  0.34120000  0.77990000  1.0 0.1098813839
H  H412  1  0.34120000  0.12310000  0.77990000  1.0 0.1098813839
H  H413  1  0.77990000  0.34120000  0.12310000  1.0 0.1098813839
H  H414  1  0.12310000  0.77990000  0.34120000  1.0 0.1098813839
H  H415  1  0.46220000  0.75500000  0.98080000  1.0 0.1197436057
H  H416  1  0.75500000  0.98080000  0.46220000  1.0 0.1197436057
H  H417  1  0.98080000  0.46220000  0.75500000  1.0 0.1197436057
H  H418  1  0.46220000  0.98080000  0.75500000  1.0 0.1197436057
H  H419  1  0.75500000  0.46220000  0.98080000  1.0 0.1197436057
H  H420  1  0.98080000  0.75500000  0.46220000  1.0 0.1197436057
H  H421  1  0.46090000  0.69570000  0.05970000  1.0 0.1197436057
H  H422  1  0.69570000  0.05970000  0.46090000  1.0 0.1197436057
H  H423  1  0.05970000  0.46090000  0.69570000  1.0 0.1197436057
H  H424  1  0.46090000  0.05970000  0.69570000  1.0 0.1197436057
H  H425  1  0.69570000  0.46090000  0.05970000  1.0 0.1197436057
H  H426  1  0.05970000  0.69570000  0.46090000  1.0 0.1197436057
C  C1  1  0.57650000  0.05666000  0.05666000  1.0 0.5518778486
C  C2  1  0.05666000  0.57650000  0.05666000  1.0 0.5518778486
C  C3  1  0.05666000  0.05666000  0.57650000  1.0 0.5518778486
C  C4  1  0.57189000  0.03243000  0.03243000  1.0 -0.0009459636
C  C5  1  0.03243000  0.57189000  0.03243000  1.0 -0.0009459636
C  C6  1  0.03243000  0.03243000  0.57189000  1.0 -0.0009459636
C  C7  1  0.56778000  0.05543000  0.98789000  1.0 -0.1318566131
C  C8  1  0.98789000  0.56778000  0.05543000  1.0 -0.1318566131
C  C9  1  0.05543000  0.98789000  0.56778000  1.0 -0.1318566131
C  C10  1  0.56778000  0.98789000  0.05543000  1.0 -0.1318566131
C  C11  1  0.98789000  0.05543000  0.56778000  1.0 -0.1318566131
C  C12  1  0.05543000  0.56778000  0.98789000  1.0 -0.1318566131
C  C13  1  0.56679000  0.03147000  0.96421000  1.0 -0.1807060894
C  C14  1  0.96421000  0.56679000  0.03147000  1.0 -0.1807060894
C  C15  1  0.03147000  0.96421000  0.56679000  1.0 -0.1807060894
C  C16  1  0.56679000  0.96421000  0.03147000  1.0 -0.1807060894
C  C17  1  0.96421000  0.03147000  0.56679000  1.0 -0.1807060894
C  C18  1  0.03147000  0.56679000  0.96421000  1.0 -0.1807060894
C  C19  1  0.56721000  0.98539000  0.98539000  1.0 0.0783654002
C  C20  1  0.98539000  0.56721000  0.98539000  1.0 0.0783654002
C  C21  1  0.98539000  0.98539000  0.56721000  1.0 0.0783654002
C  C22  1  0.56614000  0.95981000  0.95981000  1.0 0.0989287665
C  C23  1  0.95981000  0.56614000  0.95981000  1.0 0.0989287665
C  C24  1  0.95981000  0.95981000  0.56614000  1.0 0.0989287665
C  C25  1  0.56670000  0.91217000  0.98265000  1.0 -0.2184648268
C  C26  1  0.98265000  0.56670000  0.91217000  1.0 -0.2184648268
C  C27  1  0.91217000  0.98265000  0.56670000  1.0 -0.2184648268
C  C28  1  0.56670000  0.98265000  0.91217000  1.0 -0.2184648268
C  C29  1  0.98265000  0.91217000  0.56670000  1.0 -0.2184648268
C  C30  1  0.91217000  0.56670000  0.98265000  1.0 -0.2184648268
C  C31  1  0.56844000  0.83617000  0.98419000  1.0 0.0289173261
C  C32  1  0.98419000  0.56844000  0.83617000  1.0 0.0289173261
C  C33  1  0.83617000  0.98419000  0.56844000  1.0 0.0289173261
C  C34  1  0.56844000  0.98419000  0.83617000  1.0 0.0289173261
C  C35  1  0.98419000  0.83617000  0.56844000  1.0 0.0289173261
C  C36  1  0.83617000  0.56844000  0.98419000  1.0 0.0289173261
C  C37  1  0.58998000  0.80525000  0.02084000  1.0 -0.0708617478
C  C38  1  0.02084000  0.58998000  0.80525000  1.0 -0.0708617478
C  C39  1  0.80525000  0.02084000  0.58998000  1.0 -0.0708617478
C  C40  1  0.58998000  0.02084000  0.80525000  1.0 -0.0708617478
C  C41  1  0.02084000  0.80525000  0.58998000  1.0 -0.0708617478
C  C42  1  0.80525000  0.58998000  0.02084000  1.0 -0.0708617478
C  C43  1  0.59187000  0.75740000  0.04490000  1.0 -0.0596771616
C  C44  1  0.04490000  0.59187000  0.75740000  1.0 -0.0708617478
C  C45  1  0.75740000  0.04490000  0.59187000  1.0 -0.0708617478
C  C46  1  0.59187000  0.04490000  0.75740000  1.0 -0.0708617478
C  C47  1  0.04490000  0.75740000  0.59187000  1.0 -0.0708617478
C  C48  1  0.75740000  0.59187000  0.04490000  1.0 -0.0708617478
C  C49  1  0.54887000  0.81560000  0.97324000  1.0 -0.0596771616
C  C50  1  0.97324000  0.54887000  0.81560000  1.0 -0.0596771616
C  C51  1  0.81560000  0.97324000  0.54887000  1.0 -0.0596771616
C  C52  1  0.54887000  0.97324000  0.81560000  1.0 -0.0596771616
C  C53  1  0.97324000  0.81560000  0.54887000  1.0 -0.0596771616
C  C54  1  0.81560000  0.54887000  0.97324000  1.0 -0.0596771616
C  C55  1  0.55214000  0.76680000  0.99669000  1.0 -0.0795194927
C  C56  1  0.99669000  0.55214000  0.76680000  1.0 -0.0795194927
C  C57  1  0.76680000  0.99669000  0.55214000  1.0 -0.0795194927
C  C58  1  0.55214000  0.99669000  0.76680000  1.0 -0.0795194927
C  C59  1  0.99669000  0.76680000  0.55214000  1.0 -0.0795194927
C  C60  1  0.76680000  0.55214000  0.99669000  1.0 -0.0795194927
C  C61  1  0.57426000  0.73725000  0.03085000  1.0 -0.0226007436
C  C62  1  0.03085000  0.57426000  0.73725000  1.0 -0.0226007436
C  C63  1  0.73725000  0.03085000  0.57426000  1.0 -0.0226007436
C  C64  1  0.57426000  0.03085000  0.73725000  1.0 -0.0226007436
C  C65  1  0.03085000  0.73725000  0.57426000  1.0 -0.0226007436
C  C66  1  0.73725000  0.57426000  0.03085000  1.0 -0.0226007436
C  C67  1  0.57937000  0.68442000  0.05529000  1.0 0.5055331511
C  C68  1  0.05529000  0.57937000  0.68442000  1.0 0.5055331511
C  C69  1  0.68442000  0.05529000  0.57937000  1.0 0.5055331511
C  C70  1  0.57937000  0.05529000  0.68442000  1.0 0.5044531575
C  C71  1  0.05529000  0.68442000  0.57937000  1.0 0.5055331511
C  C72  1  0.68442000  0.57937000  0.05529000  1.0 0.5055331511
C  C73  1  0.56666000  0.88691000  0.95935000  1.0 0.0477225703
C  C74  1  0.95935000  0.56666000  0.88691000  1.0 0.0477225703
C  C75  1  0.88691000  0.95935000  0.56666000  1.0 0.0477225703
C  C76  1  0.56666000  0.95935000  0.88691000  1.0 0.0477225703
C  C77  1  0.95935000  0.88691000  0.56666000  1.0 0.0477225703
C  C78  1  0.88691000  0.56666000  0.95935000  1.0 0.0477225703
C  C79  1  0.56665000  0.91139000  0.91139000  1.0 -0.258177904
C  C80  1  0.91139000  0.56665000  0.91139000  1.0 -0.258177904
C  C81  1  0.91139000  0.91139000  0.56665000  1.0 -0.258177904
C  C82  1  0.61214000  0.13060000  0.13060000  1.0 0.5518778486
C  C83  1  0.13060000  0.61214000  0.13060000  1.0 0.5518778486
C  C84  1  0.13060000  0.13060000  0.61214000  1.0 0.5518778486
C  C85  1  0.61766000  0.15472000  0.15472000  1.0 0.0010611118
C  C86  1  0.15472000  0.61766000  0.15472000  1.0 0.0010611118
C  C87  1  0.15472000  0.15472000  0.61766000  1.0 0.0010611118
C  C88  1  0.62025000  0.19848000  0.13279000  1.0 -0.1199756795
C  C89  1  0.13279000  0.62025000  0.19848000  1.0 -0.1199756795
C  C90  1  0.19848000  0.13279000  0.62025000  1.0 -0.1199756795
C  C91  1  0.62025000  0.13279000  0.19848000  1.0 -0.1199756795
C  C92  1  0.13279000  0.19848000  0.62025000  1.0 -0.1199756795
C  C93  1  0.19848000  0.62025000  0.13279000  1.0 -0.1199756795
C  C94  1  0.62352000  0.22207000  0.15609000  1.0 -0.1807060894
C  C95  1  0.15609000  0.62352000  0.22207000  1.0 -0.1852443239
C  C96  1  0.22207000  0.15609000  0.62352000  1.0 -0.1852443239
C  C97  1  0.62352000  0.15609000  0.22207000  1.0 -0.1852443239
C  C98  1  0.15609000  0.22207000  0.62352000  1.0 -0.1807060894
C  C99  1  0.22207000  0.62352000  0.15609000  1.0 -0.1807060894
C  C100  1  0.62264000  0.20170000  0.20170000  1.0 0.0700077432
C  C101  1  0.20170000  0.62264000  0.20170000  1.0 0.0700077432
C  C102  1  0.20170000  0.20170000  0.62264000  1.0 0.0700077432
C  C103  1  0.62216000  0.22759000  0.22759000  1.0 0.0912781485
C  C104  1  0.22759000  0.62216000  0.22759000  1.0 0.0912781485
C  C105  1  0.22759000  0.22759000  0.62216000  1.0 0.0912781485
C  C106  1  0.62081000  0.27563000  0.20475000  1.0 -0.2064122479
C  C107  1  0.20475000  0.62081000  0.27563000  1.0 -0.2064122479
C  C108  1  0.27563000  0.20475000  0.62081000  1.0 -0.2064122479
C  C109  1  0.62081000  0.20475000  0.27563000  1.0 -0.2064122479
C  C110  1  0.20475000  0.27563000  0.62081000  1.0 -0.2064122479
C  C111  1  0.27563000  0.62081000  0.20475000  1.0 -0.2064122479
C  C112  1  0.61788000  0.30146000  0.22937000  1.0 0.0700077432
C  C113  1  0.22937000  0.61788000  0.30146000  1.0 0.0700077432
C  C114  1  0.30146000  0.22937000  0.61788000  1.0 0.0700077432
C  C115  1  0.61788000  0.22937000  0.30146000  1.0 0.0700077432
C  C116  1  0.22937000  0.30146000  0.61788000  1.0 0.0700077432
C  C117  1  0.30146000  0.61788000  0.22937000  1.0 0.0700077432
C  C118  1  0.61612000  0.27750000  0.27750000  1.0 -0.1972815869
C  C119  1  0.27750000  0.61612000  0.27750000  1.0 -0.1972815869
C  C120  1  0.27750000  0.27750000  0.61612000  1.0 -0.1972815869
C  C121  1  0.61524000  0.35362000  0.20451000  1.0 0.0700077432
C  C122  1  0.20451000  0.61524000  0.35362000  1.0 0.0700077432
C  C123  1  0.35362000  0.20451000  0.61524000  1.0 0.0700077432
C  C124  1  0.61524000  0.20451000  0.35362000  1.0 0.0700077432
C  C125  1  0.20451000  0.35362000  0.61524000  1.0 0.0700077432
C  C126  1  0.35362000  0.61524000  0.20451000  1.0 0.0700077432
C  C127  1  0.60130000  0.38206000  0.16397000  1.0 -0.1612466191
C  C128  1  0.16397000  0.60130000  0.38206000  1.0 -0.1612466191
C  C129  1  0.38206000  0.16397000  0.60130000  1.0 -0.1612466191
C  C130  1  0.60130000  0.16397000  0.38206000  1.0 -0.1612466191
C  C131  1  0.16397000  0.38206000  0.60130000  1.0 -0.1612466191
C  C132  1  0.38206000  0.60130000  0.16397000  1.0 -0.1612466191
C  C133  1  0.59881000  0.42990000  0.14127000  1.0 -0.1132247048
C  C134  1  0.14127000  0.59881000  0.42990000  1.0 -0.1132247048
C  C135  1  0.42990000  0.14127000  0.59881000  1.0 -0.1132247048
C  C136  1  0.59881000  0.14127000  0.42990000  1.0 -0.1132247048
C  C137  1  0.14127000  0.42990000  0.59881000  1.0 -0.1132247048
C  C138  1  0.42990000  0.59881000  0.14127000  1.0 -0.1132247048
C  C139  1  0.60873000  0.45199000  0.15879000  1.0 -0.032695018
C  C140  1  0.15879000  0.60873000  0.45199000  1.0 -0.032695018
C  C141  1  0.45199000  0.15879000  0.60873000  1.0 -0.032695018
C  C142  1  0.60873000  0.15879000  0.45199000  1.0 -0.032695018
C  C143  1  0.15879000  0.45199000  0.60873000  1.0 -0.032695018
C  C144  1  0.45199000  0.60873000  0.15879000  1.0 -0.032695018
C  C145  1  0.62119000  0.42478000  0.20006000  1.0 -0.1199756795
C  C146  1  0.20006000  0.62119000  0.42478000  1.0 -0.1199756795
C  C147  1  0.42478000  0.20006000  0.62119000  1.0 -0.1199756795
C  C148  1  0.62119000  0.20006000  0.42478000  1.0 -0.1199756795
C  C149  1  0.20006000  0.42478000  0.62119000  1.0 -0.1199756795
C  C150  1  0.42478000  0.62119000  0.20006000  1.0 -0.1199756795
C  C151  1  0.62493000  0.37612000  0.22269000  1.0 -0.170611121
C  C152  1  0.22269000  0.62493000  0.37612000  1.0 -0.170611121
C  C153  1  0.37612000  0.22269000  0.62493000  1.0 -0.170611121
C  C154  1  0.62493000  0.22269000  0.37612000  1.0 -0.170611121
C  C155  1  0.22269000  0.37612000  0.62493000  1.0 -0.170611121
C  C156  1  0.37612000  0.62493000  0.22269000  1.0 -0.170611121
C  C157  1  0.60602000  0.50384000  0.13374000  1.0 0.5518778486
C  C158  1  0.13374000  0.60602000  0.50384000  1.0 0.5518778486
C  C159  1  0.50384000  0.13374000  0.60602000  1.0 0.5518778486
C  C160  1  0.60602000  0.13374000  0.50384000  1.0 0.5518778486
C  C161  1  0.13374000  0.50384000  0.60602000  1.0 0.5518778486
C  C162  1  0.50384000  0.60602000  0.13374000  1.0 0.5518778486
C  C163  1  0.68411000  0.05441000  0.05441000  1.0 0.5518778486
C  C164  1  0.05441000  0.68411000  0.05441000  1.0 0.5518778486
C  C165  1  0.05441000  0.05441000  0.68411000  1.0 0.5518778486
C  C166  1  0.73674000  0.02997000  0.02997000  1.0 -0.0087687983
C  C167  1  0.02997000  0.73674000  0.02997000  1.0 -0.0087687983
C  C168  1  0.02997000  0.02997000  0.73674000  1.0 -0.0087687983
C  C169  1  0.76170000  0.05194000  0.98520000  1.0 -0.1199756795
C  C170  1  0.98520000  0.76170000  0.05194000  1.0 -0.1199756795
C  C171  1  0.05194000  0.98520000  0.76170000  1.0 -0.1199756795
C  C172  1  0.76170000  0.98520000  0.05194000  1.0 -0.1199756795
C  C173  1  0.98520000  0.05194000  0.76170000  1.0 -0.1199756795
C  C174  1  0.05194000  0.76170000  0.98520000  1.0 -0.1199756795
C  C175  1  0.80927000  0.02912000  0.96192000  1.0 -0.170611121
C  C176  1  0.96192000  0.80927000  0.02912000  1.0 -0.170611121
C  C177  1  0.02912000  0.96192000  0.80927000  1.0 -0.170611121
C  C178  1  0.80927000  0.96192000  0.02912000  1.0 -0.170611121
C  C179  1  0.96192000  0.02912000  0.80927000  1.0 -0.170611121
C  C180  1  0.02912000  0.80927000  0.96192000  1.0 -0.170611121
C  C181  1  0.83432000  0.98340000  0.98340000  1.0 0.0783654002
C  C182  1  0.98340000  0.83432000  0.98340000  1.0 0.0700077432
C  C183  1  0.98340000  0.98340000  0.83432000  1.0 0.0783654002
C  C184  1  0.88632000  0.95821000  0.95821000  1.0 0.0783654002
C  C185  1  0.95821000  0.88632000  0.95821000  1.0 0.0783654002
C  C186  1  0.95821000  0.95821000  0.88632000  1.0 0.0783654002
C  C187  1  0.91087000  0.98127000  0.91087000  1.0 -0.2064122479
C  C188  1  0.91087000  0.91087000  0.98127000  1.0 -0.2064122479
C  C189  1  0.98127000  0.91087000  0.91087000  1.0 -0.2064122479
C  C190  1  0.50498000  0.13415000  0.13415000  1.0 0.544069342
C  C191  1  0.13415000  0.50498000  0.13415000  1.0 0.544069342
C  C192  1  0.13415000  0.13415000  0.50498000  1.0 0.544069342
C  C193  1  0.45354000  0.15945000  0.15945000  1.0 -0.0226007436
C  C194  1  0.15945000  0.45354000  0.15945000  1.0 -0.0226007436
C  C195  1  0.15945000  0.15945000  0.45354000  1.0 -0.0226007436
C  C196  1  0.42894000  0.20629000  0.13766000  1.0 -0.1199756795
C  C197  1  0.13766000  0.42894000  0.20629000  1.0 -0.1199756795
C  C198  1  0.20629000  0.13766000  0.42894000  1.0 -0.1199756795
C  C199  1  0.42894000  0.13766000  0.20629000  1.0 -0.1199756795
C  C200  1  0.13766000  0.20629000  0.42894000  1.0 -0.1199756795
C  C201  1  0.20629000  0.42894000  0.13766000  1.0 -0.1199756795
C  C202  1  0.35705000  0.20789000  0.20789000  1.0 0.0912781485
C  C203  1  0.20789000  0.35705000  0.20789000  1.0 0.0912781485
C  C204  1  0.20789000  0.20789000  0.35705000  1.0 0.0912781485
C  C205  1  0.30635000  0.23371000  0.23370000  1.0 0.0783654002
C  C206  1  0.23370000  0.30635000  0.23371000  1.0 0.0783654002
C  C207  1  0.23371000  0.23370000  0.30635000  1.0 0.0783654002
C  C208  1  0.28151000  0.21026000  0.28151000  1.0 -0.2064122479
C  C209  1  0.28151000  0.28151000  0.21026000  1.0 -0.2064122479
C  C210  1  0.21026000  0.28151000  0.28151000  1.0 -0.2064122479
C  C211  1  0.38216000  0.22969000  0.16179000  1.0 -0.1807060894
C  C212  1  0.16179000  0.38216000  0.22969000  1.0 -0.1807060894
C  C213  1  0.22969000  0.16179000  0.38216000  1.0 -0.1807060894
C  C214  1  0.38216000  0.16179000  0.22969000  1.0 -0.1807060894
C  C215  1  0.16179000  0.22969000  0.38216000  1.0 -0.1807060894
C  C216  1  0.22969000  0.38216000  0.16179000  1.0 -0.1807060894
C  C217  1  0.60028000  0.90197000  0.26695000  1.0 -0.0708617478
C  C218  1  0.26695000  0.60028000  0.90197000  1.0 -0.0708617478
C  C219  1  0.90197000  0.26695000  0.60028000  1.0 -0.0708617478
C  C220  1  0.60028000  0.26695000  0.90197000  1.0 -0.0708617478
C  C221  1  0.26695000  0.90197000  0.60028000  1.0 -0.0708617478
C  C222  1  0.90197000  0.60028000  0.26695000  1.0 -0.0708617478
C  C223  1  0.57550000  0.96123000  0.19707000  1.0 -0.0795194927
C  C224  1  0.19707000  0.57550000  0.96123000  1.0 -0.0795194927
C  C225  1  0.96123000  0.19707000  0.57550000  1.0 -0.0795194927
C  C226  1  0.57550000  0.19707000  0.96123000  1.0 -0.0795194927
C  C227  1  0.19707000  0.96123000  0.57550000  1.0 -0.0795194927
C  C228  1  0.96123000  0.57550000  0.19707000  1.0 -0.0795194927
C  C229  1  0.57728000  0.91676000  0.23448000  1.0 -0.0708617478
C  C230  1  0.23448000  0.57728000  0.91676000  1.0 -0.0708617478
C  C231  1  0.91676000  0.23448000  0.57728000  1.0 -0.0708617478
C  C232  1  0.57728000  0.23448000  0.91676000  1.0 -0.0708617478
C  C233  1  0.23448000  0.91676000  0.57728000  1.0 -0.0708617478
C  C234  1  0.91676000  0.57728000  0.23448000  1.0 -0.0708617478
C  C235  1  0.62151000  0.93164000  0.26201000  1.0 -0.0509724137
C  C236  1  0.26201000  0.62151000  0.93164000  1.0 -0.0509724137
C  C237  1  0.93164000  0.26201000  0.62151000  1.0 -0.0509724137
C  C238  1  0.62151000  0.26201000  0.93164000  1.0 -0.0509724137
C  C239  1  0.26201000  0.93164000  0.62151000  1.0 -0.0509724137
C  C240  1  0.93164000  0.62151000  0.26201000  1.0 -0.0509724137
C  C241  1  0.61973000  0.97613000  0.22461000  1.0 -0.0226007436
C  C242  1  0.22461000  0.61973000  0.97613000  1.0 -0.0226007436
C  C243  1  0.97613000  0.22461000  0.61973000  1.0 -0.0226007436
C  C244  1  0.61973000  0.22461000  0.97613000  1.0 -0.0226007436
C  C245  1  0.22461000  0.97613000  0.61973000  1.0 -0.0226007436
C  C246  1  0.97613000  0.61973000  0.22461000  1.0 -0.0226007436
C  C247  1  0.56940000  0.56933000  0.99465000  1.0 0.0597977533
C  C248  1  0.99465000  0.56940000  0.56933000  1.0 0.0597977533
C  C249  1  0.56933000  0.99465000  0.56940000  1.0 0.0597977533
C  C250  1  0.57290000  0.57283000  0.94445000  1.0 -0.1132247048
C  C251  1  0.94445000  0.57290000  0.57283000  1.0 -0.1132247048
C  C252  1  0.57283000  0.94445000  0.57290000  1.0 -0.1199756795
C  C253  1  0.59000000  0.58993000  0.91385000  1.0 -0.0509724137
C  C254  1  0.91385000  0.59000000  0.58993000  1.0 -0.0509724137
C  C255  1  0.58993000  0.91385000  0.59000000  1.0 -0.0509724137
C  C256  1  0.61703000  0.61679000  0.90487000  1.0 -0.2184648268
C  C257  1  0.90487000  0.61703000  0.61679000  1.0 -0.2184648268
C  C258  1  0.61679000  0.90487000  0.61703000  1.0 -0.2184648268
C  C259  1  0.61560000  0.61553000  0.94995000  1.0 0.0700077432
C  C260  1  0.94995000  0.61560000  0.61553000  1.0 0.0700077432
C  C261  1  0.61553000  0.94995000  0.61560000  1.0 0.0597977533
C  C262  1  0.55152000  0.81562000  0.03262000  1.0 -0.0795194927
C  C263  1  0.03262000  0.55152000  0.81562000  1.0 -0.0795194927
C  C264  1  0.81562000  0.03262000  0.55152000  1.0 -0.0795194927
C  C265  1  0.55152000  0.03262000  0.81562000  1.0 -0.0795194927
C  C266  1  0.03262000  0.81562000  0.55152000  1.0 -0.0795194927
C  C267  1  0.81562000  0.55152000  0.03262000  1.0 -0.0795194927
C  C268  1  0.55040000  0.77040000  0.05520000  1.0 -0.0795194927
C  C269  1  0.05520000  0.55040000  0.77040000  1.0 -0.0795194927
C  C270  1  0.77040000  0.05520000  0.55040000  1.0 -0.0795194927
C  C271  1  0.55040000  0.05520000  0.77040000  1.0 -0.0795194927
C  C272  1  0.05520000  0.77040000  0.55040000  1.0 -0.0795194927
C  C273  1  0.77040000  0.55040000  0.05520000  1.0 -0.0795194927
C  C274  1  0.58882000  0.75722000  0.97992000  1.0 -0.0596771616
C  C275  1  0.97992000  0.58882000  0.75722000  1.0 -0.0596771616
C  C276  1  0.75722000  0.97992000  0.58882000  1.0 -0.0596771616
C  C277  1  0.58882000  0.97992000  0.75722000  1.0 -0.0596771616
C  C278  1  0.97992000  0.75722000  0.58882000  1.0 -0.0596771616
C  C279  1  0.75722000  0.58882000  0.97992000  1.0 -0.0596771616
C  C280  1  0.58847000  0.80617000  0.95487000  1.0 -0.0708617478
C  C281  1  0.95487000  0.58847000  0.80617000  1.0 -0.0708617478
C  C282  1  0.80617000  0.95487000  0.58847000  1.0 -0.0708617478
C  C283  1  0.58847000  0.95487000  0.80617000  1.0 -0.0708617478
C  C284  1  0.95487000  0.80617000  0.58847000  1.0 -0.0708617478
C  C285  1  0.80617000  0.58847000  0.95487000  1.0 -0.0708617478
C  C286  1  0.63370000  0.94858000  0.19464000  1.0 -0.0226007436
C  C287  1  0.19464000  0.63370000  0.94858000  1.0 -0.0226007436
C  C288  1  0.94858000  0.19464000  0.63370000  1.0 -0.0226007436
C  C289  1  0.63370000  0.19464000  0.94858000  1.0 -0.0226007436
C  C290  1  0.19464000  0.94858000  0.63370000  1.0 -0.0226007436
C  C291  1  0.94858000  0.63370000  0.19464000  1.0 -0.0226007436
C  C292  1  0.63410000  0.90478000  0.22694000  1.0 -0.0897768496
C  C293  1  0.22694000  0.63410000  0.90478000  1.0 -0.0897768496
C  C294  1  0.90478000  0.22694000  0.63410000  1.0 -0.0897768496
C  C295  1  0.63410000  0.22694000  0.90478000  1.0 -0.0897768496
C  C296  1  0.22694000  0.90478000  0.63410000  1.0 -0.0897768496
C  C297  1  0.90478000  0.63410000  0.22694000  1.0 -0.0897768496
C  C298  1  0.56090000  0.99068000  0.23854000  1.0 -0.0226007436
C  C299  1  0.23854000  0.56090000  0.99068000  1.0 -0.0226007436
C  C300  1  0.99068000  0.23854000  0.56090000  1.0 -0.0226007436
C  C301  1  0.56090000  0.23854000  0.99068000  1.0 -0.0226007436
C  C302  1  0.23854000  0.99068000  0.56090000  1.0 -0.0226007436
C  C303  1  0.99068000  0.56090000  0.23854000  1.0 -0.0226007436
C  C304  1  0.56390000  0.94298000  0.27424000  1.0 -0.1199756795
C  C305  1  0.27424000  0.56390000  0.94298000  1.0 -0.1199756795
C  C306  1  0.94298000  0.27424000  0.56390000  1.0 -0.1199756795
C  C307  1  0.56390000  0.27424000  0.94298000  1.0 -0.1199756795
C  C308  1  0.27424000  0.94298000  0.56390000  1.0 -0.1199756795
C  C309  1  0.94298000  0.56390000  0.27424000  1.0 -0.1199756795
C  C310  1  0.42350000  0.94334000  0.94334000  1.0 0.5518778486
C  C311  1  0.94334000  0.94334000  0.42350000  1.0 0.5518778486
C  C312  1  0.94334000  0.42350000  0.94334000  1.0 0.5518778486
C  C313  1  0.42811000  0.96757000  0.96757000  1.0 -0.0009459636
C  C314  1  0.96757000  0.96757000  0.42811000  1.0 -0.0009459636
C  C315  1  0.96757000  0.42811000  0.96757000  1.0 -0.0009459636
C  C316  1  0.43222000  0.01211000  0.94457000  1.0 -0.1318566131
C  C317  1  0.01211000  0.94457000  0.43222000  1.0 -0.1318566131
C  C318  1  0.94457000  0.43222000  0.01211000  1.0 -0.1318566131
C  C319  1  0.43222000  0.94457000  0.01211000  1.0 -0.1318566131
C  C320  1  0.01211000  0.43222000  0.94457000  1.0 -0.1318566131
C  C321  1  0.94457000  0.01211000  0.43222000  1.0 -0.1318566131
C  C322  1  0.43321000  0.03579000  0.96853000  1.0 -0.1807060894
C  C323  1  0.03579000  0.96853000  0.43321000  1.0 -0.1807060894
C  C324  1  0.96853000  0.43321000  0.03579000  1.0 -0.1807060894
C  C325  1  0.43321000  0.96853000  0.03579000  1.0 -0.1807060894
C  C326  1  0.03579000  0.43321000  0.96853000  1.0 -0.1807060894
C  C327  1  0.96853000  0.03579000  0.43321000  1.0 -0.1807060894
C  C328  1  0.43279000  0.01461000  0.01461000  1.0 0.0783654002
C  C329  1  0.01461000  0.01461000  0.43279000  1.0 0.0783654002
C  C330  1  0.01461000  0.43279000  0.01461000  1.0 0.0783654002
C  C331  1  0.43386000  0.04019000  0.04019000  1.0 0.0989287665
C  C332  1  0.04019000  0.04019000  0.43386000  1.0 0.0989287665
C  C333  1  0.04019000  0.43386000  0.04019000  1.0 0.0989287665
C  C334  1  0.43330000  0.01735000  0.08783000  1.0 -0.2184648268
C  C335  1  0.01735000  0.08783000  0.43330000  1.0 -0.2184648268
C  C336  1  0.08783000  0.43330000  0.01735000  1.0 -0.2184648268
C  C337  1  0.43330000  0.08783000  0.01735000  1.0 -0.2184648268
C  C338  1  0.01735000  0.43330000  0.08783000  1.0 -0.2184648268
C  C339  1  0.08783000  0.01735000  0.43330000  1.0 -0.2184648268
C  C340  1  0.43156000  0.01581000  0.16383000  1.0 0.0289173261
C  C341  1  0.01581000  0.16383000  0.43156000  1.0 0.0289173261
C  C342  1  0.16383000  0.43156000  0.01581000  1.0 0.0289173261
C  C343  1  0.43156000  0.16383000  0.01581000  1.0 0.0289173261
C  C344  1  0.01581000  0.43156000  0.16383000  1.0 0.0289173261
C  C345  1  0.16383000  0.01581000  0.43156000  1.0 0.0289173261
C  C346  1  0.41002000  0.97916000  0.19475000  1.0 -0.0708617478
C  C347  1  0.97916000  0.19475000  0.41002000  1.0 -0.0708617478
C  C348  1  0.19475000  0.41002000  0.97916000  1.0 -0.0708617478
C  C349  1  0.41002000  0.19475000  0.97916000  1.0 -0.0708617478
C  C350  1  0.97916000  0.41002000  0.19475000  1.0 -0.0708617478
C  C351  1  0.19475000  0.97916000  0.41002000  1.0 -0.0708617478
C  C352  1  0.40813000  0.95510000  0.24260000  1.0 -0.0708617478
C  C353  1  0.95510000  0.24260000  0.40813000  1.0 -0.0708617478
C  C354  1  0.24260000  0.40813000  0.95510000  1.0 -0.0708617478
C  C355  1  0.40813000  0.24260000  0.95510000  1.0 -0.0708617478
C  C356  1  0.95510000  0.40813000  0.24260000  1.0 -0.0708617478
C  C357  1  0.24260000  0.95510000  0.40813000  1.0 -0.0708617478
C  C358  1  0.45113000  0.02676000  0.18440000  1.0 -0.0596771616
C  C359  1  0.02676000  0.18440000  0.45113000  1.0 -0.0596771616
C  C360  1  0.18440000  0.45113000  0.02676000  1.0 -0.0596771616
C  C361  1  0.45113000  0.18440000  0.02676000  1.0 -0.0596771616
C  C362  1  0.02676000  0.45113000  0.18440000  1.0 -0.0596771616
C  C363  1  0.18440000  0.02676000  0.45113000  1.0 -0.0596771616
C  C364  1  0.44786000  0.00331000  0.23320000  1.0 -0.0795194927
C  C365  1  0.00331000  0.23320000  0.44786000  1.0 -0.0795194927
C  C366  1  0.23320000  0.44786000  0.00331000  1.0 -0.0795194927
C  C367  1  0.44786000  0.23320000  0.00331000  1.0 -0.0795194927
C  C368  1  0.00331000  0.44786000  0.23320000  1.0 -0.0795194927
C  C369  1  0.23320000  0.00331000  0.44786000  1.0 -0.0795194927
C  C370  1  0.42574000  0.96915000  0.26275000  1.0 -0.0226007436
C  C371  1  0.96915000  0.26275000  0.42574000  1.0 -0.0226007436
C  C372  1  0.26275000  0.42574000  0.96915000  1.0 -0.0226007436
C  C373  1  0.42574000  0.26275000  0.96915000  1.0 -0.0226007436
C  C374  1  0.96915000  0.42574000  0.26275000  1.0 -0.0226007436
C  C375  1  0.26275000  0.96915000  0.42574000  1.0 -0.0226007436
C  C376  1  0.42063000  0.94471000  0.31558000  1.0 0.5044531575
C  C377  1  0.94471000  0.31558000  0.42063000  1.0 0.5044531575
C  C378  1  0.31558000  0.42063000  0.94471000  1.0 0.5044531575
C  C379  1  0.42063000  0.31558000  0.94471000  1.0 0.5044531575
C  C380  1  0.94471000  0.42063000  0.31558000  1.0 0.5044531575
C  C381  1  0.31558000  0.94471000  0.42063000  1.0 0.5044531575
C  C382  1  0.43334000  0.04065000  0.11309000  1.0 0.0477225703
C  C383  1  0.04065000  0.11309000  0.43334000  1.0 0.0477225703
C  C384  1  0.11309000  0.43334000  0.04065000  1.0 0.0477225703
C  C385  1  0.43334000  0.11309000  0.04065000  1.0 0.0477225703
C  C386  1  0.04065000  0.43334000  0.11309000  1.0 0.0477225703
C  C387  1  0.11309000  0.04065000  0.43334000  1.0 0.0477225703
C  C388  1  0.43335000  0.08861000  0.08861000  1.0 -0.258177904
C  C389  1  0.08861000  0.08861000  0.43335000  1.0 -0.258177904
C  C390  1  0.08861000  0.43335000  0.08861000  1.0 -0.258177904
C  C391  1  0.38786000  0.86940000  0.86940000  1.0 0.5518778486
C  C392  1  0.86940000  0.86940000  0.38786000  1.0 0.5518778486
C  C393  1  0.86940000  0.38786000  0.86940000  1.0 0.5518778486
C  C394  1  0.38234000  0.84528000  0.84528000  1.0 -0.0009459636
C  C395  1  0.84528000  0.84528000  0.38234000  1.0 -0.0009459636
C  C396  1  0.84528000  0.38234000  0.84528000  1.0 -0.0009459636
C  C397  1  0.37975000  0.86721000  0.80152000  1.0 -0.1199756795
C  C398  1  0.86721000  0.80152000  0.37975000  1.0 -0.1199756795
C  C399  1  0.80152000  0.37975000  0.86721000  1.0 -0.1199756795
C  C400  1  0.37975000  0.80152000  0.86721000  1.0 -0.1199756795
C  C401  1  0.86721000  0.37975000  0.80152000  1.0 -0.1199756795
C  C402  1  0.80152000  0.86721000  0.37975000  1.0 -0.1199756795
C  C403  1  0.37648000  0.84391000  0.77793000  1.0 -0.1852443239
C  C404  1  0.84391000  0.77793000  0.37648000  1.0 -0.1852443239
C  C405  1  0.77793000  0.37648000  0.84391000  1.0 -0.1852443239
C  C406  1  0.37648000  0.77793000  0.84391000  1.0 -0.1852443239
C  C407  1  0.84391000  0.37648000  0.77793000  1.0 -0.1807060894
C  C408  1  0.77793000  0.84391000  0.37648000  1.0 -0.1852443239
C  C409  1  0.37736000  0.79830000  0.79830000  1.0 0.0700077432
C  C410  1  0.79830000  0.79830000  0.37736000  1.0 0.0700077432
C  C411  1  0.79830000  0.37736000  0.79830000  1.0 0.0700077432
C  C412  1  0.37784000  0.77241000  0.77241000  1.0 0.0912781485
C  C413  1  0.77241000  0.77241000  0.37784000  1.0 0.0912781485
C  C414  1  0.77241000  0.37784000  0.77241000  1.0 0.0912781485
C  C415  1  0.37919000  0.79525000  0.72437000  1.0 -0.2064122479
C  C416  1  0.79525000  0.72437000  0.37919000  1.0 -0.2064122479
C  C417  1  0.72437000  0.37919000  0.79525000  1.0 -0.2064122479
C  C418  1  0.37919000  0.72437000  0.79525000  1.0 -0.2064122479
C  C419  1  0.79525000  0.37919000  0.72437000  1.0 -0.2064122479
C  C420  1  0.72437000  0.79525000  0.37919000  1.0 -0.2064122479
C  C421  1  0.38212000  0.77063000  0.69854000  1.0 0.0700077432
C  C422  1  0.77063000  0.69854000  0.38212000  1.0 0.0700077432
C  C423  1  0.69854000  0.38212000  0.77063000  1.0 0.0700077432
C  C424  1  0.38212000  0.69854000  0.77063000  1.0 0.0700077432
C  C425  1  0.77063000  0.38212000  0.69854000  1.0 0.0700077432
C  C426  1  0.69854000  0.77063000  0.38212000  1.0 0.0700077432
C  C427  1  0.38388000  0.72250000  0.72250000  1.0 -0.1972815869
C  C428  1  0.72250000  0.72250000  0.38388000  1.0 -0.1972815869
C  C429  1  0.72250000  0.38388000  0.72250000  1.0 -0.1972815869
C  C430  1  0.38476000  0.79549000  0.64638000  1.0 0.0700077432
C  C431  1  0.79549000  0.64638000  0.38476000  1.0 0.0700077432
C  C432  1  0.64638000  0.38476000  0.79549000  1.0 0.0700077432
C  C433  1  0.38476000  0.64638000  0.79549000  1.0 0.0700077432
C  C434  1  0.79549000  0.38476000  0.64638000  1.0 0.0700077432
C  C435  1  0.64638000  0.79549000  0.38476000  1.0 0.0700077432
C  C436  1  0.39870000  0.83603000  0.61794000  1.0 -0.1612466191
C  C437  1  0.83603000  0.61794000  0.39870000  1.0 -0.1612466191
C  C438  1  0.61794000  0.39870000  0.83603000  1.0 -0.1612466191
C  C439  1  0.39870000  0.61794000  0.83603000  1.0 -0.1612466191
C  C440  1  0.83603000  0.39870000  0.61794000  1.0 -0.1612466191
C  C441  1  0.61794000  0.83603000  0.39870000  1.0 -0.1612466191
C  C442  1  0.40119000  0.85873000  0.57010000  1.0 -0.1132247048
C  C443  1  0.85873000  0.57010000  0.40119000  1.0 -0.1132247048
C  C444  1  0.57010000  0.40119000  0.85873000  1.0 -0.1132247048
C  C445  1  0.40119000  0.57010000  0.85873000  1.0 -0.1132247048
C  C446  1  0.85873000  0.40119000  0.57010000  1.0 -0.1132247048
C  C447  1  0.57010000  0.85873000  0.40119000  1.0 -0.1132247048
C  C448  1  0.39127000  0.84121000  0.54801000  1.0 -0.032695018
C  C449  1  0.84121000  0.54801000  0.39127000  1.0 -0.032695018
C  C450  1  0.54801000  0.39127000  0.84121000  1.0 -0.032695018
C  C451  1  0.39127000  0.54801000  0.84121000  1.0 -0.032695018
C  C452  1  0.84121000  0.39127000  0.54801000  1.0 -0.032695018
C  C453  1  0.54801000  0.84121000  0.39127000  1.0 -0.032695018
C  C454  1  0.37881000  0.79994000  0.57522000  1.0 -0.1199756795
C  C455  1  0.79994000  0.57522000  0.37881000  1.0 -0.1199756795
C  C456  1  0.57522000  0.37881000  0.79994000  1.0 -0.1199756795
C  C457  1  0.37881000  0.57522000  0.79994000  1.0 -0.1199756795
C  C458  1  0.79994000  0.37881000  0.57522000  1.0 -0.1199756795
C  C459  1  0.57522000  0.79994000  0.37881000  1.0 -0.1199756795
C  C460  1  0.37507000  0.77731000  0.62388000  1.0 -0.170611121
C  C461  1  0.77731000  0.62388000  0.37507000  1.0 -0.170611121
C  C462  1  0.62388000  0.37507000  0.77731000  1.0 -0.170611121
C  C463  1  0.37507000  0.62388000  0.77731000  1.0 -0.170611121
C  C464  1  0.77731000  0.37507000  0.62388000  1.0 -0.170611121
C  C465  1  0.62388000  0.77731000  0.37507000  1.0 -0.170611121
C  C466  1  0.39398000  0.86626000  0.49616000  1.0 0.5518778486
C  C467  1  0.86626000  0.49616000  0.39398000  1.0 0.5518778486
C  C468  1  0.49616000  0.39398000  0.86626000  1.0 0.5518778486
C  C469  1  0.39398000  0.49616000  0.86626000  1.0 0.5518778486
C  C470  1  0.86626000  0.39398000  0.49616000  1.0 0.5518778486
C  C471  1  0.49616000  0.86626000  0.39398000  1.0 0.5518778486
C  C472  1  0.31589000  0.94559000  0.94559000  1.0 0.5518778486
C  C473  1  0.94559000  0.94559000  0.31589000  1.0 0.5518778486
C  C474  1  0.94559000  0.31589000  0.94559000  1.0 0.5552021188
C  C475  1  0.26326000  0.97003000  0.97003000  1.0 -0.0087687983
C  C476  1  0.97003000  0.97003000  0.26326000  1.0 -0.0087687983
C  C477  1  0.97003000  0.26326000  0.97003000  1.0 -0.0087687983
C  C478  1  0.23830000  0.01480000  0.94806000  1.0 -0.1199756795
C  C479  1  0.01480000  0.94806000  0.23830000  1.0 -0.1199756795
C  C480  1  0.94806000  0.23830000  0.01480000  1.0 -0.1199756795
C  C481  1  0.23830000  0.94806000  0.01480000  1.0 -0.1199756795
C  C482  1  0.01480000  0.23830000  0.94806000  1.0 -0.1199756795
C  C483  1  0.94806000  0.01480000  0.23830000  1.0 -0.1199756795
C  C484  1  0.19073000  0.03808000  0.97088000  1.0 -0.170611121
C  C485  1  0.03808000  0.97088000  0.19073000  1.0 -0.170611121
C  C486  1  0.97088000  0.19073000  0.03808000  1.0 -0.170611121
C  C487  1  0.19073000  0.97088000  0.03808000  1.0 -0.170611121
C  C488  1  0.03808000  0.19073000  0.97088000  1.0 -0.170611121
C  C489  1  0.97088000  0.03808000  0.19073000  1.0 -0.170611121
C  C490  1  0.16568000  0.01660000  0.01660000  1.0 0.0783654002
C  C491  1  0.01660000  0.01660000  0.16568000  1.0 0.0783654002
C  C492  1  0.01660000  0.16568000  0.01660000  1.0 0.0783654002
C  C493  1  0.11368000  0.04179000  0.04179000  1.0 0.0783654002
C  C494  1  0.04179000  0.04179000  0.11368000  1.0 0.0783654002
C  C495  1  0.04179000  0.11368000  0.04179000  1.0 0.0783654002
C  C496  1  0.08913000  0.08913000  0.01873000  1.0 -0.2064122479
C  C497  1  0.08913000  0.01873000  0.08913000  1.0 -0.2064122479
C  C498  1  0.01873000  0.08913000  0.08913000  1.0 -0.2064122479
C  C499  1  0.49502000  0.86585000  0.86585000  1.0 0.544069342
C  C500  1  0.86585000  0.86585000  0.49502000  1.0 0.544069342
C  C501  1  0.86585000  0.49502000  0.86585000  1.0 0.544069342
C  C502  1  0.54646000  0.84055000  0.84055000  1.0 -0.0226007436
C  C503  1  0.84055000  0.84055000  0.54646000  1.0 -0.0226007436
C  C504  1  0.84055000  0.54646000  0.84055000  1.0 -0.0226007436
C  C505  1  0.57106000  0.86234000  0.79371000  1.0 -0.1199756795
C  C506  1  0.86234000  0.79371000  0.57106000  1.0 -0.1199756795
C  C507  1  0.79371000  0.57106000  0.86234000  1.0 -0.1199756795
C  C508  1  0.57106000  0.79371000  0.86234000  1.0 -0.1199756795
C  C509  1  0.86234000  0.57106000  0.79371000  1.0 -0.1199756795
C  C510  1  0.79371000  0.86234000  0.57106000  1.0 -0.1199756795
C  C511  1  0.64295000  0.79211000  0.79211000  1.0 0.0912781485
C  C512  1  0.79211000  0.79211000  0.64295000  1.0 0.0912781485
C  C513  1  0.79211000  0.64295000  0.79211000  1.0 0.0912781485
C  C514  1  0.69365000  0.76630000  0.76629000  1.0 0.0783654002
C  C515  1  0.76630000  0.76629000  0.69365000  1.0 0.0783654002
C  C516  1  0.76629000  0.69365000  0.76630000  1.0 0.0783654002
C  C517  1  0.71849000  0.71849000  0.78974000  1.0 -0.2064122479
C  C518  1  0.71849000  0.78974000  0.71849000  1.0 -0.2064122479
C  C519  1  0.78974000  0.71849000  0.71849000  1.0 -0.2064122479
C  C520  1  0.61784000  0.83821000  0.77031000  1.0 -0.1807060894
C  C521  1  0.83821000  0.77031000  0.61784000  1.0 -0.1807060894
C  C522  1  0.77031000  0.61784000  0.83821000  1.0 -0.1807060894
C  C523  1  0.61784000  0.77031000  0.83821000  1.0 -0.1807060894
C  C524  1  0.83821000  0.61784000  0.77031000  1.0 -0.1807060894
C  C525  1  0.77031000  0.83821000  0.61784000  1.0 -0.1807060894
C  C526  1  0.39972000  0.73305000  0.09803000  1.0 -0.0708617478
C  C527  1  0.73305000  0.09803000  0.39972000  1.0 -0.0708617478
C  C528  1  0.09803000  0.39972000  0.73305000  1.0 -0.0708617478
C  C529  1  0.39972000  0.09803000  0.73305000  1.0 -0.0708617478
C  C530  1  0.73305000  0.39972000  0.09803000  1.0 -0.0708617478
C  C531  1  0.09803000  0.73305000  0.39972000  1.0 -0.0708617478
C  C532  1  0.42450000  0.80293000  0.03877000  1.0 -0.0795194927
C  C533  1  0.80293000  0.03877000  0.42450000  1.0 -0.0795194927
C  C534  1  0.03877000  0.42450000  0.80293000  1.0 -0.0795194927
C  C535  1  0.42450000  0.03877000  0.80293000  1.0 -0.0795194927
C  C536  1  0.80293000  0.42450000  0.03877000  1.0 -0.0795194927
C  C537  1  0.03877000  0.80293000  0.42450000  1.0 -0.0795194927
C  C538  1  0.42272000  0.76552000  0.08324000  1.0 -0.0708617478
C  C539  1  0.76552000  0.08324000  0.42272000  1.0 -0.0708617478
C  C540  1  0.08324000  0.42272000  0.76552000  1.0 -0.0708617478
C  C541  1  0.42272000  0.08324000  0.76552000  1.0 -0.0708617478
C  C542  1  0.76552000  0.42272000  0.08324000  1.0 -0.0708617478
C  C543  1  0.08324000  0.76552000  0.42272000  1.0 -0.0708617478
C  C544  1  0.37849000  0.73799000  0.06836000  1.0 -0.0509724137
C  C545  1  0.73799000  0.06836000  0.37849000  1.0 -0.0509724137
C  C546  1  0.06836000  0.37849000  0.73799000  1.0 -0.0509724137
C  C547  1  0.37849000  0.06836000  0.73799000  1.0 -0.0509724137
C  C548  1  0.73799000  0.37849000  0.06836000  1.0 -0.0509724137
C  C549  1  0.06836000  0.73799000  0.37849000  1.0 -0.0509724137
C  C550  1  0.38027000  0.77539000  0.02387000  1.0 -0.0226007436
C  C551  1  0.77539000  0.02387000  0.38027000  1.0 -0.0226007436
C  C552  1  0.02387000  0.38027000  0.77539000  1.0 -0.0226007436
C  C553  1  0.38027000  0.02387000  0.77539000  1.0 -0.0226007436
C  C554  1  0.77539000  0.38027000  0.02387000  1.0 -0.0226007436
C  C555  1  0.02387000  0.77539000  0.38027000  1.0 -0.0226007436
C  C556  1  0.43060000  0.00535000  0.43067000  1.0 0.0597977533
C  C557  1  0.00535000  0.43067000  0.43060000  1.0 0.0597977533
C  C558  1  0.43067000  0.43060000  0.00535000  1.0 0.0477225703
C  C559  1  0.42710000  0.05555000  0.42717000  1.0 -0.1132247048
C  C560  1  0.05555000  0.42717000  0.42710000  1.0 -0.1199756795
C  C561  1  0.42717000  0.42710000  0.05555000  1.0 -0.1199756795
C  C562  1  0.41000000  0.08615000  0.41007000  1.0 -0.0509724137
C  C563  1  0.08615000  0.41007000  0.41000000  1.0 -0.0509724137
C  C564  1  0.41007000  0.41000000  0.08615000  1.0 -0.0596771616
C  C565  1  0.38297000  0.09513000  0.38321000  1.0 -0.2184648268
C  C566  1  0.09513000  0.38321000  0.38297000  1.0 -0.2184648268
C  C567  1  0.38321000  0.38297000  0.09513000  1.0 -0.2184648268
C  C568  1  0.38440000  0.05005000  0.38447000  1.0 0.0700077432
C  C569  1  0.05005000  0.38447000  0.38440000  1.0 0.0597977533
C  C570  1  0.38447000  0.38440000  0.05005000  1.0 0.0597977533
C  C571  1  0.44848000  0.96738000  0.18438000  1.0 -0.0795194927
C  C572  1  0.96738000  0.18438000  0.44848000  1.0 -0.0795194927
C  C573  1  0.18438000  0.44848000  0.96738000  1.0 -0.0795194927
C  C574  1  0.44848000  0.18438000  0.96738000  1.0 -0.0795194927
C  C575  1  0.96738000  0.44848000  0.18438000  1.0 -0.0795194927
C  C576  1  0.18438000  0.96738000  0.44848000  1.0 -0.0795194927
C  C577  1  0.44960000  0.94480000  0.22960000  1.0 -0.0795194927
C  C578  1  0.94480000  0.22960000  0.44960000  1.0 -0.0795194927
C  C579  1  0.22960000  0.44960000  0.94480000  1.0 -0.0795194927
C  C580  1  0.44960000  0.22960000  0.94480000  1.0 -0.0795194927
C  C581  1  0.94480000  0.44960000  0.22960000  1.0 -0.0795194927
C  C582  1  0.22960000  0.94480000  0.44960000  1.0 -0.0795194927
C  C583  1  0.41118000  0.02008000  0.24278000  1.0 -0.0596771616
C  C584  1  0.02008000  0.24278000  0.41118000  1.0 -0.0596771616
C  C585  1  0.24278000  0.41118000  0.02008000  1.0 -0.0596771616
C  C586  1  0.41118000  0.24278000  0.02008000  1.0 -0.0596771616
C  C587  1  0.02008000  0.41118000  0.24278000  1.0 -0.0596771616
C  C588  1  0.24278000  0.02008000  0.41118000  1.0 -0.0596771616
C  C589  1  0.41153000  0.04513000  0.19383000  1.0 -0.0708617478
C  C590  1  0.04513000  0.19383000  0.41153000  1.0 -0.0708617478
C  C591  1  0.19383000  0.41153000  0.04513000  1.0 -0.0708617478
C  C592  1  0.41153000  0.19383000  0.04513000  1.0 -0.0708617478
C  C593  1  0.04513000  0.41153000  0.19383000  1.0 -0.0708617478
C  C594  1  0.19383000  0.04513000  0.41153000  1.0 -0.0708617478
C  C595  1  0.36630000  0.80536000  0.05142000  1.0 -0.0226007436
C  C596  1  0.80536000  0.05142000  0.36630000  1.0 -0.0226007436
C  C597  1  0.05142000  0.36630000  0.80536000  1.0 -0.0226007436
C  C598  1  0.36630000  0.05142000  0.80536000  1.0 -0.0226007436
C  C599  1  0.80536000  0.36630000  0.05142000  1.0 -0.0226007436
C  C600  1  0.05142000  0.80536000  0.36630000  1.0 -0.0226007436
C  C601  1  0.36590000  0.77306000  0.09522000  1.0 -0.0897768496
C  C602  1  0.77306000  0.09522000  0.36590000  1.0 -0.0897768496
C  C603  1  0.09522000  0.36590000  0.77306000  1.0 -0.0897768496
C  C604  1  0.36590000  0.09522000  0.77306000  1.0 -0.0897768496
C  C605  1  0.77306000  0.36590000  0.09522000  1.0 -0.0897768496
C  C606  1  0.09522000  0.77306000  0.36590000  1.0 -0.0897768496
C  C607  1  0.43910000  0.76146000  0.00932000  1.0 -0.0226007436
C  C608  1  0.76146000  0.00932000  0.43910000  1.0 -0.0226007436
C  C609  1  0.00932000  0.43910000  0.76146000  1.0 -0.0226007436
C  C610  1  0.43910000  0.00932000  0.76146000  1.0 -0.0226007436
C  C611  1  0.76146000  0.43910000  0.00932000  1.0 -0.0226007436
C  C612  1  0.00932000  0.76146000  0.43910000  1.0 -0.0226007436
C  C613  1  0.43610000  0.72576000  0.05702000  1.0 -0.1199756795
C  C614  1  0.72576000  0.05702000  0.43610000  1.0 -0.1199756795
C  C615  1  0.05702000  0.43610000  0.72576000  1.0 -0.1199756795
C  C616  1  0.43610000  0.05702000  0.72576000  1.0 -0.1199756795
C  C617  1  0.72576000  0.43610000  0.05702000  1.0 -0.1199756795
C  C618  1  0.05702000  0.72576000  0.43610000  1.0 -0.1199756795
N  N1  1  0.59529000  0.98985000  0.19453000  1.0 -0.0226007436
N  N2  1  0.19453000  0.59529000  0.98985000  1.0 -0.0226007436
N  N3  1  0.98985000  0.19453000  0.59529000  1.0 -0.0226007436
N  N4  1  0.59529000  0.19453000  0.98985000  1.0 -0.0226007436
N  N5  1  0.19453000  0.98985000  0.59529000  1.0 -0.0226007436
N  N6  1  0.98985000  0.59529000  0.19453000  1.0 -0.0226007436
N  N7  1  0.59300000  0.59293000  0.99185000  1.0 -0.2355316358
N  N8  1  0.99185000  0.59300000  0.59293000  1.0 -0.2355316358
N  N9  1  0.59293000  0.99185000  0.59300000  1.0 -0.2355316358
N  N10  1  0.40471000  0.80547000  0.01015000  1.0 -0.0226007436
N  N11  1  0.80547000  0.01015000  0.40471000  1.0 -0.0226007436
N  N12  1  0.01015000  0.40471000  0.80547000  1.0 -0.0226007436
N  N13  1  0.40471000  0.01015000  0.80547000  1.0 -0.0226007436
N  N14  1  0.80547000  0.40471000  0.01015000  1.0 -0.0226007436
N  N15  1  0.01015000  0.80547000  0.40471000  1.0 -0.0226007436
N  N16  1  0.40700000  0.00815000  0.40707000  1.0 -0.2355316358
N  N17  1  0.00815000  0.40707000  0.40700000  1.0 -0.2347487884
N  N18  1  0.40707000  0.40700000  0.00815000  1.0 -0.2355316358
O  O1  1  0.57879000  0.03267000  0.09912000  1.0 -0.5082746759
O  O2  1  0.09912000  0.57879000  0.03267000  1.0 -0.5082746759
O  O3  1  0.03267000  0.09912000  0.57879000  1.0 -0.5082746759
O  O4  1  0.57879000  0.09912000  0.03267000  1.0 -0.5082746759
O  O5  1  0.09912000  0.03267000  0.57879000  1.0 -0.5082746759
O  O6  1  0.03267000  0.57879000  0.09912000  1.0 -0.5082746759
O  O7  1  0.58079000  0.66333000  0.03227000  1.0 -0.4788216537
O  O8  1  0.03227000  0.58079000  0.66333000  1.0 -0.4788216537
O  O9  1  0.66333000  0.03227000  0.58079000  1.0 -0.4788216537
O  O10  1  0.58079000  0.03227000  0.66333000  1.0 -0.4788216537
O  O11  1  0.03227000  0.66333000  0.58079000  1.0 -0.4788216537
O  O12  1  0.66333000  0.58079000  0.03227000  1.0 -0.4788216537
O  O13  1  0.58328000  0.66458000  0.09714000  1.0 -0.4788216537
O  O14  1  0.09714000  0.58328000  0.66458000  1.0 -0.4788216537
O  O15  1  0.66458000  0.09714000  0.58328000  1.0 -0.4788216537
O  O16  1  0.58328000  0.09714000  0.66458000  1.0 -0.4788216537
O  O17  1  0.09714000  0.66458000  0.58328000  1.0 -0.4788216537
O  O18  1  0.66458000  0.58328000  0.09714000  1.0 -0.4788216537
O  O19  1  0.60941000  0.08874000  0.15488000  1.0 -0.5082746759
O  O20  1  0.15488000  0.60941000  0.08874000  1.0 -0.5082746759
O  O21  1  0.08874000  0.15488000  0.60941000  1.0 -0.5046569484
O  O22  1  0.60941000  0.15488000  0.08874000  1.0 -0.5082746759
O  O23  1  0.15488000  0.08874000  0.60941000  1.0 -0.5082746759
O  O24  1  0.08874000  0.60941000  0.15488000  1.0 -0.5046569484
O  O25  1  0.60621000  0.52436000  0.15716000  1.0 -0.5082746759
O  O26  1  0.15716000  0.60621000  0.52436000  1.0 -0.5082746759
O  O27  1  0.52436000  0.15716000  0.60621000  1.0 -0.5082746759
O  O28  1  0.60621000  0.15716000  0.52436000  1.0 -0.5082746759
O  O29  1  0.15716000  0.52436000  0.60621000  1.0 -0.5082746759
O  O30  1  0.52436000  0.60621000  0.15716000  1.0 -0.5082746759
O  O31  1  0.60377000  0.52321000  0.09220000  1.0 -0.4788216537
O  O32  1  0.09220000  0.60377000  0.52321000  1.0 -0.4788216537
O  O33  1  0.52321000  0.09220000  0.60377000  1.0 -0.4788216537
O  O34  1  0.60377000  0.09220000  0.52321000  1.0 -0.4788216537
O  O35  1  0.09220000  0.52321000  0.60377000  1.0 -0.4788216537
O  O36  1  0.52321000  0.60377000  0.09220000  1.0 -0.4788216537
O  O37  1  0.66381000  0.03038000  0.09646000  1.0 -0.5082746759
O  O38  1  0.09646000  0.66381000  0.03038000  1.0 -0.5082746759
O  O39  1  0.03038000  0.09646000  0.66381000  1.0 -0.5082746759
O  O40  1  0.66381000  0.09646000  0.03038000  1.0 -0.5082746759
O  O41  1  0.09646000  0.03038000  0.66381000  1.0 -0.5082746759
O  O42  1  0.03038000  0.66381000  0.09646000  1.0 -0.5082746759
O  O43  1  0.52501000  0.09147000  0.15773000  1.0 -0.5082746759
O  O44  1  0.15773000  0.52501000  0.09147000  1.0 -0.5082746759
O  O45  1  0.09147000  0.15773000  0.52501000  1.0 -0.5082746759
O  O46  1  0.52501000  0.15773000  0.09147000  1.0 -0.5082746759
O  O47  1  0.15773000  0.09147000  0.52501000  1.0 -0.5082746759
O  O48  1  0.09147000  0.52501000  0.15773000  1.0 -0.5082746759
O  O49  1  0.42121000  0.90088000  0.96733000  1.0 -0.5082746759
O  O50  1  0.90088000  0.96733000  0.42121000  1.0 -0.5082746759
O  O51  1  0.96733000  0.42121000  0.90088000  1.0 -0.5082746759
O  O52  1  0.42121000  0.96733000  0.90088000  1.0 -0.5082746759
O  O53  1  0.90088000  0.42121000  0.96733000  1.0 -0.5082746759
O  O54  1  0.96733000  0.90088000  0.42121000  1.0 -0.5082746759
O  O55  1  0.41921000  0.96773000  0.33667000  1.0 -0.4788216537
O  O56  1  0.96773000  0.33667000  0.41921000  1.0 -0.4788216537
O  O57  1  0.33667000  0.41921000  0.96773000  1.0 -0.4788216537
O  O58  1  0.41921000  0.33667000  0.96773000  1.0 -0.4788216537
O  O59  1  0.96773000  0.41921000  0.33667000  1.0 -0.4788216537
O  O60  1  0.33667000  0.96773000  0.41921000  1.0 -0.4788216537
O  O61  1  0.41672000  0.90286000  0.33542000  1.0 -0.4788216537
O  O62  1  0.90286000  0.33542000  0.41672000  1.0 -0.4788216537
O  O63  1  0.33542000  0.41672000  0.90286000  1.0 -0.4788216537
O  O64  1  0.41672000  0.33542000  0.90286000  1.0 -0.4788216537
O  O65  1  0.90286000  0.41672000  0.33542000  1.0 -0.4788216537
O  O66  1  0.33542000  0.90286000  0.41672000  1.0 -0.4788216537
O  O67  1  0.39059000  0.84512000  0.91126000  1.0 -0.5082746759
O  O68  1  0.84512000  0.91126000  0.39059000  1.0 -0.5082746759
O  O69  1  0.91126000  0.39059000  0.84512000  1.0 -0.5082746759
O  O70  1  0.39059000  0.91126000  0.84512000  1.0 -0.5082746759
O  O71  1  0.84512000  0.39059000  0.91126000  1.0 -0.5046569484
O  O72  1  0.91126000  0.84512000  0.39059000  1.0 -0.5082746759
O  O73  1  0.39379000  0.84284000  0.47564000  1.0 -0.5082746759
O  O74  1  0.84284000  0.47564000  0.39379000  1.0 -0.5082746759
O  O75  1  0.47564000  0.39379000  0.84284000  1.0 -0.5082746759
O  O76  1  0.39379000  0.47564000  0.84284000  1.0 -0.5082746759
O  O77  1  0.84284000  0.39379000  0.47564000  1.0 -0.5082746759
O  O78  1  0.47564000  0.84284000  0.39379000  1.0 -0.5082746759
O  O79  1  0.39623000  0.90780000  0.47679000  1.0 -0.4788216537
O  O80  1  0.90780000  0.47679000  0.39623000  1.0 -0.4788216537
O  O81  1  0.47679000  0.39623000  0.90780000  1.0 -0.4788216537
O  O82  1  0.39623000  0.47679000  0.90780000  1.0 -0.4788216537
O  O83  1  0.90780000  0.39623000  0.47679000  1.0 -0.4788216537
O  O84  1  0.47679000  0.90780000  0.39623000  1.0 -0.4788216537
O  O85  1  0.33619000  0.90354000  0.96962000  1.0 -0.5082746759
O  O86  1  0.90354000  0.96962000  0.33619000  1.0 -0.5082746759
O  O87  1  0.96962000  0.33619000  0.90354000  1.0 -0.5082746759
O  O88  1  0.33619000  0.96962000  0.90354000  1.0 -0.5082746759
O  O89  1  0.90354000  0.33619000  0.96962000  1.0 -0.5082746759
O  O90  1  0.96962000  0.90354000  0.33619000  1.0 -0.5082746759
O  O91  1  0.47499000  0.84227000  0.90853000  1.0 -0.5082746759
O  O92  1  0.84227000  0.90853000  0.47499000  1.0 -0.5082746759
O  O93  1  0.90853000  0.47499000  0.84227000  1.0 -0.5082746759
O  O94  1  0.47499000  0.90853000  0.84227000  1.0 -0.5082746759
O  O95  1  0.84227000  0.47499000  0.90853000  1.0 -0.5082746759
O  O96  1  0.90853000  0.84227000  0.47499000  1.0 -0.5082746759
