# DDEC6 charges by PACMAN v1.1 (https://github.com/mtap-research/PACMAN-charge/)
data_ICEGED_ASR_pacman
_symmetry_space_group_name_H-M   'P 1'
_cell_length_a   11.84000000
_cell_length_b   12.32470000
_cell_length_c   13.73620000
_cell_angle_alpha   92.61500000
_cell_angle_beta   112.67500000
_cell_angle_gamma   109.04000000
_symmetry_Int_Tables_number   1
_chemical_formula_structural   CdH4(CN)8
_chemical_formula_sum   'Cd3 H12 C24 N24'
_cell_volume   1714.24788886
_cell_formula_units_Z   3
loop_
 _symmetry_equiv_pos_site_id
 _symmetry_equiv_pos_as_xyz
  1  'x, y, z'
loop_
 _atom_site_type_symbol
 _atom_site_label
 _atom_site_symmetry_multiplicity
 _atom_site_fract_x
 _atom_site_fract_y
 _atom_site_fract_z
 _atom_site_occupancy
 _atom_site_charge
Cd  Cd1  1  0.00000000  0.50000000  0.50000000  1.0 0.5946551471
Cd  Cd2  1  0.88491000  0.76668000  0.53916000  1.0 0.6402222722
Cd  Cd3  1  0.11509000  0.23332000  0.46084000  1.0 0.6402222722
H  H1  1  0.54470000  0.66900000  0.11530000  1.0 0.1227317586
H  H2  1  0.45530000  0.33100000  0.88470000  1.0 0.1227317586
H  H3  1  0.60070000  0.36880000  0.06600000  1.0 0.1289256398
H  H4  1  0.39930000  0.63120000  0.93400000  1.0 0.1289256398
H  H5  1  0.10780000  0.45110000  0.90440000  1.0 0.1227317586
H  H6  1  0.89220000  0.54890000  0.09560000  1.0 0.1227317586
H  H7  1  0.86220000  0.60340000  0.93010000  1.0 0.1289256398
H  H8  1  0.13780000  0.39660000  0.06990000  1.0 0.1289256398
H  H9  1  0.65950000  0.92500000  0.50640000  1.0 0.1141790509
H  H10  1  0.34050000  0.07500000  0.49360000  1.0 0.1141790509
H  H11  1  0.53090000  0.19270000  0.48110000  1.0 0.1289256398
H  H12  1  0.46910000  0.80730000  0.51890000  1.0 0.1289256398
C  C1  1  0.67770000  0.54440000  0.22303000  1.0 0.2291915004
C  C2  1  0.32230000  0.45560000  0.77697000  1.0 0.2291915004
C  C3  1  0.58670000  0.52160000  0.10845000  1.0 0.0386174706
C  C4  1  0.41330000  0.47840000  0.89155000  1.0 0.0386174706
C  C5  1  0.52670000  0.60020000  0.06870000  1.0 -0.1167584748
C  C6  1  0.47330000  0.39980000  0.93130000  1.0 -0.1167584748
C  C7  1  0.55970000  0.42250000  0.03940000  1.0 -0.1267505303
C  C8  1  0.44030000  0.57750000  0.96060000  1.0 -0.1267505303
C  C9  1  0.95930000  0.55870000  0.79340000  1.0 0.2291915004
C  C10  1  0.04070000  0.44130000  0.20660000  1.0 0.2291915004
C  C11  1  0.98030000  0.53050000  0.90020000  1.0 0.0511403143
C  C12  1  0.01970000  0.46950000  0.09980000  1.0 0.0511403143
C  C13  1  0.06350000  0.47050000  0.94320000  1.0 -0.1167584748
C  C14  1  0.93650000  0.52950000  0.05680000  1.0 -0.1167584748
C  C15  1  0.91770000  0.56100000  0.95820000  1.0 -0.1167584748
C  C16  1  0.08230000  0.43900000  0.04180000  1.0 -0.1167584748
C  C17  1  0.73390000  0.14720000  0.48450000  1.0 0.2291915004
C  C18  1  0.26610000  0.85280000  0.51550000  1.0 0.2291915004
C  C19  1  0.61390000  0.07060000  0.49190000  1.0 0.0386174706
C  C20  1  0.38610000  0.92940000  0.50810000  1.0 0.0386174706
C  C21  1  0.59470000  0.95580000  0.50370000  1.0 -0.1167584748
C  C22  1  0.40530000  0.04420000  0.49630000  1.0 -0.1167584748
C  C23  1  0.51840000  0.11390000  0.48870000  1.0 -0.1049703151
C  C24  1  0.48160000  0.88610000  0.51130000  1.0 -0.1049703151
N  N1  1  0.74590000  0.47723000  0.26674000  1.0 -0.250880053
N  N2  1  0.25410000  0.52277000  0.73326000  1.0 -0.250880053
N  N3  1  0.81610000  0.53012000  0.36988000  1.0 -0.0305246428
N  N4  1  0.18390000  0.46988000  0.63012000  1.0 -0.0305246428
N  N5  1  0.79042000  0.62361000  0.38698000  1.0 -0.040957856
N  N6  1  0.20958000  0.37639000  0.61302000  1.0 -0.0480199367
N  N7  1  0.70290000  0.63512000  0.29502000  1.0 -0.2796885685
N  N8  1  0.29710000  0.36488000  0.70498000  1.0 -0.2796885685
N  N9  1  0.93310000  0.65206000  0.76034000  1.0 -0.267459789
N  N10  1  0.06690000  0.34794000  0.23966000  1.0 -0.267459789
N  N11  1  0.92710000  0.64337000  0.66103000  1.0 -0.0480199367
N  N12  1  0.07290000  0.35663000  0.33897000  1.0 -0.0480199367
N  N13  1  0.94790000  0.54930000  0.63721000  1.0 -0.0305246428
N  N14  1  0.05210000  0.45070000  0.36279000  1.0 -0.0305246428
N  N15  1  0.96870000  0.49386000  0.71902000  1.0 -0.2300314025
N  N16  1  0.03130000  0.50614000  0.28098000  1.0 -0.2300314025
N  N17  1  0.76630000  0.26274000  0.49062000  1.0 -0.250880053
N  N18  1  0.23370000  0.73726000  0.50938000  1.0 -0.250880053
N  N19  1  0.88113000  0.29937000  0.48325000  1.0 -0.040957856
N  N20  1  0.11887000  0.70063000  0.51675000  1.0 -0.040957856
N  N21  1  0.91643000  0.20961000  0.47289000  1.0 -0.0480199367
N  N22  1  0.08357000  0.79039000  0.52711000  1.0 -0.0480199367
N  N23  1  0.82490000  0.11209000  0.47392000  1.0 -0.2796885685
N  N24  1  0.17510000  0.88791000  0.52608000  1.0 -0.2796885685
