# DDEC6 charges by PACMAN v1.1 (https://github.com/mtap-research/PACMAN-charge/)
data_ICIKEL_ASR_pacman
_symmetry_space_group_name_H-M   'P 1'
_cell_length_a   34.41740000
_cell_length_b   34.41740000
_cell_length_c   35.85100000
_cell_angle_alpha   62.19970000
_cell_angle_beta   117.80000000
_cell_angle_gamma   89.47030000
_symmetry_Int_Tables_number   1
_chemical_formula_structural   Cd8C55S13
_chemical_formula_sum   'Cd128 C880 S208'
_cell_volume   31804.07914396
_cell_formula_units_Z   16
loop_
 _symmetry_equiv_pos_site_id
 _symmetry_equiv_pos_as_xyz
  1  'x, y, z'
loop_
 _atom_site_type_symbol
 _atom_site_label
 _atom_site_symmetry_multiplicity
 _atom_site_fract_x
 _atom_site_fract_y
 _atom_site_fract_z
 _atom_site_occupancy
 _atom_site_charge
Cd  Cd1  1  0.16821000  0.54663000  0.30304000  1.0 0.6634624677
Cd  Cd2  1  0.45337000  0.83179000  0.80304000  1.0 0.6634624677
Cd  Cd3  1  0.12223000  0.64871000  0.30971000  1.0 0.6706785786
Cd  Cd4  1  0.35129000  0.87777000  0.80971000  1.0 0.6706785786
Cd  Cd5  1  0.15278000  0.67538000  0.20468000  1.0 0.6822598405
Cd  Cd6  1  0.32462000  0.84722000  0.70468000  1.0 0.6822598405
Cd  Cd7  1  0.06124000  0.49526000  0.30024000  1.0 0.5687278288
Cd  Cd8  1  0.50474000  0.93876000  0.80024000  1.0 0.5687278288
Cd  Cd9  1  0.25479000  0.55965000  0.41728000  1.0 0.5591436773
Cd  Cd10  1  0.44035000  0.74521000  0.91728000  1.0 0.5591436773
Cd  Cd11  1  0.04219000  0.63255000  0.19794000  1.0 0.6879772471
Cd  Cd12  1  0.36745000  0.95781000  0.69794000  1.0 0.6822598405
Cd  Cd13  1  0.99892000  0.74034000  0.20607000  1.0 0.551473203
Cd  Cd14  1  0.25966000  0.00108000  0.70607000  1.0 0.551473203
Cd  Cd15  1  0.02061000  0.76549000  0.09905000  1.0 0.5591436773
Cd  Cd16  1  0.23451000  0.97939000  0.59905000  1.0 0.5591436773
Cd  Cd17  1  0.28213000  0.59579000  0.31350000  1.0 0.541042979
Cd  Cd18  1  0.40421000  0.71787000  0.81350000  1.0 0.541042979
Cd  Cd19  1  0.23589000  0.69032000  0.32508000  1.0 0.5591436773
Cd  Cd20  1  0.30968000  0.76411000  0.82508000  1.0 0.5591436773
Cd  Cd21  1  0.19625000  0.41439000  0.41739000  1.0 0.5207380034
Cd  Cd22  1  0.58561000  0.80375000  0.91739000  1.0 0.5207380034
Cd  Cd23  1  0.93403000  0.58015000  0.18674000  1.0 0.5207380034
Cd  Cd24  1  0.41985000  0.06597000  0.68674000  1.0 0.5207380034
Cd  Cd25  1  0.12988000  0.52128000  0.40469000  1.0 0.5591436773
Cd  Cd26  1  0.47872000  0.87012000  0.90469000  1.0 0.5591436773
Cd  Cd27  1  0.10512000  0.78194000  0.20600000  1.0 0.5791628586
Cd  Cd28  1  0.21806000  0.89488000  0.70600000  1.0 0.5791628586
Cd  Cd29  1  0.29980000  0.46112000  0.39737000  1.0 0.5004287247
Cd  Cd30  1  0.53888000  0.70020000  0.89737000  1.0 0.5004287247
Cd  Cd31  1  0.07613000  0.65825000  0.09159000  1.0 0.5879314966
Cd  Cd32  1  0.34175000  0.92387000  0.59159000  1.0 0.5791628586
Cd  Cd33  1  0.95612000  0.63216000  0.07200000  1.0 0.541042979
Cd  Cd34  1  0.36784000  0.04388000  0.57200000  1.0 0.541042979
Cd  Cd35  1  0.29708000  0.33062000  0.43417000  1.0 0.5086100753
Cd  Cd36  1  0.66938000  0.70292000  0.93417000  1.0 0.5086100753
Cd  Cd37  1  0.00937000  0.59713000  0.30250000  1.0 0.5591436773
Cd  Cd38  1  0.40287000  0.99063000  0.80250000  1.0 0.551473203
Cd  Cd39  1  0.91009000  0.72241000  0.09672000  1.0 0.5287800508
Cd  Cd40  1  0.27759000  0.08991000  0.59672000  1.0 0.5287800508
Cd  Cd41  1  0.07414000  0.63944000  0.39645000  1.0 0.5086100753
Cd  Cd42  1  0.36056000  0.92586000  0.89645000  1.0 0.5086100753
Cd  Cd43  1  0.18956000  0.76398000  0.56954000  1.0 0.5004287247
Cd  Cd44  1  0.23602000  0.81044000  0.06954000  1.0 0.5004287247
Cd  Cd45  1  0.08381000  0.53427000  0.18163000  1.0 0.5591436773
Cd  Cd46  1  0.46573000  0.91619000  0.68163000  1.0 0.5591436773
Cd  Cd47  1  0.25911000  0.73369000  0.21272000  1.0 0.5207380034
Cd  Cd48  1  0.26631000  0.74089000  0.71272000  1.0 0.5207380034
Cd  Cd49  1  0.20620000  0.65366000  0.43443000  1.0 0.5207380034
Cd  Cd50  1  0.34634000  0.79380000  0.93443000  1.0 0.5207380034
Cd  Cd51  1  0.19831000  0.56613000  0.20011000  1.0 0.541042979
Cd  Cd52  1  0.43387000  0.80169000  0.70011000  1.0 0.541042979
Cd  Cd53  1  0.19345000  0.69383000  0.10721000  1.0 0.5004287247
Cd  Cd54  1  0.30617000  0.80655000  0.60721000  1.0 0.5004287247
Cd  Cd55  1  0.19973000  0.43481000  0.29705000  1.0 0.5004287247
Cd  Cd56  1  0.56519000  0.80027000  0.79705000  1.0 0.5004287247
Cd  Cd57  1  0.13100000  0.80544000  0.09449000  1.0 0.5207380034
Cd  Cd58  1  0.19456000  0.86900000  0.59449000  1.0 0.5207380034
Cd  Cd59  1  0.13241000  0.71931000  0.45790000  1.0 0.4782790618
Cd  Cd60  1  0.28069000  0.86759000  0.95790000  1.0 0.4782790618
Cd  Cd61  1  0.82573000  0.65455000  0.04101000  1.0 0.5086100753
Cd  Cd62  1  0.34545000  0.17427000  0.54101000  1.0 0.5086100753
Cd  Cd63  1  0.09042000  0.76178000  0.31667000  1.0 0.5207380034
Cd  Cd64  1  0.23822000  0.90958000  0.81667000  1.0 0.5207380034
Cd  Cd65  1  0.54663000  0.16821000  0.19696000  1.0 0.6634624677
Cd  Cd66  1  0.83179000  0.45337000  0.69696000  1.0 0.6634624677
Cd  Cd67  1  0.64871000  0.12223000  0.19029000  1.0 0.6706785786
Cd  Cd68  1  0.87777000  0.35129000  0.69029000  1.0 0.6706785786
Cd  Cd69  1  0.67538000  0.15278000  0.29532000  1.0 0.6822598405
Cd  Cd70  1  0.84722000  0.32462000  0.79532000  1.0 0.6822598405
Cd  Cd71  1  0.49526000  0.06124000  0.19976000  1.0 0.5687278288
Cd  Cd72  1  0.93876000  0.50474000  0.69976000  1.0 0.5687278288
Cd  Cd73  1  0.55965000  0.25479000  0.08272000  1.0 0.5591436773
Cd  Cd74  1  0.74521000  0.44035000  0.58272000  1.0 0.5591436773
Cd  Cd75  1  0.63255000  0.04219000  0.30206000  1.0 0.6879772471
Cd  Cd76  1  0.95781000  0.36745000  0.80206000  1.0 0.6822598405
Cd  Cd77  1  0.74034000  0.99892000  0.29393000  1.0 0.551473203
Cd  Cd78  1  0.00108000  0.25966000  0.79393000  1.0 0.551473203
Cd  Cd79  1  0.76549000  0.02061000  0.40095000  1.0 0.5591436773
Cd  Cd80  1  0.97939000  0.23451000  0.90095000  1.0 0.5591436773
Cd  Cd81  1  0.59579000  0.28213000  0.18650000  1.0 0.541042979
Cd  Cd82  1  0.71787000  0.40421000  0.68650000  1.0 0.541042979
Cd  Cd83  1  0.69032000  0.23588000  0.17492000  1.0 0.5591436773
Cd  Cd84  1  0.76411000  0.30967000  0.67492000  1.0 0.5591436773
Cd  Cd85  1  0.41439000  0.19625000  0.08261000  1.0 0.5207380034
Cd  Cd86  1  0.80375000  0.58561000  0.58261000  1.0 0.5207380034
Cd  Cd87  1  0.58015000  0.93403000  0.31326000  1.0 0.5207380034
Cd  Cd88  1  0.06597000  0.41985000  0.81326000  1.0 0.5207380034
Cd  Cd89  1  0.52128000  0.12988000  0.09531000  1.0 0.5591436773
Cd  Cd90  1  0.87012000  0.47872000  0.59531000  1.0 0.5591436773
Cd  Cd91  1  0.78194000  0.10512000  0.29400000  1.0 0.5791628586
Cd  Cd92  1  0.89488000  0.21806000  0.79400000  1.0 0.5791628586
Cd  Cd93  1  0.46112000  0.29980000  0.10263000  1.0 0.5004287247
Cd  Cd94  1  0.70020000  0.53888000  0.60263000  1.0 0.5004287247
Cd  Cd95  1  0.65825000  0.07613000  0.40841000  1.0 0.5879314966
Cd  Cd96  1  0.92387000  0.34175000  0.90841000  1.0 0.5879314966
Cd  Cd97  1  0.63216000  0.95612000  0.42800000  1.0 0.541042979
Cd  Cd98  1  0.04388000  0.36784000  0.92800000  1.0 0.541042979
Cd  Cd99  1  0.33062000  0.29708000  0.06583000  1.0 0.5086100753
Cd  Cd100  1  0.70292000  0.66938000  0.56583000  1.0 0.5086100753
Cd  Cd101  1  0.59713000  0.00937000  0.19750000  1.0 0.5591436773
Cd  Cd102  1  0.99063000  0.40287000  0.69750000  1.0 0.5591436773
Cd  Cd103  1  0.72241000  0.91009000  0.40328000  1.0 0.5287800508
Cd  Cd104  1  0.08991000  0.27759000  0.90328000  1.0 0.5287800508
Cd  Cd105  1  0.63944000  0.07414000  0.10355000  1.0 0.5086100753
Cd  Cd106  1  0.92586000  0.36056000  0.60355000  1.0 0.5086100753
Cd  Cd107  1  0.76398000  0.18956000  0.93046000  1.0 0.5004287247
Cd  Cd108  1  0.81044000  0.23602000  0.43046000  1.0 0.5004287247
Cd  Cd109  1  0.53427000  0.08381000  0.31837000  1.0 0.5591436773
Cd  Cd110  1  0.91619000  0.46573000  0.81837000  1.0 0.5591436773
Cd  Cd111  1  0.73369000  0.25911000  0.28728000  1.0 0.5207380034
Cd  Cd112  1  0.74089000  0.26631000  0.78728000  1.0 0.5207380034
Cd  Cd113  1  0.65366000  0.20620000  0.06557000  1.0 0.5207380034
Cd  Cd114  1  0.79380000  0.34634000  0.56557000  1.0 0.5207380034
Cd  Cd115  1  0.56613000  0.19831000  0.29989000  1.0 0.541042979
Cd  Cd116  1  0.80169000  0.43387000  0.79989000  1.0 0.551473203
Cd  Cd117  1  0.69383000  0.19345000  0.39279000  1.0 0.5086100753
Cd  Cd118  1  0.80655000  0.30617000  0.89279000  1.0 0.5086100753
Cd  Cd119  1  0.43481000  0.19973000  0.20295000  1.0 0.5004287247
Cd  Cd120  1  0.80027000  0.56519000  0.70295000  1.0 0.5004287247
Cd  Cd121  1  0.80544000  0.13100000  0.40551000  1.0 0.5207380034
Cd  Cd122  1  0.86900000  0.19456000  0.90551000  1.0 0.5207380034
Cd  Cd123  1  0.71931000  0.13241000  0.04210000  1.0 0.4782790618
Cd  Cd124  1  0.86759000  0.28069000  0.54210000  1.0 0.4782790618
Cd  Cd125  1  0.65455000  0.82573000  0.45899000  1.0 0.5086100753
Cd  Cd126  1  0.17427000  0.34545000  0.95899000  1.0 0.5086100753
Cd  Cd127  1  0.76178000  0.09042000  0.18333000  1.0 0.5207380034
Cd  Cd128  1  0.90958000  0.23822000  0.68333000  1.0 0.5207380034
C  C1  1  0.14890000  0.81730000  0.37690000  1.0 0.1179252157
C  C2  1  0.18270000  0.85110000  0.87690000  1.0 0.1179252157
C  C3  1  0.19130000  0.80390000  0.41950000  1.0 -0.097231595
C  C4  1  0.19610000  0.80870000  0.91950000  1.0 -0.097231595
C  C5  1  0.22240000  0.82900000  0.41690000  1.0 0.0301327775
C  C6  1  0.17100000  0.77760000  0.91690000  1.0 0.0301327775
C  C7  1  0.21100000  0.86740000  0.37160000  1.0 0.0033751995
C  C8  1  0.13260000  0.78900000  0.87160000  1.0 0.0033751995
C  C9  1  0.16850000  0.88070000  0.32900000  1.0 0.0408258136
C  C10  1  0.11930000  0.83150000  0.82900000  1.0 0.0408258136
C  C11  1  0.13750000  0.85570000  0.33160000  1.0 -0.0391999782
C  C12  1  0.14430000  0.86250000  0.83160000  1.0 -0.0391999782
C  C13  1  0.38770000  0.49970000  0.39750000  1.0 0.0905890138
C  C14  1  0.50030000  0.61230000  0.89750000  1.0 0.0905890138
C  C15  1  0.42640000  0.48020000  0.40190000  1.0 -0.0391999782
C  C16  1  0.51980000  0.57360000  0.90190000  1.0 -0.0391999782
C  C17  1  0.46980000  0.46900000  0.44240000  1.0 0.0601067842
C  C18  1  0.53100000  0.53020000  0.94240000  1.0 0.0601067842
C  C19  1  0.47460000  0.47720000  0.47860000  1.0 0.0104555965
C  C20  1  0.52280000  0.52540000  0.97860000  1.0 0.0104555965
C  C21  1  0.43590000  0.49670000  0.47420000  1.0 0.0506229903
C  C22  1  0.50330000  0.56410000  0.97420000  1.0 0.0506229903
C  C23  1  0.39250000  0.50790000  0.43370000  1.0 -0.0809325357
C  C24  1  0.49210000  0.60750000  0.93370000  1.0 -0.0809325357
C  C25  1  0.27120000  0.45620000  0.24780000  1.0 0.1259504186
C  C26  1  0.54380000  0.72880000  0.74780000  1.0 0.1179252157
C  C27  1  0.29810000  0.41070000  0.28140000  1.0 -0.060981692
C  C28  1  0.58930000  0.70190000  0.78140000  1.0 -0.060981692
C  C29  1  0.31730000  0.38850000  0.26730000  1.0 0.0506229903
C  C30  1  0.61150000  0.68270000  0.76730000  1.0 0.0506229903
C  C31  1  0.30950000  0.41190000  0.21960000  1.0 -0.0083786683
C  C32  1  0.58810000  0.69050000  0.71960000  1.0 -0.0083786683
C  C33  1  0.28270000  0.45730000  0.18600000  1.0 0.0408258136
C  C34  1  0.54270000  0.71730000  0.68600000  1.0 0.0408258136
C  C35  1  0.26350000  0.47950000  0.20010000  1.0 -0.0809325357
C  C36  1  0.52050000  0.73650000  0.70010000  1.0 -0.0809325357
C  C37  1  0.30209000  0.57129000  0.52420000  1.0 0.1004028502
C  C38  1  0.42871000  0.69791000  0.02420000  1.0 0.1004028502
C  C39  1  0.31560000  0.54940000  0.57390000  1.0 -0.0391999782
C  C40  1  0.45060000  0.68440000  0.07390000  1.0 -0.0391999782
C  C41  1  0.35900000  0.54560000  0.60920000  1.0 0.0408258136
C  C42  1  0.45440000  0.64100000  0.10920000  1.0 0.0506229903
C  C43  1  0.38904000  0.56364000  0.59470000  1.0 0.0104555965
C  C44  1  0.43636000  0.61096000  0.09470000  1.0 0.0104555965
C  C45  1  0.37563000  0.58543000  0.54500000  1.0 0.0601067842
C  C46  1  0.41457000  0.62437000  0.04500000  1.0 0.0601067842
C  C47  1  0.33210000  0.58930000  0.50970000  1.0 -0.0809325357
C  C48  1  0.41070000  0.66790000  0.00970000  1.0 -0.0809325357
C  C49  1  0.85650000  0.68830000  0.95710000  1.0 0.1004028502
C  C50  1  0.31170000  0.14350000  0.45710000  1.0 0.1004028502
C  C51  1  0.83170000  0.68850000  0.91330000  1.0 -0.0305504982
C  C52  1  0.31150000  0.16830000  0.41330000  1.0 -0.0305504982
C  C53  1  0.81530000  0.72890000  0.86760000  1.0 0.0506229903
C  C54  1  0.27110000  0.18470000  0.36760000  1.0 0.0506229903
C  C55  1  0.82380000  0.76900000  0.86570000  1.0 -0.0083786683
C  C56  1  0.23100000  0.17620000  0.36570000  1.0 -0.0083786683
C  C57  1  0.84860000  0.76880000  0.90950000  1.0 0.0408258136
C  C58  1  0.23120000  0.15140000  0.40950000  1.0 0.0408258136
C  C59  1  0.86500000  0.72840000  0.95520000  1.0 -0.0902000472
C  C60  1  0.27160000  0.13500000  0.45520000  1.0 -0.0902000472
C  C61  1  0.31950000  0.74610000  0.30940000  1.0 0.1004028502
C  C62  1  0.25390000  0.68050000  0.80940000  1.0 0.1004028502
C  C63  1  0.33410000  0.78390000  0.30840000  1.0 -0.0305504982
C  C64  1  0.21610000  0.66590000  0.80840000  1.0 -0.0305504982
C  C65  1  0.37990000  0.77810000  0.34020000  1.0 0.0301327775
C  C66  1  0.22190000  0.62010000  0.84020000  1.0 0.0301327775
C  C67  1  0.41110000  0.73450000  0.37300000  1.0 0.0408258136
C  C68  1  0.26550000  0.58890000  0.87300000  1.0 0.0408258136
C  C69  1  0.39650000  0.69670000  0.37400000  1.0 0.0601067842
C  C70  1  0.30330000  0.60350000  0.87400000  1.0 0.0601067842
C  C71  1  0.35070000  0.70250000  0.34220000  1.0 -0.097231595
C  C72  1  0.29750000  0.64930000  0.84220000  1.0 -0.097231595
C  C73  1  0.07860000  0.76540000  0.48650000  1.0 0.0801724137
C  C74  1  0.23460000  0.92140000  0.98650000  1.0 0.0801724137
C  C75  1  0.06490000  0.81150000  0.44970000  1.0 -0.060981692
C  C76  1  0.18850000  0.93510000  0.94970000  1.0 -0.060981692
C  C77  1  0.01930000  0.83730000  0.42230000  1.0 0.0601067842
C  C78  1  0.16270000  0.98070000  0.92230000  1.0 0.0601067842
C  C79  1  0.98770000  0.81710000  0.43180000  1.0 0.0205586287
C  C80  1  0.18290000  0.01230000  0.93180000  1.0 0.0205586287
C  C81  1  0.00140000  0.77100000  0.46870000  1.0 0.0408258136
C  C82  1  0.22900000  0.99860000  0.96870000  1.0 0.0408258136
C  C83  1  0.04700000  0.74520000  0.49600000  1.0 -0.0391999782
C  C84  1  0.25480000  0.95300000  0.99600000  1.0 -0.0502290872
C  C85  1  0.36400000  0.64400000  0.29390000  1.0 0.1097266344
C  C86  1  0.35600000  0.63600000  0.79390000  1.0 0.1097266344
C  C87  1  0.38460000  0.67240000  0.27120000  1.0 -0.0305504982
C  C88  1  0.32760000  0.61540000  0.77120000  1.0 -0.0305504982
C  C89  1  0.43210000  0.66330000  0.29710000  1.0 0.0601067842
C  C90  1  0.33670000  0.56790000  0.79710000  1.0 0.0601067842
C  C91  1  0.45880000  0.62580000  0.34570000  1.0 0.0205586287
C  C92  1  0.37420000  0.54120000  0.84570000  1.0 0.0205586287
C  C93  1  0.43820000  0.59740000  0.36840000  1.0 0.0301327775
C  C94  1  0.40260000  0.56180000  0.86840000  1.0 0.0301327775
C  C95  1  0.39080000  0.60660000  0.34250000  1.0 -0.097231595
C  C96  1  0.39340000  0.60920000  0.84250000  1.0 -0.097231595
C  C97  1  0.14750000  0.87550000  0.15530000  1.0 0.1179252157
C  C98  1  0.12450000  0.85250000  0.65530000  1.0 0.1179252157
C  C99  1  0.12440000  0.91400000  0.10720000  1.0 -0.0083786683
C  C100  1  0.08600000  0.87560000  0.60720000  1.0 -0.0083786683
C  C101  1  0.12200000  0.95760000  0.09980000  1.0 0.0408258136
C  C102  1  0.04240000  0.87800000  0.59980000  1.0 0.0408258136
C  C103  1  0.14280000  0.96260000  0.14040000  1.0 0.0104555965
C  C104  1  0.03740000  0.85720000  0.64040000  1.0 0.0104555965
C  C105  1  0.16590000  0.92410000  0.18850000  1.0 0.0506229903
C  C106  1  0.07590000  0.83410000  0.68850000  1.0 0.0506229903
C  C107  1  0.16830000  0.88050000  0.19600000  1.0 -0.0183280094
C  C108  1  0.11950000  0.83170000  0.69600000  1.0 -0.0183280094
C  C109  1  0.12860000  0.43940000  0.18980000  1.0 0.1004028502
C  C110  1  0.56060000  0.87140000  0.68980000  1.0 0.1004028502
C  C111  1  0.15300000  0.46140000  0.16860000  1.0 -0.097231595
C  C112  1  0.53860000  0.84700000  0.66860000  1.0 -0.097231595
C  C113  1  0.15920000  0.45060000  0.13850000  1.0 0.0408258136
C  C114  1  0.54940000  0.84080000  0.63850000  1.0 0.0408258136
C  C115  1  0.14090000  0.41790000  0.12960000  1.0 0.0301327775
C  C116  1  0.58210000  0.85910000  0.62960000  1.0 0.0301327775
C  C117  1  0.11650000  0.39570000  0.15090000  1.0 0.0408258136
C  C118  1  0.60430000  0.88350000  0.65090000  1.0 0.0408258136
C  C119  1  0.11030000  0.40650000  0.18100000  1.0 -0.0183280094
C  C120  1  0.59350000  0.88970000  0.68100000  1.0 -0.0183280094
C  C121  1  0.35120000  0.46720000  0.50910000  1.0 0.1097266344
C  C122  1  0.53280000  0.64880000  0.00910000  1.0 0.1097266344
C  C123  1  0.37240000  0.42380000  0.54500000  1.0 -0.097231595
C  C124  1  0.57620000  0.62760000  0.04500000  1.0 -0.097231595
C  C125  1  0.42920000  0.44700000  0.59250000  1.0 -0.0502290872
C  C126  1  0.55300000  0.57080000  0.09250000  1.0 -0.0502290872
C  C127  1  0.36750000  0.49510000  0.52350000  1.0 -0.1284478202
C  C128  1  0.50490000  0.63250000  0.02350000  1.0 -0.1284478202
C  C129  1  0.26900000  0.73360000  0.40600000  1.0 0.1097266344
C  C130  1  0.26640000  0.73100000  0.90600000  1.0 0.1097266344
C  C131  1  0.30550000  0.70870000  0.45530000  1.0 -0.0391999782
C  C132  1  0.29130000  0.69450000  0.95530000  1.0 -0.0391999782
C  C133  1  0.34120000  0.72700000  0.47160000  1.0 0.0301327775
C  C134  1  0.27300000  0.65880000  0.97160000  1.0 0.0301327775
C  C135  1  0.34030000  0.77010000  0.43850000  1.0 0.0104555965
C  C136  1  0.22990000  0.65970000  0.93850000  1.0 0.0104555965
C  C137  1  0.30390000  0.79490000  0.38920000  1.0 0.0506229903
C  C138  1  0.20510000  0.69610000  0.88920000  1.0 0.0506229903
C  C139  1  0.26820000  0.77660000  0.37300000  1.0 -0.0391999782
C  C140  1  0.22340000  0.73180000  0.87300000  1.0 -0.0391999782
C  C141  1  0.06590000  0.86770000  0.21200000  1.0 0.0905890138
C  C142  1  0.13230000  0.93410000  0.71200000  1.0 0.1004028502
C  C143  1  0.01750000  0.86610000  0.19650000  1.0 -0.0305504982
C  C144  1  0.13390000  0.98250000  0.69650000  1.0 -0.0305504982
C  C145  1  0.98400000  0.91660000  0.14930000  1.0 0.0506229903
C  C146  1  0.08340000  0.01600000  0.64930000  1.0 0.0506229903
C  C147  1  0.06080000  0.91180000  0.16800000  1.0 -0.0391999782
C  C148  1  0.08820000  0.93920000  0.66800000  1.0 -0.0391999782
C  C149  1  0.98610000  0.64930000  0.99160000  1.0 0.0801724137
C  C150  1  0.35070000  0.01390000  0.49160000  1.0 0.0801724137
C  C151  1  0.02060000  0.61040000  0.00490000  1.0 0.0408258136
C  C152  1  0.38960000  0.97940000  0.50490000  1.0 0.0408258136
C  C153  1  0.99540000  0.59300000  0.97100000  1.0 0.0506229903
C  C154  1  0.40700000  0.00460000  0.47100000  1.0 0.0506229903
C  C155  1  0.95880000  0.64160000  0.92240000  1.0 0.0506229903
C  C156  1  0.35840000  0.04120000  0.42240000  1.0 0.0506229903
C  C157  1  0.94930000  0.67890000  0.93900000  1.0 0.0301327775
C  C158  1  0.32110000  0.05070000  0.43900000  1.0 0.0301327775
C  C159  1  0.02350000  0.87130000  0.01610000  1.0 0.0801724137
C  C160  1  0.12870000  0.97650000  0.51610000  1.0 0.0801724137
C  C161  1  0.00170000  0.89790000  0.96270000  1.0 0.0601067842
C  C162  1  0.10210000  0.99830000  0.46270000  1.0 0.0601067842
C  C163  1  0.97900000  0.94800000  0.94120000  1.0 0.0801724137
C  C164  1  0.05200000  0.02100000  0.44120000  1.0 0.0801724137
C  C165  1  0.98100000  0.96140000  0.97290000  1.0 -0.0305504982
C  C166  1  0.03860000  0.01900000  0.47290000  1.0 -0.0305504982
C  C167  1  0.99980000  0.93740000  0.02250000  1.0 0.0601067842
C  C168  1  0.06260000  0.00020000  0.52250000  1.0 0.0601067842
C  C169  1  0.02620000  0.88720000  0.04480000  1.0 -0.0183280094
C  C170  1  0.11280000  0.97380000  0.54480000  1.0 -0.0183280094
C  C171  1  0.37690000  0.24450000  0.45760000  1.0 0.1179252157
C  C172  1  0.75550000  0.62310000  0.95760000  1.0 0.1179252157
C  C173  1  0.35100000  0.26560000  0.40510000  1.0 -0.097231595
C  C174  1  0.73440000  0.64900000  0.90510000  1.0 -0.097231595
C  C175  1  0.37170000  0.26110000  0.38180000  1.0 0.0506229903
C  C176  1  0.73890000  0.62830000  0.88180000  1.0 0.0506229903
C  C177  1  0.41770000  0.23230000  0.40800000  1.0 0.0205586287
C  C178  1  0.76770000  0.58230000  0.90800000  1.0 0.0205586287
C  C179  1  0.44510000  0.20290000  0.46440000  1.0 0.0905890138
C  C180  1  0.79710000  0.55490000  0.96440000  1.0 0.1004028502
C  C181  1  0.42080000  0.21280000  0.48650000  1.0 -0.0183280094
C  C182  1  0.78720000  0.57920000  0.98650000  1.0 -0.0183280094
C  C183  1  0.89920000  0.58140000  0.26480000  1.0 0.1097266344
C  C184  1  0.41860000  0.10080000  0.76480000  1.0 0.1097266344
C  C185  1  0.90630000  0.41690000  0.26940000  1.0 0.0680649295
C  C186  1  0.58310000  0.09370000  0.76940000  1.0 0.0680649295
C  C187  1  0.05650000  0.65710000  0.47570000  1.0 0.1004028502
C  C188  1  0.34290000  0.94350000  0.97570000  1.0 0.1004028502
C  C189  1  0.90550000  0.42390000  0.30460000  1.0 -0.0183280094
C  C190  1  0.57610000  0.09450000  0.80460000  1.0 -0.0183280094
C  C191  1  0.06320000  0.30500000  0.42760000  1.0 0.0301327775
C  C192  1  0.69500000  0.93680000  0.92760000  1.0 0.0301327775
C  C193  1  0.80570000  0.85870000  0.07230000  1.0 0.0301327775
C  C194  1  0.14130000  0.19430000  0.57230000  1.0 0.0301327775
C  C195  1  0.35280000  0.63060000  0.63960000  1.0 0.0205586287
C  C196  1  0.36940000  0.64720000  0.13960000  1.0 0.0205586287
C  C197  1  0.12820000  0.39680000  0.47330000  1.0 -0.1094482657
C  C198  1  0.60320000  0.87180000  0.97330000  1.0 -0.1094482657
C  C199  1  0.11220000  0.36420000  0.50070000  1.0 0.0601067842
C  C200  1  0.63580000  0.88780000  0.00070000  1.0 0.0601067842
C  C201  1  0.14260000  0.69640000  0.99370000  1.0 -0.1408140002
C  C202  1  0.30360000  0.85740000  0.49370000  1.0 -0.1408140002
C  C203  1  0.93310000  0.44090000  0.24510000  1.0 0.0408258136
C  C204  1  0.55910000  0.06690000  0.74510000  1.0 0.0408258136
C  C205  1  0.92500000  0.45320000  0.31650000  1.0 0.0506229903
C  C206  1  0.54680000  0.07500000  0.81650000  1.0 0.0506229903
C  C207  1  0.80260000  0.49140000  0.10760000  1.0 0.0601067842
C  C208  1  0.50860000  0.19740000  0.60760000  1.0 0.0601067842
C  C209  1  0.08670000  0.54370000  0.50630000  1.0 -0.0305504982
C  C210  1  0.45630000  0.91330000  0.00630000  1.0 -0.0305504982
C  C211  1  0.31430000  0.68750000  0.64140000  1.0 -0.0681066334
C  C212  1  0.31250000  0.68570000  0.14140000  1.0 -0.0681066334
C  C213  1  0.84480000  0.92140000  0.95100000  1.0 0.0205586287
C  C214  1  0.07860000  0.15520000  0.45100000  1.0 0.0205586287
C  C215  1  0.92510000  0.86210000  0.00730000  1.0 -0.0902000472
C  C216  1  0.13790000  0.07490000  0.50730000  1.0 -0.0902000472
C  C217  1  0.33010000  0.66070000  0.58750000  1.0 0.0205586287
C  C218  1  0.33930000  0.66990000  0.08750000  1.0 0.0205586287
C  C219  1  0.10770000  0.29510000  0.43900000  1.0 0.0205586287
C  C220  1  0.70490000  0.89230000  0.93900000  1.0 0.0205586287
C  C221  1  0.19840000  0.58960000  0.54440000  1.0 -0.1284478202
C  C222  1  0.41040000  0.80160000  0.04440000  1.0 -0.1223475827
C  C223  1  0.36670000  0.29850000  0.62520000  1.0 0.0301327775
C  C224  1  0.70150000  0.63330000  0.12520000  1.0 0.0301327775
C  C225  1  0.20300000  0.55120000  0.58690000  1.0 0.0601067842
C  C226  1  0.44880000  0.79700000  0.08690000  1.0 0.0601067842
C  C227  1  0.89530000  0.91390000  0.97930000  1.0 0.0801724137
C  C228  1  0.08610000  0.10470000  0.47930000  1.0 0.0801724137
C  C229  1  0.84630000  0.54330000  0.11930000  1.0 0.0905890138
C  C230  1  0.45670000  0.15370000  0.61930000  1.0 0.0905890138
C  C231  1  0.12390000  0.32850000  0.41620000  1.0 -0.060981692
C  C232  1  0.67150000  0.87610000  0.91620000  1.0 -0.060981692
C  C233  1  0.05570000  0.48210000  0.53390000  1.0 0.0205586287
C  C234  1  0.51790000  0.94430000  0.03390000  1.0 0.0205586287
C  C235  1  0.87040000  0.88520000  0.06460000  1.0 0.0601067842
C  C236  1  0.11480000  0.12960000  0.56460000  1.0 0.0601067842
C  C237  1  0.07570000  0.71710000  0.64480000  1.0 0.0205586287
C  C238  1  0.28290000  0.92430000  0.14480000  1.0 0.0205586287
C  C239  1  0.75650000  0.74530000  0.11350000  1.0 0.0301327775
C  C240  1  0.25470000  0.24350000  0.61350000  1.0 0.0301327775
C  C241  1  0.88080000  0.52280000  0.11820000  1.0 -0.0902000472
C  C242  1  0.47720000  0.11920000  0.61820000  1.0 -0.0809325357
C  C243  1  0.99740000  0.63580000  0.50090000  1.0 0.1004028502
C  C244  1  0.36420000  0.00260000  0.00090000  1.0 0.1004028502
C  C245  1  0.17010000  0.40170000  0.50040000  1.0 0.1004028502
C  C246  1  0.59830000  0.82990000  0.00040000  1.0 0.1004028502
C  C247  1  0.10210000  0.74550000  0.66140000  1.0 0.1097266344
C  C248  1  0.25450000  0.89790000  0.16140000  1.0 0.1097266344
C  C249  1  0.19700000  0.56780000  0.06330000  1.0 0.0905890138
C  C250  1  0.43220000  0.80300000  0.56330000  1.0 0.0905890138
C  C251  1  0.34520000  0.64200000  0.66780000  1.0 0.0506229903
C  C252  1  0.35800000  0.65480000  0.16780000  1.0 0.0506229903
C  C253  1  0.24190000  0.58570000  0.63460000  1.0 0.0601067842
C  C254  1  0.41430000  0.75810000  0.13460000  1.0 0.0601067842
C  C255  1  0.05310000  0.38590000  0.36960000  1.0 -0.0502290872
C  C256  1  0.61410000  0.94690000  0.86960000  1.0 -0.0502290872
C  C257  1  0.89390000  0.53450000  0.33810000  1.0 0.0408258136
C  C258  1  0.46550000  0.10610000  0.83810000  1.0 0.0408258136
C  C259  1  0.03460000  0.61480000  0.55300000  1.0 0.0104555965
C  C260  1  0.38520000  0.96540000  0.05300000  1.0 0.0104555965
C  C261  1  0.17860000  0.34560000  0.57720000  1.0 0.0601067842
C  C262  1  0.65440000  0.82140000  0.07720000  1.0 0.0601067842
C  C263  1  0.06490000  0.52190000  0.53110000  1.0 0.0104555965
C  C264  1  0.47810000  0.93510000  0.03110000  1.0 0.0104555965
C  C265  1  0.83460000  0.81160000  0.10330000  1.0 -0.0016173184
C  C266  1  0.18840000  0.16540000  0.60330000  1.0 -0.0083786683
C  C267  1  0.19740000  0.58540000  0.09180000  1.0 -0.097231595
C  C268  1  0.41460000  0.80260000  0.59180000  1.0 -0.097231595
C  C269  1  0.13770000  0.33990000  0.55190000  1.0 -0.0083786683
C  C270  1  0.66010000  0.86230000  0.05190000  1.0 -0.0083786683
C  C271  1  0.91830000  0.55790000  0.31670000  1.0 -0.0681066334
C  C272  1  0.44210000  0.08170000  0.81670000  1.0 -0.0681066334
C  C273  1  0.23840000  0.56500000  0.06040000  1.0 0.0408258136
C  C274  1  0.43500000  0.76160000  0.56040000  1.0 0.0408258136
C  C275  1  0.95050000  0.47630000  0.29520000  1.0 -0.1094482657
C  C276  1  0.52370000  0.04950000  0.79520000  1.0 -0.1094482657
C  C277  1  0.73810000  0.77530000  0.06110000  1.0 0.0033751995
C  C278  1  0.22470000  0.26190000  0.56110000  1.0 0.0033751995
C  C279  1  0.08120000  0.61200000  0.56820000  1.0 0.0506229903
C  C280  1  0.38800000  0.91880000  0.06820000  1.0 0.0506229903
C  C281  1  0.29460000  0.71600000  0.58970000  1.0 0.1097266344
C  C282  1  0.28400000  0.70540000  0.08970000  1.0 0.1097266344
C  C283  1  0.83820000  0.46900000  0.10900000  1.0 0.0033751995
C  C284  1  0.53100000  0.16180000  0.60900000  1.0 0.0033751995
C  C285  1  0.83080000  0.55600000  0.25690000  1.0 0.0601067842
C  C286  1  0.44400000  0.16920000  0.75690000  1.0 0.0601067842
C  C287  1  0.82410000  0.89190000  0.05120000  1.0 0.0301327775
C  C288  1  0.10810000  0.17590000  0.55120000  1.0 0.0301327775
C  C289  1  0.36520000  0.26860000  0.60950000  1.0 0.0205586287
C  C290  1  0.73140000  0.63480000  0.10950000  1.0 0.0205586287
C  C291  1  0.30280000  0.70300000  0.56290000  1.0 -0.0502290872
C  C292  1  0.29700000  0.69720000  0.06290000  1.0 -0.0502290872
C  C293  1  0.23480000  0.59500000  0.11770000  1.0 0.0905890138
C  C294  1  0.40500000  0.76520000  0.61770000  1.0 0.0905890138
C  C295  1  0.96750000  0.79790000  0.25190000  1.0 0.0905890138
C  C296  1  0.20210000  0.03250000  0.75190000  1.0 0.0905890138
C  C297  1  0.08820000  0.48720000  0.48430000  1.0 -0.0809325357
C  C298  1  0.51280000  0.91180000  0.98430000  1.0 -0.0809325357
C  C299  1  0.82650000  0.88410000  0.94920000  1.0 0.0801724137
C  C300  1  0.11590000  0.17350000  0.44920000  1.0 0.0801724137
C  C301  1  0.85450000  0.58170000  0.23350000  1.0 -0.0391999782
C  C302  1  0.41830000  0.14550000  0.73350000  1.0 -0.0391999782
C  C303  1  0.88120000  0.80260000  0.11580000  1.0 0.0801724137
C  C304  1  0.19740000  0.11880000  0.61580000  1.0 0.0801724137
C  C305  1  0.90130000  0.82850000  0.00280000  1.0 0.1179252157
C  C306  1  0.17150000  0.09870000  0.50280000  1.0 0.1179252157
C  C307  1  0.75980000  0.76980000  0.04000000  1.0 -0.0083786683
C  C308  1  0.23020000  0.24020000  0.54000000  1.0 -0.0083786683
C  C309  1  0.85120000  0.53220000  0.30860000  1.0 -0.0016173184
C  C310  1  0.46780000  0.14880000  0.80860000  1.0 -0.0016173184
C  C311  1  0.32980000  0.27980000  0.56300000  1.0 -0.0681066334
C  C312  1  0.72020000  0.67020000  0.06300000  1.0 -0.0681066334
C  C313  1  0.80040000  0.73380000  0.06830000  1.0 0.1004028502
C  C314  1  0.26620000  0.19960000  0.56830000  1.0 0.1004028502
C  C315  1  0.19630000  0.37710000  0.55170000  1.0 -0.0305504982
C  C316  1  0.62290000  0.80370000  0.05170000  1.0 -0.0391999782
C  C317  1  0.09790000  0.52630000  0.48220000  1.0 0.1097266344
C  C318  1  0.47370000  0.90210000  0.98220000  1.0 0.1097266344
C  C319  1  0.08870000  0.69270000  0.62920000  1.0 0.0301327775
C  C320  1  0.30730000  0.91130000  0.12920000  1.0 0.0301327775
C  C321  1  0.21670000  0.62490000  0.54720000  1.0 0.0905890138
C  C322  1  0.37510000  0.78330000  0.04720000  1.0 0.0905890138
C  C323  1  0.29650000  0.32210000  0.53090000  1.0 0.1004028502
C  C324  1  0.67790000  0.70350000  0.03090000  1.0 0.1004028502
C  C325  1  0.85720000  0.83740000  0.98090000  1.0 -0.0809325357
C  C326  1  0.16260000  0.14280000  0.48090000  1.0 -0.0809325357
C  C327  1  0.95220000  0.47100000  0.26040000  1.0 0.0905890138
C  C328  1  0.52900000  0.04780000  0.76040000  1.0 0.0905890138
C  C329  1  0.06780000  0.46340000  0.51090000  1.0 0.0601067842
C  C330  1  0.53660000  0.93220000  0.01090000  1.0 0.0601067842
C  C331  1  0.81800000  0.70340000  0.11810000  1.0 -0.0681066334
C  C332  1  0.29660000  0.18200000  0.61810000  1.0 -0.0681066334
C  C333  1  0.09830000  0.37270000  0.38210000  1.0 0.1179252157
C  C334  1  0.62730000  0.90170000  0.88210000  1.0 0.1179252157
C  C335  1  0.80880000  0.52880000  0.11490000  1.0 -0.0305504982
C  C336  1  0.47120000  0.19120000  0.61490000  1.0 -0.0305504982
C  C337  1  0.79660000  0.70820000  0.14170000  1.0 0.0506229903
C  C338  1  0.29180000  0.20340000  0.64170000  1.0 0.0506229903
C  C339  1  0.00800000  0.66260000  0.45750000  1.0 0.0104555965
C  C340  1  0.33740000  0.99200000  0.95750000  1.0 0.0104555965
C  C341  1  0.14680000  0.74180000  0.66530000  1.0 -0.097231595
C  C342  1  0.25820000  0.85320000  0.16530000  1.0 -0.097231595
C  C343  1  0.39600000  0.36520000  0.48500000  1.0 0.1004028502
C  C344  1  0.63480000  0.60400000  0.98500000  1.0 0.1004028502
C  C345  1  0.27750000  0.57250000  0.08660000  1.0 -0.0083786683
C  C346  1  0.42750000  0.72250000  0.58660000  1.0 -0.0083786683
C  C347  1  0.23810000  0.62510000  0.59040000  1.0 -0.0502290872
C  C348  1  0.37490000  0.76190000  0.09040000  1.0 -0.0502290872
C  C349  1  0.87450000  0.48550000  0.11030000  1.0 0.0506229903
C  C350  1  0.51450000  0.12550000  0.61030000  1.0 0.0506229903
C  C351  1  0.03670000  0.35090000  0.39440000  1.0 0.0506229903
C  C352  1  0.64910000  0.96330000  0.89440000  1.0 0.0506229903
C  C353  1  0.22440000  0.54980000  0.63300000  1.0 0.0205586287
C  C354  1  0.45020000  0.77560000  0.13300000  1.0 0.0205586287
C  C355  1  0.08950000  0.63490000  0.52850000  1.0 -0.1408140002
C  C356  1  0.36510000  0.91050000  0.02850000  1.0 -0.1408140002
C  C357  1  0.89930000  0.83770000  0.09790000  1.0 -0.0502290872
C  C358  1  0.16230000  0.10070000  0.59790000  1.0 -0.060981692
C  C359  1  0.16150000  0.71570000  0.65500000  1.0 0.0801724137
C  C360  1  0.28430000  0.83850000  0.15500000  1.0 0.0801724137
C  C361  1  0.13420000  0.69160000  0.63410000  1.0 0.0033751995
C  C362  1  0.30840000  0.86580000  0.13410000  1.0 0.0033751995
C  C363  1  0.33190000  0.34130000  0.59310000  1.0 0.0680649295
C  C364  1  0.65870000  0.66810000  0.09310000  1.0 0.0680649295
C  C365  1  0.27720000  0.58840000  0.11810000  1.0 0.0506229903
C  C366  1  0.41160000  0.72280000  0.61810000  1.0 0.0506229903
C  C367  1  0.29650000  0.35290000  0.54570000  1.0 -0.060981692
C  C368  1  0.64710000  0.70350000  0.04570000  1.0 -0.060981692
C  C369  1  0.47350000  0.32910000  0.56960000  1.0 -0.1284478202
C  C370  1  0.67090000  0.52650000  0.06960000  1.0 -0.1223475827
C  C371  1  0.98490000  0.52290000  0.09140000  1.0 0.0801724137
C  C372  1  0.47710000  0.01510000  0.59140000  1.0 0.0801724137
C  C373  1  0.13550000  0.29850000  0.30840000  1.0 0.0801724137
C  C374  1  0.70150000  0.86450000  0.80840000  1.0 0.0801724137
C  C375  1  0.95190000  0.53590000  0.04880000  1.0 -0.0902000472
C  C376  1  0.46410000  0.04810000  0.54880000  1.0 -0.0902000472
C  C377  1  0.04990000  0.91070000  0.48200000  1.0 -0.2993808492
C  C378  1  0.08930000  0.95010000  0.98200000  1.0 -0.2993808492
C  C379  1  0.16630000  0.32570000  0.30560000  1.0 -0.0502290872
C  C380  1  0.67430000  0.83370000  0.80560000  1.0 -0.0502290872
C  C381  1  0.18350000  0.24950000  0.40040000  1.0 0.0680649295
C  C382  1  0.75050000  0.81650000  0.90040000  1.0 0.0680649295
C  C383  1  0.14280000  0.26120000  0.35640000  1.0 -0.0083786683
C  C384  1  0.73880000  0.85720000  0.85640000  1.0 -0.0083786683
C  C385  1  0.21490000  0.27950000  0.39730000  1.0 -0.1094482657
C  C386  1  0.72050000  0.78510000  0.89730000  1.0 -0.1094482657
C  C387  1  0.86240000  0.70120000  0.28830000  1.0 0.0301327775
C  C388  1  0.29880000  0.13760000  0.78830000  1.0 0.0301327775
C  C389  1  0.88460000  0.66800000  0.33780000  1.0 0.0301327775
C  C390  1  0.33200000  0.11540000  0.83780000  1.0 0.0301327775
C  C391  1  0.93170000  0.63930000  0.36530000  1.0 0.0104555965
C  C392  1  0.36070000  0.06830000  0.86530000  1.0 0.0104555965
C  C393  1  0.88130000  0.71110000  0.25740000  1.0 0.0680649295
C  C394  1  0.28890000  0.11870000  0.75740000  1.0 0.0601067842
C  C395  1  0.92850000  0.68190000  0.28520000  1.0 -0.0681066334
C  C396  1  0.31810000  0.07150000  0.78520000  1.0 -0.0681066334
C  C397  1  0.20310000  0.31630000  0.35180000  1.0 0.1179252157
C  C398  1  0.68370000  0.79690000  0.85180000  1.0 0.1179252157
C  C399  1  0.95210000  0.64850000  0.33460000  1.0 0.1097266344
C  C400  1  0.35150000  0.04790000  0.83460000  1.0 0.1097266344
C  C401  1  0.10340000  0.70060000  0.00270000  1.0 0.1873375477
C  C402  1  0.29940000  0.89660000  0.50270000  1.0 0.1873375477
C  C403  1  0.13630000  0.68270000  0.96010000  1.0 0.0408258136
C  C404  1  0.31730000  0.86370000  0.46010000  1.0 0.0408258136
C  C405  1  0.07730000  0.67710000  0.97500000  1.0 -0.1408140002
C  C406  1  0.32290000  0.92270000  0.47500000  1.0 -0.1408140002
C  C407  1  0.01050000  0.94450000  0.14700000  1.0 0.0408258136
C  C408  1  0.05550000  0.98950000  0.64700000  1.0 0.0408258136
C  C409  1  0.41620000  0.33460000  0.54310000  1.0 0.0205586287
C  C410  1  0.66540000  0.58380000  0.04310000  1.0 0.0205586287
C  C411  1  0.11970000  0.63770000  0.95700000  1.0 0.1097266344
C  C412  1  0.36230000  0.88030000  0.45700000  1.0 0.1097266344
C  C413  1  0.41320000  0.48500000  0.55800000  1.0 0.0205586287
C  C414  1  0.51500000  0.58680000  0.05800000  1.0 0.0205586287
C  C415  1  0.09010000  0.85970000  0.51770000  1.0 0.1815915284
C  C416  1  0.14030000  0.90990000  0.01770000  1.0 0.1815915284
C  C417  1  0.88880000  0.84760000  0.19860000  1.0 0.0601067842
C  C418  1  0.15240000  0.11120000  0.69860000  1.0 0.0680649295
C  C419  1  0.42340000  0.41060000  0.59600000  1.0 0.0680649295
C  C420  1  0.58940000  0.57660000  0.09600000  1.0 0.0680649295
C  C421  1  0.99460000  0.46560000  0.14130000  1.0 -0.1679085506
C  C422  1  0.53440000  0.00540000  0.64130000  1.0 -0.1679085506
C  C423  1  0.99250000  0.82230000  0.28300000  1.0 0.0601067842
C  C424  1  0.17770000  0.00750000  0.78300000  1.0 0.0601067842
C  C425  1  0.98550000  0.42690000  0.13600000  1.0 0.1179252157
C  C426  1  0.57310000  0.01450000  0.63600000  1.0 0.1179252157
C  C427  1  0.96100000  0.46160000  0.07240000  1.0 -0.0305504982
C  C428  1  0.53840000  0.03900000  0.57240000  1.0 -0.0305504982
C  C429  1  0.93080000  0.80900000  0.22120000  1.0 0.0408258136
C  C430  1  0.19100000  0.06920000  0.72120000  1.0 0.0408258136
C  C431  1  0.89900000  0.87720000  0.20780000  1.0 -0.1964519879
C  C432  1  0.12280000  0.10100000  0.70780000  1.0 -0.2071884571
C  C433  1  0.93290000  0.51010000  0.02780000  1.0 0.0408258136
C  C434  1  0.48990000  0.06710000  0.52780000  1.0 0.0301327775
C  C435  1  0.11230000  0.99390000  0.98910000  1.0 -0.0016173184
C  C436  1  0.00610000  0.88770000  0.48910000  1.0 -0.0016173184
C  C437  1  0.16730000  0.97770000  0.01640000  1.0 0.0801724137
C  C438  1  0.02230000  0.83270000  0.51640000  1.0 0.0801724137
C  C439  1  0.18300000  0.93600000  0.04000000  1.0 -0.1883672325
C  C440  1  0.06400000  0.81700000  0.54000000  1.0 -0.183014333
C  C441  1  0.81730000  0.14890000  0.12310000  1.0 0.1179252157
C  C442  1  0.85110000  0.18270000  0.62310000  1.0 0.1179252157
C  C443  1  0.80390000  0.19130000  0.08050000  1.0 -0.097231595
C  C444  1  0.80870000  0.19610000  0.58050000  1.0 -0.097231595
C  C445  1  0.82900000  0.22240000  0.08310000  1.0 0.0301327775
C  C446  1  0.77760000  0.17100000  0.58310000  1.0 0.0301327775
C  C447  1  0.86740000  0.21100000  0.12840000  1.0 0.0033751995
C  C448  1  0.78900000  0.13260000  0.62840000  1.0 -0.0016173184
C  C449  1  0.88070000  0.16850000  0.17100000  1.0 0.0408258136
C  C450  1  0.83150000  0.11930000  0.67100000  1.0 0.0408258136
C  C451  1  0.85570000  0.13750000  0.16840000  1.0 -0.0391999782
C  C452  1  0.86250000  0.14430000  0.66840000  1.0 -0.0391999782
C  C453  1  0.49970000  0.38770000  0.10250000  1.0 0.0905890138
C  C454  1  0.61230000  0.50030000  0.60250000  1.0 0.0905890138
C  C455  1  0.48020000  0.42640000  0.09810000  1.0 -0.0391999782
C  C456  1  0.57360000  0.51980000  0.59810000  1.0 -0.0391999782
C  C457  1  0.46900000  0.46980000  0.05760000  1.0 0.0601067842
C  C458  1  0.53020000  0.53100000  0.55760000  1.0 0.0601067842
C  C459  1  0.47720000  0.47460000  0.02140000  1.0 0.0104555965
C  C460  1  0.52540000  0.52280000  0.52140000  1.0 0.0104555965
C  C461  1  0.49670000  0.43590000  0.02580000  1.0 0.0506229903
C  C462  1  0.56410000  0.50330000  0.52580000  1.0 0.0506229903
C  C463  1  0.50790000  0.39250000  0.06630000  1.0 -0.0809325357
C  C464  1  0.60750000  0.49210000  0.56630000  1.0 -0.0809325357
C  C465  1  0.45620000  0.27120000  0.25220000  1.0 0.1259504186
C  C466  1  0.72880000  0.54380000  0.75220000  1.0 0.1259504186
C  C467  1  0.41070000  0.29810000  0.21860000  1.0 -0.060981692
C  C468  1  0.70190000  0.58930000  0.71860000  1.0 -0.060981692
C  C469  1  0.38850000  0.31730000  0.23270000  1.0 0.0506229903
C  C470  1  0.68270000  0.61150000  0.73270000  1.0 0.0506229903
C  C471  1  0.41190000  0.30950000  0.28040000  1.0 -0.0083786683
C  C472  1  0.69050000  0.58810000  0.78040000  1.0 -0.0083786683
C  C473  1  0.45730000  0.28270000  0.31400000  1.0 0.0408258136
C  C474  1  0.71730000  0.54270000  0.81400000  1.0 0.0408258136
C  C475  1  0.47950000  0.26350000  0.29990000  1.0 -0.0809325357
C  C476  1  0.73650000  0.52050000  0.79990000  1.0 -0.0809325357
C  C477  1  0.57129000  0.30209000  0.97580000  1.0 0.1004028502
C  C478  1  0.69791000  0.42871000  0.47580000  1.0 0.1004028502
C  C479  1  0.54940000  0.31560000  0.92610000  1.0 -0.0391999782
C  C480  1  0.68440000  0.45060000  0.42610000  1.0 -0.0391999782
C  C481  1  0.54560000  0.35900000  0.89080000  1.0 0.0408258136
C  C482  1  0.64100000  0.45440000  0.39080000  1.0 0.0408258136
C  C483  1  0.56364000  0.38904000  0.90530000  1.0 0.0104555965
C  C484  1  0.61096000  0.43636000  0.40530000  1.0 0.0104555965
C  C485  1  0.58543000  0.37563000  0.95500000  1.0 0.0601067842
C  C486  1  0.62437000  0.41457000  0.45500000  1.0 0.0601067842
C  C487  1  0.58930000  0.33210000  0.99030000  1.0 -0.0809325357
C  C488  1  0.66790000  0.41070000  0.49030000  1.0 -0.0809325357
C  C489  1  0.68830000  0.85650000  0.54290000  1.0 0.1004028502
C  C490  1  0.14350000  0.31170000  0.04290000  1.0 0.1004028502
C  C491  1  0.68850000  0.83170000  0.58670000  1.0 -0.0305504982
C  C492  1  0.16830000  0.31150000  0.08670000  1.0 -0.0305504982
C  C493  1  0.72890000  0.81530000  0.63240000  1.0 0.0506229903
C  C494  1  0.18470000  0.27110000  0.13240000  1.0 0.0506229903
C  C495  1  0.76900000  0.82380000  0.63430000  1.0 -0.0083786683
C  C496  1  0.17620000  0.23100000  0.13430000  1.0 -0.0083786683
C  C497  1  0.76880000  0.84860000  0.59050000  1.0 0.0408258136
C  C498  1  0.15140000  0.23120000  0.09050000  1.0 0.0408258136
C  C499  1  0.72840000  0.86500000  0.54480000  1.0 -0.0902000472
C  C500  1  0.13500000  0.27160000  0.04480000  1.0 -0.0902000472
C  C501  1  0.74610000  0.31950000  0.19060000  1.0 0.1004028502
C  C502  1  0.68050000  0.25390000  0.69060000  1.0 0.1004028502
C  C503  1  0.78390000  0.33410000  0.19160000  1.0 -0.0305504982
C  C504  1  0.66590000  0.21610000  0.69160000  1.0 -0.0305504982
C  C505  1  0.77810000  0.37990000  0.15980000  1.0 0.0301327775
C  C506  1  0.62010000  0.22190000  0.65980000  1.0 0.0301327775
C  C507  1  0.73450000  0.41110000  0.12700000  1.0 0.0408258136
C  C508  1  0.58890000  0.26550000  0.62700000  1.0 0.0408258136
C  C509  1  0.69670000  0.39650000  0.12600000  1.0 0.0601067842
C  C510  1  0.60350000  0.30330000  0.62600000  1.0 0.0601067842
C  C511  1  0.70250000  0.35070000  0.15780000  1.0 -0.097231595
C  C512  1  0.64930000  0.29750000  0.65780000  1.0 -0.097231595
C  C513  1  0.76540000  0.07860000  0.01350000  1.0 0.0801724137
C  C514  1  0.92140000  0.23460000  0.51350000  1.0 0.0801724137
C  C515  1  0.81150000  0.06490000  0.05030000  1.0 -0.060981692
C  C516  1  0.93510000  0.18850000  0.55030000  1.0 -0.060981692
C  C517  1  0.83730000  0.01930000  0.07770000  1.0 0.0601067842
C  C518  1  0.98070000  0.16270000  0.57770000  1.0 0.0601067842
C  C519  1  0.81710000  0.98770000  0.06820000  1.0 0.0205586287
C  C520  1  0.01230000  0.18290000  0.56820000  1.0 0.0205586287
C  C521  1  0.77100000  0.00140000  0.03130000  1.0 0.0408258136
C  C522  1  0.99860000  0.22900000  0.53130000  1.0 0.0408258136
C  C523  1  0.74520000  0.04700000  0.00400000  1.0 -0.0391999782
C  C524  1  0.95300000  0.25480000  0.50400000  1.0 -0.0391999782
C  C525  1  0.64400000  0.36400000  0.20610000  1.0 0.1097266344
C  C526  1  0.63600000  0.35600000  0.70610000  1.0 0.1097266344
C  C527  1  0.67240000  0.38460000  0.22880000  1.0 -0.0391999782
C  C528  1  0.61540000  0.32760000  0.72880000  1.0 -0.0391999782
C  C529  1  0.66330000  0.43210000  0.20290000  1.0 0.0601067842
C  C530  1  0.56790000  0.33670000  0.70290000  1.0 0.0601067842
C  C531  1  0.62580000  0.45880000  0.15430000  1.0 0.0205586287
C  C532  1  0.54120000  0.37420000  0.65430000  1.0 0.0205586287
C  C533  1  0.59740000  0.43820000  0.13160000  1.0 0.0301327775
C  C534  1  0.56180000  0.40260000  0.63160000  1.0 0.0301327775
C  C535  1  0.60660000  0.39080000  0.15750000  1.0 -0.097231595
C  C536  1  0.60920000  0.39340000  0.65750000  1.0 -0.097231595
C  C537  1  0.87550000  0.14750000  0.34470000  1.0 0.1179252157
C  C538  1  0.85250000  0.12450000  0.84470000  1.0 0.1179252157
C  C539  1  0.91400000  0.12440000  0.39280000  1.0 -0.0083786683
C  C540  1  0.87560000  0.08600000  0.89280000  1.0 -0.0083786683
C  C541  1  0.95760000  0.12200000  0.40020000  1.0 0.0408258136
C  C542  1  0.87800000  0.04240000  0.90020000  1.0 0.0408258136
C  C543  1  0.96260000  0.14280000  0.35960000  1.0 0.0104555965
C  C544  1  0.85720000  0.03740000  0.85960000  1.0 0.0104555965
C  C545  1  0.92410000  0.16590000  0.31150000  1.0 0.0506229903
C  C546  1  0.83410000  0.07590000  0.81150000  1.0 0.0506229903
C  C547  1  0.88050000  0.16830000  0.30400000  1.0 -0.0183280094
C  C548  1  0.83170000  0.11950000  0.80400000  1.0 -0.0183280094
C  C549  1  0.43940000  0.12860000  0.31020000  1.0 0.1004028502
C  C550  1  0.87140000  0.56060000  0.81020000  1.0 0.1004028502
C  C551  1  0.46140000  0.15300000  0.33140000  1.0 -0.097231595
C  C552  1  0.84700000  0.53860000  0.83140000  1.0 -0.097231595
C  C553  1  0.45060000  0.15920000  0.36150000  1.0 0.0408258136
C  C554  1  0.84080000  0.54940000  0.86150000  1.0 0.0408258136
C  C555  1  0.41790000  0.14090000  0.37040000  1.0 0.0301327775
C  C556  1  0.85910000  0.58210000  0.87040000  1.0 0.0205586287
C  C557  1  0.39570000  0.11650000  0.34910000  1.0 0.0408258136
C  C558  1  0.88350000  0.60430000  0.84910000  1.0 0.0408258136
C  C559  1  0.40650000  0.11030000  0.31900000  1.0 -0.0183280094
C  C560  1  0.88970000  0.59350000  0.81900000  1.0 -0.0183280094
C  C561  1  0.46720000  0.35120000  0.99090000  1.0 0.1097266344
C  C562  1  0.64880000  0.53280000  0.49090000  1.0 0.1097266344
C  C563  1  0.42380000  0.37240000  0.95500000  1.0 -0.0902000472
C  C564  1  0.62760000  0.57620000  0.45500000  1.0 -0.097231595
C  C565  1  0.44700000  0.42920000  0.90750000  1.0 -0.0502290872
C  C566  1  0.57080000  0.55300000  0.40750000  1.0 -0.0502290872
C  C567  1  0.49510000  0.36750000  0.97650000  1.0 -0.1284478202
C  C568  1  0.63250000  0.50490000  0.47650000  1.0 -0.1284478202
C  C569  1  0.73360000  0.26900000  0.09400000  1.0 0.1097266344
C  C570  1  0.73100000  0.26640000  0.59400000  1.0 0.1097266344
C  C571  1  0.70870000  0.30550000  0.04470000  1.0 -0.0391999782
C  C572  1  0.69450000  0.29130000  0.54470000  1.0 -0.0391999782
C  C573  1  0.72700000  0.34120000  0.02840000  1.0 0.0301327775
C  C574  1  0.65880000  0.27300000  0.52840000  1.0 0.0301327775
C  C575  1  0.77010000  0.34030000  0.06150000  1.0 0.0104555965
C  C576  1  0.65970000  0.22990000  0.56150000  1.0 0.0104555965
C  C577  1  0.79490000  0.30390000  0.11080000  1.0 0.0506229903
C  C578  1  0.69610000  0.20510000  0.61080000  1.0 0.0506229903
C  C579  1  0.77660000  0.26820000  0.12700000  1.0 -0.0391999782
C  C580  1  0.73180000  0.22340000  0.62700000  1.0 -0.0391999782
C  C581  1  0.86770000  0.06590000  0.28800000  1.0 0.1004028502
C  C582  1  0.93410000  0.13230000  0.78800000  1.0 0.1004028502
C  C583  1  0.86610000  0.01750000  0.30350000  1.0 -0.0305504982
C  C584  1  0.98250000  0.13390000  0.80350000  1.0 -0.0305504982
C  C585  1  0.91660000  0.98400000  0.35070000  1.0 0.0506229903
C  C586  1  0.01600000  0.08340000  0.85070000  1.0 0.0506229903
C  C587  1  0.91180000  0.06080000  0.33200000  1.0 -0.0391999782
C  C588  1  0.93920000  0.08820000  0.83200000  1.0 -0.0305504982
C  C589  1  0.64930000  0.98610000  0.50840000  1.0 0.0801724137
C  C590  1  0.01390000  0.35070000  0.00840000  1.0 0.0801724137
C  C591  1  0.61040000  0.02060000  0.49510000  1.0 0.0408258136
C  C592  1  0.97940000  0.38960000  0.99510000  1.0 0.0408258136
C  C593  1  0.59300000  0.99540000  0.52900000  1.0 0.0506229903
C  C594  1  0.00460000  0.40700000  0.02900000  1.0 0.0506229903
C  C595  1  0.64160000  0.95880000  0.57760000  1.0 0.0506229903
C  C596  1  0.04120000  0.35840000  0.07760000  1.0 0.0506229903
C  C597  1  0.67890000  0.94930000  0.56100000  1.0 0.0301327775
C  C598  1  0.05070000  0.32110000  0.06100000  1.0 0.0301327775
C  C599  1  0.87130000  0.02350000  0.48390000  1.0 0.0801724137
C  C600  1  0.97650000  0.12870000  0.98390000  1.0 0.0801724137
C  C601  1  0.89790000  0.00170000  0.53730000  1.0 0.0601067842
C  C602  1  0.99830000  0.10210000  0.03730000  1.0 0.0601067842
C  C603  1  0.94800000  0.97900000  0.55880000  1.0 0.0801724137
C  C604  1  0.02100000  0.05200000  0.05880000  1.0 0.0801724137
C  C605  1  0.96140000  0.98100000  0.52710000  1.0 -0.0305504982
C  C606  1  0.01900000  0.03860000  0.02710000  1.0 -0.0305504982
C  C607  1  0.93740000  0.99980000  0.47750000  1.0 0.0601067842
C  C608  1  0.00020000  0.06260000  0.97750000  1.0 0.0601067842
C  C609  1  0.88720000  0.02620000  0.45520000  1.0 -0.0183280094
C  C610  1  0.97380000  0.11280000  0.95520000  1.0 -0.0183280094
C  C611  1  0.24450000  0.37690000  0.04240000  1.0 0.1179252157
C  C612  1  0.62310000  0.75550000  0.54240000  1.0 0.1179252157
C  C613  1  0.26560000  0.35100000  0.09490000  1.0 -0.097231595
C  C614  1  0.64900000  0.73440000  0.59490000  1.0 -0.097231595
C  C615  1  0.26110000  0.37170000  0.11820000  1.0 0.0506229903
C  C616  1  0.62830000  0.73890000  0.61820000  1.0 0.0506229903
C  C617  1  0.23230000  0.41770000  0.09200000  1.0 0.0205586287
C  C618  1  0.58230000  0.76770000  0.59200000  1.0 0.0205586287
C  C619  1  0.20290000  0.44510000  0.03560000  1.0 0.0905890138
C  C620  1  0.55490000  0.79710000  0.53560000  1.0 0.1004028502
C  C621  1  0.21280000  0.42080000  0.01350000  1.0 -0.0083786683
C  C622  1  0.57920000  0.78720000  0.51350000  1.0 -0.0183280094
C  C623  1  0.58140000  0.89920000  0.23520000  1.0 0.1097266344
C  C624  1  0.10080000  0.41860000  0.73520000  1.0 0.1097266344
C  C625  1  0.41690000  0.90630000  0.23060000  1.0 0.0680649295
C  C626  1  0.09370000  0.58310000  0.73060000  1.0 0.0680649295
C  C627  1  0.65710000  0.05650000  0.02430000  1.0 0.1004028502
C  C628  1  0.94350000  0.34290000  0.52430000  1.0 0.1004028502
C  C629  1  0.42390000  0.90550000  0.19540000  1.0 -0.0183280094
C  C630  1  0.09450000  0.57610000  0.69540000  1.0 -0.0183280094
C  C631  1  0.30500000  0.06320000  0.07240000  1.0 0.0301327775
C  C632  1  0.93680000  0.69500000  0.57240000  1.0 0.0301327775
C  C633  1  0.85870000  0.80570000  0.42770000  1.0 0.0301327775
C  C634  1  0.19430000  0.14130000  0.92770000  1.0 0.0301327775
C  C635  1  0.63060000  0.35280000  0.86040000  1.0 0.0205586287
C  C636  1  0.64720000  0.36940000  0.36040000  1.0 0.0205586287
C  C637  1  0.39680000  0.12820000  0.02670000  1.0 -0.1094482657
C  C638  1  0.87180000  0.60320000  0.52670000  1.0 -0.1094482657
C  C639  1  0.36420000  0.11220000  0.99930000  1.0 0.0601067842
C  C640  1  0.88780000  0.63580000  0.49930000  1.0 0.0601067842
C  C641  1  0.69640000  0.14260000  0.50630000  1.0 -0.1408140002
C  C642  1  0.85740000  0.30360000  0.00630000  1.0 -0.1408140002
C  C643  1  0.44090000  0.93310000  0.25490000  1.0 0.0408258136
C  C644  1  0.06690000  0.55910000  0.75490000  1.0 0.0408258136
C  C645  1  0.45320000  0.92500000  0.18350000  1.0 0.0506229903
C  C646  1  0.07500000  0.54680000  0.68350000  1.0 0.0506229903
C  C647  1  0.49140000  0.80260000  0.39240000  1.0 0.0601067842
C  C648  1  0.19740000  0.50860000  0.89240000  1.0 0.0601067842
C  C649  1  0.54370000  0.08670000  0.99370000  1.0 -0.0305504982
C  C650  1  0.91330000  0.45630000  0.49370000  1.0 -0.0305504982
C  C651  1  0.68750000  0.31430000  0.85860000  1.0 -0.0681066334
C  C652  1  0.68570000  0.31250000  0.35860000  1.0 -0.060981692
C  C653  1  0.92140000  0.84480000  0.54900000  1.0 0.0205586287
C  C654  1  0.15520000  0.07860000  0.04900000  1.0 0.0205586287
C  C655  1  0.86210000  0.92510000  0.49270000  1.0 -0.0902000472
C  C656  1  0.07490000  0.13790000  0.99270000  1.0 -0.0902000472
C  C657  1  0.66070000  0.33010000  0.91250000  1.0 0.0205586287
C  C658  1  0.66990000  0.33930000  0.41250000  1.0 0.0205586287
C  C659  1  0.29510000  0.10770000  0.06100000  1.0 0.0205586287
C  C660  1  0.89230000  0.70490000  0.56100000  1.0 0.0205586287
C  C661  1  0.58960000  0.19840000  0.95560000  1.0 -0.1223475827
C  C662  1  0.80160000  0.41040000  0.45560000  1.0 -0.1223475827
C  C663  1  0.29850000  0.36670000  0.87480000  1.0 0.0301327775
C  C664  1  0.63330000  0.70150000  0.37480000  1.0 0.0301327775
C  C665  1  0.55120000  0.20300000  0.91310000  1.0 0.0601067842
C  C666  1  0.79700000  0.44880000  0.41310000  1.0 0.0601067842
C  C667  1  0.91390000  0.89530000  0.52070000  1.0 0.0801724137
C  C668  1  0.10470000  0.08610000  0.02070000  1.0 0.0801724137
C  C669  1  0.54330000  0.84630000  0.38070000  1.0 0.0905890138
C  C670  1  0.15370000  0.45670000  0.88070000  1.0 0.0905890138
C  C671  1  0.32850000  0.12390000  0.08380000  1.0 -0.060981692
C  C672  1  0.87610000  0.67150000  0.58380000  1.0 -0.060981692
C  C673  1  0.48210000  0.05570000  0.96610000  1.0 0.0205586287
C  C674  1  0.94430000  0.51790000  0.46610000  1.0 0.0205586287
C  C675  1  0.88520000  0.87040000  0.43540000  1.0 0.0601067842
C  C676  1  0.12960000  0.11480000  0.93540000  1.0 0.0601067842
C  C677  1  0.71710000  0.07570000  0.85520000  1.0 0.0205586287
C  C678  1  0.92430000  0.28290000  0.35520000  1.0 0.0205586287
C  C679  1  0.74530000  0.75650000  0.38650000  1.0 0.0301327775
C  C680  1  0.24350000  0.25470000  0.88650000  1.0 0.0301327775
C  C681  1  0.52280000  0.88080000  0.38180000  1.0 -0.0809325357
C  C682  1  0.11920000  0.47720000  0.88180000  1.0 -0.0809325357
C  C683  1  0.63580000  0.99740000  0.99910000  1.0 0.1004028502
C  C684  1  0.00260000  0.36420000  0.49910000  1.0 0.1004028502
C  C685  1  0.40170000  0.17010000  0.99960000  1.0 0.1004028502
C  C686  1  0.82990000  0.59830000  0.49960000  1.0 0.1004028502
C  C687  1  0.74550000  0.10210000  0.83860000  1.0 0.1097266344
C  C688  1  0.89790000  0.25450000  0.33860000  1.0 0.1097266344
C  C689  1  0.56780000  0.19700000  0.43670000  1.0 0.0905890138
C  C690  1  0.80300000  0.43220000  0.93670000  1.0 0.0905890138
C  C691  1  0.64200000  0.34520000  0.83220000  1.0 0.0601067842
C  C692  1  0.65480000  0.35800000  0.33220000  1.0 0.0506229903
C  C693  1  0.58570000  0.24190000  0.86540000  1.0 0.0601067842
C  C694  1  0.75810000  0.41430000  0.36540000  1.0 0.0601067842
C  C695  1  0.38590000  0.05310000  0.13040000  1.0 -0.0502290872
C  C696  1  0.94690000  0.61410000  0.63040000  1.0 -0.0502290872
C  C697  1  0.53450000  0.89390000  0.16190000  1.0 0.0408258136
C  C698  1  0.10610000  0.46550000  0.66190000  1.0 0.0408258136
C  C699  1  0.61480000  0.03460000  0.94700000  1.0 0.0104555965
C  C700  1  0.96540000  0.38520000  0.44700000  1.0 0.0104555965
C  C701  1  0.34560000  0.17860000  0.92280000  1.0 0.0601067842
C  C702  1  0.82140000  0.65440000  0.42280000  1.0 0.0601067842
C  C703  1  0.52190000  0.06490000  0.96890000  1.0 0.0104555965
C  C704  1  0.93510000  0.47810000  0.46890000  1.0 0.0104555965
C  C705  1  0.81160000  0.83460000  0.39670000  1.0 -0.0083786683
C  C706  1  0.16540000  0.18840000  0.89670000  1.0 -0.0083786683
C  C707  1  0.58540000  0.19740000  0.40820000  1.0 -0.097231595
C  C708  1  0.80260000  0.41460000  0.90820000  1.0 -0.097231595
C  C709  1  0.33990000  0.13770000  0.94810000  1.0 -0.0083786683
C  C710  1  0.86230000  0.66010000  0.44810000  1.0 -0.0083786683
C  C711  1  0.55790000  0.91830000  0.18330000  1.0 -0.0681066334
C  C712  1  0.08170000  0.44210000  0.68330000  1.0 -0.0681066334
C  C713  1  0.56500000  0.23840000  0.43960000  1.0 0.0408258136
C  C714  1  0.76160000  0.43500000  0.93960000  1.0 0.0408258136
C  C715  1  0.47630000  0.95050000  0.20480000  1.0 -0.1094482657
C  C716  1  0.04950000  0.52370000  0.70480000  1.0 -0.1094482657
C  C717  1  0.77530000  0.73810000  0.43890000  1.0 0.0033751995
C  C718  1  0.26190000  0.22470000  0.93890000  1.0 0.0033751995
C  C719  1  0.61200000  0.08120000  0.93180000  1.0 0.0506229903
C  C720  1  0.91880000  0.38800000  0.43180000  1.0 0.0506229903
C  C721  1  0.71600000  0.29460000  0.91030000  1.0 0.1097266344
C  C722  1  0.70540000  0.28400000  0.41030000  1.0 0.1097266344
C  C723  1  0.46900000  0.83820000  0.39100000  1.0 0.0104555965
C  C724  1  0.16180000  0.53100000  0.89100000  1.0 0.0104555965
C  C725  1  0.55600000  0.83080000  0.24310000  1.0 0.0601067842
C  C726  1  0.16920000  0.44400000  0.74310000  1.0 0.0601067842
C  C727  1  0.89190000  0.82410000  0.44880000  1.0 0.0301327775
C  C728  1  0.17590000  0.10810000  0.94880000  1.0 0.0301327775
C  C729  1  0.26860000  0.36520000  0.89050000  1.0 0.0205586287
C  C730  1  0.63480000  0.73140000  0.39050000  1.0 0.0205586287
C  C731  1  0.70300000  0.30280000  0.93710000  1.0 -0.0502290872
C  C732  1  0.69720000  0.29700000  0.43710000  1.0 -0.060981692
C  C733  1  0.59500000  0.23480000  0.38230000  1.0 0.0905890138
C  C734  1  0.76520000  0.40500000  0.88230000  1.0 0.0905890138
C  C735  1  0.79790000  0.96750000  0.24810000  1.0 0.0905890138
C  C736  1  0.03250000  0.20210000  0.74810000  1.0 0.0905890138
C  C737  1  0.48720000  0.08820000  0.01570000  1.0 -0.0809325357
C  C738  1  0.91180000  0.51280000  0.51570000  1.0 -0.0809325357
C  C739  1  0.88410000  0.82650000  0.55080000  1.0 0.0801724137
C  C740  1  0.17350000  0.11590000  0.05080000  1.0 0.0801724137
C  C741  1  0.58170000  0.85450000  0.26650000  1.0 -0.0391999782
C  C742  1  0.14550000  0.41830000  0.76650000  1.0 -0.0391999782
C  C743  1  0.80260000  0.88120000  0.38420000  1.0 0.0801724137
C  C744  1  0.11880000  0.19740000  0.88420000  1.0 0.0801724137
C  C745  1  0.82850000  0.90130000  0.49720000  1.0 0.1179252157
C  C746  1  0.09870000  0.17150000  0.99720000  1.0 0.1179252157
C  C747  1  0.76980000  0.75980000  0.46000000  1.0 -0.0083786683
C  C748  1  0.24020000  0.23020000  0.96000000  1.0 -0.0083786683
C  C749  1  0.53220000  0.85120000  0.19140000  1.0 -0.0016173184
C  C750  1  0.14880000  0.46780000  0.69140000  1.0 -0.0016173184
C  C751  1  0.27980000  0.32980000  0.93700000  1.0 -0.0681066334
C  C752  1  0.67020000  0.72020000  0.43700000  1.0 -0.0681066334
C  C753  1  0.73380000  0.80040000  0.43170000  1.0 0.1004028502
C  C754  1  0.19960000  0.26620000  0.93170000  1.0 0.1004028502
C  C755  1  0.37710000  0.19630000  0.94830000  1.0 -0.0305504982
C  C756  1  0.80370000  0.62290000  0.44830000  1.0 -0.0305504982
C  C757  1  0.52630000  0.09790000  0.01780000  1.0 0.1097266344
C  C758  1  0.90210000  0.47370000  0.51780000  1.0 0.1097266344
C  C759  1  0.69270000  0.08870000  0.87080000  1.0 0.0301327775
C  C760  1  0.91130000  0.30730000  0.37080000  1.0 0.0301327775
C  C761  1  0.62490000  0.21670000  0.95280000  1.0 0.0905890138
C  C762  1  0.78330000  0.37510000  0.45280000  1.0 0.0905890138
C  C763  1  0.32210000  0.29650000  0.96910000  1.0 0.1004028502
C  C764  1  0.70350000  0.67790000  0.46910000  1.0 0.1004028502
C  C765  1  0.83740000  0.85720000  0.51910000  1.0 -0.0809325357
C  C766  1  0.14280000  0.16260000  0.01910000  1.0 -0.0809325357
C  C767  1  0.47100000  0.95220000  0.23960000  1.0 0.0905890138
C  C768  1  0.04780000  0.52900000  0.73960000  1.0 0.0905890138
C  C769  1  0.46340000  0.06780000  0.98910000  1.0 0.0601067842
C  C770  1  0.93220000  0.53660000  0.48910000  1.0 0.0601067842
C  C771  1  0.70340000  0.81800000  0.38190000  1.0 -0.0681066334
C  C772  1  0.18200000  0.29660000  0.88190000  1.0 -0.0681066334
C  C773  1  0.37270000  0.09830000  0.11790000  1.0 0.1179252157
C  C774  1  0.90170000  0.62730000  0.61790000  1.0 0.1179252157
C  C775  1  0.52880000  0.80880000  0.38510000  1.0 -0.0305504982
C  C776  1  0.19120000  0.47120000  0.88510000  1.0 -0.0305504982
C  C777  1  0.70820000  0.79660000  0.35830000  1.0 0.0506229903
C  C778  1  0.20340000  0.29180000  0.85830000  1.0 0.0506229903
C  C779  1  0.66260000  0.00800000  0.04250000  1.0 0.0104555965
C  C780  1  0.99200000  0.33740000  0.54250000  1.0 0.0104555965
C  C781  1  0.74180000  0.14680000  0.83470000  1.0 -0.097231595
C  C782  1  0.85320000  0.25820000  0.33470000  1.0 -0.097231595
C  C783  1  0.36520000  0.39600000  0.01500000  1.0 0.1004028502
C  C784  1  0.60400000  0.63480000  0.51500000  1.0 0.1004028502
C  C785  1  0.57250000  0.27750000  0.41340000  1.0 -0.0083786683
C  C786  1  0.72250000  0.42750000  0.91340000  1.0 -0.0083786683
C  C787  1  0.62510000  0.23810000  0.90960000  1.0 -0.0502290872
C  C788  1  0.76190000  0.37490000  0.40960000  1.0 -0.0502290872
C  C789  1  0.48550000  0.87450000  0.38970000  1.0 0.0506229903
C  C790  1  0.12550000  0.51450000  0.88970000  1.0 0.0506229903
C  C791  1  0.35090000  0.03670000  0.10560000  1.0 0.0506229903
C  C792  1  0.96330000  0.64910000  0.60560000  1.0 0.0506229903
C  C793  1  0.54980000  0.22440000  0.86700000  1.0 0.0205586287
C  C794  1  0.77560000  0.45020000  0.36700000  1.0 0.0104555965
C  C795  1  0.63490000  0.08950000  0.97150000  1.0 -0.1408140002
C  C796  1  0.91050000  0.36510000  0.47150000  1.0 -0.1408140002
C  C797  1  0.83770000  0.89930000  0.40210000  1.0 -0.0502290872
C  C798  1  0.10070000  0.16230000  0.90210000  1.0 -0.0502290872
C  C799  1  0.71570000  0.16150000  0.84500000  1.0 0.0801724137
C  C800  1  0.83850000  0.28430000  0.34500000  1.0 0.0801724137
C  C801  1  0.69160000  0.13420000  0.86590000  1.0 0.0033751995
C  C802  1  0.86580000  0.30840000  0.36590000  1.0 0.0033751995
C  C803  1  0.34130000  0.33190000  0.90690000  1.0 0.0680649295
C  C804  1  0.66810000  0.65870000  0.40690000  1.0 0.0680649295
C  C805  1  0.58840000  0.27720000  0.38190000  1.0 0.0506229903
C  C806  1  0.72280000  0.41160000  0.88190000  1.0 0.0506229903
C  C807  1  0.35290000  0.29650000  0.95430000  1.0 -0.060981692
C  C808  1  0.70350000  0.64710000  0.45430000  1.0 -0.060981692
C  C809  1  0.32910000  0.47350000  0.93040000  1.0 -0.1496959848
C  C810  1  0.52650000  0.67090000  0.43040000  1.0 -0.1223475827
C  C811  1  0.52290000  0.98490000  0.40860000  1.0 0.0801724137
C  C812  1  0.01510000  0.47710000  0.90860000  1.0 0.0801724137
C  C813  1  0.29850000  0.13550000  0.19160000  1.0 0.0801724137
C  C814  1  0.86450000  0.70150000  0.69160000  1.0 0.0801724137
C  C815  1  0.53590000  0.95190000  0.45120000  1.0 -0.0902000472
C  C816  1  0.04810000  0.46410000  0.95120000  1.0 -0.0902000472
C  C817  1  0.91070000  0.04990000  0.01800000  1.0 -0.2993808492
C  C818  1  0.95010000  0.08930000  0.51800000  1.0 -0.2993808492
C  C819  1  0.32570000  0.16630000  0.19440000  1.0 -0.0502290872
C  C820  1  0.83370000  0.67430000  0.69440000  1.0 -0.0502290872
C  C821  1  0.24950000  0.18350000  0.09960000  1.0 0.0680649295
C  C822  1  0.81650000  0.75050000  0.59960000  1.0 0.0680649295
C  C823  1  0.26120000  0.14280000  0.14360000  1.0 -0.0083786683
C  C824  1  0.85720000  0.73880000  0.64360000  1.0 -0.0083786683
C  C825  1  0.27950000  0.21490000  0.10270000  1.0 -0.1094482657
C  C826  1  0.78510000  0.72050000  0.60270000  1.0 -0.1094482657
C  C827  1  0.70120000  0.86240000  0.21170000  1.0 0.0301327775
C  C828  1  0.13760000  0.29880000  0.71170000  1.0 0.0301327775
C  C829  1  0.66800000  0.88460000  0.16220000  1.0 0.0301327775
C  C830  1  0.11540000  0.33200000  0.66220000  1.0 0.0301327775
C  C831  1  0.63930000  0.93170000  0.13470000  1.0 0.0104555965
C  C832  1  0.06830000  0.36070000  0.63470000  1.0 0.0104555965
C  C833  1  0.71110000  0.88130000  0.24260000  1.0 0.0601067842
C  C834  1  0.11870000  0.28890000  0.74260000  1.0 0.0601067842
C  C835  1  0.68190000  0.92850000  0.21480000  1.0 -0.0681066334
C  C836  1  0.07150000  0.31810000  0.71480000  1.0 -0.0681066334
C  C837  1  0.31630000  0.20310000  0.14820000  1.0 0.1179252157
C  C838  1  0.79690000  0.68370000  0.64820000  1.0 0.1179252157
C  C839  1  0.64850000  0.95210000  0.16540000  1.0 0.1097266344
C  C840  1  0.04790000  0.35150000  0.66540000  1.0 0.1097266344
C  C841  1  0.70060000  0.10340000  0.49730000  1.0 0.1815915284
C  C842  1  0.89660000  0.29940000  0.99730000  1.0 0.1815915284
C  C843  1  0.68270000  0.13630000  0.53990000  1.0 0.0408258136
C  C844  1  0.86370000  0.31730000  0.03990000  1.0 0.0408258136
C  C845  1  0.67710000  0.07730000  0.52500000  1.0 -0.1284478202
C  C846  1  0.92270000  0.32290000  0.02500000  1.0 -0.1284478202
C  C847  1  0.94450000  0.01050000  0.35300000  1.0 0.0408258136
C  C848  1  0.98950000  0.05550000  0.85300000  1.0 0.0408258136
C  C849  1  0.33460000  0.41620000  0.95690000  1.0 0.0205586287
C  C850  1  0.58380000  0.66540000  0.45690000  1.0 0.0205586287
C  C851  1  0.63770000  0.11970000  0.54300000  1.0 0.1004028502
C  C852  1  0.88030000  0.36230000  0.04300000  1.0 0.1004028502
C  C853  1  0.48500000  0.41320000  0.94200000  1.0 0.0205586287
C  C854  1  0.58680000  0.51500000  0.44200000  1.0 0.0205586287
C  C855  1  0.85970000  0.09010000  0.98230000  1.0 0.1815915284
C  C856  1  0.90990000  0.14030000  0.48230000  1.0 0.1815915284
C  C857  1  0.84760000  0.88880000  0.30140000  1.0 0.0601067842
C  C858  1  0.11120000  0.15240000  0.80140000  1.0 0.0601067842
C  C859  1  0.41060000  0.42340000  0.90400000  1.0 0.0680649295
C  C860  1  0.57660000  0.58940000  0.40400000  1.0 0.0680649295
C  C861  1  0.46560000  0.99460000  0.35870000  1.0 -0.1679085506
C  C862  1  0.00540000  0.53440000  0.85870000  1.0 -0.1679085506
C  C863  1  0.82230000  0.99250000  0.21700000  1.0 0.0601067842
C  C864  1  0.00750000  0.17770000  0.71700000  1.0 0.0601067842
C  C865  1  0.42690000  0.98550000  0.36400000  1.0 0.1179252157
C  C866  1  0.01450000  0.57310000  0.86400000  1.0 0.1097266344
C  C867  1  0.46160000  0.96100000  0.42760000  1.0 -0.0305504982
C  C868  1  0.03900000  0.53840000  0.92760000  1.0 -0.0305504982
C  C869  1  0.80900000  0.93080000  0.27880000  1.0 0.0408258136
C  C870  1  0.06920000  0.19100000  0.77880000  1.0 0.0408258136
C  C871  1  0.87720000  0.89900000  0.29220000  1.0 -0.1964519879
C  C872  1  0.10100000  0.12280000  0.79220000  1.0 -0.2071884571
C  C873  1  0.51010000  0.93290000  0.47220000  1.0 0.0301327775
C  C874  1  0.06710000  0.48990000  0.97220000  1.0 0.0301327775
C  C875  1  0.99390000  0.11230000  0.51090000  1.0 -0.0016173184
C  C876  1  0.88770000  0.00610000  0.01090000  1.0 -0.0083786683
C  C877  1  0.97770000  0.16730000  0.48360000  1.0 0.0801724137
C  C878  1  0.83270000  0.02230000  0.98360000  1.0 0.0801724137
C  C879  1  0.93600000  0.18300000  0.46000000  1.0 -0.1883672325
C  C880  1  0.81700000  0.06400000  0.96000000  1.0 -0.183014333
S  S1  1  0.95953000  0.64303000  0.13838000  1.0 -0.6975317968
S  S2  1  0.35697000  0.04047000  0.63838000  1.0 -0.6940265072
S  S3  1  0.17084000  0.56682000  0.36325000  1.0 -0.7391838049
S  S4  1  0.43318000  0.82916000  0.86325000  1.0 -0.7391838049
S  S5  1  0.08806000  0.55012000  0.24567000  1.0 -0.7391838049
S  S6  1  0.44988000  0.91194000  0.74567000  1.0 -0.7391838049
S  S7  1  0.20326000  0.59434000  0.25607000  1.0 -0.7391838049
S  S8  1  0.40566000  0.79674000  0.75607000  1.0 -0.7391838049
S  S9  1  0.03993000  0.65497000  0.25454000  1.0 -0.7391838049
S  S10  1  0.34503000  0.96007000  0.75454000  1.0 -0.734235741
S  S11  1  0.15486000  0.69978000  0.26174000  1.0 -0.7391838049
S  S12  1  0.30022000  0.84514000  0.76174000  1.0 -0.7391838049
S  S13  1  0.07114000  0.68424000  0.14544000  1.0 -0.7490340444
S  S14  1  0.31576000  0.92886000  0.64544000  1.0 -0.7490340444
S  S15  1  0.82713000  0.72951000  0.03770000  1.0 -0.3296748969
S  S16  1  0.27049000  0.17287000  0.53770000  1.0 -0.3296748969
S  S17  1  0.18546000  0.72532000  0.15528000  1.0 -0.6803330702
S  S18  1  0.27468000  0.81454000  0.65528000  1.0 -0.6803330702
S  S19  1  0.21606000  0.46398000  0.35429000  1.0 -0.6686160041
S  S20  1  0.53602000  0.78394000  0.85429000  1.0 -0.6686160041
S  S21  1  0.92721000  0.61291000  0.23520000  1.0 -0.3231011999
S  S22  1  0.38709000  0.07279000  0.73520000  1.0 -0.3231011999
S  S23  1  0.29679000  0.47531000  0.46049000  1.0 -0.2993808492
S  S24  1  0.52469000  0.70321000  0.96049000  1.0 -0.2993808492
S  S25  1  0.05382000  0.51486000  0.35511000  1.0 -0.6686160041
S  S26  1  0.48514000  0.94618000  0.85511000  1.0 -0.6686160041
S  S27  1  0.12418000  0.67572000  0.36527000  1.0 -0.6803330702
S  S28  1  0.32428000  0.87582000  0.86527000  1.0 -0.6803330702
S  S29  1  0.24984000  0.57086000  0.48150000  1.0 -0.269590033
S  S30  1  0.42914000  0.75016000  0.98150000  1.0 -0.2586935533
S  S31  1  0.12840000  0.55534000  0.45433000  1.0 -0.3231011999
S  S32  1  0.44466000  0.87160000  0.95433000  1.0 -0.3231011999
S  S33  1  0.85039000  0.58995000  0.12853000  1.0 -0.3072976046
S  S34  1  0.41005000  0.14961000  0.62853000  1.0 -0.3072976046
S  S35  1  0.25217000  0.33409000  0.47206000  1.0 -0.3296748969
S  S36  1  0.66591000  0.74783000  0.97206000  1.0 -0.3296748969
S  S37  1  0.98310000  0.49992000  0.23239000  1.0 -0.2886087743
S  S38  1  0.50008000  0.01690000  0.73239000  1.0 -0.2886087743
S  S39  1  0.30444000  0.65128000  0.25403000  1.0 -0.3296748969
S  S40  1  0.34872000  0.69556000  0.75403000  1.0 -0.3296748969
S  S41  1  0.11964000  0.41580000  0.35125000  1.0 -0.3412709077
S  S42  1  0.58420000  0.88036000  0.85125000  1.0 -0.3412709077
S  S43  1  0.29011000  0.61251000  0.37676000  1.0 -0.6613612612
S  S44  1  0.38749000  0.70989000  0.87676000  1.0 -0.6613612612
S  S45  1  0.19236000  0.44344000  0.46876000  1.0 -0.2993808492
S  S46  1  0.55656000  0.80764000  0.96876000  1.0 -0.2993808492
S  S47  1  0.91463000  0.74379000  0.15650000  1.0 -0.3072976046
S  S48  1  0.25621000  0.08537000  0.65650000  1.0 -0.3072976046
S  S49  1  0.21243000  0.67335000  0.49654000  1.0 -0.269590033
S  S50  1  0.32665000  0.78757000  0.99654000  1.0 -0.2801174832
S  S51  1  0.11937000  0.57731000  0.13521000  1.0 -0.6613612612
S  S52  1  0.42269000  0.88063000  0.63521000  1.0 -0.6613612612
S  S53  1  0.93853000  0.76939000  0.04075000  1.0 -0.3412709077
S  S54  1  0.23061000  0.06147000  0.54075000  1.0 -0.3514071229
S  S55  1  0.87538000  0.63600000  0.01410000  1.0 -0.3231011999
S  S56  1  0.36400000  0.12462000  0.51410000  1.0 -0.3231011999
S  S57  1  0.00615000  0.61117000  0.36547000  1.0 -0.2993808492
S  S58  1  0.38883000  0.99385000  0.86547000  1.0 -0.2993808492
S  S59  1  0.02274000  0.79454000  0.15119000  1.0 -0.6524706257
S  S60  1  0.20546000  0.97726000  0.65119000  1.0 -0.6524706257
S  S61  1  0.11980000  0.44732000  0.23074000  1.0 -0.269590033
S  S62  1  0.55268000  0.88020000  0.73074000  1.0 -0.2586935533
S  S63  1  0.24218000  0.34974000  0.34641000  1.0 -0.3412709077
S  S64  1  0.65026000  0.75782000  0.84641000  1.0 -0.3412709077
S  S65  1  0.25704000  0.77248000  0.55806000  1.0 -0.3231011999
S  S66  1  0.22752000  0.74296000  0.05806000  1.0 -0.3231011999
S  S67  1  0.99767000  0.54709000  0.12838000  1.0 -0.2514398498
S  S68  1  0.45291000  0.00233000  0.62838000  1.0 -0.2514398498
S  S69  1  0.24093000  0.61153000  0.16086000  1.0 -0.2993808492
S  S70  1  0.38847000  0.75907000  0.66086000  1.0 -0.2993808492
S  S71  1  0.11402000  0.81460000  0.25934000  1.0 -0.3702982811
S  S72  1  0.18540000  0.88598000  0.75934000  1.0 -0.3702982811
S  S73  1  0.26040000  0.75320000  0.27290000  1.0 -0.2886087743
S  S74  1  0.24680000  0.73960000  0.77290000  1.0 -0.2886087743
S  S75  1  0.21523000  0.70941000  0.66088000  1.0 -0.2801174832
S  S76  1  0.29059000  0.78477000  0.16088000  1.0 -0.2801174832
S  S77  1  0.22171000  0.71799000  0.37437000  1.0 -0.2993808492
S  S78  1  0.28201000  0.77829000  0.87437000  1.0 -0.2993808492
S  S79  1  0.99043000  0.68265000  0.02608000  1.0 -0.4184514655
S  S80  1  0.31735000  0.00957000  0.52608000  1.0 -0.4184514655
S  S81  1  0.24747000  0.48183000  0.26714000  1.0 -0.2801174832
S  S82  1  0.51817000  0.75253000  0.76714000  1.0 -0.2801174832
S  S83  1  0.01159000  0.74957000  0.27855000  1.0 -0.2586935533
S  S84  1  0.25043000  0.98841000  0.77855000  1.0 -0.2514398498
S  S85  1  0.04895000  0.81123000  0.04138000  1.0 -0.2993808492
S  S86  1  0.18877000  0.95105000  0.54138000  1.0 -0.2993808492
S  S87  1  0.06828000  0.68422000  0.43348000  1.0 -0.1612028552
S  S88  1  0.31578000  0.93172000  0.93348000  1.0 -0.1612028552
S  S89  1  0.14765000  0.84403000  0.53555000  1.0 -0.269590033
S  S90  1  0.15597000  0.85235000  0.03555000  1.0 -0.269590033
S  S91  1  0.34553000  0.38497000  0.42656000  1.0 -0.269590033
S  S92  1  0.61503000  0.65447000  0.92656000  1.0 -0.269590033
S  S93  1  0.14871000  0.81949000  0.16354000  1.0 -0.3514071229
S  S94  1  0.18051000  0.85129000  0.66354000  1.0 -0.3514071229
S  S95  1  0.10882000  0.71418000  0.04454000  1.0 -0.3072976046
S  S96  1  0.28582000  0.89118000  0.54454000  1.0 -0.3072976046
S  S97  1  0.10215000  0.79095000  0.37341000  1.0 -0.3231011999
S  S98  1  0.20905000  0.89785000  0.87341000  1.0 -0.3231011999
S  S99  1  0.33299000  0.51611000  0.35500000  1.0 -0.1612028552
S  S100  1  0.48389000  0.66701000  0.85500000  1.0 -0.1612028552
S  S101  1  0.35453000  0.25163000  0.49013000  1.0 -0.3072976046
S  S102  1  0.74837000  0.64547000  0.99013000  1.0 -0.3072976046
S  S103  1  0.13356000  0.73324000  0.52192000  1.0 -0.1964519879
S  S104  1  0.26676000  0.86644000  0.02192000  1.0 -0.1883672325
S  S105  1  0.64303000  0.95953000  0.36162000  1.0 -0.6975317968
S  S106  1  0.04047000  0.35697000  0.86162000  1.0 -0.6940265072
S  S107  1  0.56682000  0.17084000  0.13675000  1.0 -0.7391838049
S  S108  1  0.82916000  0.43318000  0.63675000  1.0 -0.7391838049
S  S109  1  0.55012000  0.08806000  0.25433000  1.0 -0.7391838049
S  S110  1  0.91194000  0.44988000  0.75433000  1.0 -0.7391838049
S  S111  1  0.59434000  0.20326000  0.24393000  1.0 -0.7391838049
S  S112  1  0.79674000  0.40566000  0.74393000  1.0 -0.7391838049
S  S113  1  0.65497000  0.03993000  0.24546000  1.0 -0.7391838049
S  S114  1  0.96007000  0.34503000  0.74546000  1.0 -0.7391838049
S  S115  1  0.69978000  0.15486000  0.23826000  1.0 -0.7391838049
S  S116  1  0.84514000  0.30022000  0.73826000  1.0 -0.7391838049
S  S117  1  0.68424000  0.07114000  0.35456000  1.0 -0.7568220866
S  S118  1  0.92886000  0.31576000  0.85456000  1.0 -0.7490340444
S  S119  1  0.72951000  0.82713000  0.46230000  1.0 -0.3296748969
S  S120  1  0.17287000  0.27049000  0.96230000  1.0 -0.3231011999
S  S121  1  0.72532000  0.18546000  0.34472000  1.0 -0.6803330702
S  S122  1  0.81454000  0.27468000  0.84472000  1.0 -0.6803330702
S  S123  1  0.46398000  0.21606000  0.14571000  1.0 -0.6686160041
S  S124  1  0.78394000  0.53602000  0.64571000  1.0 -0.6686160041
S  S125  1  0.61291000  0.92721000  0.26480000  1.0 -0.3231011999
S  S126  1  0.07279000  0.38709000  0.76480000  1.0 -0.3231011999
S  S127  1  0.47531000  0.29679000  0.03951000  1.0 -0.2993808492
S  S128  1  0.70321000  0.52469000  0.53951000  1.0 -0.2993808492
S  S129  1  0.51486000  0.05382000  0.14489000  1.0 -0.6686160041
S  S130  1  0.94618000  0.48514000  0.64489000  1.0 -0.6686160041
S  S131  1  0.67572000  0.12418000  0.13473000  1.0 -0.6803330702
S  S132  1  0.87582000  0.32428000  0.63473000  1.0 -0.6803330702
S  S133  1  0.57086000  0.24984000  0.01850000  1.0 -0.269590033
S  S134  1  0.75016000  0.42914000  0.51850000  1.0 -0.269590033
S  S135  1  0.55534000  0.12840000  0.04567000  1.0 -0.3231011999
S  S136  1  0.87160000  0.44466000  0.54567000  1.0 -0.3231011999
S  S137  1  0.58995000  0.85039000  0.37147000  1.0 -0.3072976046
S  S138  1  0.14961000  0.41005000  0.87147000  1.0 -0.2993808492
S  S139  1  0.33409000  0.25217000  0.02794000  1.0 -0.3296748969
S  S140  1  0.74783000  0.66591000  0.52794000  1.0 -0.3296748969
S  S141  1  0.49992000  0.98310000  0.26761000  1.0 -0.2886087743
S  S142  1  0.01690000  0.50008000  0.76761000  1.0 -0.2886087743
S  S143  1  0.65128000  0.30444000  0.24597000  1.0 -0.3296748969
S  S144  1  0.69556000  0.34872000  0.74597000  1.0 -0.3296748969
S  S145  1  0.41580000  0.11964000  0.14875000  1.0 -0.3412709077
S  S146  1  0.88036000  0.58420000  0.64875000  1.0 -0.3412709077
S  S147  1  0.61251000  0.29011000  0.12324000  1.0 -0.6613612612
S  S148  1  0.70989000  0.38749000  0.62324000  1.0 -0.6613612612
S  S149  1  0.44344000  0.19236000  0.03124000  1.0 -0.2993808492
S  S150  1  0.80764000  0.55656000  0.53124000  1.0 -0.2993808492
S  S151  1  0.74379000  0.91463000  0.34350000  1.0 -0.3072976046
S  S152  1  0.08537000  0.25621000  0.84350000  1.0 -0.3072976046
S  S153  1  0.67335000  0.21243000  0.00346000  1.0 -0.269590033
S  S154  1  0.78757000  0.32665000  0.50346000  1.0 -0.2801174832
S  S155  1  0.57731000  0.11937000  0.36479000  1.0 -0.6613612612
S  S156  1  0.88063000  0.42269000  0.86479000  1.0 -0.6613612612
S  S157  1  0.76939000  0.93853000  0.45925000  1.0 -0.3412709077
S  S158  1  0.06147000  0.23061000  0.95925000  1.0 -0.3514071229
S  S159  1  0.63600000  0.87538000  0.48590000  1.0 -0.3231011999
S  S160  1  0.12462000  0.36400000  0.98590000  1.0 -0.3231011999
S  S161  1  0.61117000  0.00615000  0.13453000  1.0 -0.2993808492
S  S162  1  0.99385000  0.38883000  0.63453000  1.0 -0.2993808492
S  S163  1  0.79454000  0.02274000  0.34881000  1.0 -0.6613612612
S  S164  1  0.97726000  0.20546000  0.84881000  1.0 -0.6524706257
S  S165  1  0.44732000  0.11980000  0.26926000  1.0 -0.269590033
S  S166  1  0.88020000  0.55268000  0.76926000  1.0 -0.269590033
S  S167  1  0.34974000  0.24218000  0.15359000  1.0 -0.3296748969
S  S168  1  0.75782000  0.65026000  0.65359000  1.0 -0.3412709077
S  S169  1  0.77248000  0.25704000  0.94194000  1.0 -0.3231011999
S  S170  1  0.74296000  0.22752000  0.44194000  1.0 -0.3231011999
S  S171  1  0.54709000  0.99767000  0.37162000  1.0 -0.2514398498
S  S172  1  0.00233000  0.45291000  0.87162000  1.0 -0.2514398498
S  S173  1  0.61153000  0.24093000  0.33914000  1.0 -0.2993808492
S  S174  1  0.75907000  0.38847000  0.83914000  1.0 -0.2993808492
S  S175  1  0.81460000  0.11402000  0.24066000  1.0 -0.3702982811
S  S176  1  0.88598000  0.18540000  0.74066000  1.0 -0.3702982811
S  S177  1  0.75320000  0.26040000  0.22710000  1.0 -0.2886087743
S  S178  1  0.73960000  0.24680000  0.72710000  1.0 -0.2886087743
S  S179  1  0.70941000  0.21523000  0.83912000  1.0 -0.2801174832
S  S180  1  0.78477000  0.29059000  0.33912000  1.0 -0.2801174832
S  S181  1  0.71799000  0.22171000  0.12563000  1.0 -0.2993808492
S  S182  1  0.77829000  0.28201000  0.62563000  1.0 -0.2993808492
S  S183  1  0.68265000  0.99043000  0.47392000  1.0 -0.4184514655
S  S184  1  0.00957000  0.31735000  0.97392000  1.0 -0.4184514655
S  S185  1  0.48183000  0.24747000  0.23286000  1.0 -0.2801174832
S  S186  1  0.75253000  0.51817000  0.73286000  1.0 -0.2801174832
S  S187  1  0.74957000  0.01159000  0.22145000  1.0 -0.2586935533
S  S188  1  0.98841000  0.25043000  0.72145000  1.0 -0.2586935533
S  S189  1  0.81123000  0.04895000  0.45862000  1.0 -0.2993808492
S  S190  1  0.95105000  0.18877000  0.95862000  1.0 -0.2993808492
S  S191  1  0.68422000  0.06828000  0.06652000  1.0 -0.1612028552
S  S192  1  0.93172000  0.31578000  0.56652000  1.0 -0.1679085506
S  S193  1  0.84403000  0.14765000  0.96445000  1.0 -0.269590033
S  S194  1  0.85235000  0.15597000  0.46445000  1.0 -0.269590033
S  S195  1  0.38497000  0.34553000  0.07344000  1.0 -0.269590033
S  S196  1  0.65447000  0.61503000  0.57344000  1.0 -0.269590033
S  S197  1  0.81949000  0.14871000  0.33646000  1.0 -0.3514071229
S  S198  1  0.85129000  0.18051000  0.83646000  1.0 -0.3514071229
S  S199  1  0.71418000  0.10882000  0.45546000  1.0 -0.3072976046
S  S200  1  0.89118000  0.28582000  0.95546000  1.0 -0.3072976046
S  S201  1  0.79095000  0.10215000  0.12659000  1.0 -0.3231011999
S  S202  1  0.89785000  0.20905000  0.62659000  1.0 -0.3231011999
S  S203  1  0.51611000  0.33299000  0.14500000  1.0 -0.1612028552
S  S204  1  0.66701000  0.48389000  0.64500000  1.0 -0.1612028552
S  S205  1  0.25163000  0.35453000  0.00987000  1.0 -0.3072976046
S  S206  1  0.64547000  0.74837000  0.50987000  1.0 -0.3072976046
S  S207  1  0.73324000  0.13356000  0.97808000  1.0 -0.1964519879
S  S208  1  0.86644000  0.26676000  0.47808000  1.0 -0.1883672325
