# DDEC6 charges by PACMAN v1.1 (https://github.com/mtap-research/PACMAN-charge/)
data_ICIKAH_ASR_pacman
_symmetry_space_group_name_H-M   'P 1'
_cell_length_a   34.25960000
_cell_length_b   34.25960000
_cell_length_c   35.65150000
_cell_angle_alpha   62.25390000
_cell_angle_beta   117.74600000
_cell_angle_gamma   89.52700000
_symmetry_Int_Tables_number   1
_chemical_formula_structural   Cd32C229S52
_chemical_formula_sum   'Cd128 C916 S208'
_cell_volume   31394.07330472
_cell_formula_units_Z   4
loop_
 _symmetry_equiv_pos_site_id
 _symmetry_equiv_pos_as_xyz
  1  'x, y, z'
loop_
 _atom_site_type_symbol
 _atom_site_label
 _atom_site_symmetry_multiplicity
 _atom_site_fract_x
 _atom_site_fract_y
 _atom_site_fract_z
 _atom_site_occupancy
 _atom_site_charge
Cd  Cd1  1  0.83115000  0.45405000  0.19762000  1.0 0.6887380892
Cd  Cd2  1  0.45405000  0.83115000  0.30238000  1.0 0.6814420889
Cd  Cd3  1  0.16885000  0.54595000  0.80238000  1.0 0.6814420889
Cd  Cd4  1  0.54595000  0.16885000  0.69762000  1.0 0.6814420889
Cd  Cd5  1  0.87733000  0.35171000  0.19068000  1.0 0.6814420889
Cd  Cd6  1  0.35171000  0.87733000  0.30932000  1.0 0.6887380892
Cd  Cd7  1  0.12267000  0.64829000  0.80932000  1.0 0.6887380892
Cd  Cd8  1  0.64829000  0.12267000  0.69068000  1.0 0.6814420889
Cd  Cd9  1  0.84645000  0.32503000  0.29598000  1.0 0.6887380892
Cd  Cd10  1  0.32503000  0.84645000  0.20402000  1.0 0.6887380892
Cd  Cd11  1  0.15355000  0.67497000  0.70402000  1.0 0.6814420889
Cd  Cd12  1  0.67497000  0.15355000  0.79598000  1.0 0.6887380892
Cd  Cd13  1  0.95761000  0.36795000  0.30313000  1.0 0.6814420889
Cd  Cd14  1  0.36795000  0.95761000  0.19687000  1.0 0.6887380892
Cd  Cd15  1  0.04239000  0.63205000  0.69687000  1.0 0.6814420889
Cd  Cd16  1  0.63205000  0.04239000  0.80313000  1.0 0.6814420889
Cd  Cd17  1  0.74473000  0.44107000  0.08277000  1.0 0.570419922
Cd  Cd18  1  0.44107000  0.74473000  0.41723000  1.0 0.570419922
Cd  Cd19  1  0.25527000  0.55893000  0.91723000  1.0 0.570419922
Cd  Cd20  1  0.55893000  0.25527000  0.58277000  1.0 0.570419922
Cd  Cd21  1  0.93870000  0.50554000  0.20074000  1.0 0.570419922
Cd  Cd22  1  0.50554000  0.93870000  0.29926000  1.0 0.5590915435
Cd  Cd23  1  0.06130000  0.49446000  0.79926000  1.0 0.5590915435
Cd  Cd24  1  0.49446000  0.06130000  0.70074000  1.0 0.5590915435
Cd  Cd25  1  0.00141000  0.26019000  0.29427000  1.0 0.5780459875
Cd  Cd26  1  0.26019000  0.00141000  0.20573000  1.0 0.5780459875
Cd  Cd27  1  0.99859000  0.73981000  0.70573000  1.0 0.5780459875
Cd  Cd28  1  0.73981000  0.99859000  0.79427000  1.0 0.5780459875
Cd  Cd29  1  0.97917000  0.23473000  0.40197000  1.0 0.5780459875
Cd  Cd30  1  0.23473000  0.97917000  0.09803000  1.0 0.5780459875
Cd  Cd31  1  0.02083000  0.76527000  0.59803000  1.0 0.570419922
Cd  Cd32  1  0.76527000  0.02083000  0.90197000  1.0 0.5780459875
Cd  Cd33  1  0.92378000  0.34124000  0.41060000  1.0 0.5590915435
Cd  Cd34  1  0.34124000  0.92378000  0.08940000  1.0 0.5590915435
Cd  Cd35  1  0.07622000  0.65876000  0.58940000  1.0 0.5590915435
Cd  Cd36  1  0.65876000  0.07622000  0.91060000  1.0 0.5590915435
Cd  Cd37  1  0.06606000  0.42104000  0.31484000  1.0 0.5200791238
Cd  Cd38  1  0.42104000  0.06606000  0.18516000  1.0 0.5200791238
Cd  Cd39  1  0.93394000  0.57896000  0.68516000  1.0 0.5200791238
Cd  Cd40  1  0.57896000  0.93394000  0.81484000  1.0 0.5200791238
Cd  Cd41  1  0.87015000  0.47967000  0.09566000  1.0 0.5590915435
Cd  Cd42  1  0.47967000  0.87015000  0.40434000  1.0 0.5590915435
Cd  Cd43  1  0.12985000  0.52033000  0.90434000  1.0 0.5590915435
Cd  Cd44  1  0.52033000  0.12985000  0.59566000  1.0 0.5590915435
Cd  Cd45  1  0.99091000  0.40351000  0.19855000  1.0 0.5518536221
Cd  Cd46  1  0.40351000  0.99091000  0.30145000  1.0 0.5518536221
Cd  Cd47  1  0.00909000  0.59649000  0.80145000  1.0 0.5590915435
Cd  Cd48  1  0.59649000  0.00909000  0.69855000  1.0 0.5590915435
Cd  Cd49  1  0.76307000  0.31011000  0.17524000  1.0 0.5518536221
Cd  Cd50  1  0.31011000  0.76307000  0.32476000  1.0 0.5518536221
Cd  Cd51  1  0.23693000  0.68989000  0.82476000  1.0 0.5518536221
Cd  Cd52  1  0.68989000  0.23693000  0.67524000  1.0 0.5518536221
Cd  Cd53  1  0.08995000  0.27801000  0.40449000  1.0 0.528692178
Cd  Cd54  1  0.27801000  0.08995000  0.09551000  1.0 0.528692178
Cd  Cd55  1  0.91005000  0.72199000  0.59551000  1.0 0.528692178
Cd  Cd56  1  0.72199000  0.91005000  0.90449000  1.0 0.528692178
Cd  Cd57  1  0.80339000  0.58657000  0.08311000  1.0 0.528692178
Cd  Cd58  1  0.58657000  0.80339000  0.41689000  1.0 0.528692178
Cd  Cd59  1  0.19661000  0.41343000  0.91689000  1.0 0.528692178
Cd  Cd60  1  0.41343000  0.19661000  0.58311000  1.0 0.528692178
Cd  Cd61  1  0.04370000  0.36812000  0.42983000  1.0 0.5109315903
Cd  Cd62  1  0.36812000  0.04370000  0.07017000  1.0 0.5200791238
Cd  Cd63  1  0.95630000  0.63188000  0.57017000  1.0 0.5109315903
Cd  Cd64  1  0.63188000  0.95630000  0.92983000  1.0 0.5109315903
Cd  Cd65  1  0.69930000  0.54002000  0.10304000  1.0 0.5109315903
Cd  Cd66  1  0.54002000  0.69930000  0.39696000  1.0 0.5109315903
Cd  Cd67  1  0.30070000  0.45998000  0.89696000  1.0 0.5109315903
Cd  Cd68  1  0.45998000  0.30070000  0.60304000  1.0 0.5109315903
Cd  Cd69  1  0.71614000  0.40538000  0.18642000  1.0 0.5780459875
Cd  Cd70  1  0.40538000  0.71614000  0.31358000  1.0 0.570419922
Cd  Cd71  1  0.28386000  0.59462000  0.81358000  1.0 0.570419922
Cd  Cd72  1  0.59462000  0.28386000  0.68642000  1.0 0.5780459875
Cd  Cd73  1  0.80073000  0.43401000  0.30101000  1.0 0.5518536221
Cd  Cd74  1  0.43401000  0.80073000  0.19899000  1.0 0.5518536221
Cd  Cd75  1  0.19927000  0.56599000  0.69899000  1.0 0.5518536221
Cd  Cd76  1  0.56599000  0.19927000  0.80101000  1.0 0.5518536221
Cd  Cd77  1  0.92564000  0.36208000  0.10317000  1.0 0.5200791238
Cd  Cd78  1  0.36208000  0.92564000  0.39683000  1.0 0.5200791238
Cd  Cd79  1  0.07436000  0.63792000  0.89683000  1.0 0.5200791238
Cd  Cd80  1  0.63792000  0.07436000  0.60317000  1.0 0.5200791238
Cd  Cd81  1  0.89410000  0.21820000  0.29439000  1.0 0.5870523523
Cd  Cd82  1  0.21820000  0.89410000  0.20561000  1.0 0.5780459875
Cd  Cd83  1  0.10590000  0.78180000  0.70561000  1.0 0.5780459875
Cd  Cd84  1  0.78180000  0.10590000  0.79439000  1.0 0.5870523523
Cd  Cd85  1  0.70227000  0.67035000  0.06625000  1.0 0.5109315903
Cd  Cd86  1  0.67035000  0.70227000  0.43375000  1.0 0.5109315903
Cd  Cd87  1  0.29773000  0.32965000  0.93375000  1.0 0.5109315903
Cd  Cd88  1  0.32965000  0.29773000  0.56625000  1.0 0.5109315903
Cd  Cd89  1  0.79331000  0.34679000  0.06567000  1.0 0.5200791238
Cd  Cd90  1  0.34679000  0.79331000  0.43433000  1.0 0.5200791238
Cd  Cd91  1  0.20669000  0.65321000  0.93433000  1.0 0.5200791238
Cd  Cd92  1  0.65321000  0.20669000  0.56567000  1.0 0.5200791238
Cd  Cd93  1  0.17413000  0.34645000  0.46036000  1.0 0.5200791238
Cd  Cd94  1  0.34645000  0.17413000  0.03964000  1.0 0.5200791238
Cd  Cd95  1  0.82587000  0.65355000  0.53964000  1.0 0.5200791238
Cd  Cd96  1  0.65355000  0.82587000  0.96036000  1.0 0.5200791238
Cd  Cd97  1  0.86833000  0.28101000  0.04244000  1.0 0.4901642422
Cd  Cd98  1  0.28101000  0.86833000  0.45756000  1.0 0.4901642422
Cd  Cd99  1  0.13167000  0.71899000  0.95756000  1.0 0.4901642422
Cd  Cd100  1  0.71899000  0.13167000  0.54244000  1.0 0.4901642422
Cd  Cd101  1  0.79966000  0.56612000  0.20393000  1.0 0.5200791238
Cd  Cd102  1  0.56612000  0.79966000  0.29607000  1.0 0.5200791238
Cd  Cd103  1  0.20034000  0.43388000  0.79607000  1.0 0.5200791238
Cd  Cd104  1  0.43388000  0.20034000  0.70393000  1.0 0.5200791238
Cd  Cd105  1  0.86906000  0.19458000  0.40684000  1.0 0.4901642422
Cd  Cd106  1  0.19458000  0.86906000  0.09316000  1.0 0.4901642422
Cd  Cd107  1  0.13094000  0.80542000  0.59316000  1.0 0.4901642422
Cd  Cd108  1  0.80542000  0.13094000  0.90684000  1.0 0.4901642422
Cd  Cd109  1  0.80614000  0.30630000  0.39483000  1.0 0.528692178
Cd  Cd110  1  0.30630000  0.80614000  0.10517000  1.0 0.528692178
Cd  Cd111  1  0.19386000  0.69370000  0.60517000  1.0 0.528692178
Cd  Cd112  1  0.69370000  0.19386000  0.89483000  1.0 0.528692178
Cd  Cd113  1  0.74031000  0.26685000  0.28835000  1.0 0.5200791238
Cd  Cd114  1  0.26685000  0.74031000  0.21165000  1.0 0.5200791238
Cd  Cd115  1  0.25969000  0.73315000  0.71165000  1.0 0.5200791238
Cd  Cd116  1  0.73315000  0.25969000  0.78835000  1.0 0.5200791238
Cd  Cd117  1  0.91580000  0.46604000  0.31993000  1.0 0.5590915435
Cd  Cd118  1  0.46604000  0.91580000  0.18007000  1.0 0.5590915435
Cd  Cd119  1  0.08420000  0.53396000  0.68007000  1.0 0.5590915435
Cd  Cd120  1  0.53396000  0.08420000  0.81993000  1.0 0.5590915435
Cd  Cd121  1  0.90954000  0.23872000  0.18354000  1.0 0.5109315903
Cd  Cd122  1  0.23872000  0.90954000  0.31646000  1.0 0.5109315903
Cd  Cd123  1  0.09046000  0.76128000  0.81646000  1.0 0.5109315903
Cd  Cd124  1  0.76128000  0.09046000  0.68354000  1.0 0.5109315903
Cd  Cd125  1  0.81099000  0.23613000  0.93191000  1.0 0.4636014621
Cd  Cd126  1  0.23613000  0.81099000  0.56809000  1.0 0.4636014621
Cd  Cd127  1  0.18901000  0.76387000  0.06809000  1.0 0.4636014621
Cd  Cd128  1  0.76387000  0.18901000  0.43191000  1.0 0.4636014621
C  C1  1  0.14401000  0.31023000  0.54459000  1.0 0.0887314357
C  C2  1  0.31023000  0.14401000  0.95541000  1.0 0.0887314357
C  C3  1  0.85599000  0.68977000  0.45541000  1.0 0.0887314357
C  C4  1  0.68977000  0.85599000  0.04459000  1.0 0.0887314357
C  C5  1  0.16862000  0.30830000  0.58961000  1.0 -0.0186304989
C  C6  1  0.30830000  0.16862000  0.91039000  1.0 -0.0186304989
C  C7  1  0.83138000  0.69170000  0.41039000  1.0 -0.0186304989
C  C8  1  0.69170000  0.83138000  0.08961000  1.0 -0.0186304989
C  C9  1  0.18440000  0.26692000  0.63448000  1.0 0.0402564032
C  C10  1  0.26692000  0.18440000  0.86552000  1.0 0.0402564032
C  C11  1  0.81560000  0.73308000  0.36552000  1.0 0.0402564032
C  C12  1  0.73308000  0.81560000  0.13448000  1.0 0.0402564032
C  C13  1  0.17557000  0.22745000  0.63433000  1.0 0.0091154506
C  C14  1  0.22745000  0.17557000  0.86567000  1.0 0.0091154506
C  C15  1  0.82443000  0.77255000  0.36567000  1.0 0.0091154506
C  C16  1  0.77255000  0.82443000  0.13433000  1.0 0.0091154506
C  C17  1  0.15097000  0.22937000  0.58931000  1.0 0.0402564032
C  C18  1  0.22937000  0.15097000  0.91069000  1.0 0.0402564032
C  C19  1  0.84903000  0.77063000  0.41069000  1.0 0.0402564032
C  C20  1  0.77063000  0.84903000  0.08931000  1.0 0.0402564032
C  C21  1  0.13520000  0.27076000  0.54444000  1.0 -0.1001091235
C  C22  1  0.27076000  0.13520000  0.95556000  1.0 -0.1001091235
C  C23  1  0.86480000  0.72924000  0.45556000  1.0 -0.1001091235
C  C24  1  0.72924000  0.86480000  0.04444000  1.0 -0.1001091235
C  C25  1  0.20048000  0.26762000  0.43309000  1.0 0.0989236522
C  C26  1  0.26762000  0.20048000  0.06691000  1.0 0.0989236522
C  C27  1  0.79952000  0.73238000  0.56691000  1.0 0.0989236522
C  C28  1  0.73238000  0.79952000  0.93309000  1.0 0.0989236522
C  C29  1  0.23986000  0.22988000  0.46206000  1.0 -0.009690717
C  C30  1  0.22988000  0.23986000  0.03794000  1.0 -0.009690717
C  C31  1  0.76014000  0.77012000  0.53794000  1.0 -0.009690717
C  C32  1  0.77012000  0.76014000  0.96206000  1.0 -0.009690717
C  C33  1  0.26162000  0.22408000  0.44001000  1.0 0.0197587653
C  C34  1  0.22408000  0.26162000  0.05999000  1.0 0.0197587653
C  C35  1  0.73838000  0.77592000  0.55999000  1.0 0.0197587653
C  C36  1  0.77592000  0.73838000  0.94001000  1.0 0.0197587653
C  C37  1  0.24378000  0.25462000  0.38776000  1.0 0.0297981154
C  C38  1  0.25462000  0.24378000  0.11224000  1.0 0.0297981154
C  C39  1  0.75622000  0.74538000  0.61224000  1.0 0.0297981154
C  C40  1  0.74538000  0.75622000  0.88776000  1.0 0.0197587653
C  C41  1  0.20372000  0.29200000  0.35936000  1.0 0.0402564032
C  C42  1  0.29200000  0.20372000  0.14064000  1.0 0.0402564032
C  C43  1  0.79628000  0.70800000  0.64064000  1.0 0.0402564032
C  C44  1  0.70800000  0.79628000  0.85936000  1.0 0.0402564032
C  C45  1  0.18189000  0.29781000  0.38191000  1.0 -0.0703846119
C  C46  1  0.29781000  0.18189000  0.11809000  1.0 -0.0703846119
C  C47  1  0.81811000  0.70219000  0.61809000  1.0 -0.0703846119
C  C48  1  0.70219000  0.81811000  0.88191000  1.0 -0.0703846119
C  C49  1  0.15260000  0.45926000  0.38217000  1.0 0.0989236522
C  C50  1  0.45926000  0.15260000  0.11783000  1.0 0.0989236522
C  C51  1  0.84740000  0.54074000  0.61783000  1.0 0.0989236522
C  C52  1  0.54074000  0.84740000  0.88217000  1.0 0.0989236522
C  C53  1  0.19063000  0.47537000  0.38700000  1.0 -0.0397200449
C  C54  1  0.47537000  0.19063000  0.11300000  1.0 -0.0397200449
C  C55  1  0.80937000  0.52463000  0.61300000  1.0 -0.0397200449
C  C56  1  0.52463000  0.80937000  0.88700000  1.0 -0.0397200449
C  C57  1  0.19668000  0.51092000  0.39610000  1.0 0.0297981154
C  C58  1  0.51092000  0.19668000  0.10390000  1.0 0.0297981154
C  C59  1  0.80332000  0.48908000  0.60390000  1.0 0.0297981154
C  C60  1  0.48908000  0.80332000  0.89610000  1.0 0.0297981154
C  C61  1  0.16088000  0.53128000  0.39545000  1.0 0.0197587653
C  C62  1  0.53128000  0.16088000  0.10455000  1.0 0.0091154506
C  C63  1  0.83912000  0.46872000  0.60455000  1.0 0.0197587653
C  C64  1  0.46872000  0.83912000  0.89545000  1.0 0.0197587653
C  C65  1  0.12351000  0.51491000  0.39306000  1.0 0.0402564032
C  C66  1  0.51491000  0.12351000  0.10694000  1.0 0.0402564032
C  C67  1  0.87649000  0.48509000  0.60694000  1.0 0.0402564032
C  C68  1  0.48509000  0.87649000  0.89306000  1.0 0.0402564032
C  C69  1  0.11831000  0.47847000  0.38441000  1.0 -0.108904447
C  C70  1  0.47847000  0.11831000  0.11559000  1.0 -0.108904447
C  C71  1  0.88169000  0.52153000  0.61559000  1.0 -0.1001091235
C  C72  1  0.52153000  0.88169000  0.88441000  1.0 -0.108904447
C  C73  1  0.10190000  0.41918000  0.23714000  1.0 0.0989236522
C  C74  1  0.41918000  0.10190000  0.26286000  1.0 0.0989236522
C  C75  1  0.89810000  0.58082000  0.76286000  1.0 0.0989236522
C  C76  1  0.58082000  0.89810000  0.73714000  1.0 0.0989236522
C  C77  1  0.14590000  0.41890000  0.26647000  1.0 -0.0397200449
C  C78  1  0.41890000  0.14590000  0.23353000  1.0 -0.0397200449
C  C79  1  0.85410000  0.58110000  0.73353000  1.0 -0.0397200449
C  C80  1  0.58110000  0.85410000  0.76647000  1.0 -0.0397200449
C  C81  1  0.17140000  0.44250000  0.24593000  1.0 0.0402564032
C  C82  1  0.44250000  0.17140000  0.25407000  1.0 0.0402564032
C  C83  1  0.82860000  0.55750000  0.75407000  1.0 0.0402564032
C  C84  1  0.55750000  0.82860000  0.74593000  1.0 0.0402564032
C  C85  1  0.15115000  0.46737000  0.19484000  1.0 0.0197587653
C  C86  1  0.46737000  0.15115000  0.30516000  1.0 0.0197587653
C  C87  1  0.84885000  0.53263000  0.80516000  1.0 0.0197587653
C  C88  1  0.53263000  0.84885000  0.69484000  1.0 0.0197587653
C  C89  1  0.10587000  0.46727000  0.16267000  1.0 0.0493422328
C  C90  1  0.46727000  0.10587000  0.33733000  1.0 0.0493422328
C  C91  1  0.89413000  0.53273000  0.83733000  1.0 0.0493422328
C  C92  1  0.53273000  0.89413000  0.66267000  1.0 0.0493422328
C  C93  1  0.08252000  0.44290000  0.18534000  1.0 -0.0621928253
C  C94  1  0.44290000  0.08252000  0.31466000  1.0 -0.0621928253
C  C95  1  0.91748000  0.55710000  0.81466000  1.0 -0.0621928253
C  C96  1  0.55710000  0.91748000  0.68534000  1.0 -0.0621928253
C  C97  1  0.04900000  0.53106000  0.24242000  1.0 0.0887314357
C  C98  1  0.53106000  0.04900000  0.25758000  1.0 0.0887314357
C  C99  1  0.95100000  0.46894000  0.75758000  1.0 0.0887314357
C  C100  1  0.46894000  0.95100000  0.74242000  1.0 0.0887314357
C  C101  1  0.06762000  0.56164000  0.25735000  1.0 0.0297981154
C  C102  1  0.56164000  0.06762000  0.24265000  1.0 0.0297981154
C  C103  1  0.93238000  0.43836000  0.74265000  1.0 0.0297981154
C  C104  1  0.43836000  0.93238000  0.75735000  1.0 0.0297981154
C  C105  1  0.09769000  0.58325000  0.23672000  1.0 0.0708951342
C  C106  1  0.58325000  0.09769000  0.26328000  1.0 0.0708951342
C  C107  1  0.90231000  0.41675000  0.76328000  1.0 0.0708951342
C  C108  1  0.41675000  0.90231000  0.73672000  1.0 0.0708951342
C  C109  1  0.10038000  0.57386000  0.20437000  1.0 -0.0297842323
C  C110  1  0.57386000  0.10038000  0.29563000  1.0 -0.0297842323
C  C111  1  0.89962000  0.42614000  0.79563000  1.0 -0.0297842323
C  C112  1  0.42614000  0.89962000  0.70437000  1.0 -0.0297842323
C  C113  1  0.08081000  0.54703000  0.18984000  1.0 0.0493422328
C  C114  1  0.54703000  0.08081000  0.31016000  1.0 0.0493422328
C  C115  1  0.91919000  0.45297000  0.81016000  1.0 0.0493422328
C  C116  1  0.45297000  0.91919000  0.68984000  1.0 0.0493422328
C  C117  1  0.05309000  0.52387000  0.20965000  1.0 -0.108904447
C  C118  1  0.52387000  0.05309000  0.29035000  1.0 -0.108904447
C  C119  1  0.94691000  0.47613000  0.79035000  1.0 -0.108904447
C  C120  1  0.47613000  0.94691000  0.70965000  1.0 -0.108904447
C  C121  1  0.01508000  0.33482000  0.51516000  1.0 0.0596822101
C  C122  1  0.33482000  0.01508000  0.98484000  1.0 0.0596822101
C  C123  1  0.98492000  0.66518000  0.48484000  1.0 0.0596822101
C  C124  1  0.66518000  0.98492000  0.01516000  1.0 0.0596822101
C  C125  1  0.97648000  0.37438000  0.49745000  1.0 0.0402564032
C  C126  1  0.37438000  0.97648000  0.00255000  1.0 0.0402564032
C  C127  1  0.02352000  0.62562000  0.50255000  1.0 0.0402564032
C  C128  1  0.62562000  0.02352000  0.99745000  1.0 0.0402564032
C  C129  1  0.98158000  0.38528000  0.53446000  1.0 -0.0297842323
C  C130  1  0.38528000  0.98158000  0.96554000  1.0 -0.0297842323
C  C131  1  0.01842000  0.61472000  0.46554000  1.0 -0.0297842323
C  C132  1  0.61472000  0.01842000  0.03446000  1.0 -0.0297842323
C  C133  1  0.01730000  0.36218000  0.58345000  1.0 -0.0024671002
C  C134  1  0.36218000  0.01730000  0.91655000  1.0 -0.0024671002
C  C135  1  0.98270000  0.63782000  0.41655000  1.0 -0.0024671002
C  C136  1  0.63782000  0.98270000  0.08345000  1.0 -0.0024671002
C  C137  1  0.04883000  0.33659000  0.59607000  1.0 0.0297981154
C  C138  1  0.33659000  0.04883000  0.90393000  1.0 0.0297981154
C  C139  1  0.95117000  0.66341000  0.40393000  1.0 0.0297981154
C  C140  1  0.66341000  0.95117000  0.09607000  1.0 0.0297981154
C  C141  1  0.04888000  0.32372000  0.55504000  1.0 -0.0703846119
C  C142  1  0.32372000  0.04888000  0.94496000  1.0 -0.0703846119
C  C143  1  0.95112000  0.67628000  0.44496000  1.0 -0.0703846119
C  C144  1  0.67628000  0.95112000  0.05504000  1.0 -0.0703846119
C  C145  1  0.10023000  0.17127000  0.49710000  1.0 0.11013466
C  C146  1  0.17127000  0.10023000  0.00290000  1.0 0.11013466
C  C147  1  0.89977000  0.82873000  0.50290000  1.0 0.11013466
C  C148  1  0.82873000  0.89977000  0.99710000  1.0 0.11013466
C  C149  1  0.14235000  0.16199000  0.51717000  1.0 -0.0703846119
C  C150  1  0.16199000  0.14235000  0.98283000  1.0 -0.0703846119
C  C151  1  0.85765000  0.83801000  0.48283000  1.0 -0.0703846119
C  C152  1  0.83801000  0.85765000  0.01717000  1.0 -0.0703846119
C  C153  1  0.17166000  0.11538000  0.55200000  1.0 0.0091154506
C  C154  1  0.11538000  0.17166000  0.94800000  1.0 0.0091154506
C  C155  1  0.82834000  0.88462000  0.44800000  1.0 0.0091154506
C  C156  1  0.88462000  0.82834000  0.05200000  1.0 0.0091154506
C  C157  1  0.15944000  0.07886000  0.55120000  1.0 0.0091154506
C  C158  1  0.07886000  0.15944000  0.94880000  1.0 0.0091154506
C  C159  1  0.84056000  0.92114000  0.44880000  1.0 0.0091154506
C  C160  1  0.92114000  0.84056000  0.05120000  1.0 0.0091154506
C  C161  1  0.10776000  0.08880000  0.52105000  1.0 0.0774627106
C  C162  1  0.08880000  0.10776000  0.97895000  1.0 0.0774627106
C  C163  1  0.89224000  0.91120000  0.47895000  1.0 0.0774627106
C  C164  1  0.91120000  0.89224000  0.02105000  1.0 0.0774627106
C  C165  1  0.07627000  0.13631000  0.49488000  1.0 0.0021378311
C  C166  1  0.13631000  0.07627000  0.00512000  1.0 0.0021378311
C  C167  1  0.92373000  0.86369000  0.50512000  1.0 0.0091154506
C  C168  1  0.86369000  0.92373000  0.99488000  1.0 0.0091154506
C  C169  1  0.86211000  0.18031000  0.12707000  1.0 0.0708951342
C  C170  1  0.18031000  0.86211000  0.37293000  1.0 0.0708951342
C  C171  1  0.13789000  0.81969000  0.87293000  1.0 0.0708951342
C  C172  1  0.81969000  0.13789000  0.62707000  1.0 0.0708951342
C  C173  1  0.87097000  0.13713000  0.17245000  1.0 0.0297981154
C  C174  1  0.13713000  0.87097000  0.32755000  1.0 0.0297981154
C  C175  1  0.12903000  0.86287000  0.82755000  1.0 0.0297981154
C  C176  1  0.86287000  0.12903000  0.67245000  1.0 0.0297981154
C  C177  1  0.83289000  0.11317000  0.17535000  1.0 0.0708951342
C  C178  1  0.11317000  0.83289000  0.32465000  1.0 0.0708951342
C  C179  1  0.16711000  0.88683000  0.82465000  1.0 0.0708951342
C  C180  1  0.88683000  0.16711000  0.67535000  1.0 0.0708951342
C  C181  1  0.79365000  0.13303000  0.12712000  1.0 -0.009690717
C  C182  1  0.13303000  0.79365000  0.37288000  1.0 -0.009690717
C  C183  1  0.20635000  0.86697000  0.87288000  1.0 -0.009690717
C  C184  1  0.86697000  0.20635000  0.62712000  1.0 -0.009690717
C  C185  1  0.78233000  0.17281000  0.08375000  1.0 0.0774627106
C  C186  1  0.17281000  0.78233000  0.41625000  1.0 0.0774627106
C  C187  1  0.21767000  0.82719000  0.91625000  1.0 0.0774627106
C  C188  1  0.82719000  0.21767000  0.58375000  1.0 0.0774627106
C  C189  1  0.81755000  0.19885000  0.08622000  1.0 -0.1001091235
C  C190  1  0.19885000  0.81755000  0.41378000  1.0 -0.1001091235
C  C191  1  0.18245000  0.80115000  0.91378000  1.0 -0.1001091235
C  C192  1  0.80115000  0.18245000  0.58622000  1.0 -0.1001091235
C  C193  1  0.92274000  0.23350000  0.01202000  1.0 0.0887314357
C  C194  1  0.23350000  0.92274000  0.48798000  1.0 0.0887314357
C  C195  1  0.07726000  0.76650000  0.98798000  1.0 0.0887314357
C  C196  1  0.76650000  0.07726000  0.51202000  1.0 0.0887314357
C  C197  1  0.95256000  0.26432000  0.99296000  1.0 -0.0898111998
C  C198  1  0.26432000  0.95256000  0.50704000  1.0 -0.0898111998
C  C199  1  0.04744000  0.73568000  0.00704000  1.0 -0.0898111998
C  C200  1  0.73568000  0.04744000  0.49296000  1.0 -0.0898111998
C  C201  1  0.00727000  0.24081000  0.03560000  1.0 0.11013466
C  C202  1  0.24081000  0.00727000  0.46440000  1.0 0.11013466
C  C203  1  0.99273000  0.75919000  0.96440000  1.0 0.11013466
C  C204  1  0.75919000  0.99273000  0.53560000  1.0 0.11013466
C  C205  1  0.01355000  0.18619000  0.07011000  1.0 0.0091154506
C  C206  1  0.18619000  0.01355000  0.42989000  1.0 0.0091154506
C  C207  1  0.98645000  0.81381000  0.92989000  1.0 0.0091154506
C  C208  1  0.81381000  0.98645000  0.57011000  1.0 0.0091154506
C  C209  1  0.98704000  0.16486000  0.08321000  1.0 0.0402564032
C  C210  1  0.16486000  0.98704000  0.41679000  1.0 0.0402564032
C  C211  1  0.01296000  0.83514000  0.91679000  1.0 0.0402564032
C  C212  1  0.83514000  0.01296000  0.58321000  1.0 0.0402564032
C  C213  1  0.93688000  0.19160000  0.05371000  1.0 -0.0492711631
C  C214  1  0.19160000  0.93688000  0.44629000  1.0 -0.0492711631
C  C215  1  0.06312000  0.80840000  0.94629000  1.0 -0.0492711631
C  C216  1  0.80840000  0.06312000  0.55371000  1.0 -0.0492711631
C  C217  1  0.85391000  0.12433000  0.34612000  1.0 0.0989236522
C  C218  1  0.12433000  0.85391000  0.15388000  1.0 0.0989236522
C  C219  1  0.14609000  0.87567000  0.65388000  1.0 0.0989236522
C  C220  1  0.87567000  0.14609000  0.84612000  1.0 0.0989236522
C  C221  1  0.87750000  0.08852000  0.39581000  1.0 -0.0297842323
C  C222  1  0.08852000  0.87750000  0.10419000  1.0 -0.0297842323
C  C223  1  0.12250000  0.91148000  0.60419000  1.0 -0.0297842323
C  C224  1  0.91148000  0.12250000  0.89581000  1.0 -0.0186304989
C  C225  1  0.87685000  0.04129000  0.39890000  1.0 0.0708951342
C  C226  1  0.04129000  0.87685000  0.10110000  1.0 0.0708951342
C  C227  1  0.12315000  0.95871000  0.60110000  1.0 0.0708951342
C  C228  1  0.95871000  0.12315000  0.89890000  1.0 0.0708951342
C  C229  1  0.85030000  0.04674000  0.34962000  1.0 0.0091154506
C  C230  1  0.04674000  0.85030000  0.15038000  1.0 0.0091154506
C  C231  1  0.14970000  0.95326000  0.65038000  1.0 0.0091154506
C  C232  1  0.95326000  0.14970000  0.84962000  1.0 0.0091154506
C  C233  1  0.81809000  0.08271000  0.28851000  1.0 0.0887314357
C  C234  1  0.08271000  0.81809000  0.21149000  1.0 0.0887314357
C  C235  1  0.18191000  0.91729000  0.71149000  1.0 0.0887314357
C  C236  1  0.91729000  0.18191000  0.78851000  1.0 0.0887314357
C  C237  1  0.82189000  0.12983000  0.29184000  1.0 -0.0492711631
C  C238  1  0.12983000  0.82189000  0.20816000  1.0 -0.0492711631
C  C239  1  0.17811000  0.87017000  0.70816000  1.0 -0.0492711631
C  C240  1  0.87017000  0.17811000  0.79184000  1.0 -0.0492711631
C  C241  1  0.03248000  0.20800000  0.24160000  1.0 0.1227288453
C  C242  1  0.20800000  0.03248000  0.25840000  1.0 0.1227288453
C  C243  1  0.96752000  0.79200000  0.75840000  1.0 0.1227288453
C  C244  1  0.79200000  0.96752000  0.74160000  1.0 0.1227288453
C  C245  1  0.07176000  0.18602000  0.28730000  1.0 -0.1001091235
C  C246  1  0.18602000  0.07176000  0.21270000  1.0 -0.1001091235
C  C247  1  0.92824000  0.81398000  0.71270000  1.0 -0.1001091235
C  C248  1  0.81398000  0.92824000  0.78730000  1.0 -0.1001091235
C  C249  1  0.11216000  0.15034000  0.30199000  1.0 0.0596822101
C  C250  1  0.15034000  0.11216000  0.19801000  1.0 0.0596822101
C  C251  1  0.88784000  0.84966000  0.69801000  1.0 0.0596822101
C  C252  1  0.84966000  0.88784000  0.80199000  1.0 0.0596822101
C  C253  1  0.10126000  0.12178000  0.29154000  1.0 -0.0397200449
C  C254  1  0.12178000  0.10126000  0.20846000  1.0 -0.0397200449
C  C255  1  0.89874000  0.87822000  0.70846000  1.0 -0.0397200449
C  C256  1  0.87822000  0.89874000  0.79154000  1.0 -0.0397200449
C  C257  1  0.05674000  0.12366000  0.26445000  1.0 0.0197587653
C  C258  1  0.12366000  0.05674000  0.23555000  1.0 0.0197587653
C  C259  1  0.94326000  0.87634000  0.73555000  1.0 0.0297981154
C  C260  1  0.87634000  0.94326000  0.76445000  1.0 0.0197587653
C  C261  1  0.02095000  0.16267000  0.24127000  1.0 -0.108904447
C  C262  1  0.16267000  0.02095000  0.25873000  1.0 -0.1186723032
C  C263  1  0.97905000  0.83733000  0.75873000  1.0 -0.1186723032
C  C264  1  0.83733000  0.97905000  0.74127000  1.0 -0.1186723032
C  C265  1  0.04834000  0.35144000  0.16537000  1.0 0.0989236522
C  C266  1  0.35144000  0.04834000  0.33463000  1.0 0.0989236522
C  C267  1  0.95166000  0.64856000  0.83463000  1.0 0.0989236522
C  C268  1  0.64856000  0.95166000  0.66537000  1.0 0.0989236522
C  C269  1  0.07293000  0.31927000  0.21468000  1.0 -0.0621928253
C  C270  1  0.31927000  0.07293000  0.28532000  1.0 -0.0621928253
C  C271  1  0.92707000  0.68073000  0.78532000  1.0 -0.0621928253
C  C272  1  0.68073000  0.92707000  0.71468000  1.0 -0.0621928253
C  C273  1  0.11878000  0.29296000  0.23832000  1.0 0.0402564032
C  C274  1  0.29296000  0.11878000  0.26168000  1.0 0.0402564032
C  C275  1  0.88122000  0.70704000  0.76168000  1.0 0.0402564032
C  C276  1  0.70704000  0.88122000  0.73832000  1.0 0.0493422328
C  C277  1  0.13624000  0.29964000  0.20940000  1.0 -0.009690717
C  C278  1  0.29964000  0.13624000  0.29060000  1.0 -0.009690717
C  C279  1  0.86376000  0.70036000  0.79060000  1.0 -0.009690717
C  C280  1  0.70036000  0.86376000  0.70940000  1.0 -0.009690717
C  C281  1  0.11382000  0.32996000  0.16088000  1.0 0.0493422328
C  C282  1  0.32996000  0.11382000  0.33912000  1.0 0.0493422328
C  C283  1  0.88618000  0.67004000  0.83912000  1.0 0.0493422328
C  C284  1  0.67004000  0.88618000  0.66088000  1.0 0.0493422328
C  C285  1  0.06634000  0.35886000  0.13429000  1.0 -0.0024671002
C  C286  1  0.35886000  0.06634000  0.36571000  1.0 -0.0024671002
C  C287  1  0.93366000  0.64114000  0.86571000  1.0 -0.0024671002
C  C288  1  0.64114000  0.93366000  0.63429000  1.0 -0.0024671002
C  C289  1  0.90329000  0.62691000  0.12157000  1.0 0.1227288453
C  C290  1  0.62691000  0.90329000  0.37843000  1.0 0.1227288453
C  C291  1  0.09671000  0.37309000  0.87843000  1.0 0.1227288453
C  C292  1  0.37309000  0.09671000  0.62157000  1.0 0.1227288453
C  C293  1  0.94966000  0.61524000  0.13527000  1.0 -0.0703846119
C  C294  1  0.61524000  0.94966000  0.36473000  1.0 -0.0703846119
C  C295  1  0.05034000  0.38476000  0.86473000  1.0 -0.0703846119
C  C296  1  0.38476000  0.05034000  0.63527000  1.0 -0.0703846119
C  C297  1  0.96724000  0.64892000  0.11171000  1.0 0.0596822101
C  C298  1  0.64892000  0.96724000  0.38829000  1.0 0.0596822101
C  C299  1  0.03276000  0.35108000  0.88829000  1.0 0.0493422328
C  C300  1  0.35108000  0.03276000  0.61171000  1.0 0.0493422328
C  C301  1  0.93966000  0.69628000  0.07794000  1.0 0.0197587653
C  C302  1  0.69628000  0.93966000  0.42206000  1.0 0.0197587653
C  C303  1  0.06034000  0.30372000  0.92206000  1.0 0.0197587653
C  C304  1  0.30372000  0.06034000  0.57794000  1.0 0.0197587653
C  C305  1  0.89524000  0.70492000  0.06459000  1.0 0.0197587653
C  C306  1  0.70492000  0.89524000  0.43541000  1.0 0.0197587653
C  C307  1  0.10476000  0.29508000  0.93541000  1.0 0.0197587653
C  C308  1  0.29508000  0.10476000  0.56459000  1.0 0.0197587653
C  C309  1  0.87567000  0.67267000  0.08521000  1.0 -0.0297842323
C  C310  1  0.67267000  0.87567000  0.41479000  1.0 -0.0297842323
C  C311  1  0.12433000  0.32733000  0.91479000  1.0 -0.0297842323
C  C312  1  0.32733000  0.12433000  0.58521000  1.0 -0.0297842323
C  C313  1  0.86950000  0.56252000  0.31110000  1.0 0.0596822101
C  C314  1  0.56252000  0.86950000  0.18890000  1.0 0.0493422328
C  C315  1  0.13050000  0.43748000  0.68890000  1.0 0.0596822101
C  C316  1  0.43748000  0.13050000  0.81110000  1.0 0.0493422328
C  C317  1  0.84959000  0.53749000  0.33372000  1.0 -0.009690717
C  C318  1  0.53749000  0.84959000  0.16628000  1.0 -0.009690717
C  C319  1  0.15041000  0.46251000  0.66628000  1.0 -0.009690717
C  C320  1  0.46251000  0.15041000  0.83372000  1.0 -0.009690717
C  C321  1  0.83888000  0.54802000  0.36481000  1.0 0.0402564032
C  C322  1  0.54802000  0.83888000  0.13519000  1.0 0.0402564032
C  C323  1  0.16112000  0.45198000  0.63519000  1.0 0.0402564032
C  C324  1  0.45198000  0.16112000  0.86481000  1.0 0.0402564032
C  C325  1  0.85390000  0.58064000  0.37323000  1.0 -0.0492711631
C  C326  1  0.58064000  0.85390000  0.12677000  1.0 -0.0492711631
C  C327  1  0.14610000  0.41936000  0.62677000  1.0 -0.0492711631
C  C328  1  0.41936000  0.14610000  0.87323000  1.0 -0.0492711631
C  C329  1  0.87425000  0.60443000  0.35286000  1.0 0.0402564032
C  C330  1  0.60443000  0.87425000  0.14714000  1.0 0.0402564032
C  C331  1  0.12575000  0.39557000  0.64714000  1.0 0.0402564032
C  C332  1  0.39557000  0.12575000  0.85286000  1.0 0.0402564032
C  C333  1  0.88913000  0.59189000  0.32401000  1.0 0.0493422328
C  C334  1  0.59189000  0.88913000  0.17599000  1.0 0.0493422328
C  C335  1  0.11087000  0.40811000  0.67599000  1.0 0.0493422328
C  C336  1  0.40811000  0.11087000  0.82401000  1.0 0.0493422328
C  C337  1  0.89347000  0.30443000  0.49974000  1.0 0.11013466
C  C338  1  0.30443000  0.89347000  0.00026000  1.0 0.11013466
C  C339  1  0.10653000  0.69557000  0.50026000  1.0 0.11013466
C  C340  1  0.69557000  0.10653000  0.99974000  1.0 0.11013466
C  C341  1  0.91497000  0.34319000  0.49975000  1.0 -0.1001091235
C  C342  1  0.34319000  0.91497000  0.00025000  1.0 -0.1001091235
C  C343  1  0.08503000  0.65681000  0.50025000  1.0 -0.1001091235
C  C344  1  0.65681000  0.08503000  0.99975000  1.0 -0.1001091235
C  C345  1  0.91995000  0.35611000  0.53644000  1.0 0.0708951342
C  C346  1  0.35611000  0.91995000  0.96356000  1.0 0.0708951342
C  C347  1  0.08005000  0.64389000  0.46356000  1.0 0.0708951342
C  C348  1  0.64389000  0.08005000  0.03644000  1.0 0.0708951342
C  C349  1  0.88354000  0.35006000  0.55364000  1.0 0.0402564032
C  C350  1  0.35006000  0.88354000  0.94636000  1.0 0.0402564032
C  C351  1  0.11646000  0.64994000  0.44636000  1.0 0.0402564032
C  C352  1  0.64994000  0.11646000  0.05364000  1.0 0.0402564032
C  C353  1  0.85545000  0.32705000  0.53363000  1.0 0.0297981154
C  C354  1  0.32705000  0.85545000  0.96637000  1.0 0.0297981154
C  C355  1  0.14455000  0.67295000  0.46637000  1.0 0.0297981154
C  C356  1  0.67295000  0.14455000  0.03363000  1.0 0.0297981154
C  C357  1  0.85865000  0.30895000  0.50576000  1.0 -0.0793051679
C  C358  1  0.30895000  0.85865000  0.99424000  1.0 -0.0793051679
C  C359  1  0.14135000  0.69105000  0.49424000  1.0 -0.0793051679
C  C360  1  0.69105000  0.14135000  0.00576000  1.0 -0.0793051679
C  C361  1  0.97808000  0.12774000  0.48461000  1.0 0.0774627106
C  C362  1  0.12774000  0.97808000  0.01539000  1.0 0.0774627106
C  C363  1  0.02192000  0.87226000  0.51539000  1.0 0.0774627106
C  C364  1  0.87226000  0.02192000  0.98461000  1.0 0.0774627106
C  C365  1  0.98680000  0.11000000  0.53215000  1.0 -0.0297842323
C  C366  1  0.11000000  0.98680000  0.96785000  1.0 -0.0297842323
C  C367  1  0.01320000  0.89000000  0.46785000  1.0 -0.0297842323
C  C368  1  0.89000000  0.01320000  0.03215000  1.0 -0.0297842323
C  C369  1  0.01289000  0.06359000  0.56953000  1.0 0.0091154506
C  C370  1  0.06359000  0.01289000  0.93047000  1.0 0.0091154506
C  C371  1  0.98711000  0.93641000  0.43047000  1.0 0.0091154506
C  C372  1  0.93641000  0.98711000  0.06953000  1.0 0.0091154506
C  C373  1  0.02214000  0.04522000  0.54770000  1.0 -0.0297842323
C  C374  1  0.04522000  0.02214000  0.95230000  1.0 -0.0297842323
C  C375  1  0.97786000  0.95478000  0.45230000  1.0 -0.0297842323
C  C376  1  0.95478000  0.97786000  0.04770000  1.0 -0.0297842323
C  C377  1  0.00436000  0.05686000  0.48693000  1.0 0.0774627106
C  C378  1  0.05686000  0.00436000  0.01307000  1.0 0.0774627106
C  C379  1  0.99564000  0.94314000  0.51307000  1.0 0.0774627106
C  C380  1  0.94314000  0.99564000  0.98693000  1.0 0.0774627106
C  C381  1  0.97456000  0.11604000  0.45237000  1.0 -0.1307704319
C  C382  1  0.11604000  0.97456000  0.04763000  1.0 -0.1307704319
C  C383  1  0.02544000  0.88396000  0.54763000  1.0 -0.1307704319
C  C384  1  0.88396000  0.02544000  0.95237000  1.0 -0.1307704319
C  C385  1  0.85610000  0.09280000  0.48024000  1.0 0.0091154506
C  C386  1  0.09280000  0.85610000  0.01976000  1.0 0.0091154506
C  C387  1  0.14390000  0.90720000  0.51976000  1.0 0.0091154506
C  C388  1  0.90720000  0.14390000  0.98024000  1.0 0.0091154506
C  C389  1  0.90054000  0.06644000  0.50893000  1.0 -0.108904447
C  C390  1  0.06644000  0.90054000  0.99107000  1.0 -0.108904447
C  C391  1  0.09946000  0.93356000  0.49107000  1.0 -0.108904447
C  C392  1  0.93356000  0.09946000  0.00893000  1.0 -0.108904447
C  C393  1  0.90516000  0.01018000  0.52317000  1.0 0.0989236522
C  C394  1  0.01018000  0.90516000  0.97683000  1.0 0.0989236522
C  C395  1  0.09484000  0.98982000  0.47683000  1.0 0.0989236522
C  C396  1  0.98982000  0.09484000  0.02317000  1.0 0.0989236522
C  C397  1  0.86966000  0.00970000  0.49846000  1.0 -0.009690717
C  C398  1  0.00970000  0.86966000  0.00154000  1.0 -0.009690717
C  C399  1  0.13034000  0.99030000  0.50154000  1.0 -0.009690717
C  C400  1  0.99030000  0.13034000  0.99846000  1.0 -0.009690717
C  C401  1  0.82405000  0.03327000  0.46540000  1.0 -0.009690717
C  C402  1  0.03327000  0.82405000  0.03460000  1.0 -0.009690717
C  C403  1  0.17595000  0.96673000  0.53460000  1.0 -0.009690717
C  C404  1  0.96673000  0.17595000  0.96540000  1.0 -0.009690717
C  C405  1  0.81975000  0.07365000  0.46261000  1.0 -0.1001091235
C  C406  1  0.07365000  0.81975000  0.03739000  1.0 -0.1001091235
C  C407  1  0.18025000  0.92635000  0.53739000  1.0 -0.1001091235
C  C408  1  0.92635000  0.18025000  0.96261000  1.0 -0.1001091235
C  C409  1  0.93501000  0.13489000  0.28642000  1.0 0.0989236522
C  C410  1  0.13489000  0.93501000  0.21358000  1.0 0.0989236522
C  C411  1  0.06499000  0.86511000  0.71358000  1.0 0.0989236522
C  C412  1  0.86511000  0.06499000  0.78642000  1.0 0.0989236522
C  C413  1  0.92962000  0.08382000  0.31818000  1.0 0.0297981154
C  C414  1  0.08382000  0.92962000  0.18182000  1.0 0.0297981154
C  C415  1  0.07038000  0.91618000  0.68182000  1.0 0.0297981154
C  C416  1  0.91618000  0.07038000  0.81818000  1.0 0.0297981154
C  C417  1  0.96775000  0.05027000  0.32985000  1.0 0.0708951342
C  C418  1  0.05027000  0.96775000  0.17015000  1.0 0.0708951342
C  C419  1  0.03225000  0.94973000  0.67015000  1.0 0.0708951342
C  C420  1  0.94973000  0.03225000  0.82985000  1.0 0.0708951342
C  C421  1  0.01247000  0.05459000  0.35628000  1.0 -0.0186304989
C  C422  1  0.05459000  0.01247000  0.14372000  1.0 -0.0186304989
C  C423  1  0.98753000  0.94541000  0.64372000  1.0 -0.0186304989
C  C424  1  0.94541000  0.98753000  0.85628000  1.0 -0.0186304989
C  C425  1  0.02162000  0.09176000  0.33387000  1.0 0.0493422328
C  C426  1  0.09176000  0.02162000  0.16613000  1.0 0.0493422328
C  C427  1  0.97838000  0.90824000  0.66613000  1.0 0.0493422328
C  C428  1  0.90824000  0.97838000  0.83387000  1.0 0.0493422328
C  C429  1  0.98097000  0.13633000  0.29673000  1.0 -0.0793051679
C  C430  1  0.13633000  0.98097000  0.20327000  1.0 -0.0793051679
C  C431  1  0.01903000  0.86367000  0.70327000  1.0 -0.0793051679
C  C432  1  0.86367000  0.01903000  0.79673000  1.0 -0.0793051679
C  C433  1  0.94367000  0.34513000  0.01951000  1.0 0.0989236522
C  C434  1  0.34513000  0.94367000  0.48049000  1.0 0.0989236522
C  C435  1  0.05633000  0.65487000  0.98049000  1.0 0.0989236522
C  C436  1  0.65487000  0.05633000  0.51951000  1.0 0.0989236522
C  C437  1  0.99003000  0.34141000  0.03442000  1.0 -0.009690717
C  C438  1  0.34141000  0.99003000  0.46558000  1.0 -0.009690717
C  C439  1  0.00997000  0.65859000  0.96558000  1.0 -0.009690717
C  C440  1  0.65859000  0.00997000  0.53442000  1.0 -0.009690717
C  C441  1  0.99755000  0.36905000  0.99146000  1.0 0.0596822101
C  C442  1  0.36905000  0.99755000  0.50854000  1.0 0.0596822101
C  C443  1  0.00245000  0.63095000  0.00854000  1.0 0.0596822101
C  C444  1  0.63095000  0.00245000  0.49146000  1.0 0.0596822101
C  C445  1  0.96175000  0.39023000  0.94339000  1.0 -0.0024671002
C  C446  1  0.39023000  0.96175000  0.55661000  1.0 -0.0024671002
C  C447  1  0.03825000  0.60977000  0.05661000  1.0 -0.0024671002
C  C448  1  0.60977000  0.03825000  0.44339000  1.0 -0.0024671002
C  C449  1  0.91556000  0.39060000  0.92957000  1.0 0.0708951342
C  C450  1  0.39060000  0.91556000  0.57043000  1.0 0.0708951342
C  C451  1  0.08444000  0.60940000  0.07043000  1.0 0.0708951342
C  C452  1  0.60940000  0.08444000  0.42957000  1.0 0.0708951342
C  C453  1  0.90705000  0.36837000  0.96871000  1.0 -0.0898111998
C  C454  1  0.36837000  0.90705000  0.53129000  1.0 -0.0898111998
C  C455  1  0.09295000  0.63163000  0.03129000  1.0 -0.0898111998
C  C456  1  0.63163000  0.09295000  0.46871000  1.0 -0.0898111998
C  C457  1  0.90155000  0.47523000  0.01696000  1.0 0.11013466
C  C458  1  0.47523000  0.90155000  0.48304000  1.0 0.11013466
C  C459  1  0.09845000  0.52477000  0.98304000  1.0 0.11013466
C  C460  1  0.52477000  0.09845000  0.51696000  1.0 0.11013466
C  C461  1  0.91231000  0.45733000  0.99288000  1.0 -0.0397200449
C  C462  1  0.45733000  0.91231000  0.50712000  1.0 -0.0397200449
C  C463  1  0.08769000  0.54267000  0.00712000  1.0 -0.0397200449
C  C464  1  0.54267000  0.08769000  0.49288000  1.0 -0.0397200449
C  C465  1  0.93570000  0.48060000  0.96790000  1.0 0.0297981154
C  C466  1  0.48060000  0.93570000  0.53210000  1.0 0.0297981154
C  C467  1  0.06430000  0.51940000  0.03210000  1.0 0.0297981154
C  C468  1  0.51940000  0.06430000  0.46790000  1.0 0.0297981154
C  C469  1  0.94360000  0.52066000  0.96410000  1.0 0.0021378311
C  C470  1  0.52066000  0.94360000  0.53590000  1.0 0.0021378311
C  C471  1  0.05640000  0.47934000  0.03590000  1.0 0.0021378311
C  C472  1  0.47934000  0.05640000  0.46410000  1.0 0.0021378311
C  C473  1  0.93304000  0.53832000  0.98849000  1.0 0.0708951342
C  C474  1  0.53832000  0.93304000  0.51151000  1.0 0.0708951342
C  C475  1  0.06696000  0.46168000  0.01151000  1.0 0.0708951342
C  C476  1  0.46168000  0.06696000  0.48849000  1.0 0.0708951342
C  C477  1  0.91189000  0.51439000  0.01484000  1.0 -0.0703846119
C  C478  1  0.51439000  0.91189000  0.48516000  1.0 -0.0703846119
C  C479  1  0.08811000  0.48561000  0.98516000  1.0 -0.0703846119
C  C480  1  0.48561000  0.08811000  0.51484000  1.0 -0.0703846119
C  C481  1  0.83141000  0.59889000  0.00080000  1.0 0.0989236522
C  C482  1  0.59889000  0.83141000  0.49920000  1.0 0.0989236522
C  C483  1  0.16859000  0.40111000  0.99920000  1.0 0.0989236522
C  C484  1  0.40111000  0.16859000  0.50080000  1.0 0.0989236522
C  C485  1  0.80576000  0.62468000  0.94843000  1.0 0.0091154506
C  C486  1  0.62468000  0.80576000  0.55157000  1.0 0.0091154506
C  C487  1  0.19424000  0.37532000  0.05157000  1.0 0.0091154506
C  C488  1  0.37532000  0.19424000  0.44843000  1.0 0.0091154506
C  C489  1  0.82595000  0.65663000  0.92387000  1.0 0.0493422328
C  C490  1  0.65663000  0.82595000  0.57613000  1.0 0.0493422328
C  C491  1  0.17405000  0.34337000  0.07613000  1.0 0.0493422328
C  C492  1  0.34337000  0.17405000  0.42387000  1.0 0.0493422328
C  C493  1  0.86564000  0.66244000  0.95049000  1.0 -0.009690717
C  C494  1  0.66244000  0.86564000  0.54951000  1.0 -0.0186304989
C  C495  1  0.13436000  0.33756000  0.04951000  1.0 -0.009690717
C  C496  1  0.33756000  0.13436000  0.45049000  1.0 -0.009690717
C  C497  1  0.89049000  0.63821000  0.00216000  1.0 0.0596822101
C  C498  1  0.63821000  0.89049000  0.49784000  1.0 0.0596822101
C  C499  1  0.10951000  0.36179000  0.99784000  1.0 0.0596822101
C  C500  1  0.36179000  0.10951000  0.50216000  1.0 0.0596822101
C  C501  1  0.87278000  0.60508000  0.02721000  1.0 -0.108904447
C  C502  1  0.60508000  0.87278000  0.47279000  1.0 -0.108904447
C  C503  1  0.12722000  0.39492000  0.97279000  1.0 -0.108904447
C  C504  1  0.39492000  0.12722000  0.52721000  1.0 -0.108904447
C  C505  1  0.79772000  0.68492000  0.14690000  1.0 0.0989236522
C  C506  1  0.68492000  0.79772000  0.35310000  1.0 0.0989236522
C  C507  1  0.20228000  0.31508000  0.85310000  1.0 0.0989236522
C  C508  1  0.31508000  0.20228000  0.64690000  1.0 0.0989236522
C  C509  1  0.78599000  0.72293000  0.10394000  1.0 -0.0703846119
C  C510  1  0.72293000  0.78599000  0.39606000  1.0 -0.0703846119
C  C511  1  0.21401000  0.27707000  0.89606000  1.0 -0.0703846119
C  C512  1  0.27707000  0.21401000  0.60394000  1.0 -0.0703846119
C  C513  1  0.81720000  0.74988000  0.10046000  1.0 0.0197587653
C  C514  1  0.74988000  0.81720000  0.39954000  1.0 0.0197587653
C  C515  1  0.18280000  0.25012000  0.89954000  1.0 0.0197587653
C  C516  1  0.25012000  0.18280000  0.60046000  1.0 0.0197587653
C  C517  1  0.85750000  0.73862000  0.14073000  1.0 -0.0297842323
C  C518  1  0.73862000  0.85750000  0.35927000  1.0 -0.0297842323
C  C519  1  0.14250000  0.26138000  0.85927000  1.0 -0.0397200449
C  C520  1  0.26138000  0.14250000  0.64073000  1.0 -0.0297842323
C  C521  1  0.86582000  0.70244000  0.18636000  1.0 0.0774627106
C  C522  1  0.70244000  0.86582000  0.31364000  1.0 0.0774627106
C  C523  1  0.13418000  0.29756000  0.81364000  1.0 0.0774627106
C  C524  1  0.29756000  0.13418000  0.68636000  1.0 0.0774627106
C  C525  1  0.83489000  0.67467000  0.19232000  1.0 -0.0397200449
C  C526  1  0.67467000  0.83489000  0.30768000  1.0 -0.0397200449
C  C527  1  0.16511000  0.32533000  0.80768000  1.0 -0.0397200449
C  C528  1  0.32533000  0.16511000  0.69232000  1.0 -0.0397200449
C  C529  1  0.72708000  0.54314000  0.25500000  1.0 0.0989236522
C  C530  1  0.54314000  0.72708000  0.24500000  1.0 0.0989236522
C  C531  1  0.27292000  0.45686000  0.74500000  1.0 0.0989236522
C  C532  1  0.45686000  0.27292000  0.75500000  1.0 0.0989236522
C  C533  1  0.71374000  0.58742000  0.23251000  1.0 -0.1476629391
C  C534  1  0.58742000  0.71374000  0.26749000  1.0 -0.1476629391
C  C535  1  0.28626000  0.41258000  0.76749000  1.0 -0.1476629391
C  C536  1  0.41258000  0.28626000  0.73251000  1.0 -0.1476629391
C  C537  1  0.70500000  0.61164000  0.26284000  1.0 0.0887314357
C  C538  1  0.61164000  0.70500000  0.23716000  1.0 0.0887314357
C  C539  1  0.29500000  0.38836000  0.73716000  1.0 0.0887314357
C  C540  1  0.38836000  0.29500000  0.76284000  1.0 0.0887314357
C  C541  1  0.68712000  0.58214000  0.28794000  1.0 -0.0297842323
C  C542  1  0.58214000  0.68712000  0.21206000  1.0 -0.0297842323
C  C543  1  0.31288000  0.41786000  0.71206000  1.0 -0.0297842323
C  C544  1  0.41786000  0.31288000  0.78794000  1.0 -0.0297842323
C  C545  1  0.69552000  0.53984000  0.30326000  1.0 0.0297981154
C  C546  1  0.53984000  0.69552000  0.19674000  1.0 0.0297981154
C  C547  1  0.30448000  0.46016000  0.69674000  1.0 0.0297981154
C  C548  1  0.46016000  0.30448000  0.80326000  1.0 0.0297981154
C  C549  1  0.72128000  0.52156000  0.28984000  1.0 -0.0703846119
C  C550  1  0.52156000  0.72128000  0.21016000  1.0 -0.0703846119
C  C551  1  0.27872000  0.47844000  0.71016000  1.0 -0.0703846119
C  C552  1  0.47844000  0.27872000  0.78984000  1.0 -0.0703846119
C  C553  1  0.76193000  0.40711000  0.38230000  1.0 0.0774627106
C  C554  1  0.40711000  0.76193000  0.11770000  1.0 0.0774627106
C  C555  1  0.23807000  0.59289000  0.61770000  1.0 0.0774627106
C  C556  1  0.59289000  0.23807000  0.88230000  1.0 0.0774627106
C  C557  1  0.79703000  0.42089000  0.40524000  1.0 -0.0397200449
C  C558  1  0.42089000  0.79703000  0.09476000  1.0 -0.0397200449
C  C559  1  0.20297000  0.57911000  0.59476000  1.0 -0.0397200449
C  C560  1  0.57911000  0.20297000  0.90524000  1.0 -0.0397200449
C  C561  1  0.79781000  0.43857000  0.43724000  1.0 0.0596822101
C  C562  1  0.43857000  0.79781000  0.06276000  1.0 0.0596822101
C  C563  1  0.20219000  0.56143000  0.56276000  1.0 0.0596822101
C  C564  1  0.56143000  0.20219000  0.93724000  1.0 0.0596822101
C  C565  1  0.75764000  0.43782000  0.43862000  1.0 0.0091154506
C  C566  1  0.43782000  0.75764000  0.06138000  1.0 0.0021378311
C  C567  1  0.24236000  0.56218000  0.56138000  1.0 0.0091154506
C  C568  1  0.56218000  0.24236000  0.93862000  1.0 0.0091154506
C  C569  1  0.72161000  0.42791000  0.41383000  1.0 0.0197587653
C  C570  1  0.42791000  0.72161000  0.08617000  1.0 0.0197587653
C  C571  1  0.27839000  0.57209000  0.58617000  1.0 0.0197587653
C  C572  1  0.57209000  0.27839000  0.91383000  1.0 0.0197587653
C  C573  1  0.72160000  0.41190000  0.38316000  1.0 0.0197587653
C  C574  1  0.41190000  0.72160000  0.11684000  1.0 0.0197587653
C  C575  1  0.27840000  0.58810000  0.61684000  1.0 0.0197587653
C  C576  1  0.58810000  0.27840000  0.88316000  1.0 0.0197587653
C  C577  1  0.71528000  0.29432000  0.40938000  1.0 0.0989236522
C  C578  1  0.29432000  0.71528000  0.09062000  1.0 0.0989236522
C  C579  1  0.28472000  0.70568000  0.59062000  1.0 0.0989236522
C  C580  1  0.70568000  0.28472000  0.90938000  1.0 0.0989236522
C  C581  1  0.70109000  0.30427000  0.43627000  1.0 0.0197587653
C  C582  1  0.30427000  0.70109000  0.06373000  1.0 0.0197587653
C  C583  1  0.29891000  0.69573000  0.56373000  1.0 0.0197587653
C  C584  1  0.69573000  0.29891000  0.93627000  1.0 0.0197587653
C  C585  1  0.65709000  0.33213000  0.41128000  1.0 -0.009690717
C  C586  1  0.33213000  0.65709000  0.08872000  1.0 -0.009690717
C  C587  1  0.34291000  0.66787000  0.58872000  1.0 -0.009690717
C  C588  1  0.66787000  0.34291000  0.91128000  1.0 -0.009690717
C  C589  1  0.62865000  0.35291000  0.36082000  1.0 0.0091154506
C  C590  1  0.35291000  0.62865000  0.13918000  1.0 0.0091154506
C  C591  1  0.37135000  0.64709000  0.63918000  1.0 0.0091154506
C  C592  1  0.64709000  0.37135000  0.86082000  1.0 0.0091154506
C  C593  1  0.64149000  0.34413000  0.33262000  1.0 0.0596822101
C  C594  1  0.34413000  0.64149000  0.16738000  1.0 0.0596822101
C  C595  1  0.35851000  0.65587000  0.66738000  1.0 0.0596822101
C  C596  1  0.65587000  0.35851000  0.83262000  1.0 0.0596822101
C  C597  1  0.68551000  0.31331000  0.35809000  1.0 -0.1001091235
C  C598  1  0.31331000  0.68551000  0.14191000  1.0 -0.1001091235
C  C599  1  0.31449000  0.68669000  0.64191000  1.0 -0.1001091235
C  C600  1  0.68669000  0.31449000  0.85809000  1.0 -0.1001091235
C  C601  1  0.71477000  0.16191000  0.34570000  1.0 0.0887314357
C  C602  1  0.16191000  0.71477000  0.15430000  1.0 0.0887314357
C  C603  1  0.28523000  0.83809000  0.65430000  1.0 0.0887314357
C  C604  1  0.83809000  0.28523000  0.84570000  1.0 0.0887314357
C  C605  1  0.68755000  0.13577000  0.36411000  1.0 -0.009690717
C  C606  1  0.13577000  0.68755000  0.13589000  1.0 -0.009690717
C  C607  1  0.31245000  0.86423000  0.63589000  1.0 -0.009690717
C  C608  1  0.86423000  0.31245000  0.86411000  1.0 -0.009690717
C  C609  1  0.68971000  0.09173000  0.36756000  1.0 0.0297981154
C  C610  1  0.09173000  0.68971000  0.13244000  1.0 0.0297981154
C  C611  1  0.31029000  0.90827000  0.63244000  1.0 0.0297981154
C  C612  1  0.90827000  0.31029000  0.86756000  1.0 0.0297981154
C  C613  1  0.71572000  0.07594000  0.35417000  1.0 0.0091154506
C  C614  1  0.07594000  0.71572000  0.14583000  1.0 0.0091154506
C  C615  1  0.28428000  0.92406000  0.64583000  1.0 0.0091154506
C  C616  1  0.92406000  0.28428000  0.85417000  1.0 0.0091154506
C  C617  1  0.74400000  0.10182000  0.33877000  1.0 0.0887314357
C  C618  1  0.10182000  0.74400000  0.16123000  1.0 0.0887314357
C  C619  1  0.25600000  0.89818000  0.66123000  1.0 0.0887314357
C  C620  1  0.89818000  0.25600000  0.83877000  1.0 0.0887314357
C  C621  1  0.74214000  0.14566000  0.33678000  1.0 -0.1001091235
C  C622  1  0.14566000  0.74214000  0.16322000  1.0 -0.1001091235
C  C623  1  0.25786000  0.85434000  0.66322000  1.0 -0.1001091235
C  C624  1  0.85434000  0.25786000  0.83678000  1.0 -0.1001091235
C  C625  1  0.68188000  0.25372000  0.19115000  1.0 0.0989236522
C  C626  1  0.25372000  0.68188000  0.30885000  1.0 0.0989236522
C  C627  1  0.31812000  0.74628000  0.80885000  1.0 0.0989236522
C  C628  1  0.74628000  0.31812000  0.69115000  1.0 0.0989236522
C  C629  1  0.66735000  0.21263000  0.20613000  1.0 -0.0397200449
C  C630  1  0.21263000  0.66735000  0.29387000  1.0 -0.0397200449
C  C631  1  0.33265000  0.78737000  0.79387000  1.0 -0.0397200449
C  C632  1  0.78737000  0.33265000  0.70613000  1.0 -0.0397200449
C  C633  1  0.62277000  0.21291000  0.17213000  1.0 0.0708951342
C  C634  1  0.21291000  0.62277000  0.32787000  1.0 0.0708951342
C  C635  1  0.37723000  0.78709000  0.82787000  1.0 0.0708951342
C  C636  1  0.78709000  0.37723000  0.67213000  1.0 0.0708951342
C  C637  1  0.59403000  0.25927000  0.11468000  1.0 0.0596822101
C  C638  1  0.25927000  0.59403000  0.38532000  1.0 0.0493422328
C  C639  1  0.40597000  0.74073000  0.88532000  1.0 0.0493422328
C  C640  1  0.74073000  0.40597000  0.61468000  1.0 0.0596822101
C  C641  1  0.61657000  0.29049000  0.10265000  1.0 -0.0703846119
C  C642  1  0.29049000  0.61657000  0.39735000  1.0 -0.0703846119
C  C643  1  0.38343000  0.70951000  0.89735000  1.0 -0.0703846119
C  C644  1  0.70951000  0.38343000  0.60265000  1.0 -0.0703846119
C  C645  1  0.65734000  0.29036000  0.12774000  1.0 -0.0703846119
C  C646  1  0.29036000  0.65734000  0.37226000  1.0 -0.0703846119
C  C647  1  0.34266000  0.70964000  0.87226000  1.0 -0.0703846119
C  C648  1  0.70964000  0.34266000  0.62774000  1.0 -0.0703846119
C  C649  1  0.72886000  0.26770000  0.09738000  1.0 0.0989236522
C  C650  1  0.26770000  0.72886000  0.40262000  1.0 0.0989236522
C  C651  1  0.27114000  0.73230000  0.90262000  1.0 0.0989236522
C  C652  1  0.73230000  0.27114000  0.59738000  1.0 0.0989236522
C  C653  1  0.73687000  0.22151000  0.14188000  1.0 -0.1186723032
C  C654  1  0.22151000  0.73687000  0.35812000  1.0 -0.1186723032
C  C655  1  0.26313000  0.77849000  0.85812000  1.0 -0.1186723032
C  C656  1  0.77849000  0.26313000  0.64188000  1.0 -0.1186723032
C  C657  1  0.64732000  0.25008000  0.04680000  1.0 -0.009690717
C  C658  1  0.25008000  0.64732000  0.45320000  1.0 -0.009690717
C  C659  1  0.35268000  0.74992000  0.95320000  1.0 -0.009690717
C  C660  1  0.74992000  0.35268000  0.54680000  1.0 -0.009690717
C  C661  1  0.66206000  0.26842000  0.02754000  1.0 0.0887314357
C  C662  1  0.26842000  0.66206000  0.47246000  1.0 0.0989236522
C  C663  1  0.33794000  0.73158000  0.97246000  1.0 0.0989236522
C  C664  1  0.73158000  0.33794000  0.52754000  1.0 0.0887314357
C  C665  1  0.70308000  0.28780000  0.05379000  1.0 -0.0621928253
C  C666  1  0.28780000  0.70308000  0.44621000  1.0 -0.0621928253
C  C667  1  0.29692000  0.71220000  0.94621000  1.0 -0.0621928253
C  C668  1  0.71220000  0.29692000  0.55379000  1.0 -0.0621928253
C  C669  1  0.78427000  0.37575000  0.95148000  1.0 0.0989236522
C  C670  1  0.37575000  0.78427000  0.54852000  1.0 0.0989236522
C  C671  1  0.21573000  0.62425000  0.04852000  1.0 0.0989236522
C  C672  1  0.62425000  0.21573000  0.45148000  1.0 0.0989236522
C  C673  1  0.76443000  0.37543000  0.90701000  1.0 -0.0492711631
C  C674  1  0.37543000  0.76443000  0.59299000  1.0 -0.0492711631
C  C675  1  0.23557000  0.62457000  0.09299000  1.0 -0.0492711631
C  C676  1  0.62457000  0.23557000  0.40701000  1.0 -0.0492711631
C  C677  1  0.76334000  0.41046000  0.86477000  1.0 0.0493422328
C  C678  1  0.41046000  0.76334000  0.63523000  1.0 0.0493422328
C  C679  1  0.23666000  0.58954000  0.13523000  1.0 0.0493422328
C  C680  1  0.58954000  0.23666000  0.36477000  1.0 0.0493422328
C  C681  1  0.77395000  0.45189000  0.86513000  1.0 0.0402564032
C  C682  1  0.45189000  0.77395000  0.63487000  1.0 0.0402564032
C  C683  1  0.22605000  0.54811000  0.13487000  1.0 0.0402564032
C  C684  1  0.54811000  0.22605000  0.36513000  1.0 0.0402564032
C  C685  1  0.79517000  0.45019000  0.91082000  1.0 0.0402564032
C  C686  1  0.45019000  0.79517000  0.58918000  1.0 0.0402564032
C  C687  1  0.20483000  0.54981000  0.08918000  1.0 0.0402564032
C  C688  1  0.54981000  0.20483000  0.41082000  1.0 0.0402564032
C  C689  1  0.80022000  0.41212000  0.95303000  1.0 -0.108904447
C  C690  1  0.41212000  0.80022000  0.54697000  1.0 -0.108904447
C  C691  1  0.19978000  0.58788000  0.04697000  1.0 -0.108904447
C  C692  1  0.58788000  0.19978000  0.45303000  1.0 -0.1001091235
C  C693  1  0.69369000  0.42905000  0.97575000  1.0 0.0774627106
C  C694  1  0.42905000  0.69369000  0.52425000  1.0 0.0774627106
C  C695  1  0.30631000  0.57095000  0.02425000  1.0 0.0774627106
C  C696  1  0.57095000  0.30631000  0.47575000  1.0 0.0774627106
C  C697  1  0.66687000  0.40753000  0.99168000  1.0 -0.108904447
C  C698  1  0.40753000  0.66687000  0.50832000  1.0 -0.108904447
C  C699  1  0.33313000  0.59247000  0.00832000  1.0 -0.108904447
C  C700  1  0.59247000  0.33313000  0.49168000  1.0 -0.1001091235
C  C701  1  0.62239000  0.40749000  0.95734000  1.0 0.0774627106
C  C702  1  0.40749000  0.62239000  0.54266000  1.0 0.0774627106
C  C703  1  0.37761000  0.59251000  0.04266000  1.0 0.0774627106
C  C704  1  0.59251000  0.37761000  0.45734000  1.0 0.0774627106
C  C705  1  0.61094000  0.43410000  0.90559000  1.0 0.0197587653
C  C706  1  0.43410000  0.61094000  0.59441000  1.0 0.0197587653
C  C707  1  0.38906000  0.56590000  0.09441000  1.0 0.0197587653
C  C708  1  0.56590000  0.38906000  0.40559000  1.0 0.0197587653
C  C709  1  0.63626000  0.45494000  0.89072000  1.0 -0.009690717
C  C710  1  0.45494000  0.63626000  0.60928000  1.0 -0.009690717
C  C711  1  0.36374000  0.54506000  0.10928000  1.0 -0.009690717
C  C712  1  0.54506000  0.36374000  0.39072000  1.0 -0.009690717
C  C713  1  0.68027000  0.45199000  0.92425000  1.0 0.0021378311
C  C714  1  0.45199000  0.68027000  0.57575000  1.0 -0.0024671002
C  C715  1  0.31973000  0.54801000  0.07575000  1.0 -0.0024671002
C  C716  1  0.54801000  0.31973000  0.42425000  1.0 0.0021378311
C  C717  1  0.64926000  0.53524000  0.99173000  1.0 0.0708951342
C  C718  1  0.53524000  0.64926000  0.50827000  1.0 0.0596822101
C  C719  1  0.35074000  0.46476000  0.00827000  1.0 0.0596822101
C  C720  1  0.46476000  0.35074000  0.49173000  1.0 0.0596822101
C  C721  1  0.63613000  0.51051000  0.97773000  1.0 -0.0397200449
C  C722  1  0.51051000  0.63613000  0.52227000  1.0 -0.0397200449
C  C723  1  0.36387000  0.48949000  0.02227000  1.0 -0.0397200449
C  C724  1  0.48949000  0.36387000  0.47773000  1.0 -0.0397200449
C  C725  1  0.59289000  0.52113000  0.93297000  1.0 0.0021378311
C  C726  1  0.52113000  0.59289000  0.56703000  1.0 0.0091154506
C  C727  1  0.40711000  0.47887000  0.06703000  1.0 0.0021378311
C  C728  1  0.47887000  0.40711000  0.43297000  1.0 0.0021378311
C  C729  1  0.57073000  0.56107000  0.90181000  1.0 -0.0492711631
C  C730  1  0.56107000  0.57073000  0.59819000  1.0 -0.0492711631
C  C731  1  0.42927000  0.43893000  0.09819000  1.0 -0.0492711631
C  C732  1  0.43893000  0.42927000  0.40181000  1.0 -0.0492711631
C  C733  1  0.58349000  0.59491000  0.90015000  1.0 0.0197587653
C  C734  1  0.59491000  0.58349000  0.59985000  1.0 0.0197587653
C  C735  1  0.41651000  0.40509000  0.09985000  1.0 0.0197587653
C  C736  1  0.40509000  0.41651000  0.40015000  1.0 0.0197587653
C  C737  1  0.63093000  0.58399000  0.95818000  1.0 -0.0186304989
C  C738  1  0.58399000  0.63093000  0.54182000  1.0 -0.0186304989
C  C739  1  0.36907000  0.41601000  0.04182000  1.0 -0.0186304989
C  C740  1  0.41601000  0.36907000  0.45818000  1.0 -0.0186304989
C  C741  1  0.70299000  0.67911000  0.96872000  1.0 0.0989236522
C  C742  1  0.67911000  0.70299000  0.53128000  1.0 0.0887314357
C  C743  1  0.29701000  0.32089000  0.03128000  1.0 0.0989236522
C  C744  1  0.32089000  0.29701000  0.46872000  1.0 0.0887314357
C  C745  1  0.70445000  0.64877000  0.95417000  1.0 -0.0703846119
C  C746  1  0.64877000  0.70445000  0.54583000  1.0 -0.0703846119
C  C747  1  0.29555000  0.35123000  0.04583000  1.0 -0.0703846119
C  C748  1  0.35123000  0.29555000  0.45417000  1.0 -0.0703846119
C  C749  1  0.66728000  0.66228000  0.90525000  1.0 0.0708951342
C  C750  1  0.66228000  0.66728000  0.59475000  1.0 0.0708951342
C  C751  1  0.33272000  0.33772000  0.09475000  1.0 0.0708951342
C  C752  1  0.33772000  0.33272000  0.40525000  1.0 0.0708951342
C  C753  1  0.63205000  0.70127000  0.87465000  1.0 -0.0024671002
C  C754  1  0.70127000  0.63205000  0.62535000  1.0 -0.0024671002
C  C755  1  0.36795000  0.29873000  0.12535000  1.0 -0.0024671002
C  C756  1  0.29873000  0.36795000  0.37465000  1.0 -0.0024671002
C  C757  1  0.63242000  0.73132000  0.89011000  1.0 0.0402564032
C  C758  1  0.73132000  0.63242000  0.60989000  1.0 0.0402564032
C  C759  1  0.36758000  0.26868000  0.10989000  1.0 0.0402564032
C  C760  1  0.26868000  0.36758000  0.39011000  1.0 0.0402564032
C  C761  1  0.66809000  0.72045000  0.93745000  1.0 -0.0793051679
C  C762  1  0.72045000  0.66809000  0.56255000  1.0 -0.0703846119
C  C763  1  0.33191000  0.27955000  0.06255000  1.0 -0.0703846119
C  C764  1  0.27955000  0.33191000  0.43745000  1.0 -0.0793051679
C  C765  1  0.09906000  0.16422000  0.40193000  1.0 -0.0621928253
C  C766  1  0.16422000  0.09906000  0.09807000  1.0 -0.0621928253
C  C767  1  0.90094000  0.83578000  0.59807000  1.0 -0.0621928253
C  C768  1  0.83578000  0.90094000  0.90193000  1.0 -0.0621928253
C  C769  1  0.12004000  0.19696000  0.38608000  1.0 0.0989236522
C  C770  1  0.19696000  0.12004000  0.11392000  1.0 0.0989236522
C  C771  1  0.87996000  0.80304000  0.61392000  1.0 0.0989236522
C  C772  1  0.80304000  0.87996000  0.88608000  1.0 0.0887314357
C  C773  1  0.16499000  0.18809000  0.39658000  1.0 -0.009690717
C  C774  1  0.18809000  0.16499000  0.10342000  1.0 -0.009690717
C  C775  1  0.83501000  0.81191000  0.60342000  1.0 -0.0024671002
C  C776  1  0.81191000  0.83501000  0.89658000  1.0 -0.009690717
C  C777  1  0.19232000  0.14164000  0.42708000  1.0 0.0402564032
C  C778  1  0.14164000  0.19232000  0.07292000  1.0 0.0402564032
C  C779  1  0.80768000  0.85836000  0.57292000  1.0 0.0402564032
C  C780  1  0.85836000  0.80768000  0.92708000  1.0 0.0402564032
C  C781  1  0.17570000  0.10632000  0.44859000  1.0 -0.009690717
C  C782  1  0.10632000  0.17570000  0.05141000  1.0 -0.009690717
C  C783  1  0.82430000  0.89368000  0.55141000  1.0 -0.009690717
C  C784  1  0.89368000  0.82430000  0.94859000  1.0 -0.009690717
C  C785  1  0.12850000  0.11362000  0.43540000  1.0 0.0774627106
C  C786  1  0.11362000  0.12850000  0.06460000  1.0 0.0774627106
C  C787  1  0.87150000  0.88638000  0.56460000  1.0 0.0774627106
C  C788  1  0.88638000  0.87150000  0.93540000  1.0 0.0774627106
C  C789  1  0.62203000  0.75507000  0.04523000  1.0 0.0887314357
C  C790  1  0.75507000  0.62203000  0.45477000  1.0 0.0887314357
C  C791  1  0.37797000  0.24493000  0.95477000  1.0 0.0887314357
C  C792  1  0.24493000  0.37797000  0.54523000  1.0 0.0887314357
C  C793  1  0.57789000  0.78673000  0.01730000  1.0 -0.0024671002
C  C794  1  0.78673000  0.57789000  0.48270000  1.0 -0.009690717
C  C795  1  0.42211000  0.21327000  0.98270000  1.0 -0.009690717
C  C796  1  0.21327000  0.42211000  0.51730000  1.0 -0.009690717
C  C797  1  0.55585000  0.79559000  0.03950000  1.0 0.0596822101
C  C798  1  0.79559000  0.55585000  0.46050000  1.0 0.0596822101
C  C799  1  0.44415000  0.20441000  0.96050000  1.0 0.0596822101
C  C800  1  0.20441000  0.44415000  0.53950000  1.0 0.0596822101
C  C801  1  0.58304000  0.76526000  0.09493000  1.0 0.0197587653
C  C802  1  0.76526000  0.58304000  0.40507000  1.0 0.0197587653
C  C803  1  0.41696000  0.23474000  0.90507000  1.0 0.0197587653
C  C804  1  0.23474000  0.41696000  0.59493000  1.0 0.0197587653
C  C805  1  0.62514000  0.73872000  0.12089000  1.0 0.0402564032
C  C806  1  0.73872000  0.62514000  0.37911000  1.0 0.0402564032
C  C807  1  0.37486000  0.26128000  0.87911000  1.0 0.0402564032
C  C808  1  0.26128000  0.37486000  0.62089000  1.0 0.0402564032
C  C809  1  0.64692000  0.73366000  0.09515000  1.0 -0.0297842323
C  C810  1  0.73366000  0.64692000  0.40485000  1.0 -0.0297842323
C  C811  1  0.35308000  0.26634000  0.90485000  1.0 -0.0297842323
C  C812  1  0.26634000  0.35308000  0.59515000  1.0 -0.0297842323
C  C813  1  0.61535000  0.63059000  0.07638000  1.0 0.1227288453
C  C814  1  0.63059000  0.61535000  0.42362000  1.0 0.1227288453
C  C815  1  0.38465000  0.36941000  0.92362000  1.0 0.1227288453
C  C816  1  0.36941000  0.38465000  0.57638000  1.0 0.1227288453
C  C817  1  0.57466000  0.67138000  0.04022000  1.0 -0.1001091235
C  C818  1  0.67138000  0.57466000  0.45978000  1.0 -0.1001091235
C  C819  1  0.42534000  0.32862000  0.95978000  1.0 -0.1001091235
C  C820  1  0.32862000  0.42534000  0.54022000  1.0 -0.1001091235
C  C821  1  0.54684000  0.68034000  0.05604000  1.0 0.0708951342
C  C822  1  0.68034000  0.54684000  0.44396000  1.0 0.0708951342
C  C823  1  0.45316000  0.31966000  0.94396000  1.0 0.0774627106
C  C824  1  0.31966000  0.45316000  0.55604000  1.0 0.0708951342
C  C825  1  0.56534000  0.64632000  0.11507000  1.0 -0.009690717
C  C826  1  0.64632000  0.56534000  0.38493000  1.0 -0.009690717
C  C827  1  0.43466000  0.35368000  0.88493000  1.0 -0.009690717
C  C828  1  0.35368000  0.43466000  0.61507000  1.0 -0.009690717
C  C829  1  0.61057000  0.61307000  0.15032000  1.0 -0.0186304989
C  C830  1  0.61307000  0.61057000  0.34968000  1.0 -0.0186304989
C  C831  1  0.38943000  0.38693000  0.84968000  1.0 -0.0186304989
C  C832  1  0.38693000  0.38943000  0.65032000  1.0 -0.0186304989
C  C833  1  0.63066000  0.61108000  0.13317000  1.0 -0.0492711631
C  C834  1  0.61108000  0.63066000  0.36683000  1.0 -0.0492711631
C  C835  1  0.36934000  0.38892000  0.86683000  1.0 -0.0492711631
C  C836  1  0.38892000  0.36934000  0.63317000  1.0 -0.0492711631
C  C837  1  0.63554000  0.35290000  0.21124000  1.0 0.0887314357
C  C838  1  0.35290000  0.63554000  0.28876000  1.0 0.0887314357
C  C839  1  0.36446000  0.64710000  0.78876000  1.0 0.0887314357
C  C840  1  0.64710000  0.36446000  0.71124000  1.0 0.0887314357
C  C841  1  0.60749000  0.38551000  0.16321000  1.0 -0.009690717
C  C842  1  0.38551000  0.60749000  0.33679000  1.0 -0.009690717
C  C843  1  0.39251000  0.61449000  0.83679000  1.0 -0.009690717
C  C844  1  0.61449000  0.39251000  0.66321000  1.0 -0.009690717
C  C845  1  0.55413000  0.39727000  0.13575000  1.0 0.0774627106
C  C846  1  0.39727000  0.55413000  0.36425000  1.0 0.0708951342
C  C847  1  0.44587000  0.60273000  0.86425000  1.0 0.0708951342
C  C848  1  0.60273000  0.44587000  0.63575000  1.0 0.0708951342
C  C849  1  0.54335000  0.36099000  0.16279000  1.0 -0.0397200449
C  C850  1  0.36099000  0.54335000  0.33721000  1.0 -0.0397200449
C  C851  1  0.45665000  0.63901000  0.83721000  1.0 -0.0397200449
C  C852  1  0.63901000  0.45665000  0.66279000  1.0 -0.0397200449
C  C853  1  0.57124000  0.32476000  0.21042000  1.0 -0.0186304989
C  C854  1  0.32476000  0.57124000  0.28958000  1.0 -0.0186304989
C  C855  1  0.42876000  0.67524000  0.78958000  1.0 -0.009690717
C  C856  1  0.67524000  0.42876000  0.71042000  1.0 -0.0186304989
C  C857  1  0.61571000  0.32499000  0.23327000  1.0 -0.0703846119
C  C858  1  0.32499000  0.61571000  0.26673000  1.0 -0.0703846119
C  C859  1  0.38429000  0.67501000  0.76673000  1.0 -0.0703846119
C  C860  1  0.67501000  0.38429000  0.73327000  1.0 -0.0703846119
C  C861  1  0.61020000  0.49660000  0.08510000  1.0 0.0402564032
C  C862  1  0.49660000  0.61020000  0.41490000  1.0 0.0493422328
C  C863  1  0.38980000  0.50340000  0.91490000  1.0 0.0493422328
C  C864  1  0.50340000  0.38980000  0.58510000  1.0 0.0493422328
C  C865  1  0.01603000  0.48039000  0.40567000  1.0 0.0887314357
C  C866  1  0.48039000  0.01603000  0.09433000  1.0 0.0887314357
C  C867  1  0.98397000  0.51961000  0.59433000  1.0 0.0887314357
C  C868  1  0.51961000  0.98397000  0.90567000  1.0 0.0887314357
C  C869  1  0.05045000  0.46299000  0.45346000  1.0 -0.0186304989
C  C870  1  0.46299000  0.05045000  0.04654000  1.0 -0.0186304989
C  C871  1  0.94955000  0.53701000  0.54654000  1.0 -0.0186304989
C  C872  1  0.53701000  0.94955000  0.95346000  1.0 -0.0186304989
C  C873  1  0.05819000  0.48457000  0.48198000  1.0 0.0596822101
C  C874  1  0.48457000  0.05819000  0.01802000  1.0 0.0596822101
C  C875  1  0.94181000  0.51543000  0.51802000  1.0 0.0596822101
C  C876  1  0.51543000  0.94181000  0.98198000  1.0 0.0596822101
C  C877  1  0.01038000  0.48744000  0.48942000  1.0 0.0197587653
C  C878  1  0.48744000  0.01038000  0.01058000  1.0 0.0197587653
C  C879  1  0.98962000  0.51256000  0.51058000  1.0 0.0197587653
C  C880  1  0.51256000  0.98962000  0.98942000  1.0 0.0197587653
C  C881  1  0.97578000  0.49684000  0.45253000  1.0 0.0297981154
C  C882  1  0.49684000  0.97578000  0.04747000  1.0 0.0297981154
C  C883  1  0.02422000  0.50316000  0.54747000  1.0 0.0197587653
C  C884  1  0.50316000  0.02422000  0.95253000  1.0 0.0197587653
C  C885  1  0.96916000  0.48364000  0.41902000  1.0 -0.1718515534
C  C886  1  0.48364000  0.96916000  0.08098000  1.0 -0.1718515534
C  C887  1  0.03084000  0.51636000  0.58098000  1.0 -0.1718515534
C  C888  1  0.51636000  0.03084000  0.91902000  1.0 -0.1718515534
C  C889  1  0.88030000  0.12928000  0.52541000  1.0 0.0197587653
C  C890  1  0.12928000  0.88030000  0.97459000  1.0 0.0197587653
C  C891  1  0.11970000  0.87072000  0.47459000  1.0 0.0197587653
C  C892  1  0.87072000  0.11970000  0.02541000  1.0 0.0197587653
C  C893  1  0.90612000  0.08030000  0.56059000  1.0 -0.108904447
C  C894  1  0.08030000  0.90612000  0.93941000  1.0 -0.1001091235
C  C895  1  0.09388000  0.91970000  0.43941000  1.0 -0.1001091235
C  C896  1  0.91970000  0.09388000  0.06059000  1.0 -0.1001091235
C  C897  1  0.93260000  0.08042000  0.61944000  1.0 -0.0024671002
C  C898  1  0.08042000  0.93260000  0.88056000  1.0 -0.009690717
C  C899  1  0.06740000  0.91958000  0.38056000  1.0 -0.009690717
C  C900  1  0.91958000  0.06740000  0.11944000  1.0 -0.009690717
C  C901  1  0.93705000  0.12001000  0.61518000  1.0 0.0402564032
C  C902  1  0.12001000  0.93705000  0.88482000  1.0 0.0402564032
C  C903  1  0.06295000  0.87999000  0.38482000  1.0 0.0493422328
C  C904  1  0.87999000  0.06295000  0.11518000  1.0 0.0402564032
C  C905  1  0.91440000  0.16206000  0.57875000  1.0 -0.0621928253
C  C906  1  0.16206000  0.91440000  0.92125000  1.0 -0.0621928253
C  C907  1  0.08560000  0.83794000  0.42125000  1.0 -0.0621928253
C  C908  1  0.83794000  0.08560000  0.07875000  1.0 -0.0621928253
C  C909  1  0.88710000  0.16732000  0.53387000  1.0 -0.0703846119
C  C910  1  0.16732000  0.88710000  0.96613000  1.0 -0.0703846119
C  C911  1  0.11290000  0.83268000  0.46613000  1.0 -0.0703846119
C  C912  1  0.83268000  0.11290000  0.03387000  1.0 -0.0703846119
C  C913  1  0.68639000  0.20229000  0.11175000  1.0 0.11013466
C  C914  1  0.20229000  0.68639000  0.38825000  1.0 0.11013466
C  C915  1  0.31361000  0.79771000  0.88825000  1.0 0.11013466
C  C916  1  0.79771000  0.31361000  0.61175000  1.0 0.11013466
S  S1  1  0.98889000  0.25157000  0.22156000  1.0 -0.2798446347
S  S2  1  0.25157000  0.98889000  0.27844000  1.0 -0.2798446347
S  S3  1  0.01111000  0.74843000  0.77844000  1.0 -0.2695856133
S  S4  1  0.74843000  0.01111000  0.72156000  1.0 -0.2695856133
S  S5  1  0.70905000  0.21555000  0.34089000  1.0 -0.2911515762
S  S6  1  0.21555000  0.70905000  0.15911000  1.0 -0.2798446347
S  S7  1  0.29095000  0.78445000  0.65911000  1.0 -0.2798446347
S  S8  1  0.78445000  0.29095000  0.84089000  1.0 -0.2798446347
S  S9  1  0.77724000  0.28270000  0.12553000  1.0 -0.1995141862
S  S10  1  0.28270000  0.77724000  0.37447000  1.0 -0.1995141862
S  S11  1  0.22276000  0.71730000  0.87447000  1.0 -0.1995141862
S  S12  1  0.71730000  0.22276000  0.62553000  1.0 -0.1900576998
S  S13  1  0.93195000  0.31795000  0.06507000  1.0 -0.2308832734
S  S14  1  0.31795000  0.93195000  0.43493000  1.0 -0.2308832734
S  S15  1  0.06805000  0.68205000  0.93493000  1.0 -0.2308832734
S  S16  1  0.68205000  0.06805000  0.56507000  1.0 -0.2308832734
S  S17  1  0.88632000  0.18536000  0.24095000  1.0 -0.3401663109
S  S18  1  0.18536000  0.88632000  0.25905000  1.0 -0.3306511975
S  S19  1  0.11368000  0.81464000  0.75905000  1.0 -0.3306511975
S  S20  1  0.81464000  0.11368000  0.74095000  1.0 -0.3401663109
S  S21  1  0.06147000  0.23073000  0.46062000  1.0 -0.3753122021
S  S22  1  0.23073000  0.06147000  0.03938000  1.0 -0.3753122021
S  S23  1  0.93853000  0.76927000  0.53938000  1.0 -0.3753122021
S  S24  1  0.76927000  0.93853000  0.96062000  1.0 -0.3729861308
S  S25  1  0.75191000  0.51893000  0.23444000  1.0 -0.2695856133
S  S26  1  0.51893000  0.75191000  0.26556000  1.0 -0.2798446347
S  S27  1  0.24809000  0.48107000  0.76556000  1.0 -0.2695856133
S  S28  1  0.48107000  0.24809000  0.73444000  1.0 -0.2798446347
S  S29  1  0.77169000  0.25673000  0.44377000  1.0 -0.3209030525
S  S30  1  0.25673000  0.77169000  0.05623000  1.0 -0.3209030525
S  S31  1  0.22831000  0.74327000  0.55623000  1.0 -0.3209030525
S  S32  1  0.74327000  0.22831000  0.94377000  1.0 -0.3209030525
S  S33  1  0.00225000  0.45323000  0.37379000  1.0 -0.1791887064
S  S34  1  0.45323000  0.00225000  0.12621000  1.0 -0.1900576998
S  S35  1  0.99775000  0.54677000  0.62621000  1.0 -0.1900576998
S  S36  1  0.54677000  0.99775000  0.87379000  1.0 -0.1791887064
S  S37  1  0.00968000  0.31644000  0.47605000  1.0 -0.2308832734
S  S38  1  0.31644000  0.00968000  0.02395000  1.0 -0.2374314745
S  S39  1  0.99032000  0.68356000  0.52395000  1.0 -0.2308832734
S  S40  1  0.68356000  0.99032000  0.97605000  1.0 -0.2374314745
S  S41  1  0.75740000  0.65156000  0.15389000  1.0 -0.3490470608
S  S42  1  0.65156000  0.75740000  0.34611000  1.0 -0.3490470608
S  S43  1  0.24260000  0.34844000  0.84611000  1.0 -0.3490470608
S  S44  1  0.34844000  0.24260000  0.65389000  1.0 -0.3490470608
S  S45  1  0.75758000  0.38868000  0.34072000  1.0 -0.3035633494
S  S46  1  0.38868000  0.75758000  0.15928000  1.0 -0.3035633494
S  S47  1  0.24242000  0.61132000  0.65928000  1.0 -0.3035633494
S  S48  1  0.61132000  0.24242000  0.84072000  1.0 -0.3035633494
S  S49  1  0.86815000  0.26727000  0.97878000  1.0 -0.1995141862
S  S50  1  0.26727000  0.86815000  0.52122000  1.0 -0.1995141862
S  S51  1  0.13185000  0.73273000  0.02122000  1.0 -0.1995141862
S  S52  1  0.73273000  0.13185000  0.47878000  1.0 -0.1995141862
S  S53  1  0.87975000  0.55311000  0.27088000  1.0 -0.2695856133
S  S54  1  0.55311000  0.87975000  0.22912000  1.0 -0.2695856133
S  S55  1  0.12025000  0.44689000  0.72912000  1.0 -0.2637069453
S  S56  1  0.44689000  0.12025000  0.77088000  1.0 -0.2695856133
S  S57  1  0.64359000  0.74871000  0.01064000  1.0 -0.3490470608
S  S58  1  0.74871000  0.64359000  0.48936000  1.0 -0.3490470608
S  S59  1  0.35641000  0.25129000  0.98936000  1.0 -0.3490470608
S  S60  1  0.25129000  0.35641000  0.51064000  1.0 -0.3490470608
S  S61  1  0.99419000  0.38995000  0.13499000  1.0 -0.3092160192
S  S62  1  0.38995000  0.99419000  0.36501000  1.0 -0.3092160192
S  S63  1  0.00581000  0.61005000  0.86501000  1.0 -0.3092160192
S  S64  1  0.61005000  0.00581000  0.63499000  1.0 -0.3092160192
S  S65  1  0.97701000  0.20611000  0.34909000  1.0 -0.6597314258
S  S66  1  0.20611000  0.97701000  0.15091000  1.0 -0.6597314258
S  S67  1  0.02299000  0.79389000  0.65091000  1.0 -0.6597314258
S  S68  1  0.79389000  0.02299000  0.84909000  1.0 -0.6597314258
S  S69  1  0.12471000  0.36357000  0.48855000  1.0 -0.3092160192
S  S70  1  0.36357000  0.12471000  0.01145000  1.0 -0.3092160192
S  S71  1  0.87529000  0.63643000  0.51145000  1.0 -0.3092160192
S  S72  1  0.63643000  0.87529000  0.98855000  1.0 -0.3092160192
S  S73  1  0.80794000  0.55814000  0.03136000  1.0 -0.3092160192
S  S74  1  0.55814000  0.80794000  0.46864000  1.0 -0.3092160192
S  S75  1  0.19206000  0.44186000  0.96864000  1.0 -0.3035633494
S  S76  1  0.44186000  0.19206000  0.53136000  1.0 -0.3092160192
S  S77  1  0.88010000  0.42242000  0.36627000  1.0 -0.6364026893
S  S78  1  0.42242000  0.88010000  0.13373000  1.0 -0.6319189002
S  S79  1  0.11990000  0.57758000  0.63373000  1.0 -0.6319189002
S  S80  1  0.57758000  0.11990000  0.86627000  1.0 -0.6364026893
S  S81  1  0.65212000  0.61858000  0.06610000  1.0 -0.1718515534
S  S82  1  0.61858000  0.65212000  0.43390000  1.0 -0.1791887064
S  S83  1  0.34788000  0.38142000  0.93390000  1.0 -0.1791887064
S  S84  1  0.38142000  0.34788000  0.56610000  1.0 -0.1791887064
S  S85  1  0.85081000  0.18037000  0.33740000  1.0 -0.3092160192
S  S86  1  0.18037000  0.85081000  0.16260000  1.0 -0.3092160192
S  S87  1  0.14919000  0.81963000  0.66260000  1.0 -0.3092160192
S  S88  1  0.81963000  0.14919000  0.83740000  1.0 -0.3092160192
S  S89  1  0.89043000  0.28613000  0.45794000  1.0 -0.3401663109
S  S90  1  0.28613000  0.89043000  0.04206000  1.0 -0.3401663109
S  S91  1  0.10957000  0.71387000  0.54206000  1.0 -0.3401663109
S  S92  1  0.71387000  0.10957000  0.95794000  1.0 -0.3401663109
S  S93  1  0.89981000  0.20881000  0.12725000  1.0 -0.1476629391
S  S94  1  0.20881000  0.89981000  0.37275000  1.0 -0.1307704319
S  S95  1  0.10019000  0.79119000  0.87275000  1.0 -0.1476629391
S  S96  1  0.79119000  0.10019000  0.62725000  1.0 -0.1476629391
S  S97  1  0.66697000  0.48617000  0.14770000  1.0 -0.3092160192
S  S98  1  0.48617000  0.66697000  0.35230000  1.0 -0.3092160192
S  S99  1  0.33303000  0.51383000  0.85230000  1.0 -0.3092160192
S  S100  1  0.51383000  0.33303000  0.64770000  1.0 -0.3092160192
S  S101  1  0.84350000  0.14642000  0.46510000  1.0 0.0887314357
S  S102  1  0.14642000  0.84350000  0.03490000  1.0 0.0887314357
S  S103  1  0.15650000  0.85358000  0.53490000  1.0 0.0887314357
S  S104  1  0.85358000  0.15650000  0.96510000  1.0 0.0887314357
S  S105  1  0.73926000  0.24660000  0.22826000  1.0 -0.1791887064
S  S106  1  0.24660000  0.73926000  0.27174000  1.0 -0.1900576998
S  S107  1  0.26074000  0.75340000  0.77174000  1.0 -0.1900576998
S  S108  1  0.75340000  0.26074000  0.72826000  1.0 -0.1791887064
S  S109  1  0.95109000  0.18909000  0.45986000  1.0 -0.3209030525
S  S110  1  0.18909000  0.95109000  0.04014000  1.0 -0.3092160192
S  S111  1  0.04891000  0.81091000  0.54014000  1.0 -0.3092160192
S  S112  1  0.81091000  0.04891000  0.95986000  1.0 -0.3209030525
S  S113  1  0.82883000  0.43393000  0.13725000  1.0 -0.7501045991
S  S114  1  0.43393000  0.82883000  0.36275000  1.0 -0.7501045991
S  S115  1  0.17117000  0.56607000  0.86275000  1.0 -0.7554621626
S  S116  1  0.56607000  0.17117000  0.63725000  1.0 -0.7501045991
S  S117  1  0.04040000  0.35794000  0.36276000  1.0 -0.6806214878
S  S118  1  0.35794000  0.04040000  0.13724000  1.0 -0.6806214878
S  S119  1  0.95960000  0.64206000  0.63724000  1.0 -0.6806214878
S  S120  1  0.64206000  0.95960000  0.86276000  1.0 -0.6806214878
S  S121  1  0.84443000  0.30067000  0.23867000  1.0 -0.74239814
S  S122  1  0.30067000  0.84443000  0.26133000  1.0 -0.7501045991
S  S123  1  0.15557000  0.69933000  0.76133000  1.0 -0.74239814
S  S124  1  0.69933000  0.15557000  0.73867000  1.0 -0.74239814
S  S125  1  0.14972000  0.41204000  0.37311000  1.0 -0.3306511975
S  S126  1  0.41204000  0.14972000  0.12689000  1.0 -0.3306511975
S  S127  1  0.85028000  0.58796000  0.62689000  1.0 -0.3306511975
S  S128  1  0.58796000  0.85028000  0.87311000  1.0 -0.3306511975
S  S129  1  0.91171000  0.45055000  0.25539000  1.0 -0.7501045991
S  S130  1  0.45055000  0.91171000  0.24461000  1.0 -0.74239814
S  S131  1  0.08829000  0.54945000  0.74461000  1.0 -0.74239814
S  S132  1  0.54945000  0.08829000  0.75539000  1.0 -0.74239814
S  S133  1  0.79551000  0.40609000  0.24429000  1.0 -0.74239814
S  S134  1  0.40609000  0.79551000  0.25571000  1.0 -0.74239814
S  S135  1  0.20449000  0.59391000  0.75571000  1.0 -0.74239814
S  S136  1  0.59391000  0.20449000  0.74429000  1.0 -0.74239814
S  S137  1  0.95980000  0.34562000  0.24597000  1.0 -0.74239814
S  S138  1  0.34562000  0.95980000  0.25403000  1.0 -0.74239814
S  S139  1  0.04020000  0.65438000  0.75403000  1.0 -0.74239814
S  S140  1  0.65438000  0.04020000  0.74597000  1.0 -0.74239814
S  S141  1  0.92848000  0.31600000  0.35572000  1.0 -0.7501045991
S  S142  1  0.31600000  0.92848000  0.14428000  1.0 -0.7501045991
S  S143  1  0.07152000  0.68400000  0.64428000  1.0 -0.7501045991
S  S144  1  0.68400000  0.07152000  0.85572000  1.0 -0.7501045991
S  S145  1  0.78322000  0.53684000  0.14635000  1.0 -0.6806214878
S  S146  1  0.53684000  0.78322000  0.35365000  1.0 -0.6723298658
S  S147  1  0.21678000  0.46316000  0.85365000  1.0 -0.6723298658
S  S148  1  0.46316000  0.21678000  0.64635000  1.0 -0.6723298658
S  S149  1  0.81410000  0.27480000  0.34616000  1.0 -0.6723298658
S  S150  1  0.27480000  0.81410000  0.15384000  1.0 -0.6723298658
S  S151  1  0.18590000  0.72520000  0.65384000  1.0 -0.6723298658
S  S152  1  0.72520000  0.18590000  0.84616000  1.0 -0.6723298658
S  S153  1  0.87550000  0.32492000  0.13467000  1.0 -0.6806214878
S  S154  1  0.32492000  0.87550000  0.36533000  1.0 -0.6806214878
S  S155  1  0.12450000  0.67508000  0.86533000  1.0 -0.6806214878
S  S156  1  0.67508000  0.12450000  0.63467000  1.0 -0.6806214878
S  S157  1  0.70344000  0.52588000  0.03991000  1.0 -0.2142204572
S  S158  1  0.52588000  0.70344000  0.46009000  1.0 -0.2142204572
S  S159  1  0.29656000  0.47412000  0.96009000  1.0 -0.2198913996
S  S160  1  0.47412000  0.29656000  0.53991000  1.0 -0.2198913996
S  S161  1  0.94659000  0.48607000  0.14559000  1.0 -0.6806214878
S  S162  1  0.48607000  0.94659000  0.35441000  1.0 -0.6806214878
S  S163  1  0.05341000  0.51393000  0.85441000  1.0 -0.6806214878
S  S164  1  0.51393000  0.05341000  0.64559000  1.0 -0.6723298658
S  S165  1  0.01662000  0.50142000  0.26914000  1.0 -0.3092160192
S  S166  1  0.50142000  0.01662000  0.23086000  1.0 -0.3092160192
S  S167  1  0.98338000  0.49858000  0.73086000  1.0 -0.3092160192
S  S168  1  0.49858000  0.98338000  0.76914000  1.0 -0.3035633494
S  S169  1  0.74877000  0.42985000  0.01782000  1.0 -0.2911515762
S  S170  1  0.42985000  0.74877000  0.48218000  1.0 -0.2911515762
S  S171  1  0.25123000  0.57015000  0.98218000  1.0 -0.2911515762
S  S172  1  0.57015000  0.25123000  0.51782000  1.0 -0.2911515762
S  S173  1  0.17303000  0.27109000  0.46384000  1.0 -0.3306511975
S  S174  1  0.27109000  0.17303000  0.03616000  1.0 -0.3306511975
S  S175  1  0.82697000  0.72891000  0.53616000  1.0 -0.3306511975
S  S176  1  0.72891000  0.82697000  0.96384000  1.0 -0.3306511975
S  S177  1  0.74775000  0.66731000  0.02841000  1.0 -0.3490470608
S  S178  1  0.66731000  0.74775000  0.47159000  1.0 -0.3490470608
S  S179  1  0.25225000  0.33269000  0.97159000  1.0 -0.3401663109
S  S180  1  0.33269000  0.25225000  0.52841000  1.0 -0.3401663109
S  S181  1  0.87101000  0.44585000  0.04529000  1.0 -0.3209030525
S  S182  1  0.44585000  0.87101000  0.45471000  1.0 -0.3209030525
S  S183  1  0.12899000  0.55415000  0.95471000  1.0 -0.3209030525
S  S184  1  0.55415000  0.12899000  0.54529000  1.0 -0.3209030525
S  S185  1  0.07329000  0.38791000  0.26619000  1.0 -0.3209030525
S  S186  1  0.38791000  0.07329000  0.23381000  1.0 -0.3209030525
S  S187  1  0.92671000  0.61209000  0.73381000  1.0 -0.3209030525
S  S188  1  0.61209000  0.92671000  0.76619000  1.0 -0.3209030525
S  S189  1  0.69377000  0.34951000  0.24613000  1.0 -0.2695856133
S  S190  1  0.34951000  0.69377000  0.25387000  1.0 -0.2695856133
S  S191  1  0.30623000  0.65049000  0.75387000  1.0 -0.2695856133
S  S192  1  0.65049000  0.30623000  0.74613000  1.0 -0.2695856133
S  S193  1  0.78813000  0.32665000  0.00373000  1.0 -0.3306511975
S  S194  1  0.32665000  0.78813000  0.49627000  1.0 -0.3209030525
S  S195  1  0.21187000  0.67335000  0.99627000  1.0 -0.3209030525
S  S196  1  0.67335000  0.21187000  0.50373000  1.0 -0.3209030525
S  S197  1  0.08581000  0.25689000  0.34439000  1.0 -0.3306511975
S  S198  1  0.25689000  0.08581000  0.15561000  1.0 -0.3306511975
S  S199  1  0.91419000  0.74311000  0.65561000  1.0 -0.3306511975
S  S200  1  0.74311000  0.91419000  0.84439000  1.0 -0.3209030525
S  S201  1  0.88005000  0.58503000  0.15012000  1.0 -0.3401663109
S  S202  1  0.58503000  0.88005000  0.34988000  1.0 -0.3401663109
S  S203  1  0.11995000  0.41497000  0.84988000  1.0 -0.3401663109
S  S204  1  0.41497000  0.11995000  0.65012000  1.0 -0.3401663109
S  S205  1  0.70906000  0.38820000  0.12351000  1.0 -0.6597314258
S  S206  1  0.38820000  0.70906000  0.37649000  1.0 -0.6597314258
S  S207  1  0.29094000  0.61180000  0.87649000  1.0 -0.6597314258
S  S208  1  0.61180000  0.29094000  0.62351000  1.0 -0.6597314258
