# DDEC6 charges by PACMAN v1.1 (https://github.com/mtap-research/PACMAN-charge/)
data_ICIKIP_ASR_pacman
_symmetry_space_group_name_H-M   'P 1'
_cell_length_a   37.12450000
_cell_length_b   35.36540000
_cell_length_c   34.68120000
_cell_angle_alpha   64.00170000
_cell_angle_beta   58.89470000
_cell_angle_gamma   57.10360000
_symmetry_Int_Tables_number   1
_chemical_formula_structural   Cd16C113S26
_chemical_formula_sum   'Cd128 C904 S208'
_cell_volume   31937.58799813
_cell_formula_units_Z   8
loop_
 _symmetry_equiv_pos_site_id
 _symmetry_equiv_pos_as_xyz
  1  'x, y, z'
loop_
 _atom_site_type_symbol
 _atom_site_label
 _atom_site_symmetry_multiplicity
 _atom_site_fract_x
 _atom_site_fract_y
 _atom_site_fract_z
 _atom_site_occupancy
 _atom_site_charge
Cd  Cd1  1  0.46239000  0.49561000  0.96720000  1.0 0.6998718408
Cd  Cd2  1  0.49561000  0.46240000  0.07480000  1.0 0.6998718408
Cd  Cd3  1  0.17520000  0.28281000  0.75440000  1.0 0.6902040668
Cd  Cd4  1  0.28281000  0.17519000  0.78760000  1.0 0.6902040668
Cd  Cd5  1  0.55163000  0.51437000  0.83413000  1.0 0.5497294021
Cd  Cd6  1  0.51437000  0.55163000  0.09987000  1.0 0.5442317155
Cd  Cd7  1  0.15013000  0.41587000  0.73563000  1.0 0.5442317155
Cd  Cd8  1  0.41587000  0.15013000  0.69837000  1.0 0.5497294021
Cd  Cd9  1  0.47553000  0.58795000  0.99033000  1.0 0.6808610486
Cd  Cd10  1  0.58795000  0.47553000  0.94619000  1.0 0.6902040668
Cd  Cd11  1  0.30381000  0.25967000  0.66205000  1.0 0.6808610486
Cd  Cd12  1  0.25967000  0.30381000  0.77447000  1.0 0.6808610486
Cd  Cd13  1  0.57094000  0.59906000  0.85584000  1.0 0.571505738
Cd  Cd14  1  0.59906000  0.57094000  0.97416000  1.0 0.571505738
Cd  Cd15  1  0.27584000  0.39416000  0.65094000  1.0 0.571505738
Cd  Cd16  1  0.39416000  0.27584000  0.67906000  1.0 0.571505738
Cd  Cd17  1  0.44567000  0.62518000  0.87831000  1.0 0.5604604178
Cd  Cd18  1  0.62519000  0.44567000  0.05084000  1.0 0.5604604178
Cd  Cd19  1  0.19917000  0.37169000  0.62482000  1.0 0.5497294021
Cd  Cd20  1  0.37169000  0.19916000  0.80433000  1.0 0.5604604178
Cd  Cd21  1  0.57602000  0.37980000  0.92334000  1.0 0.571505738
Cd  Cd22  1  0.37980000  0.57602000  0.12084000  1.0 0.5604604178
Cd  Cd23  1  0.12916000  0.32666000  0.87020000  1.0 0.5604604178
Cd  Cd24  1  0.32666000  0.12916000  0.67398000  1.0 0.5604604178
Cd  Cd25  1  0.36732000  0.48182000  0.10394000  1.0 0.5878047821
Cd  Cd26  1  0.48182000  0.36732000  0.04692000  1.0 0.5878047821
Cd  Cd27  1  0.20308000  0.14606000  0.76818000  1.0 0.5878047821
Cd  Cd28  1  0.14606000  0.20308000  0.88268000  1.0 0.5878047821
Cd  Cd29  1  0.46728000  0.71466000  0.90146000  1.0 0.5189649887
Cd  Cd30  1  0.71466000  0.46728000  0.91660000  1.0 0.5189649887
Cd  Cd31  1  0.33340000  0.34854000  0.53534000  1.0 0.5189649887
Cd  Cd32  1  0.34854000  0.33340000  0.78272000  1.0 0.5189649887
Cd  Cd33  1  0.47521000  0.67989000  0.03003000  1.0 0.5189649887
Cd  Cd34  1  0.67989000  0.47521000  0.81487000  1.0 0.5189649887
Cd  Cd35  1  0.43513000  0.21997000  0.57011000  1.0 0.5189649887
Cd  Cd36  1  0.21997000  0.43513000  0.77479000  1.0 0.5189649887
Cd  Cd37  1  0.45318000  0.40400000  0.93238000  1.0 0.5262373415
Cd  Cd38  1  0.40400000  0.45318000  0.21044000  1.0 0.5262373415
Cd  Cd39  1  0.03956000  0.31762000  0.84600000  1.0 0.5262373415
Cd  Cd40  1  0.31762000  0.03956000  0.79682000  1.0 0.5262373415
Cd  Cd41  1  0.33642000  0.50300000  0.99938000  1.0 0.5189649887
Cd  Cd42  1  0.50300000  0.33642000  0.16120000  1.0 0.5189649887
Cd  Cd43  1  0.08880000  0.25062000  0.74700000  1.0 0.5189649887
Cd  Cd44  1  0.25062000  0.08880000  0.91358000  1.0 0.5189649887
Cd  Cd45  1  0.34726000  0.60184000  0.01732000  1.0 0.571505738
Cd  Cd46  1  0.60184000  0.34726000  0.03358000  1.0 0.571505738
Cd  Cd47  1  0.21642000  0.23268000  0.64816000  1.0 0.5755262998
Cd  Cd48  1  0.23268000  0.21642000  0.90274000  1.0 0.571505738
Cd  Cd49  1  0.35618000  0.70534000  0.02398000  1.0 0.5189649887
Cd  Cd50  1  0.70534000  0.35618000  0.91450000  1.0 0.5262373415
Cd  Cd51  1  0.33550000  0.22602000  0.54466000  1.0 0.5262373415
Cd  Cd52  1  0.22602000  0.33550000  0.89382000  1.0 0.5189649887
Cd  Cd53  1  0.41804000  0.53990000  0.86188000  1.0 0.5189649887
Cd  Cd54  1  0.53990000  0.41804000  0.18018000  1.0 0.5189649887
Cd  Cd55  1  0.06982000  0.38812000  0.71010000  1.0 0.5189649887
Cd  Cd56  1  0.38812000  0.06982000  0.83196000  1.0 0.5189649887
Cd  Cd57  1  0.39276000  0.80916000  0.97814000  1.0 0.4994408147
Cd  Cd58  1  0.80916000  0.39276000  0.81994000  1.0 0.4994408147
Cd  Cd59  1  0.43006000  0.27186000  0.44084000  1.0 0.4994408147
Cd  Cd60  1  0.27186000  0.43006000  0.85724000  1.0 0.4994408147
Cd  Cd61  1  0.33784000  0.47612000  0.89638000  1.0 0.4994408147
Cd  Cd62  1  0.47612000  0.33784000  0.28966000  1.0 0.4994408147
Cd  Cd63  1  0.96034000  0.35362000  0.77388000  1.0 0.4994408147
Cd  Cd64  1  0.35362000  0.96034000  0.91216000  1.0 0.4994408147
Cd  Cd65  1  0.07480000  0.96720000  0.49561000  1.0 0.6902040668
Cd  Cd66  1  0.96720000  0.07481000  0.46240000  1.0 0.6998718408
Cd  Cd67  1  0.78760000  0.75440000  0.28280000  1.0 0.6998718408
Cd  Cd68  1  0.75440000  0.78760000  0.17519000  1.0 0.6902040668
Cd  Cd69  1  0.09987000  0.83413000  0.51437000  1.0 0.5442317155
Cd  Cd70  1  0.83413000  0.09987000  0.55163000  1.0 0.5497294021
Cd  Cd71  1  0.69837000  0.73563000  0.41587000  1.0 0.5497294021
Cd  Cd72  1  0.73563000  0.69837000  0.15013000  1.0 0.5497294021
Cd  Cd73  1  0.94619000  0.99033000  0.58795000  1.0 0.6902040668
Cd  Cd74  1  0.99033000  0.94619000  0.47553000  1.0 0.6808610486
Cd  Cd75  1  0.77447000  0.66205000  0.25967000  1.0 0.6808610486
Cd  Cd76  1  0.66205000  0.77447000  0.30381000  1.0 0.6808610486
Cd  Cd77  1  0.97416000  0.85584000  0.59906000  1.0 0.571505738
Cd  Cd78  1  0.85584000  0.97416000  0.57094000  1.0 0.571505738
Cd  Cd79  1  0.67906000  0.65094000  0.39416000  1.0 0.571505738
Cd  Cd80  1  0.65094000  0.67906000  0.27584000  1.0 0.571505738
Cd  Cd81  1  0.05083000  0.87831000  0.62519000  1.0 0.5497294021
Cd  Cd82  1  0.87831000  0.05084000  0.44567000  1.0 0.5604604178
Cd  Cd83  1  0.80432000  0.62482000  0.37169000  1.0 0.5497294021
Cd  Cd84  1  0.62481000  0.80432000  0.19917000  1.0 0.5604604178
Cd  Cd85  1  0.12084000  0.92334000  0.37980000  1.0 0.571505738
Cd  Cd86  1  0.92334000  0.12084000  0.57602000  1.0 0.571505738
Cd  Cd87  1  0.67398000  0.87020000  0.32666000  1.0 0.571505738
Cd  Cd88  1  0.87020000  0.67398000  0.12916000  1.0 0.5604604178
Cd  Cd89  1  0.04692000  0.10394000  0.48182000  1.0 0.5878047821
Cd  Cd90  1  0.10394000  0.04692000  0.36732000  1.0 0.5878047821
Cd  Cd91  1  0.88268000  0.76818000  0.14606000  1.0 0.5878047821
Cd  Cd92  1  0.76818000  0.88268000  0.20308000  1.0 0.5878047821
Cd  Cd93  1  0.91660000  0.90146000  0.71466000  1.0 0.5189649887
Cd  Cd94  1  0.90146000  0.91660000  0.46728000  1.0 0.5189649887
Cd  Cd95  1  0.78272000  0.53534000  0.34854000  1.0 0.5189649887
Cd  Cd96  1  0.53534000  0.78272000  0.33340000  1.0 0.5189649887
Cd  Cd97  1  0.81487000  0.03003000  0.67989000  1.0 0.5189649887
Cd  Cd98  1  0.03003000  0.81487000  0.47521000  1.0 0.5189649887
Cd  Cd99  1  0.77479000  0.57011000  0.21997000  1.0 0.5189649887
Cd  Cd100  1  0.57011000  0.77479000  0.43513000  1.0 0.5189649887
Cd  Cd101  1  0.21044000  0.93238000  0.40400000  1.0 0.5262373415
Cd  Cd102  1  0.93238000  0.21044000  0.45318000  1.0 0.5262373415
Cd  Cd103  1  0.79682000  0.84600000  0.31762000  1.0 0.5262373415
Cd  Cd104  1  0.84600000  0.79682000  0.03956000  1.0 0.5262373415
Cd  Cd105  1  0.16120000  0.99938000  0.50300000  1.0 0.5189649887
Cd  Cd106  1  0.99938000  0.16120000  0.33642000  1.0 0.5189649887
Cd  Cd107  1  0.91358000  0.74700000  0.25062000  1.0 0.5189649887
Cd  Cd108  1  0.74700000  0.91358000  0.08880000  1.0 0.5189649887
Cd  Cd109  1  0.03358000  0.01732000  0.60184000  1.0 0.571505738
Cd  Cd110  1  0.01732000  0.03358000  0.34726000  1.0 0.571505738
Cd  Cd111  1  0.90274000  0.64816000  0.23268000  1.0 0.5755262998
Cd  Cd112  1  0.64816000  0.90274000  0.21642000  1.0 0.571505738
Cd  Cd113  1  0.91450000  0.02398000  0.70534000  1.0 0.5262373415
Cd  Cd114  1  0.02398000  0.91450000  0.35618000  1.0 0.5189649887
Cd  Cd115  1  0.89382000  0.54466000  0.22602000  1.0 0.5262373415
Cd  Cd116  1  0.54466000  0.89382000  0.33550000  1.0 0.5189649887
Cd  Cd117  1  0.18018000  0.86188000  0.53990000  1.0 0.5189649887
Cd  Cd118  1  0.86188000  0.18018000  0.41804000  1.0 0.5189649887
Cd  Cd119  1  0.83196000  0.71010000  0.38812000  1.0 0.5189649887
Cd  Cd120  1  0.71010000  0.83196000  0.06982000  1.0 0.5189649887
Cd  Cd121  1  0.81994000  0.97814000  0.80916000  1.0 0.4994408147
Cd  Cd122  1  0.97814000  0.81994000  0.39276000  1.0 0.4994408147
Cd  Cd123  1  0.85724000  0.44084000  0.27186000  1.0 0.4994408147
Cd  Cd124  1  0.44084000  0.85724000  0.43006000  1.0 0.4994408147
Cd  Cd125  1  0.28966000  0.89638000  0.47612000  1.0 0.4994408147
Cd  Cd126  1  0.89638000  0.28966000  0.33784000  1.0 0.4994408147
Cd  Cd127  1  0.91216000  0.77388000  0.35362000  1.0 0.4994408147
Cd  Cd128  1  0.77388000  0.91216000  0.96034000  1.0 0.4994408147
C  C1  1  0.44150000  0.39050000  0.84930000  1.0 0.0997242319
C  C2  1  0.39050000  0.44150000  0.31870000  1.0 0.0997242319
C  C3  1  0.93130000  0.40070000  0.85950000  1.0 0.0997242319
C  C4  1  0.40070000  0.93130000  0.80850000  1.0 0.0997242319
C  C5  1  0.44850000  0.35490000  0.83490000  1.0 0.019105649
C  C6  1  0.35490000  0.44850000  0.36170000  1.0 0.019105649
C  C7  1  0.88830000  0.41510000  0.89510000  1.0 0.019105649
C  C8  1  0.41510000  0.88830000  0.80150000  1.0 0.019105649
C  C9  1  0.48070000  0.34430000  0.79190000  1.0 0.0308679271
C  C10  1  0.34430000  0.48070000  0.38310000  1.0 0.0308679271
C  C11  1  0.86690000  0.45810000  0.90570000  1.0 0.0308679271
C  C12  1  0.45810000  0.86690000  0.76930000  1.0 0.0308679271
C  C13  1  0.50390000  0.37230000  0.76070000  1.0 0.0106692748
C  C14  1  0.37230000  0.50390000  0.36310000  1.0 0.0106692748
C  C15  1  0.88690000  0.48930000  0.87770000  1.0 0.0106692748
C  C16  1  0.48930000  0.88690000  0.74610000  1.0 0.0106692748
C  C17  1  0.49780000  0.40820000  0.77200000  1.0 0.039504632
C  C18  1  0.40820000  0.49780000  0.32200000  1.0 0.039504632
C  C19  1  0.92800000  0.47800000  0.84180000  1.0 0.039504632
C  C20  1  0.47800000  0.92800000  0.75220000  1.0 0.039504632
C  C21  1  0.46850000  0.41550000  0.81690000  1.0 -0.0901719634
C  C22  1  0.41550000  0.46850000  0.29910000  1.0 -0.0901719634
C  C23  1  0.95090000  0.43310000  0.83450000  1.0 -0.0901719634
C  C24  1  0.43310000  0.95090000  0.78150000  1.0 -0.0901719634
C  C25  1  0.30060000  0.81820000  0.96860000  1.0 0.0997242319
C  C26  1  0.81820000  0.30060000  0.91260000  1.0 0.0997242319
C  C27  1  0.33740000  0.28140000  0.43180000  1.0 0.0997242319
C  C28  1  0.28140000  0.33740000  0.94940000  1.0 0.0997242319
C  C29  1  0.31030000  0.85330000  0.93130000  1.0 -0.0901719634
C  C30  1  0.85330000  0.31030000  0.90510000  1.0 -0.0901719634
C  C31  1  0.34490000  0.31870000  0.39670000  1.0 -0.0785112225
C  C32  1  0.31870000  0.34490000  0.93970000  1.0 -0.0901719634
C  C33  1  0.28850000  0.87530000  0.89730000  1.0 0.0308679271
C  C34  1  0.87530000  0.28850000  0.93890000  1.0 0.019105649
C  C35  1  0.31110000  0.35270000  0.37470000  1.0 0.019105649
C  C36  1  0.35270000  0.31110000  0.96150000  1.0 0.0308679271
C  C37  1  0.25870000  0.86470000  0.90030000  1.0 -0.0396669895
C  C38  1  0.86470000  0.25870000  0.97630000  1.0 -0.0301678776
C  C39  1  0.27370000  0.34970000  0.38530000  1.0 -0.0396669895
C  C40  1  0.34970000  0.27370000  0.99130000  1.0 -0.0396669895
C  C41  1  0.25040000  0.83000000  0.93840000  1.0 0.0697925693
C  C42  1  0.83000000  0.25040000  0.98120000  1.0 0.0697925693
C  C43  1  0.26880000  0.31160000  0.42000000  1.0 0.0697925693
C  C44  1  0.31160000  0.26880000  0.99960000  1.0 0.0697925693
C  C45  1  0.26950000  0.80870000  0.97210000  1.0 -0.0785112225
C  C46  1  0.80870000  0.26950000  0.94970000  1.0 -0.0785112225
C  C47  1  0.30030000  0.27790000  0.44130000  1.0 -0.0785112225
C  C48  1  0.27790000  0.30030000  0.98050000  1.0 -0.0785112225
C  C49  1  0.40970000  0.74190000  0.83150000  1.0 0.0997242319
C  C50  1  0.74190000  0.40970000  0.01690000  1.0 0.0997242319
C  C51  1  0.23310000  0.41850000  0.50810000  1.0 0.0997242319
C  C52  1  0.41850000  0.23310000  0.84030000  1.0 0.1108260356
C  C53  1  0.42840000  0.72820000  0.79220000  1.0 -0.0785112225
C  C54  1  0.72820000  0.42840000  0.05120000  1.0 -0.0785112225
C  C55  1  0.19880000  0.45780000  0.52180000  1.0 -0.0785112225
C  C56  1  0.45780000  0.19880000  0.82160000  1.0 -0.0785112225
C  C57  1  0.42580000  0.75720000  0.74500000  1.0 0.0497464881
C  C58  1  0.75720000  0.42580000  0.07200000  1.0 0.0497464881
C  C59  1  0.17800000  0.50500000  0.49280000  1.0 0.0497464881
C  C60  1  0.50500000  0.17800000  0.82420000  1.0 0.0497464881
C  C61  1  0.40560000  0.80220000  0.74400000  1.0 0.0106692748
C  C62  1  0.80220000  0.40560000  0.04820000  1.0 0.0029675738
C  C63  1  0.20180000  0.50600000  0.44780000  1.0 0.0106692748
C  C64  1  0.50600000  0.20180000  0.84440000  1.0 0.0106692748
C  C65  1  0.37930000  0.82150000  0.78310000  1.0 0.019105649
C  C66  1  0.82150000  0.37930000  0.01610000  1.0 0.019105649
C  C67  1  0.23390000  0.46690000  0.42850000  1.0 0.019105649
C  C68  1  0.46690000  0.23390000  0.87070000  1.0 0.019105649
C  C69  1  0.37880000  0.79220000  0.82560000  1.0 0.019105649
C  C70  1  0.79220000  0.37880000  0.00340000  1.0 0.019105649
C  C71  1  0.24660000  0.42440000  0.45780000  1.0 0.019105649
C  C72  1  0.42440000  0.24660000  0.87120000  1.0 0.019105649
C  C73  1  0.55140000  0.31500000  0.89280000  1.0 0.0997242319
C  C74  1  0.31500000  0.55140000  0.24080000  1.0 0.0890403968
C  C75  1  0.00920000  0.35720000  0.93500000  1.0 0.0890403968
C  C76  1  0.35720000  0.00920000  0.69860000  1.0 0.0890403968
C  C77  1  0.55130000  0.30370000  0.85830000  1.0 -0.0396669895
C  C78  1  0.30370000  0.55130000  0.28670000  1.0 -0.0396669895
C  C79  1  0.96330000  0.39170000  0.94630000  1.0 -0.0396669895
C  C80  1  0.39170000  0.96330000  0.69870000  1.0 -0.0396669895
C  C81  1  0.56360000  0.25680000  0.86380000  1.0 0.0605888091
C  C82  1  0.25680000  0.56360000  0.31580000  1.0 0.0605888091
C  C83  1  0.93420000  0.38620000  0.99320000  1.0 0.0605888091
C  C84  1  0.38620000  0.93420000  0.68640000  1.0 0.0605888091
C  C85  1  0.57710000  0.21990000  0.90290000  1.0 0.019105649
C  C86  1  0.21990000  0.57710000  0.30010000  1.0 0.019105649
C  C87  1  0.94990000  0.34710000  0.03010000  1.0 0.019105649
C  C88  1  0.34710000  0.94990000  0.67290000  1.0 0.019105649
C  C89  1  0.57490000  0.23310000  0.93690000  1.0 0.0497464881
C  C90  1  0.23310000  0.57490000  0.25510000  1.0 0.0497464881
C  C91  1  0.99490000  0.31310000  0.01690000  1.0 0.0497464881
C  C92  1  0.31310000  0.99490000  0.67510000  1.0 0.0497464881
C  C93  1  0.56280000  0.28200000  0.93060000  1.0 -0.1075757511
C  C94  1  0.28200000  0.56280000  0.22460000  1.0 -0.1075757511
C  C95  1  0.02540000  0.31940000  0.96800000  1.0 -0.1075757511
C  C96  1  0.31940000  0.02540000  0.68720000  1.0 -0.1075757511
C  C97  1  0.52030000  0.50450000  0.75890000  1.0 0.0809642945
C  C98  1  0.50450000  0.52030000  0.21630000  1.0 0.0809642945
C  C99  1  0.03370000  0.49110000  0.74550000  1.0 0.0809642945
C  C100  1  0.49110000  0.03370000  0.72970000  1.0 0.0809642945
C  C101  1  0.48680000  0.52620000  0.74320000  1.0 -0.0500744277
C  C102  1  0.52620000  0.48680000  0.24380000  1.0 -0.0500744277
C  C103  1  0.00620000  0.50680000  0.72380000  1.0 -0.0500744277
C  C104  1  0.50680000  0.00620000  0.76320000  1.0 -0.0500744277
C  C105  1  0.50210000  0.53150000  0.69190000  1.0 0.0890403968
C  C106  1  0.53150000  0.50210000  0.27450000  1.0 0.0890403968
C  C107  1  0.97550000  0.55810000  0.71850000  1.0 0.0890403968
C  C108  1  0.55810000  0.97550000  0.74790000  1.0 0.0890403968
C  C109  1  0.55190000  0.51510000  0.66450000  1.0 -0.0179473997
C  C110  1  0.51510000  0.55190000  0.26850000  1.0 -0.0179473997
C  C111  1  0.98150000  0.58550000  0.73490000  1.0 -0.0179473997
C  C112  1  0.58550000  0.98150000  0.69810000  1.0 -0.0179473997
C  C113  1  0.58490000  0.48290000  0.68650000  1.0 0.0605888091
C  C114  1  0.48290000  0.58490000  0.24570000  1.0 0.0497464881
C  C115  1  0.00430000  0.56350000  0.76710000  1.0 0.0497464881
C  C116  1  0.56350000  0.00430000  0.66510000  1.0 0.0605888091
C  C117  1  0.56380000  0.47420000  0.73900000  1.0 -0.0016051055
C  C118  1  0.47420000  0.56380000  0.22300000  1.0 0.0029675738
C  C119  1  0.02700000  0.51100000  0.77580000  1.0 -0.0016051055
C  C120  1  0.51100000  0.02700000  0.68620000  1.0 -0.0016051055
C  C121  1  0.64680000  0.50060000  0.73000000  1.0 0.0809642945
C  C122  1  0.50060000  0.64680000  0.12260000  1.0 0.0809642945
C  C123  1  0.12740000  0.52000000  0.74940000  1.0 0.0809642945
C  C124  1  0.52000000  0.12740000  0.60320000  1.0 0.0809642945
C  C125  1  0.62250000  0.54430000  0.71690000  1.0 -0.1038575833
C  C126  1  0.54430000  0.62250000  0.11630000  1.0 -0.1075757511
C  C127  1  0.13370000  0.53310000  0.70570000  1.0 -0.1038575833
C  C128  1  0.53310000  0.13370000  0.62750000  1.0 -0.1038575833
C  C129  1  0.63020000  0.56720000  0.67160000  1.0 0.0605888091
C  C130  1  0.56720000  0.63020000  0.13100000  1.0 0.0605888091
C  C131  1  0.11900000  0.57840000  0.68280000  1.0 0.0605888091
C  C132  1  0.57840000  0.11900000  0.61980000  1.0 0.0605888091
C  C133  1  0.67080000  0.54500000  0.63500000  1.0 0.019105649
C  C134  1  0.54500000  0.67080000  0.14920000  1.0 0.019105649
C  C135  1  0.10080000  0.61500000  0.70500000  1.0 0.019105649
C  C136  1  0.61500000  0.10080000  0.57920000  1.0 0.019105649
C  C137  1  0.69740000  0.49720000  0.64560000  1.0 0.0497464881
C  C138  1  0.49720000  0.69740000  0.15980000  1.0 0.0497464881
C  C139  1  0.09020000  0.60440000  0.75280000  1.0 0.0497464881
C  C140  1  0.60440000  0.09020000  0.55260000  1.0 0.0497464881
C  C141  1  0.68430000  0.47390000  0.69670000  1.0 0.0106692748
C  C142  1  0.47390000  0.68430000  0.14510000  1.0 0.0106692748
C  C143  1  0.10490000  0.55330000  0.77610000  1.0 0.0106692748
C  C144  1  0.55330000  0.10490000  0.56570000  1.0 0.0106692748
C  C145  1  0.66800000  0.58800000  0.75120000  1.0 0.1108260356
C  C146  1  0.58800000  0.66800000  0.99280000  1.0 0.1108260356
C  C147  1  0.25720000  0.49880000  0.66200000  1.0 0.1108260356
C  C148  1  0.49880000  0.25720000  0.58200000  1.0 0.1108260356
C  C149  1  0.63710000  0.62970000  0.73710000  1.0 -0.0785112225
C  C150  1  0.62970000  0.63710000  0.99610000  1.0 -0.0702270039
C  C151  1  0.25390000  0.51290000  0.62030000  1.0 -0.0785112225
C  C152  1  0.51290000  0.25390000  0.61290000  1.0 -0.0785112225
C  C153  1  0.64560000  0.65160000  0.69160000  1.0 0.039504632
C  C154  1  0.65160000  0.64560000  0.01120000  1.0 0.039504632
C  C155  1  0.23880000  0.55840000  0.59840000  1.0 0.039504632
C  C156  1  0.55840000  0.23880000  0.60440000  1.0 0.039504632
C  C157  1  0.68950000  0.63130000  0.65790000  1.0 0.0106692748
C  C158  1  0.63130000  0.68950000  0.02130000  1.0 0.0106692748
C  C159  1  0.22870000  0.59210000  0.61870000  1.0 0.0106692748
C  C160  1  0.59210000  0.22870000  0.56050000  1.0 0.0106692748
C  C161  1  0.72010000  0.59130000  0.67370000  1.0 -0.0179473997
C  C162  1  0.59130000  0.72010000  0.01490000  1.0 -0.0179473997
C  C163  1  0.23510000  0.57630000  0.65870000  1.0 -0.0179473997
C  C164  1  0.57630000  0.23510000  0.52990000  1.0 -0.0179473997
C  C165  1  0.70710000  0.56890000  0.71490000  1.0 -0.0589411117
C  C166  1  0.56890000  0.70710000  0.00910000  1.0 -0.0589411117
C  C167  1  0.24090000  0.53510000  0.68110000  1.0 -0.0589411117
C  C168  1  0.53510000  0.24090000  0.54290000  1.0 -0.0589411117
C  C169  1  0.40850000  0.64470000  0.79350000  1.0 0.0809642945
C  C170  1  0.64470000  0.40850000  0.15330000  1.0 0.0809642945
C  C171  1  0.09670000  0.45650000  0.60530000  1.0 0.0809642945
C  C172  1  0.45650000  0.09670000  0.84150000  1.0 0.0809642945
C  C173  1  0.45370000  0.63030000  0.76470000  1.0 -0.0901719634
C  C174  1  0.63030000  0.45370000  0.15130000  1.0 -0.0901719634
C  C175  1  0.09870000  0.48530000  0.61970000  1.0 -0.0901719634
C  C176  1  0.48530000  0.09870000  0.79630000  1.0 -0.0901719634
C  C177  1  0.46930000  0.64770000  0.71350000  1.0 0.0605888091
C  C178  1  0.64770000  0.46930000  0.16950000  1.0 0.0605888091
C  C179  1  0.08050000  0.53650000  0.60230000  1.0 0.0605888091
C  C180  1  0.53650000  0.08050000  0.78070000  1.0 0.0605888091
C  C181  1  0.43040000  0.68180000  0.69560000  1.0 0.039504632
C  C182  1  0.68180000  0.43040000  0.19220000  1.0 0.0497464881
C  C183  1  0.05780000  0.55440000  0.56820000  1.0 0.0497464881
C  C184  1  0.55440000  0.05780000  0.81960000  1.0 0.0497464881
C  C185  1  0.38120000  0.69720000  0.73160000  1.0 0.0605888091
C  C186  1  0.69720000  0.38120000  0.19000000  1.0 0.0697925693
C  C187  1  0.06000000  0.51840000  0.55280000  1.0 0.0697925693
C  C188  1  0.51840000  0.06000000  0.86880000  1.0 0.0697925693
C  C189  1  0.37040000  0.67460000  0.78080000  1.0 -0.0396669895
C  C190  1  0.67460000  0.37040000  0.17420000  1.0 -0.0396669895
C  C191  1  0.07580000  0.46920000  0.57540000  1.0 -0.0396669895
C  C192  1  0.46920000  0.07580000  0.87960000  1.0 -0.0396669895
C  C193  1  0.32480000  0.58880000  0.83060000  1.0 0.0890403968
C  C194  1  0.58880000  0.32480000  0.25580000  1.0 0.0890403968
C  C195  1  0.99420000  0.41940000  0.66120000  1.0 0.0890403968
C  C196  1  0.41940000  0.99420000  0.92520000  1.0 0.0890403968
C  C197  1  0.31960000  0.60700000  0.78700000  1.0 -0.0179473997
C  C198  1  0.60700000  0.31960000  0.28640000  1.0 -0.0179473997
C  C199  1  0.96360000  0.46300000  0.64300000  1.0 -0.012412167
C  C200  1  0.46300000  0.96360000  0.93040000  1.0 -0.0179473997
C  C201  1  0.28530000  0.65150000  0.78650000  1.0 0.039504632
C  C202  1  0.65150000  0.28530000  0.27670000  1.0 0.039504632
C  C203  1  0.97330000  0.46350000  0.59850000  1.0 0.0308679271
C  C204  1  0.46350000  0.97330000  0.96470000  1.0 0.0308679271
C  C205  1  0.25300000  0.66920000  0.82460000  1.0 -0.0500744277
C  C206  1  0.66920000  0.25300000  0.25320000  1.0 -0.0500744277
C  C207  1  0.99680000  0.42540000  0.58080000  1.0 -0.0500744277
C  C208  1  0.42540000  0.99680000  0.99700000  1.0 -0.0500744277
C  C209  1  0.26060000  0.65340000  0.86220000  1.0 0.0809642945
C  C210  1  0.65340000  0.26060000  0.22380000  1.0 0.0809642945
C  C211  1  0.02620000  0.38780000  0.59660000  1.0 0.0809642945
C  C212  1  0.38780000  0.02620000  0.98940000  1.0 0.0809642945
C  C213  1  0.30020000  0.60720000  0.86800000  1.0 -0.0785112225
C  C214  1  0.60720000  0.30020000  0.22460000  1.0 -0.0702270039
C  C215  1  0.02540000  0.38200000  0.64280000  1.0 -0.0785112225
C  C216  1  0.38200000  0.02540000  0.94980000  1.0 -0.0702270039
C  C217  1  0.45463000  0.30225000  0.02103000  1.0 0.1108260356
C  C218  1  0.30225000  0.45463000  0.22209000  1.0 0.1108260356
C  C219  1  0.02791000  0.22897000  0.94775000  1.0 0.1108260356
C  C220  1  0.22897000  0.02791000  0.79537000  1.0 0.1108260356
C  C221  1  0.48736000  0.26964000  0.04096000  1.0 -0.0500744277
C  C222  1  0.26964000  0.48736000  0.20204000  1.0 -0.0500744277
C  C223  1  0.04796000  0.20904000  0.98036000  1.0 -0.0500744277
C  C224  1  0.20904000  0.04796000  0.76264000  1.0 -0.0500744277
C  C225  1  0.50415000  0.22301000  0.04319000  1.0 0.039504632
C  C226  1  0.22301000  0.50415000  0.22965000  1.0 0.039504632
C  C227  1  0.02035000  0.20681000  0.02699000  1.0 0.039504632
C  C228  1  0.20681000  0.02035000  0.74585000  1.0 0.039504632
C  C229  1  0.48809000  0.20909000  0.02551000  1.0 0.0106692748
C  C230  1  0.20909000  0.48809000  0.27731000  1.0 0.0106692748
C  C231  1  0.97269000  0.22449000  0.04091000  1.0 0.0106692748
C  C232  1  0.22449000  0.97269000  0.76191000  1.0 0.0106692748
C  C233  1  0.45533000  0.24173000  0.00567000  1.0 0.0308679271
C  C234  1  0.24173000  0.45533000  0.29727000  1.0 0.0308679271
C  C235  1  0.95273000  0.24433000  0.00827000  1.0 0.0308679271
C  C236  1  0.24433000  0.95273000  0.79467000  1.0 0.0308679271
C  C237  1  0.43863000  0.28827000  0.00337000  1.0 -0.0396669895
C  C238  1  0.28827000  0.43863000  0.26973000  1.0 -0.0396669895
C  C239  1  0.98027000  0.24663000  0.96173000  1.0 -0.0396669895
C  C240  1  0.24663000  0.98027000  0.81137000  1.0 -0.0396669895
C  C241  1  0.27181000  0.45819000  0.00881000  1.0 0.0809642945
C  C242  1  0.45819000  0.27181000  0.26119000  1.0 0.0809642945
C  C243  1  0.98881000  0.24119000  0.79181000  1.0 0.0809642945
C  C244  1  0.24119000  0.98881000  0.97819000  1.0 0.0809642945
C  C245  1  0.30558000  0.41462000  0.01798000  1.0 -0.1228297456
C  C246  1  0.41462000  0.30558000  0.26182000  1.0 -0.1228297456
C  C247  1  0.98818000  0.23202000  0.83538000  1.0 -0.1228297456
C  C248  1  0.23202000  0.98818000  0.94442000  1.0 -0.1228297456
C  C249  1  0.29352000  0.37774000  0.04666000  1.0 0.0605888091
C  C250  1  0.37774000  0.29352000  0.28208000  1.0 0.0605888091
C  C251  1  0.96792000  0.20334000  0.87226000  1.0 0.0605888091
C  C252  1  0.20334000  0.96792000  0.95648000  1.0 0.0605888091
C  C253  1  0.24760000  0.38440000  0.06620000  1.0 0.0106692748
C  C254  1  0.38440000  0.24760000  0.30180000  1.0 0.0106692748
C  C255  1  0.94820000  0.18380000  0.86560000  1.0 0.0106692748
C  C256  1  0.18380000  0.94820000  0.00240000  1.0 0.0106692748
C  C257  1  0.21380000  0.42780000  0.05720000  1.0 0.0497464881
C  C258  1  0.42780000  0.21380000  0.30120000  1.0 0.0497464881
C  C259  1  0.94880000  0.19280000  0.82220000  1.0 0.0497464881
C  C260  1  0.19280000  0.94880000  0.03620000  1.0 0.0497464881
C  C261  1  0.22580000  0.46480000  0.02860000  1.0 -0.0301678776
C  C262  1  0.46480000  0.22580000  0.28080000  1.0 -0.0301678776
C  C263  1  0.96920000  0.22140000  0.78520000  1.0 -0.0301678776
C  C264  1  0.22140000  0.96920000  0.02420000  1.0 -0.0301678776
C  C265  1  0.26529000  0.49251000  0.10749000  1.0 0.0497464881
C  C266  1  0.49251000  0.26529000  0.13471000  1.0 0.0497464881
C  C267  1  0.11529000  0.14251000  0.75749000  1.0 0.0497464881
C  C268  1  0.14251000  0.11529000  0.98471000  1.0 0.0605888091
C  C269  1  0.23375000  0.47605000  0.11855000  1.0 -0.0301678776
C  C270  1  0.47605000  0.23375000  0.17165000  1.0 -0.0301678776
C  C271  1  0.07835000  0.13145000  0.77395000  1.0 -0.0301678776
C  C272  1  0.13145000  0.07835000  0.01625000  1.0 -0.0301678776
C  C273  1  0.18708000  0.49972000  0.14228000  1.0 0.0029675738
C  C274  1  0.49972000  0.18708000  0.17092000  1.0 0.0029675738
C  C275  1  0.07908000  0.10772000  0.75028000  1.0 0.0029675738
C  C276  1  0.10772000  0.07908000  0.06292000  1.0 0.0029675738
C  C277  1  0.17194000  0.53966000  0.15494000  1.0 0.0308679271
C  C278  1  0.53966000  0.17194000  0.13346000  1.0 0.0308679271
C  C279  1  0.11654000  0.09506000  0.71034000  1.0 0.0308679271
C  C280  1  0.09506000  0.11654000  0.07806000  1.0 0.0308679271
C  C281  1  0.20337000  0.55603000  0.14397000  1.0 -0.0396669895
C  C282  1  0.55603000  0.20337000  0.09663000  1.0 -0.0396669895
C  C283  1  0.15337000  0.10603000  0.69397000  1.0 -0.0396669895
C  C284  1  0.10603000  0.15337000  0.04663000  1.0 -0.0396669895
C  C285  1  0.25015000  0.53245000  0.12015000  1.0 -0.0396669895
C  C286  1  0.53245000  0.25015000  0.09725000  1.0 -0.0396669895
C  C287  1  0.15275000  0.12985000  0.71755000  1.0 -0.0396669895
C  C288  1  0.12985000  0.15275000  0.99985000  1.0 -0.0396669895
C  C289  1  0.68880000  0.30460000  0.85760000  1.0 0.1164459614
C  C290  1  0.30460000  0.68880000  0.14900000  1.0 0.1164459614
C  C291  1  0.10100000  0.39240000  0.94540000  1.0 0.1164459614
C  C292  1  0.39240000  0.10100000  0.56120000  1.0 0.1164459614
C  C293  1  0.64920000  0.31260000  0.85460000  1.0 -0.0702270039
C  C294  1  0.31260000  0.64920000  0.18360000  1.0 -0.0785112225
C  C295  1  0.06640000  0.39540000  0.93740000  1.0 -0.0702270039
C  C296  1  0.39540000  0.06640000  0.60080000  1.0 -0.0702270039
C  C297  1  0.64970000  0.28090000  0.84070000  1.0 0.0497464881
C  C298  1  0.28090000  0.64970000  0.22870000  1.0 0.0497464881
C  C299  1  0.02130000  0.40930000  0.96910000  1.0 0.0497464881
C  C300  1  0.40930000  0.02130000  0.60030000  1.0 0.0497464881
C  C301  1  0.68950000  0.24110000  0.83030000  1.0 -0.012412167
C  C302  1  0.24110000  0.68950000  0.23910000  1.0 -0.012412167
C  C303  1  0.01090000  0.41970000  0.00890000  1.0 -0.012412167
C  C304  1  0.41970000  0.01090000  0.56050000  1.0 -0.012412167
C  C305  1  0.72910000  0.23310000  0.83330000  1.0 0.039504632
C  C306  1  0.23310000  0.72910000  0.20450000  1.0 0.039504632
C  C307  1  0.04550000  0.41670000  0.01690000  1.0 0.039504632
C  C308  1  0.41670000  0.04550000  0.52090000  1.0 0.039504632
C  C309  1  0.72860000  0.26480000  0.84720000  1.0 -0.0396669895
C  C310  1  0.26480000  0.72860000  0.15940000  1.0 -0.0396669895
C  C311  1  0.09060000  0.40280000  0.98520000  1.0 -0.0396669895
C  C312  1  0.40280000  0.09060000  0.52140000  1.0 -0.0396669895
C  C313  1  0.55340000  0.71740000  0.80000000  1.0 0.0809642945
C  C314  1  0.71740000  0.55340000  0.92920000  1.0 0.0809642945
C  C315  1  0.32080000  0.45000000  0.53260000  1.0 0.0809642945
C  C316  1  0.45000000  0.32080000  0.69660000  1.0 0.0809642945
C  C317  1  0.52820000  0.71840000  0.78040000  1.0 -0.0901719634
C  C318  1  0.71840000  0.52820000  0.97300000  1.0 -0.0901719634
C  C319  1  0.27700000  0.46960000  0.53160000  1.0 -0.0901719634
C  C320  1  0.46960000  0.27700000  0.72180000  1.0 -0.0901719634
C  C321  1  0.53260000  0.74820000  0.73180000  1.0 0.0809642945
C  C322  1  0.74820000  0.53260000  0.98740000  1.0 0.0809642945
C  C323  1  0.26260000  0.51820000  0.50180000  1.0 0.0809642945
C  C324  1  0.51820000  0.26260000  0.71740000  1.0 0.0809642945
C  C325  1  0.55720000  0.77440000  0.70980000  1.0 -0.0589411117
C  C326  1  0.77440000  0.55720000  0.95860000  1.0 -0.0589411117
C  C327  1  0.29140000  0.54020000  0.47560000  1.0 -0.0500744277
C  C328  1  0.54020000  0.29140000  0.69280000  1.0 -0.0500744277
C  C329  1  0.58040000  0.77060000  0.73160000  1.0 0.0697925693
C  C330  1  0.77060000  0.58040000  0.91740000  1.0 0.0697925693
C  C331  1  0.33260000  0.51840000  0.47940000  1.0 0.0697925693
C  C332  1  0.51840000  0.33260000  0.66960000  1.0 0.0697925693
C  C333  1  0.57600000  0.74480000  0.77920000  1.0 -0.012412167
C  C334  1  0.74480000  0.57600000  0.90000000  1.0 -0.012412167
C  C335  1  0.35000000  0.47080000  0.50520000  1.0 -0.0179473997
C  C336  1  0.47080000  0.35000000  0.67400000  1.0 -0.0179473997
C  C337  1  0.48450000  0.81030000  0.88670000  1.0 0.0997242319
C  C338  1  0.81030000  0.48450000  0.81850000  1.0 0.0997242319
C  C339  1  0.43150000  0.36330000  0.43970000  1.0 0.0997242319
C  C340  1  0.36330000  0.43150000  0.76550000  1.0 0.0997242319
C  C341  1  0.48110000  0.85450000  0.86690000  1.0 -0.0589411117
C  C342  1  0.85450000  0.48110000  0.79750000  1.0 -0.0589411117
C  C343  1  0.45250000  0.38310000  0.39550000  1.0 -0.0589411117
C  C344  1  0.38310000  0.45250000  0.76890000  1.0 -0.0589411117
C  C345  1  0.51920000  0.86520000  0.85540000  1.0 0.0497464881
C  C346  1  0.86520000  0.51920000  0.76020000  1.0 0.0497464881
C  C347  1  0.48980000  0.39460000  0.38480000  1.0 0.0497464881
C  C348  1  0.39460000  0.48980000  0.73080000  1.0 0.0497464881
C  C349  1  0.55830000  0.82970000  0.86890000  1.0 0.039504632
C  C350  1  0.82970000  0.55830000  0.74310000  1.0 0.039504632
C  C351  1  0.50690000  0.38110000  0.42030000  1.0 0.039504632
C  C352  1  0.38110000  0.50690000  0.69170000  1.0 0.039504632
C  C353  1  0.55660000  0.78380000  0.89680000  1.0 0.0497464881
C  C354  1  0.78380000  0.55660000  0.76280000  1.0 0.0497464881
C  C355  1  0.48720000  0.35320000  0.46620000  1.0 0.0605888091
C  C356  1  0.35320000  0.48720000  0.69340000  1.0 0.0605888091
C  C357  1  0.52170000  0.77610000  0.90130000  1.0 -0.1075757511
C  C358  1  0.77610000  0.52170000  0.80090000  1.0 -0.1075757511
C  C359  1  0.44910000  0.34870000  0.47390000  1.0 -0.1075757511
C  C360  1  0.34870000  0.44910000  0.72830000  1.0 -0.1075757511
C  C361  1  0.25670000  0.69910000  0.05130000  1.0 0.0697925693
C  C362  1  0.69910000  0.25670000  0.99290000  1.0 0.0697925693
C  C363  1  0.25710000  0.19870000  0.55090000  1.0 0.0697925693
C  C364  1  0.19870000  0.25710000  0.99330000  1.0 0.0697925693
C  C365  1  0.21750000  0.72790000  0.04010000  1.0 -0.012412167
C  C366  1  0.72790000  0.21750000  0.01450000  1.0 -0.012412167
C  C367  1  0.23550000  0.20990000  0.52210000  1.0 -0.0179473997
C  C368  1  0.20990000  0.23550000  0.03250000  1.0 -0.012412167
C  C369  1  0.17390000  0.73810000  0.07490000  1.0 0.0308679271
C  C370  1  0.73810000  0.17390000  0.01310000  1.0 0.0308679271
C  C371  1  0.23690000  0.17510000  0.51190000  1.0 0.0308679271
C  C372  1  0.17510000  0.23690000  0.07610000  1.0 0.0308679271
C  C373  1  0.16960000  0.71960000  0.12080000  1.0 0.0308679271
C  C374  1  0.71960000  0.16960000  0.99000000  1.0 0.0308679271
C  C375  1  0.26000000  0.12920000  0.53040000  1.0 0.0308679271
C  C376  1  0.12920000  0.26000000  0.08040000  1.0 0.0308679271
C  C377  1  0.20880000  0.69080000  0.13200000  1.0 0.019105649
C  C378  1  0.69080000  0.20880000  0.96840000  1.0 0.0106692748
C  C379  1  0.28160000  0.11800000  0.55920000  1.0 0.019105649
C  C380  1  0.11800000  0.28160000  0.04120000  1.0 0.0106692748
C  C381  1  0.25230000  0.68070000  0.09730000  1.0 -0.0702270039
C  C382  1  0.68070000  0.25230000  0.96970000  1.0 -0.0702270039
C  C383  1  0.28030000  0.15270000  0.56930000  1.0 -0.0702270039
C  C384  1  0.15270000  0.28030000  0.99770000  1.0 -0.0702270039
C  C385  1  0.40790000  0.77510000  0.08150000  1.0 0.1108260356
C  C386  1  0.77510000  0.40790000  0.73550000  1.0 0.1108260356
C  C387  1  0.51450000  0.16850000  0.47490000  1.0 0.1108260356
C  C388  1  0.16850000  0.51450000  0.84210000  1.0 0.1108260356
C  C389  1  0.41160000  0.80440000  0.09660000  1.0 -0.012412167
C  C390  1  0.80440000  0.41160000  0.68740000  1.0 -0.012412167
C  C391  1  0.56260000  0.15340000  0.44560000  1.0 -0.0016051055
C  C392  1  0.15340000  0.56260000  0.83840000  1.0 -0.0016051055
C  C393  1  0.38030000  0.81770000  0.14070000  1.0 0.0697925693
C  C394  1  0.81770000  0.38030000  0.66130000  1.0 0.0697925693
C  C395  1  0.58870000  0.10930000  0.43230000  1.0 0.0697925693
C  C396  1  0.10930000  0.58870000  0.86970000  1.0 0.0605888091
C  C397  1  0.34710000  0.79450000  0.17330000  1.0 0.039504632
C  C398  1  0.79450000  0.34710000  0.68510000  1.0 0.039504632
C  C399  1  0.56490000  0.07670000  0.45550000  1.0 0.039504632
C  C400  1  0.07670000  0.56490000  0.90290000  1.0 0.039504632
C  C401  1  0.34230000  0.76390000  0.15670000  1.0 0.0697925693
C  C402  1  0.76390000  0.34230000  0.73710000  1.0 0.0697925693
C  C403  1  0.51290000  0.09330000  0.48610000  1.0 0.0697925693
C  C404  1  0.09330000  0.51290000  0.90770000  1.0 0.0697925693
C  C405  1  0.37440000  0.75640000  0.11060000  1.0 -0.129775554
C  C406  1  0.75640000  0.37440000  0.75860000  1.0 -0.129775554
C  C407  1  0.49140000  0.13940000  0.49360000  1.0 -0.129775554
C  C408  1  0.13940000  0.49140000  0.87560000  1.0 -0.129775554
C  C409  1  0.22340000  0.52080000  0.90680000  1.0 0.1108260356
C  C410  1  0.52080000  0.22340000  0.34900000  1.0 0.1108260356
C  C411  1  0.90100000  0.34320000  0.72920000  1.0 0.1108260356
C  C412  1  0.34320000  0.90100000  0.02660000  1.0 0.1108260356
C  C413  1  0.19520000  0.49560000  0.94380000  1.0 -0.0785112225
C  C414  1  0.49560000  0.19520000  0.36540000  1.0 -0.0785112225
C  C415  1  0.88460000  0.30620000  0.75440000  1.0 -0.0785112225
C  C416  1  0.30620000  0.88460000  0.05480000  1.0 -0.0785112225
C  C417  1  0.15100000  0.52240000  0.97320000  1.0 0.0308679271
C  C418  1  0.52240000  0.15100000  0.35340000  1.0 0.0308679271
C  C419  1  0.89660000  0.27680000  0.72760000  1.0 0.0308679271
C  C420  1  0.27680000  0.89660000  0.09900000  1.0 0.0308679271
C  C421  1  0.13790000  0.56690000  0.96950000  1.0 0.0106692748
C  C422  1  0.56690000  0.13790000  0.32570000  1.0 0.0106692748
C  C423  1  0.92430000  0.28050000  0.68310000  1.0 0.0106692748
C  C424  1  0.28050000  0.92430000  0.11210000  1.0 0.0106692748
C  C425  1  0.16450000  0.59290000  0.93230000  1.0 0.0890403968
C  C426  1  0.59290000  0.16450000  0.31030000  1.0 0.0890403968
C  C427  1  0.93970000  0.31770000  0.65710000  1.0 0.0890403968
C  C428  1  0.31770000  0.93970000  0.08550000  1.0 0.0890403968
C  C429  1  0.21000000  0.56860000  0.90080000  1.0 -0.0500744277
C  C430  1  0.56860000  0.21000000  0.32060000  1.0 -0.0500744277
C  C431  1  0.92940000  0.34920000  0.68140000  1.0 -0.0500744277
C  C432  1  0.34920000  0.92940000  0.04000000  1.0 -0.0500744277
C  C433  1  0.24320000  0.61920000  0.00360000  1.0 0.039504632
C  C434  1  0.61920000  0.24320000  0.13400000  1.0 0.039504632
C  C435  1  0.11600000  0.24640000  0.63080000  1.0 0.039504632
C  C436  1  0.24640000  0.11600000  0.00680000  1.0 0.039504632
C  C437  1  0.16690000  0.62490000  0.03490000  1.0 -0.199923548
C  C438  1  0.62490000  0.16690000  0.17330000  1.0 -0.199923548
C  C439  1  0.07670000  0.21510000  0.62510000  1.0 -0.199923548
C  C440  1  0.21510000  0.07670000  0.08310000  1.0 -0.199923548
C  C441  1  0.21400000  0.59920000  0.01820000  1.0 0.019105649
C  C442  1  0.59920000  0.21400000  0.16860000  1.0 0.019105649
C  C443  1  0.08140000  0.23180000  0.65080000  1.0 0.019105649
C  C444  1  0.23180000  0.08140000  0.03600000  1.0 0.019105649
C  C445  1  0.23360000  0.60320000  0.04980000  1.0 -0.0589411117
C  C446  1  0.60320000  0.23360000  0.11340000  1.0 -0.0589411117
C  C447  1  0.13660000  0.20020000  0.64680000  1.0 -0.0589411117
C  C448  1  0.20020000  0.13660000  0.01640000  1.0 -0.0589411117
C  C449  1  0.17880000  0.62460000  0.09540000  1.0 0.4994408147
C  C450  1  0.62460000  0.17880000  0.10120000  1.0 0.4994408147
C  C451  1  0.14880000  0.15460000  0.62540000  1.0 0.4550295201
C  C452  1  0.15460000  0.14880000  0.07120000  1.0 0.4994408147
C  C453  1  0.31870000  0.84930000  0.39050000  1.0 0.0997242319
C  C454  1  0.84930000  0.31870000  0.44150000  1.0 0.0997242319
C  C455  1  0.80850000  0.85950000  0.40070000  1.0 0.0997242319
C  C456  1  0.85950000  0.80850000  0.93130000  1.0 0.0997242319
C  C457  1  0.36170000  0.83490000  0.35490000  1.0 0.019105649
C  C458  1  0.83490000  0.36170000  0.44850000  1.0 0.019105649
C  C459  1  0.80150000  0.89510000  0.41510000  1.0 0.019105649
C  C460  1  0.89510000  0.80150000  0.88830000  1.0 0.019105649
C  C461  1  0.38310000  0.79190000  0.34430000  1.0 0.0308679271
C  C462  1  0.79190000  0.38310000  0.48070000  1.0 0.0308679271
C  C463  1  0.76930000  0.90570000  0.45810000  1.0 0.0308679271
C  C464  1  0.90570000  0.76930000  0.86690000  1.0 0.0308679271
C  C465  1  0.36310000  0.76070000  0.37230000  1.0 0.0106692748
C  C466  1  0.76070000  0.36310000  0.50390000  1.0 0.0106692748
C  C467  1  0.74610000  0.87770000  0.48930000  1.0 0.0106692748
C  C468  1  0.87770000  0.74610000  0.88690000  1.0 0.0106692748
C  C469  1  0.32200000  0.77200000  0.40820000  1.0 0.039504632
C  C470  1  0.77200000  0.32200000  0.49780000  1.0 0.039504632
C  C471  1  0.75220000  0.84180000  0.47800000  1.0 0.039504632
C  C472  1  0.84180000  0.75220000  0.92800000  1.0 0.039504632
C  C473  1  0.29910000  0.81690000  0.41550000  1.0 -0.0901719634
C  C474  1  0.81690000  0.29910000  0.46850000  1.0 -0.0901719634
C  C475  1  0.78150000  0.83450000  0.43310000  1.0 -0.0901719634
C  C476  1  0.83450000  0.78150000  0.95090000  1.0 -0.0901719634
C  C477  1  0.91260000  0.96860000  0.81820000  1.0 0.0997242319
C  C478  1  0.96860000  0.91260000  0.30060000  1.0 0.0997242319
C  C479  1  0.94940000  0.43180000  0.28140000  1.0 0.0997242319
C  C480  1  0.43180000  0.94940000  0.33740000  1.0 0.0997242319
C  C481  1  0.90510000  0.93130000  0.85330000  1.0 -0.0785112225
C  C482  1  0.93130000  0.90510000  0.31030000  1.0 -0.0785112225
C  C483  1  0.93970000  0.39670000  0.31870000  1.0 -0.0901719634
C  C484  1  0.39670000  0.93970000  0.34490000  1.0 -0.0901719634
C  C485  1  0.93890000  0.89730000  0.87530000  1.0 0.019105649
C  C486  1  0.89730000  0.93890000  0.28850000  1.0 0.0308679271
C  C487  1  0.96150000  0.37470000  0.35270000  1.0 0.019105649
C  C488  1  0.37470000  0.96150000  0.31110000  1.0 0.0308679271
C  C489  1  0.97630000  0.90030000  0.86470000  1.0 -0.0396669895
C  C490  1  0.90030000  0.97630000  0.25870000  1.0 -0.0396669895
C  C491  1  0.99130000  0.38530000  0.34970000  1.0 -0.0396669895
C  C492  1  0.38530000  0.99130000  0.27370000  1.0 -0.0396669895
C  C493  1  0.98120000  0.93840000  0.83000000  1.0 0.0697925693
C  C494  1  0.93840000  0.98120000  0.25040000  1.0 0.0697925693
C  C495  1  0.99960000  0.42000000  0.31160000  1.0 0.0697925693
C  C496  1  0.42000000  0.99960000  0.26880000  1.0 0.0697925693
C  C497  1  0.94970000  0.97210000  0.80870000  1.0 -0.0785112225
C  C498  1  0.97210000  0.94970000  0.26950000  1.0 -0.0785112225
C  C499  1  0.98050000  0.44130000  0.27790000  1.0 -0.0785112225
C  C500  1  0.44130000  0.98050000  0.30030000  1.0 -0.0785112225
C  C501  1  0.01690000  0.83150000  0.74190000  1.0 0.0997242319
C  C502  1  0.83150000  0.01690000  0.40970000  1.0 0.0997242319
C  C503  1  0.84030000  0.50810000  0.41850000  1.0 0.1108260356
C  C504  1  0.50810000  0.84030000  0.23310000  1.0 0.1108260356
C  C505  1  0.05120000  0.79220000  0.72820000  1.0 -0.0785112225
C  C506  1  0.79220000  0.05120000  0.42840000  1.0 -0.0785112225
C  C507  1  0.82160000  0.52180000  0.45780000  1.0 -0.0785112225
C  C508  1  0.52180000  0.82160000  0.19880000  1.0 -0.0785112225
C  C509  1  0.07200000  0.74500000  0.75720000  1.0 0.0497464881
C  C510  1  0.74500000  0.07200000  0.42580000  1.0 0.0497464881
C  C511  1  0.82420000  0.49280000  0.50500000  1.0 0.0497464881
C  C512  1  0.49280000  0.82420000  0.17800000  1.0 0.0497464881
C  C513  1  0.04820000  0.74400000  0.80220000  1.0 0.0106692748
C  C514  1  0.74400000  0.04820000  0.40560000  1.0 0.0106692748
C  C515  1  0.84440000  0.44780000  0.50600000  1.0 0.0029675738
C  C516  1  0.44780000  0.84440000  0.20180000  1.0 0.0106692748
C  C517  1  0.01610000  0.78310000  0.82150000  1.0 0.019105649
C  C518  1  0.78310000  0.01610000  0.37930000  1.0 0.019105649
C  C519  1  0.87070000  0.42850000  0.46690000  1.0 0.019105649
C  C520  1  0.42850000  0.87070000  0.23390000  1.0 0.019105649
C  C521  1  0.00340000  0.82560000  0.79220000  1.0 0.019105649
C  C522  1  0.82560000  0.00340000  0.37880000  1.0 0.019105649
C  C523  1  0.87120000  0.45780000  0.42440000  1.0 0.019105649
C  C524  1  0.45780000  0.87120000  0.24660000  1.0 0.019105649
C  C525  1  0.24080000  0.89280000  0.31500000  1.0 0.0997242319
C  C526  1  0.89280000  0.24080000  0.55140000  1.0 0.0997242319
C  C527  1  0.69860000  0.93500000  0.35720000  1.0 0.0997242319
C  C528  1  0.93500000  0.69860000  0.00920000  1.0 0.0997242319
C  C529  1  0.28670000  0.85830000  0.30370000  1.0 -0.0396669895
C  C530  1  0.85830000  0.28670000  0.55130000  1.0 -0.0396669895
C  C531  1  0.69870000  0.94630000  0.39170000  1.0 -0.0396669895
C  C532  1  0.94630000  0.69870000  0.96330000  1.0 -0.0396669895
C  C533  1  0.31580000  0.86380000  0.25680000  1.0 0.0605888091
C  C534  1  0.86380000  0.31580000  0.56360000  1.0 0.0605888091
C  C535  1  0.68640000  0.99320000  0.38620000  1.0 0.0605888091
C  C536  1  0.99320000  0.68640000  0.93420000  1.0 0.0605888091
C  C537  1  0.30010000  0.90290000  0.21990000  1.0 0.019105649
C  C538  1  0.90290000  0.30010000  0.57710000  1.0 0.019105649
C  C539  1  0.67290000  0.03010000  0.34710000  1.0 0.019105649
C  C540  1  0.03010000  0.67290000  0.94990000  1.0 0.019105649
C  C541  1  0.25510000  0.93690000  0.23310000  1.0 0.0497464881
C  C542  1  0.93690000  0.25510000  0.57490000  1.0 0.0497464881
C  C543  1  0.67510000  0.01690000  0.31310000  1.0 0.0497464881
C  C544  1  0.01690000  0.67510000  0.99490000  1.0 0.0497464881
C  C545  1  0.22460000  0.93060000  0.28200000  1.0 -0.1075757511
C  C546  1  0.93060000  0.22460000  0.56280000  1.0 -0.1075757511
C  C547  1  0.68720000  0.96800000  0.31940000  1.0 -0.1075757511
C  C548  1  0.96800000  0.68720000  0.02540000  1.0 -0.1075757511
C  C549  1  0.21630000  0.75890000  0.50450000  1.0 0.0809642945
C  C550  1  0.75890000  0.21630000  0.52030000  1.0 0.0809642945
C  C551  1  0.72970000  0.74550000  0.49110000  1.0 0.0809642945
C  C552  1  0.74550000  0.72970000  0.03370000  1.0 0.0809642945
C  C553  1  0.24380000  0.74320000  0.52620000  1.0 -0.0500744277
C  C554  1  0.74320000  0.24380000  0.48680000  1.0 -0.0500744277
C  C555  1  0.76320000  0.72380000  0.50680000  1.0 -0.0500744277
C  C556  1  0.72380000  0.76320000  0.00620000  1.0 -0.0500744277
C  C557  1  0.27450000  0.69190000  0.53150000  1.0 0.0890403968
C  C558  1  0.69190000  0.27450000  0.50210000  1.0 0.0890403968
C  C559  1  0.74790000  0.71850000  0.55810000  1.0 0.0890403968
C  C560  1  0.71850000  0.74790000  0.97550000  1.0 0.0890403968
C  C561  1  0.26850000  0.66450000  0.51510000  1.0 -0.0179473997
C  C562  1  0.66450000  0.26850000  0.55190000  1.0 -0.0179473997
C  C563  1  0.69810000  0.73490000  0.58550000  1.0 -0.0179473997
C  C564  1  0.73490000  0.69810000  0.98150000  1.0 -0.0179473997
C  C565  1  0.24570000  0.68650000  0.48290000  1.0 0.0605888091
C  C566  1  0.68650000  0.24570000  0.58490000  1.0 0.0605888091
C  C567  1  0.66510000  0.76710000  0.56350000  1.0 0.0605888091
C  C568  1  0.76710000  0.66510000  0.00430000  1.0 0.0605888091
C  C569  1  0.22300000  0.73900000  0.47420000  1.0 -0.0016051055
C  C570  1  0.73900000  0.22300000  0.56380000  1.0 -0.0016051055
C  C571  1  0.68620000  0.77580000  0.51100000  1.0 -0.0016051055
C  C572  1  0.77580000  0.68620000  0.02700000  1.0 -0.0016051055
C  C573  1  0.12260000  0.73000000  0.50060000  1.0 0.0809642945
C  C574  1  0.73000000  0.12260000  0.64680000  1.0 0.0809642945
C  C575  1  0.60320000  0.74940000  0.52000000  1.0 0.0809642945
C  C576  1  0.74940000  0.60320000  0.12740000  1.0 0.0809642945
C  C577  1  0.11630000  0.71690000  0.54430000  1.0 -0.1038575833
C  C578  1  0.71690000  0.11630000  0.62250000  1.0 -0.1038575833
C  C579  1  0.62750000  0.70570000  0.53310000  1.0 -0.1038575833
C  C580  1  0.70570000  0.62750000  0.13370000  1.0 -0.1038575833
C  C581  1  0.13100000  0.67160000  0.56720000  1.0 0.0605888091
C  C582  1  0.67160000  0.13100000  0.63020000  1.0 0.0605888091
C  C583  1  0.61980000  0.68280000  0.57840000  1.0 0.0605888091
C  C584  1  0.68280000  0.61980000  0.11900000  1.0 0.0605888091
C  C585  1  0.14920000  0.63500000  0.54500000  1.0 0.019105649
C  C586  1  0.63500000  0.14920000  0.67080000  1.0 0.019105649
C  C587  1  0.57920000  0.70500000  0.61500000  1.0 0.019105649
C  C588  1  0.70500000  0.57920000  0.10080000  1.0 0.019105649
C  C589  1  0.15980000  0.64560000  0.49720000  1.0 0.0497464881
C  C590  1  0.64560000  0.15980000  0.69740000  1.0 0.0497464881
C  C591  1  0.55260000  0.75280000  0.60440000  1.0 0.0497464881
C  C592  1  0.75280000  0.55260000  0.09020000  1.0 0.0497464881
C  C593  1  0.14510000  0.69670000  0.47390000  1.0 0.0106692748
C  C594  1  0.69670000  0.14510000  0.68430000  1.0 0.0106692748
C  C595  1  0.56570000  0.77610000  0.55330000  1.0 0.0106692748
C  C596  1  0.77610000  0.56570000  0.10490000  1.0 0.0106692748
C  C597  1  0.99280000  0.75120000  0.58800000  1.0 0.1108260356
C  C598  1  0.75120000  0.99280000  0.66800000  1.0 0.1108260356
C  C599  1  0.58200000  0.66200000  0.49880000  1.0 0.1108260356
C  C600  1  0.66200000  0.58200000  0.25720000  1.0 0.1108260356
C  C601  1  0.99610000  0.73710000  0.62970000  1.0 -0.0785112225
C  C602  1  0.73710000  0.99610000  0.63710000  1.0 -0.0702270039
C  C603  1  0.61290000  0.62030000  0.51290000  1.0 -0.0785112225
C  C604  1  0.62030000  0.61290000  0.25390000  1.0 -0.0785112225
C  C605  1  0.01120000  0.69160000  0.65160000  1.0 0.039504632
C  C606  1  0.69160000  0.01120000  0.64560000  1.0 0.039504632
C  C607  1  0.60440000  0.59840000  0.55840000  1.0 0.039504632
C  C608  1  0.59840000  0.60440000  0.23880000  1.0 0.039504632
C  C609  1  0.02130000  0.65790000  0.63130000  1.0 0.0106692748
C  C610  1  0.65790000  0.02130000  0.68950000  1.0 0.0106692748
C  C611  1  0.56050000  0.61870000  0.59210000  1.0 0.0106692748
C  C612  1  0.61870000  0.56050000  0.22870000  1.0 0.0106692748
C  C613  1  0.01490000  0.67370000  0.59130000  1.0 -0.0179473997
C  C614  1  0.67370000  0.01490000  0.72010000  1.0 -0.0179473997
C  C615  1  0.52990000  0.65870000  0.57630000  1.0 -0.0179473997
C  C616  1  0.65870000  0.52990000  0.23510000  1.0 -0.0179473997
C  C617  1  0.00910000  0.71490000  0.56890000  1.0 -0.0589411117
C  C618  1  0.71490000  0.00910000  0.70710000  1.0 -0.0589411117
C  C619  1  0.54290000  0.68110000  0.53510000  1.0 -0.0589411117
C  C620  1  0.68110000  0.54290000  0.24090000  1.0 -0.0589411117
C  C621  1  0.15330000  0.79350000  0.64470000  1.0 0.0809642945
C  C622  1  0.79350000  0.15330000  0.40850000  1.0 0.0809642945
C  C623  1  0.84150000  0.60530000  0.45650000  1.0 0.0809642945
C  C624  1  0.60530000  0.84150000  0.09670000  1.0 0.0809642945
C  C625  1  0.15130000  0.76470000  0.63030000  1.0 -0.0901719634
C  C626  1  0.76470000  0.15130000  0.45370000  1.0 -0.0901719634
C  C627  1  0.79630000  0.61970000  0.48530000  1.0 -0.0901719634
C  C628  1  0.61970000  0.79630000  0.09870000  1.0 -0.0901719634
C  C629  1  0.16950000  0.71350000  0.64770000  1.0 0.0605888091
C  C630  1  0.71350000  0.16950000  0.46930000  1.0 0.0605888091
C  C631  1  0.78070000  0.60230000  0.53650000  1.0 0.0605888091
C  C632  1  0.60230000  0.78070000  0.08050000  1.0 0.0605888091
C  C633  1  0.19220000  0.69560000  0.68180000  1.0 0.039504632
C  C634  1  0.69560000  0.19220000  0.43040000  1.0 0.0497464881
C  C635  1  0.81960000  0.56820000  0.55440000  1.0 0.039504632
C  C636  1  0.56820000  0.81960000  0.05780000  1.0 0.0497464881
C  C637  1  0.19000000  0.73160000  0.69720000  1.0 0.0697925693
C  C638  1  0.73160000  0.19000000  0.38120000  1.0 0.0697925693
C  C639  1  0.86880000  0.55280000  0.51840000  1.0 0.0697925693
C  C640  1  0.55280000  0.86880000  0.06000000  1.0 0.0697925693
C  C641  1  0.17420000  0.78080000  0.67460000  1.0 -0.0396669895
C  C642  1  0.78080000  0.17420000  0.37040000  1.0 -0.0396669895
C  C643  1  0.87960000  0.57540000  0.46920000  1.0 -0.0396669895
C  C644  1  0.57540000  0.87960000  0.07580000  1.0 -0.0396669895
C  C645  1  0.25580000  0.83060000  0.58880000  1.0 0.0890403968
C  C646  1  0.83060000  0.25580000  0.32480000  1.0 0.0890403968
C  C647  1  0.92520000  0.66120000  0.41940000  1.0 0.0890403968
C  C648  1  0.66120000  0.92520000  0.99420000  1.0 0.0890403968
C  C649  1  0.28640000  0.78700000  0.60700000  1.0 -0.0179473997
C  C650  1  0.78700000  0.28640000  0.31960000  1.0 -0.0179473997
C  C651  1  0.93040000  0.64300000  0.46300000  1.0 -0.012412167
C  C652  1  0.64300000  0.93040000  0.96360000  1.0 -0.0179473997
C  C653  1  0.27670000  0.78650000  0.65150000  1.0 0.0308679271
C  C654  1  0.78650000  0.27670000  0.28530000  1.0 0.039504632
C  C655  1  0.96470000  0.59850000  0.46350000  1.0 0.0308679271
C  C656  1  0.59850000  0.96470000  0.97330000  1.0 0.0308679271
C  C657  1  0.25320000  0.82460000  0.66920000  1.0 -0.0500744277
C  C658  1  0.82460000  0.25320000  0.25300000  1.0 -0.0500744277
C  C659  1  0.99700000  0.58080000  0.42540000  1.0 -0.0396669895
C  C660  1  0.58080000  0.99700000  0.99680000  1.0 -0.0500744277
C  C661  1  0.22380000  0.86220000  0.65340000  1.0 0.0809642945
C  C662  1  0.86220000  0.22380000  0.26060000  1.0 0.0809642945
C  C663  1  0.98940000  0.59660000  0.38780000  1.0 0.0809642945
C  C664  1  0.59660000  0.98940000  0.02620000  1.0 0.0809642945
C  C665  1  0.22460000  0.86800000  0.60720000  1.0 -0.0702270039
C  C666  1  0.86800000  0.22460000  0.30020000  1.0 -0.0785112225
C  C667  1  0.94980000  0.64280000  0.38200000  1.0 -0.0785112225
C  C668  1  0.64280000  0.94980000  0.02540000  1.0 -0.0785112225
C  C669  1  0.22209000  0.02103000  0.30225000  1.0 0.1108260356
C  C670  1  0.02103000  0.22209000  0.45463000  1.0 0.1108260356
C  C671  1  0.79537000  0.94775000  0.22897000  1.0 0.1108260356
C  C672  1  0.94775000  0.79537000  0.02791000  1.0 0.1108260356
C  C673  1  0.20204000  0.04096000  0.26964000  1.0 -0.0500744277
C  C674  1  0.04096000  0.20204000  0.48736000  1.0 -0.0500744277
C  C675  1  0.76264000  0.98036000  0.20904000  1.0 -0.0500744277
C  C676  1  0.98036000  0.76264000  0.04796000  1.0 -0.0500744277
C  C677  1  0.22965000  0.04319000  0.22301000  1.0 0.039504632
C  C678  1  0.04319000  0.22965000  0.50415000  1.0 0.039504632
C  C679  1  0.74585000  0.02699000  0.20681000  1.0 0.039504632
C  C680  1  0.02699000  0.74585000  0.02035000  1.0 0.039504632
C  C681  1  0.27731000  0.02551000  0.20909000  1.0 0.0106692748
C  C682  1  0.02551000  0.27731000  0.48809000  1.0 0.0106692748
C  C683  1  0.76191000  0.04091000  0.22449000  1.0 0.0106692748
C  C684  1  0.04091000  0.76191000  0.97269000  1.0 0.0106692748
C  C685  1  0.29727000  0.00567000  0.24173000  1.0 0.0308679271
C  C686  1  0.00567000  0.29727000  0.45533000  1.0 0.0308679271
C  C687  1  0.79467000  0.00827000  0.24433000  1.0 0.0308679271
C  C688  1  0.00827000  0.79467000  0.95273000  1.0 0.0308679271
C  C689  1  0.26973000  0.00337000  0.28827000  1.0 -0.0396669895
C  C690  1  0.00337000  0.26973000  0.43863000  1.0 -0.0396669895
C  C691  1  0.81137000  0.96173000  0.24663000  1.0 -0.0396669895
C  C692  1  0.96173000  0.81137000  0.98027000  1.0 -0.0396669895
C  C693  1  0.26119000  0.00881000  0.45819000  1.0 0.0809642945
C  C694  1  0.00881000  0.26119000  0.27181000  1.0 0.0809642945
C  C695  1  0.97819000  0.79181000  0.24119000  1.0 0.0809642945
C  C696  1  0.79181000  0.97819000  0.98881000  1.0 0.0890403968
C  C697  1  0.26182000  0.01798000  0.41462000  1.0 -0.1228297456
C  C698  1  0.01798000  0.26182000  0.30558000  1.0 -0.1228297456
C  C699  1  0.94442000  0.83538000  0.23202000  1.0 -0.1228297456
C  C700  1  0.83538000  0.94442000  0.98818000  1.0 -0.1228297456
C  C701  1  0.28208000  0.04666000  0.37774000  1.0 0.0605888091
C  C702  1  0.04666000  0.28208000  0.29352000  1.0 0.0605888091
C  C703  1  0.95648000  0.87226000  0.20334000  1.0 0.0605888091
C  C704  1  0.87226000  0.95648000  0.96792000  1.0 0.0605888091
C  C705  1  0.30180000  0.06620000  0.38440000  1.0 0.0106692748
C  C706  1  0.06620000  0.30180000  0.24760000  1.0 0.0106692748
C  C707  1  0.00240000  0.86560000  0.18380000  1.0 0.0106692748
C  C708  1  0.86560000  0.00240000  0.94820000  1.0 0.0106692748
C  C709  1  0.30120000  0.05720000  0.42780000  1.0 0.0497464881
C  C710  1  0.05720000  0.30120000  0.21380000  1.0 0.0497464881
C  C711  1  0.03620000  0.82220000  0.19280000  1.0 0.0497464881
C  C712  1  0.82220000  0.03620000  0.94880000  1.0 0.0497464881
C  C713  1  0.28080000  0.02860000  0.46480000  1.0 -0.0301678776
C  C714  1  0.02860000  0.28080000  0.22580000  1.0 -0.0301678776
C  C715  1  0.02420000  0.78520000  0.22140000  1.0 -0.0301678776
C  C716  1  0.78520000  0.02420000  0.96920000  1.0 -0.0301678776
C  C717  1  0.13471000  0.10749000  0.49251000  1.0 0.0497464881
C  C718  1  0.10749000  0.13471000  0.26529000  1.0 0.0605888091
C  C719  1  0.98471000  0.75749000  0.14251000  1.0 0.0605888091
C  C720  1  0.75749000  0.98471000  0.11529000  1.0 0.0497464881
C  C721  1  0.17165000  0.11855000  0.47605000  1.0 -0.0301678776
C  C722  1  0.11855000  0.17165000  0.23375000  1.0 -0.0301678776
C  C723  1  0.01625000  0.77395000  0.13145000  1.0 -0.0301678776
C  C724  1  0.77395000  0.01625000  0.07835000  1.0 -0.0301678776
C  C725  1  0.17092000  0.14228000  0.49972000  1.0 0.0029675738
C  C726  1  0.14228000  0.17092000  0.18708000  1.0 0.0029675738
C  C727  1  0.06292000  0.75028000  0.10772000  1.0 0.0029675738
C  C728  1  0.75028000  0.06292000  0.07908000  1.0 0.0029675738
C  C729  1  0.13346000  0.15494000  0.53966000  1.0 0.0308679271
C  C730  1  0.15494000  0.13346000  0.17194000  1.0 0.0308679271
C  C731  1  0.07806000  0.71034000  0.09506000  1.0 0.0308679271
C  C732  1  0.71034000  0.07806000  0.11654000  1.0 0.0308679271
C  C733  1  0.09663000  0.14397000  0.55603000  1.0 -0.0396669895
C  C734  1  0.14397000  0.09663000  0.20337000  1.0 -0.0301678776
C  C735  1  0.04663000  0.69397000  0.10603000  1.0 -0.0396669895
C  C736  1  0.69397000  0.04663000  0.15337000  1.0 -0.0396669895
C  C737  1  0.09725000  0.12015000  0.53245000  1.0 -0.0396669895
C  C738  1  0.12015000  0.09725000  0.25015000  1.0 -0.0396669895
C  C739  1  0.99985000  0.71755000  0.12985000  1.0 -0.0396669895
C  C740  1  0.71755000  0.99985000  0.15275000  1.0 -0.0396669895
C  C741  1  0.14900000  0.85760000  0.30460000  1.0 0.1164459614
C  C742  1  0.85760000  0.14900000  0.68880000  1.0 0.1164459614
C  C743  1  0.56120000  0.94540000  0.39240000  1.0 0.1164459614
C  C744  1  0.94540000  0.56120000  0.10100000  1.0 0.1164459614
C  C745  1  0.18360000  0.85460000  0.31260000  1.0 -0.0785112225
C  C746  1  0.85460000  0.18360000  0.64920000  1.0 -0.0702270039
C  C747  1  0.60080000  0.93740000  0.39540000  1.0 -0.0785112225
C  C748  1  0.93740000  0.60080000  0.06640000  1.0 -0.0702270039
C  C749  1  0.22870000  0.84070000  0.28090000  1.0 0.0497464881
C  C750  1  0.84070000  0.22870000  0.64970000  1.0 0.0497464881
C  C751  1  0.60030000  0.96910000  0.40930000  1.0 0.0497464881
C  C752  1  0.96910000  0.60030000  0.02130000  1.0 0.0497464881
C  C753  1  0.23910000  0.83030000  0.24110000  1.0 -0.012412167
C  C754  1  0.83030000  0.23910000  0.68950000  1.0 -0.0179473997
C  C755  1  0.56050000  0.00890000  0.41970000  1.0 -0.0179473997
C  C756  1  0.00890000  0.56050000  0.01090000  1.0 -0.012412167
C  C757  1  0.20450000  0.83330000  0.23310000  1.0 0.039504632
C  C758  1  0.83330000  0.20450000  0.72910000  1.0 0.039504632
C  C759  1  0.52090000  0.01690000  0.41670000  1.0 0.039504632
C  C760  1  0.01690000  0.52090000  0.04550000  1.0 0.039504632
C  C761  1  0.15940000  0.84720000  0.26480000  1.0 -0.0396669895
C  C762  1  0.84720000  0.15940000  0.72860000  1.0 -0.0396669895
C  C763  1  0.52140000  0.98520000  0.40280000  1.0 -0.0396669895
C  C764  1  0.98520000  0.52140000  0.09060000  1.0 -0.0396669895
C  C765  1  0.92920000  0.80000000  0.71740000  1.0 0.0809642945
C  C766  1  0.80000000  0.92920000  0.55340000  1.0 0.0809642945
C  C767  1  0.69660000  0.53260000  0.45000000  1.0 0.0809642945
C  C768  1  0.53260000  0.69660000  0.32080000  1.0 0.0809642945
C  C769  1  0.97300000  0.78040000  0.71840000  1.0 -0.0901719634
C  C770  1  0.78040000  0.97300000  0.52820000  1.0 -0.0901719634
C  C771  1  0.72180000  0.53160000  0.46960000  1.0 -0.0901719634
C  C772  1  0.53160000  0.72180000  0.27700000  1.0 -0.0901719634
C  C773  1  0.98740000  0.73180000  0.74820000  1.0 0.0809642945
C  C774  1  0.73180000  0.98740000  0.53260000  1.0 0.0809642945
C  C775  1  0.71740000  0.50180000  0.51820000  1.0 0.0809642945
C  C776  1  0.50180000  0.71740000  0.26260000  1.0 0.0809642945
C  C777  1  0.95860000  0.70980000  0.77440000  1.0 -0.0589411117
C  C778  1  0.70980000  0.95860000  0.55720000  1.0 -0.0589411117
C  C779  1  0.69280000  0.47560000  0.54020000  1.0 -0.0589411117
C  C780  1  0.47560000  0.69280000  0.29140000  1.0 -0.0500744277
C  C781  1  0.91740000  0.73160000  0.77060000  1.0 0.0697925693
C  C782  1  0.73160000  0.91740000  0.58040000  1.0 0.0697925693
C  C783  1  0.66960000  0.47940000  0.51840000  1.0 0.0697925693
C  C784  1  0.47940000  0.66960000  0.33260000  1.0 0.0697925693
C  C785  1  0.90000000  0.77920000  0.74480000  1.0 -0.012412167
C  C786  1  0.77920000  0.90000000  0.57600000  1.0 -0.012412167
C  C787  1  0.67400000  0.50520000  0.47080000  1.0 -0.012412167
C  C788  1  0.50520000  0.67400000  0.35000000  1.0 -0.0179473997
C  C789  1  0.81850000  0.88670000  0.81030000  1.0 0.0997242319
C  C790  1  0.88670000  0.81850000  0.48450000  1.0 0.0997242319
C  C791  1  0.76550000  0.43970000  0.36330000  1.0 0.0997242319
C  C792  1  0.43970000  0.76550000  0.43150000  1.0 0.0997242319
C  C793  1  0.79750000  0.86690000  0.85450000  1.0 -0.0589411117
C  C794  1  0.86690000  0.79750000  0.48110000  1.0 -0.0589411117
C  C795  1  0.76890000  0.39550000  0.38310000  1.0 -0.0589411117
C  C796  1  0.39550000  0.76890000  0.45250000  1.0 -0.0589411117
C  C797  1  0.76020000  0.85540000  0.86520000  1.0 0.0497464881
C  C798  1  0.85540000  0.76020000  0.51920000  1.0 0.0497464881
C  C799  1  0.73080000  0.38480000  0.39460000  1.0 0.0497464881
C  C800  1  0.38480000  0.73080000  0.48980000  1.0 0.0497464881
C  C801  1  0.74310000  0.86890000  0.82970000  1.0 0.039504632
C  C802  1  0.86890000  0.74310000  0.55830000  1.0 0.039504632
C  C803  1  0.69170000  0.42030000  0.38110000  1.0 0.039504632
C  C804  1  0.42030000  0.69170000  0.50690000  1.0 0.039504632
C  C805  1  0.76280000  0.89680000  0.78380000  1.0 0.0605888091
C  C806  1  0.89680000  0.76280000  0.55660000  1.0 0.0497464881
C  C807  1  0.69340000  0.46620000  0.35320000  1.0 0.0605888091
C  C808  1  0.46620000  0.69340000  0.48720000  1.0 0.0605888091
C  C809  1  0.80090000  0.90130000  0.77610000  1.0 -0.1075757511
C  C810  1  0.90130000  0.80090000  0.52170000  1.0 -0.1038575833
C  C811  1  0.72830000  0.47390000  0.34870000  1.0 -0.1075757511
C  C812  1  0.47390000  0.72830000  0.44910000  1.0 -0.1075757511
C  C813  1  0.99290000  0.05130000  0.69910000  1.0 0.0697925693
C  C814  1  0.05130000  0.99290000  0.25670000  1.0 0.0697925693
C  C815  1  0.99330000  0.55090000  0.19870000  1.0 0.0697925693
C  C816  1  0.55090000  0.99330000  0.25710000  1.0 0.0697925693
C  C817  1  0.01450000  0.04010000  0.72790000  1.0 -0.012412167
C  C818  1  0.04010000  0.01450000  0.21750000  1.0 -0.0179473997
C  C819  1  0.03250000  0.52210000  0.20990000  1.0 -0.012412167
C  C820  1  0.52210000  0.03250000  0.23550000  1.0 -0.0179473997
C  C821  1  0.01310000  0.07490000  0.73810000  1.0 0.0308679271
C  C822  1  0.07490000  0.01310000  0.17390000  1.0 0.0308679271
C  C823  1  0.07610000  0.51190000  0.17510000  1.0 0.0308679271
C  C824  1  0.51190000  0.07610000  0.23690000  1.0 0.0308679271
C  C825  1  0.99000000  0.12080000  0.71960000  1.0 0.0308679271
C  C826  1  0.12080000  0.99000000  0.16960000  1.0 0.0308679271
C  C827  1  0.08040000  0.53040000  0.12920000  1.0 0.0308679271
C  C828  1  0.53040000  0.08040000  0.26000000  1.0 0.0308679271
C  C829  1  0.96840000  0.13200000  0.69080000  1.0 0.0106692748
C  C830  1  0.13200000  0.96840000  0.20880000  1.0 0.019105649
C  C831  1  0.04120000  0.55920000  0.11800000  1.0 0.0106692748
C  C832  1  0.55920000  0.04120000  0.28160000  1.0 0.019105649
C  C833  1  0.96970000  0.09730000  0.68070000  1.0 -0.0702270039
C  C834  1  0.09730000  0.96970000  0.25230000  1.0 -0.0702270039
C  C835  1  0.99770000  0.56930000  0.15270000  1.0 -0.0702270039
C  C836  1  0.56930000  0.99770000  0.28030000  1.0 -0.0702270039
C  C837  1  0.73550000  0.08150000  0.77510000  1.0 0.1108260356
C  C838  1  0.08150000  0.73550000  0.40790000  1.0 0.1108260356
C  C839  1  0.84210000  0.47490000  0.16850000  1.0 0.1108260356
C  C840  1  0.47490000  0.84210000  0.51450000  1.0 0.1108260356
C  C841  1  0.68740000  0.09660000  0.80440000  1.0 -0.0016051055
C  C842  1  0.09660000  0.68740000  0.41160000  1.0 -0.012412167
C  C843  1  0.83840000  0.44560000  0.15340000  1.0 -0.012412167
C  C844  1  0.44560000  0.83840000  0.56260000  1.0 -0.0016051055
C  C845  1  0.66130000  0.14070000  0.81770000  1.0 0.0697925693
C  C846  1  0.14070000  0.66130000  0.38030000  1.0 0.0697925693
C  C847  1  0.86970000  0.43230000  0.10930000  1.0 0.0697925693
C  C848  1  0.43230000  0.86970000  0.58870000  1.0 0.0697925693
C  C849  1  0.68510000  0.17330000  0.79450000  1.0 0.039504632
C  C850  1  0.17330000  0.68510000  0.34710000  1.0 0.039504632
C  C851  1  0.90290000  0.45550000  0.07670000  1.0 0.039504632
C  C852  1  0.45550000  0.90290000  0.56490000  1.0 0.039504632
C  C853  1  0.73710000  0.15670000  0.76390000  1.0 0.0697925693
C  C854  1  0.15670000  0.73710000  0.34230000  1.0 0.0697925693
C  C855  1  0.90770000  0.48610000  0.09330000  1.0 0.0697925693
C  C856  1  0.48610000  0.90770000  0.51290000  1.0 0.0697925693
C  C857  1  0.75860000  0.11060000  0.75640000  1.0 -0.129775554
C  C858  1  0.11060000  0.75860000  0.37440000  1.0 -0.129775554
C  C859  1  0.87560000  0.49360000  0.13940000  1.0 -0.129775554
C  C860  1  0.49360000  0.87560000  0.49140000  1.0 -0.129775554
C  C861  1  0.34900000  0.90680000  0.52080000  1.0 0.1108260356
C  C862  1  0.90680000  0.34900000  0.22340000  1.0 0.1108260356
C  C863  1  0.02660000  0.72920000  0.34320000  1.0 0.1108260356
C  C864  1  0.72920000  0.02660000  0.90100000  1.0 0.1108260356
C  C865  1  0.36540000  0.94380000  0.49560000  1.0 -0.0785112225
C  C866  1  0.94380000  0.36540000  0.19520000  1.0 -0.0785112225
C  C867  1  0.05480000  0.75440000  0.30620000  1.0 -0.0702270039
C  C868  1  0.75440000  0.05480000  0.88460000  1.0 -0.0785112225
C  C869  1  0.35340000  0.97320000  0.52240000  1.0 0.0308679271
C  C870  1  0.97320000  0.35340000  0.15100000  1.0 0.0308679271
C  C871  1  0.09900000  0.72760000  0.27680000  1.0 0.0308679271
C  C872  1  0.72760000  0.09900000  0.89660000  1.0 0.0308679271
C  C873  1  0.32570000  0.96950000  0.56690000  1.0 0.0106692748
C  C874  1  0.96950000  0.32570000  0.13790000  1.0 0.0106692748
C  C875  1  0.11210000  0.68310000  0.28050000  1.0 0.0106692748
C  C876  1  0.68310000  0.11210000  0.92430000  1.0 0.0106692748
C  C877  1  0.31030000  0.93230000  0.59290000  1.0 0.0890403968
C  C878  1  0.93230000  0.31030000  0.16450000  1.0 0.0890403968
C  C879  1  0.08550000  0.65710000  0.31770000  1.0 0.0890403968
C  C880  1  0.65710000  0.08550000  0.93970000  1.0 0.0890403968
C  C881  1  0.32060000  0.90080000  0.56860000  1.0 -0.0500744277
C  C882  1  0.90080000  0.32060000  0.21000000  1.0 -0.0500744277
C  C883  1  0.04000000  0.68140000  0.34920000  1.0 -0.0500744277
C  C884  1  0.68140000  0.04000000  0.92940000  1.0 -0.0500744277
C  C885  1  0.13400000  0.00360000  0.61920000  1.0 0.039504632
C  C886  1  0.00360000  0.13400000  0.24320000  1.0 0.039504632
C  C887  1  0.00680000  0.63080000  0.24640000  1.0 0.039504632
C  C888  1  0.63080000  0.00680000  0.11600000  1.0 0.039504632
C  C889  1  0.17330000  0.03490000  0.62490000  1.0 -0.199923548
C  C890  1  0.03490000  0.17330000  0.16690000  1.0 -0.199923548
C  C891  1  0.08310000  0.62510000  0.21510000  1.0 -0.199923548
C  C892  1  0.62510000  0.08310000  0.07670000  1.0 -0.199923548
C  C893  1  0.16860000  0.01820000  0.59920000  1.0 0.019105649
C  C894  1  0.01820000  0.16860000  0.21400000  1.0 0.019105649
C  C895  1  0.03600000  0.65080000  0.23180000  1.0 0.019105649
C  C896  1  0.65080000  0.03600000  0.08140000  1.0 0.019105649
C  C897  1  0.11340000  0.04980000  0.60320000  1.0 -0.0702270039
C  C898  1  0.04980000  0.11340000  0.23360000  1.0 -0.0589411117
C  C899  1  0.01640000  0.64680000  0.20020000  1.0 -0.0589411117
C  C900  1  0.64680000  0.01640000  0.13660000  1.0 -0.0589411117
C  C901  1  0.10120000  0.09540000  0.62460000  1.0 0.4994408147
C  C902  1  0.09540000  0.10120000  0.17880000  1.0 0.452303308
C  C903  1  0.07120000  0.62540000  0.15460000  1.0 0.452303308
C  C904  1  0.62540000  0.07120000  0.14880000  1.0 0.4994408147
S  S1  1  0.43037000  0.58023000  0.96175000  1.0 -0.7476397834
S  S2  1  0.58023000  0.43037000  0.02765000  1.0 -0.7476397834
S  S3  1  0.22235000  0.28825000  0.66977000  1.0 -0.7414415681
S  S4  1  0.28825000  0.22235000  0.81963000  1.0 -0.7476397834
S  S5  1  0.41723000  0.48601000  0.93967000  1.0 -0.6828044924
S  S6  1  0.48601000  0.41723000  0.15709000  1.0 -0.6828044924
S  S7  1  0.09291000  0.31033000  0.76399000  1.0 -0.6828044924
S  S8  1  0.31033000  0.09291000  0.83277000  1.0 -0.6828044924
S  S9  1  0.54580000  0.46560000  0.91582000  1.0 -0.7414415681
S  S10  1  0.46560000  0.54580000  0.07278000  1.0 -0.7414415681
S  S11  1  0.17722000  0.33418000  0.78440000  1.0 -0.7414415681
S  S12  1  0.33418000  0.17722000  0.70420000  1.0 -0.7414415681
S  S13  1  0.52649000  0.59783000  0.82311000  1.0 -0.6592319357
S  S14  1  0.59783000  0.52649000  0.05257000  1.0 -0.6592319357
S  S15  1  0.19743000  0.42689000  0.65217000  1.0 -0.6592319357
S  S16  1  0.42689000  0.19743000  0.72351000  1.0 -0.6592319357
S  S17  1  0.44312000  0.67318000  0.98574000  1.0 -0.6886710974
S  S18  1  0.67318000  0.44312000  0.89796000  1.0 -0.6886710974
S  S19  1  0.35204000  0.26426000  0.57682000  1.0 -0.6886710974
S  S20  1  0.26426000  0.35204000  0.80688000  1.0 -0.6886710974
S  S21  1  0.56006000  0.56006000  0.93994000  1.0 -0.7476397834
S  S22  1  0.31006000  0.31006000  0.68994000  1.0 -0.7476397834
S  S23  1  0.39135000  0.62367000  0.85511000  1.0 -0.2585179779
S  S24  1  0.62367000  0.39135000  0.12987000  1.0 -0.251580733
S  S25  1  0.12013000  0.39489000  0.62633000  1.0 -0.251580733
S  S26  1  0.39489000  0.12013000  0.85865000  1.0 -0.2585179779
S  S27  1  0.33200000  0.56516000  0.10006000  1.0 -0.6592319357
S  S28  1  0.56516000  0.33200000  0.00278000  1.0 -0.6592319357
S  S29  1  0.24722000  0.14994000  0.68484000  1.0 -0.6592319357
S  S30  1  0.14994000  0.24722000  0.91800000  1.0 -0.6592319357
S  S31  1  0.65706000  0.55852000  0.81122000  1.0 -0.3406531766
S  S32  1  0.55852000  0.65706000  0.97320000  1.0 -0.3406531766
S  S33  1  0.27680000  0.43878000  0.69148000  1.0 -0.3406531766
S  S34  1  0.43878000  0.27680000  0.59294000  1.0 -0.3406531766
S  S35  1  0.55275000  0.68057000  0.85537000  1.0 -0.2886457966
S  S36  1  0.68057000  0.55275000  0.91131000  1.0 -0.2886457966
S  S37  1  0.33869000  0.39463000  0.56943000  1.0 -0.2886457966
S  S38  1  0.39463000  0.33869000  0.69725000  1.0 -0.2886457966
S  S39  1  0.41221000  0.70827000  0.88487000  1.0 -0.2886457966
S  S40  1  0.70827000  0.41221000  0.99465000  1.0 -0.2981907748
S  S41  1  0.25535000  0.36513000  0.54173000  1.0 -0.2886457966
S  S42  1  0.36513000  0.25535000  0.83779000  1.0 -0.2886457966
S  S43  1  0.45062000  0.45062000  0.04938000  1.0 -0.7476397834
S  S44  1  0.20062000  0.20062000  0.79938000  1.0 -0.7414415681
S  S45  1  0.63474000  0.46864000  0.78592000  1.0 -0.251580733
S  S46  1  0.46864000  0.63474000  0.11070000  1.0 -0.251580733
S  S47  1  0.13930000  0.46408000  0.78136000  1.0 -0.251580733
S  S48  1  0.46408000  0.13930000  0.61526000  1.0 -0.243035582
S  S49  1  0.50292000  0.49480000  0.81984000  1.0 -0.2805035263
S  S50  1  0.49480000  0.50292000  0.18244000  1.0 -0.2805035263
S  S51  1  0.06756000  0.43016000  0.75520000  1.0 -0.2805035263
S  S52  1  0.43016000  0.06756000  0.74708000  1.0 -0.2886457966
S  S53  1  0.43964000  0.79962000  0.89510000  1.0 -0.307265423
S  S54  1  0.79962000  0.43964000  0.86564000  1.0 -0.307265423
S  S55  1  0.38436000  0.35490000  0.45038000  1.0 -0.307265423
S  S56  1  0.35490000  0.38436000  0.81036000  1.0 -0.307265423
S  S57  1  0.40466000  0.39796000  0.90486000  1.0 -0.2805035263
S  S58  1  0.39796000  0.40466000  0.29252000  1.0 -0.2714463222
S  S59  1  0.95748000  0.34514000  0.85204000  1.0 -0.2714463222
S  S60  1  0.34514000  0.95748000  0.84534000  1.0 -0.2805035263
S  S61  1  0.31107000  0.58977000  0.98019000  1.0 -0.3978900138
S  S62  1  0.58977000  0.31107000  0.11897000  1.0 -0.3978900138
S  S63  1  0.13103000  0.26981000  0.66023000  1.0 -0.3978900138
S  S64  1  0.26981000  0.13103000  0.93893000  1.0 -0.3978900138
S  S65  1  0.53787000  0.37315000  0.88403000  1.0 -0.2886457966
S  S66  1  0.37315000  0.53787000  0.20495000  1.0 -0.2805035263
S  S67  1  0.04505000  0.36597000  0.87685000  1.0 -0.2805035263
S  S68  1  0.36597000  0.04505000  0.71213000  1.0 -0.2805035263
S  S69  1  0.66179000  0.36085000  0.87363000  1.0 -0.3221207126
S  S70  1  0.36085000  0.66179000  0.10373000  1.0 -0.3284668275
S  S71  1  0.14627000  0.37637000  0.88915000  1.0 -0.3284668275
S  S72  1  0.37637000  0.14627000  0.58821000  1.0 -0.3284668275
S  S73  1  0.44314000  0.76384000  0.02700000  1.0 -0.2886457966
S  S74  1  0.76384000  0.44314000  0.76602000  1.0 -0.2805035263
S  S75  1  0.48398000  0.22300000  0.48616000  1.0 -0.2886457966
S  S76  1  0.22300000  0.48398000  0.80686000  1.0 -0.2805035263
S  S77  1  0.28678000  0.49972000  0.97280000  1.0 -0.1075757511
S  S78  1  0.49972000  0.28678000  0.24070000  1.0 -0.1075757511
S  S79  1  0.00930000  0.27720000  0.75028000  1.0 -0.1038575833
S  S80  1  0.27720000  0.00930000  0.96322000  1.0 -0.1075757511
S  S81  1  0.31025000  0.68975000  0.00447000  1.0 -0.2886457966
S  S82  1  0.68975000  0.31025000  0.99553000  1.0 -0.2886457966
S  S83  1  0.25447000  0.24553000  0.56025000  1.0 -0.2886457966
S  S84  1  0.24553000  0.25447000  0.93975000  1.0 -0.2886457966
S  S85  1  0.37306000  0.53218000  0.83236000  1.0 -0.3284668275
S  S86  1  0.53218000  0.37306000  0.26240000  1.0 -0.3284668275
S  S87  1  0.98760000  0.41764000  0.71782000  1.0 -0.3284668275
S  S88  1  0.41764000  0.98760000  0.87694000  1.0 -0.3284668275
S  S89  1  0.33078000  0.45598000  0.08022000  1.0 -0.3902192498
S  S90  1  0.45598000  0.33078000  0.13302000  1.0 -0.3902192498
S  S91  1  0.11698000  0.16978000  0.79402000  1.0 -0.3902192498
S  S92  1  0.16978000  0.11698000  0.91922000  1.0 -0.3902192498
S  S93  1  0.32318000  0.79256000  0.01324000  1.0 -0.3221207126
S  S94  1  0.79256000  0.32318000  0.87102000  1.0 -0.3221207126
S  S95  1  0.37898000  0.23676000  0.45744000  1.0 -0.3221207126
S  S96  1  0.23676000  0.37898000  0.92682000  1.0 -0.3221207126
S  S97  1  0.43252000  0.36490000  0.01770000  1.0 -0.3642560217
S  S98  1  0.36490000  0.43252000  0.18488000  1.0 -0.3653115603
S  S99  1  0.06512000  0.23230000  0.88510000  1.0 -0.3642560217
S  S100  1  0.23230000  0.06512000  0.81748000  1.0 -0.3642560217
S  S101  1  0.27885000  0.49079000  0.86945000  1.0 -0.3406531766
S  S102  1  0.49079000  0.27885000  0.36091000  1.0 -0.3406531766
S  S103  1  0.88909000  0.38055000  0.75921000  1.0 -0.3406531766
S  S104  1  0.38055000  0.88909000  0.97115000  1.0 -0.3406531766
S  S105  1  0.02765000  0.96175000  0.58023000  1.0 -0.7476397834
S  S106  1  0.96175000  0.02765000  0.43037000  1.0 -0.7476397834
S  S107  1  0.81963000  0.66977000  0.28825000  1.0 -0.7414415681
S  S108  1  0.66977000  0.81963000  0.22235000  1.0 -0.7414415681
S  S109  1  0.15709000  0.93967000  0.48601000  1.0 -0.6828044924
S  S110  1  0.93967000  0.15709000  0.41723000  1.0 -0.6886710974
S  S111  1  0.83277000  0.76399000  0.31033000  1.0 -0.6886710974
S  S112  1  0.76399000  0.83277000  0.09291000  1.0 -0.6828044924
S  S113  1  0.07278000  0.91582000  0.46560000  1.0 -0.7414415681
S  S114  1  0.91582000  0.07278000  0.54580000  1.0 -0.7414415681
S  S115  1  0.70420000  0.78440000  0.33418000  1.0 -0.7414415681
S  S116  1  0.78440000  0.70420000  0.17722000  1.0 -0.7414415681
S  S117  1  0.05257000  0.82311000  0.59783000  1.0 -0.6592319357
S  S118  1  0.82311000  0.05257000  0.52649000  1.0 -0.6592319357
S  S119  1  0.72351000  0.65217000  0.42689000  1.0 -0.6592319357
S  S120  1  0.65217000  0.72351000  0.19743000  1.0 -0.6592319357
S  S121  1  0.89796000  0.98574000  0.67318000  1.0 -0.6886710974
S  S122  1  0.98574000  0.89796000  0.44312000  1.0 -0.6886710974
S  S123  1  0.80688000  0.57682000  0.26426000  1.0 -0.6886710974
S  S124  1  0.57682000  0.80688000  0.35204000  1.0 -0.6886710974
S  S125  1  0.93994000  0.93994000  0.56006000  1.0 -0.7476397834
S  S126  1  0.68994000  0.68994000  0.31006000  1.0 -0.7476397834
S  S127  1  0.12987000  0.85511000  0.62367000  1.0 -0.2585179779
S  S128  1  0.85511000  0.12987000  0.39135000  1.0 -0.2585179779
S  S129  1  0.85865000  0.62633000  0.39489000  1.0 -0.251580733
S  S130  1  0.62633000  0.85865000  0.12013000  1.0 -0.2585179779
S  S131  1  0.00278000  0.10006000  0.56516000  1.0 -0.6592319357
S  S132  1  0.10006000  0.00278000  0.33200000  1.0 -0.6592319357
S  S133  1  0.91800000  0.68484000  0.14994000  1.0 -0.6592319357
S  S134  1  0.68484000  0.91800000  0.24722000  1.0 -0.6592319357
S  S135  1  0.97320000  0.81122000  0.55852000  1.0 -0.3406531766
S  S136  1  0.81122000  0.97320000  0.65706000  1.0 -0.3406531766
S  S137  1  0.59294000  0.69148000  0.43878000  1.0 -0.3406531766
S  S138  1  0.69148000  0.59294000  0.27680000  1.0 -0.3406531766
S  S139  1  0.91131000  0.85537000  0.68057000  1.0 -0.2886457966
S  S140  1  0.85537000  0.91131000  0.55275000  1.0 -0.2886457966
S  S141  1  0.69725000  0.56943000  0.39463000  1.0 -0.2886457966
S  S142  1  0.56943000  0.69725000  0.33869000  1.0 -0.2886457966
S  S143  1  0.99465000  0.88487000  0.70827000  1.0 -0.2981907748
S  S144  1  0.88487000  0.99465000  0.41221000  1.0 -0.2981907748
S  S145  1  0.83779000  0.54173000  0.36513000  1.0 -0.2981907748
S  S146  1  0.54173000  0.83779000  0.25535000  1.0 -0.2886457966
S  S147  1  0.04938000  0.04938000  0.45062000  1.0 -0.7476397834
S  S148  1  0.79938000  0.79938000  0.20062000  1.0 -0.7414415681
S  S149  1  0.11070000  0.78592000  0.46864000  1.0 -0.251580733
S  S150  1  0.78592000  0.11070000  0.63474000  1.0 -0.243035582
S  S151  1  0.61526000  0.78136000  0.46408000  1.0 -0.243035582
S  S152  1  0.78136000  0.61526000  0.13930000  1.0 -0.251580733
S  S153  1  0.18244000  0.81984000  0.49480000  1.0 -0.2886457966
S  S154  1  0.81984000  0.18244000  0.50292000  1.0 -0.2805035263
S  S155  1  0.74708000  0.75520000  0.43016000  1.0 -0.2805035263
S  S156  1  0.75520000  0.74708000  0.06756000  1.0 -0.2805035263
S  S157  1  0.86564000  0.89510000  0.79962000  1.0 -0.307265423
S  S158  1  0.89510000  0.86564000  0.43964000  1.0 -0.2981907748
S  S159  1  0.81036000  0.45038000  0.35490000  1.0 -0.307265423
S  S160  1  0.45038000  0.81036000  0.38436000  1.0 -0.2981907748
S  S161  1  0.29252000  0.90486000  0.39796000  1.0 -0.2805035263
S  S162  1  0.90486000  0.29252000  0.40466000  1.0 -0.2714463222
S  S163  1  0.84534000  0.85204000  0.34514000  1.0 -0.2805035263
S  S164  1  0.85204000  0.84534000  0.95748000  1.0 -0.2714463222
S  S165  1  0.11897000  0.98019000  0.58977000  1.0 -0.3978900138
S  S166  1  0.98019000  0.11897000  0.31107000  1.0 -0.3978900138
S  S167  1  0.93893000  0.66023000  0.26981000  1.0 -0.3978900138
S  S168  1  0.66023000  0.93893000  0.13103000  1.0 -0.3978900138
S  S169  1  0.20495000  0.88403000  0.37315000  1.0 -0.2805035263
S  S170  1  0.88403000  0.20495000  0.53787000  1.0 -0.2805035263
S  S171  1  0.71213000  0.87685000  0.36597000  1.0 -0.2805035263
S  S172  1  0.87685000  0.71213000  0.04505000  1.0 -0.2805035263
S  S173  1  0.10373000  0.87363000  0.36085000  1.0 -0.3221207126
S  S174  1  0.87363000  0.10373000  0.66179000  1.0 -0.3284668275
S  S175  1  0.58821000  0.88915000  0.37637000  1.0 -0.3284668275
S  S176  1  0.88915000  0.58821000  0.14627000  1.0 -0.3221207126
S  S177  1  0.76602000  0.02700000  0.76384000  1.0 -0.2805035263
S  S178  1  0.02700000  0.76602000  0.44314000  1.0 -0.2886457966
S  S179  1  0.80686000  0.48616000  0.22300000  1.0 -0.2805035263
S  S180  1  0.48616000  0.80686000  0.48398000  1.0 -0.2886457966
S  S181  1  0.24070000  0.97280000  0.49972000  1.0 -0.1075757511
S  S182  1  0.97280000  0.24070000  0.28678000  1.0 -0.1075757511
S  S183  1  0.96322000  0.75028000  0.27720000  1.0 -0.1075757511
S  S184  1  0.75028000  0.96322000  0.00930000  1.0 -0.1075757511
S  S185  1  0.99553000  0.00447000  0.68975000  1.0 -0.2886457966
S  S186  1  0.00447000  0.99553000  0.31025000  1.0 -0.2886457966
S  S187  1  0.93975000  0.56025000  0.24553000  1.0 -0.2805035263
S  S188  1  0.56025000  0.93975000  0.25447000  1.0 -0.2886457966
S  S189  1  0.26240000  0.83236000  0.53218000  1.0 -0.3284668275
S  S190  1  0.83236000  0.26240000  0.37306000  1.0 -0.3284668275
S  S191  1  0.87694000  0.71782000  0.41764000  1.0 -0.3284668275
S  S192  1  0.71782000  0.87694000  0.98760000  1.0 -0.3406531766
S  S193  1  0.13302000  0.08022000  0.45598000  1.0 -0.3902192498
S  S194  1  0.08022000  0.13302000  0.33078000  1.0 -0.3902192498
S  S195  1  0.91922000  0.79402000  0.16978000  1.0 -0.3902192498
S  S196  1  0.79402000  0.91922000  0.11698000  1.0 -0.3902192498
S  S197  1  0.87102000  0.01324000  0.79256000  1.0 -0.3221207126
S  S198  1  0.01324000  0.87102000  0.32318000  1.0 -0.3221207126
S  S199  1  0.92682000  0.45744000  0.23676000  1.0 -0.3221207126
S  S200  1  0.45744000  0.92682000  0.37898000  1.0 -0.3221207126
S  S201  1  0.18488000  0.01770000  0.36490000  1.0 -0.3642560217
S  S202  1  0.01770000  0.18488000  0.43252000  1.0 -0.3653115603
S  S203  1  0.81748000  0.88510000  0.23230000  1.0 -0.3642560217
S  S204  1  0.88510000  0.81748000  0.06512000  1.0 -0.3653115603
S  S205  1  0.36091000  0.86945000  0.49079000  1.0 -0.3406531766
S  S206  1  0.86945000  0.36091000  0.27885000  1.0 -0.3406531766
S  S207  1  0.97115000  0.75921000  0.38055000  1.0 -0.3406531766
S  S208  1  0.75921000  0.97115000  0.88909000  1.0 -0.3406531766
