# DDEC6 charges by PACMAN v1.1 (https://github.com/mtap-research/PACMAN-charge/)
data_IDAHON_FSR_pacman
_symmetry_space_group_name_H-M   'P 1'
_cell_length_a   24.06880000
_cell_length_b   24.06880000
_cell_length_c   30.13660000
_cell_angle_alpha   90.00000000
_cell_angle_beta   90.00000000
_cell_angle_gamma   120.00000000
_symmetry_Int_Tables_number   1
_chemical_formula_structural   Zr6H118C147N3O35
_chemical_formula_sum   'Zr24 H472 C588 N12 O140'
_cell_volume   15119.37231980
_cell_formula_units_Z   4
loop_
 _symmetry_equiv_pos_site_id
 _symmetry_equiv_pos_as_xyz
  1  'x, y, z'
loop_
 _atom_site_type_symbol
 _atom_site_label
 _atom_site_symmetry_multiplicity
 _atom_site_fract_x
 _atom_site_fract_y
 _atom_site_fract_z
 _atom_site_occupancy
 _atom_site_charge
Zr  Zr1  1  0.73818000  0.31228000  0.86932000  1.0 2.315318859
Zr  Zr2  1  0.75969000  0.40327000  0.96523000  1.0 2.3590422634
Zr  Zr3  1  0.57410000  0.26182000  0.86932000  1.0 2.315318859
Zr  Zr4  1  0.64358000  0.24031000  0.96523000  1.0 2.3590422634
Zr  Zr5  1  0.68772000  0.42590000  0.86932000  1.0 2.315318859
Zr  Zr6  1  0.59673000  0.35642000  0.96523000  1.0 2.3590422634
Zr  Zr7  1  0.31228000  0.73818000  0.63068000  1.0 2.315318859
Zr  Zr8  1  0.40327000  0.75969000  0.53477000  1.0 2.3590422634
Zr  Zr9  1  0.26182000  0.57410000  0.63068000  1.0 2.315318859
Zr  Zr10  1  0.24031000  0.64358000  0.53477000  1.0 2.3590422634
Zr  Zr11  1  0.42590000  0.68772000  0.63068000  1.0 2.315318859
Zr  Zr12  1  0.35642000  0.59673000  0.53477000  1.0 2.3590422634
Zr  Zr13  1  0.26182000  0.68772000  0.13068000  1.0 2.315318859
Zr  Zr14  1  0.24031000  0.59673000  0.03477000  1.0 2.3590422634
Zr  Zr15  1  0.42590000  0.73818000  0.13068000  1.0 2.315318859
Zr  Zr16  1  0.35642000  0.75969000  0.03477000  1.0 2.3590422634
Zr  Zr17  1  0.31228000  0.57410000  0.13068000  1.0 2.315318859
Zr  Zr18  1  0.40327000  0.64358000  0.03477000  1.0 2.3590422634
Zr  Zr19  1  0.68772000  0.26182000  0.36932000  1.0 2.315318859
Zr  Zr20  1  0.59673000  0.24031000  0.46523000  1.0 2.3590422634
Zr  Zr21  1  0.73818000  0.42590000  0.36932000  1.0 2.315318859
Zr  Zr22  1  0.75969000  0.35642000  0.46523000  1.0 2.3590422634
Zr  Zr23  1  0.57410000  0.31228000  0.36932000  1.0 2.315318859
Zr  Zr24  1  0.64358000  0.40327000  0.46523000  1.0 2.3590422634
H  H1  1  0.80890000  0.45140000  0.88120000  1.0 0.3962460298
H  H2  1  0.69770000  0.05870000  0.83140000  1.0 0.1310895648
H  H3  1  0.85300000  0.23700000  0.83690000  1.0 0.1310895648
H  H4  1  0.87430000  0.08600000  0.80220000  1.0 0.1405156022
H  H5  1  0.06410000  0.37180000  0.78360000  1.0 0.1105875426
H  H6  1  0.17430000  0.43510000  0.77140000  1.0 0.0916170123
H  H7  1  0.24150000  0.39210000  0.78080000  1.0 0.1105875426
H  H8  1  0.08760000  0.22020000  0.81230000  1.0 0.1405156022
H  H9  1  0.94130000  0.36020000  0.86520000  1.0 0.1310895648
H  H10  1  0.05060000  0.39220000  0.86480000  1.0 0.0994312093
H  H11  1  0.11880000  0.46660000  0.91680000  1.0 0.1105875426
H  H12  1  0.07770000  0.50000000  0.97310000  1.0 0.1310895648
H  H13  1  0.96870000  0.46620000  0.97510000  1.0 0.1178172163
H  H14  1  0.84160000  0.36840000  0.74430000  1.0 0.1405156022
H  H15  1  0.85800000  0.36630000  0.66760000  1.0 0.1105875426
H  H16  1  0.81180000  0.40680000  0.61780000  1.0 0.0696666081
H  H17  1  0.74930000  0.44950000  0.64470000  1.0 0.0645956982
H  H18  1  0.73290000  0.45160000  0.72140000  1.0 0.0771568779
H  H19  1  0.80140000  0.55540000  0.06690000  1.0 0.1178172163
H  H20  1  0.81910000  0.64600000  0.10600000  1.0 0.1178172163
H  H21  1  0.73460000  0.66420000  0.11990000  1.0 0.1105875426
H  H22  1  0.63320000  0.59390000  0.09310000  1.0 0.1178172163
H  H23  1  0.61360000  0.50140000  0.05520000  1.0 0.1105875426
H  H24  1  0.76900000  0.53840000  0.95820000  1.0 0.0994312093
H  H25  1  0.85430000  0.68650000  0.92280000  1.0 0.0994312093
H  H26  1  0.85560000  0.69200000  0.97560000  1.0 0.1105875426
H  H27  1  0.75920000  0.67440000  0.94810000  1.0 0.1405156022
H  H28  1  0.74680000  0.60900000  0.92550000  1.0 0.1405156022
H  H29  1  0.74820000  0.61500000  0.97840000  1.0 0.1310895648
H  H30  1  0.93010000  0.59750000  0.94600000  1.0 0.1178172163
H  H31  1  0.94200000  0.66340000  0.92470000  1.0 0.0994312093
H  H32  1  0.00690000  0.68400000  0.98740000  1.0 0.1405156022
H  H33  1  0.95730000  0.70880000  0.99590000  1.0 0.1310895648
H  H34  1  0.94470000  0.64270000  0.01750000  1.0 0.1405156022
H  H35  1  0.85200000  0.37370000  0.75070000  1.0 0.1178172163
H  H36  1  0.87830000  0.38170000  0.67500000  1.0 0.0994312093
H  H37  1  0.84280000  0.43330000  0.62590000  1.0 0.0916170123
H  H38  1  0.78090000  0.47690000  0.65260000  1.0 0.0916170123
H  H39  1  0.75460000  0.46880000  0.72830000  1.0 0.0994312093
H  H40  1  0.64250000  0.19110000  0.88120000  1.0 0.3962460298
H  H41  1  0.36100000  0.30230000  0.83140000  1.0 0.1310895648
H  H42  1  0.38400000  0.14700000  0.83690000  1.0 0.1310895648
H  H43  1  0.21170000  0.12570000  0.80220000  1.0 0.1405156022
H  H44  1  0.30770000  0.93590000  0.78360000  1.0 0.1105875426
H  H45  1  0.26080000  0.82570000  0.77140000  1.0 0.0916170123
H  H46  1  0.15060000  0.75850000  0.78080000  1.0 0.1105875426
H  H47  1  0.13260000  0.91240000  0.81230000  1.0 0.1405156022
H  H48  1  0.41890000  0.05870000  0.86520000  1.0 0.1310895648
H  H49  1  0.34160000  0.94940000  0.86480000  1.0 0.0994312093
H  H50  1  0.34780000  0.88120000  0.91680000  1.0 0.1105875426
H  H51  1  0.42230000  0.92230000  0.97310000  1.0 0.1310895648
H  H52  1  0.49750000  0.03130000  0.97510000  1.0 0.1178172163
H  H53  1  0.52680000  0.15840000  0.74430000  1.0 0.1405156022
H  H54  1  0.50830000  0.14200000  0.66760000  1.0 0.1105875426
H  H55  1  0.59500000  0.18820000  0.61780000  1.0 0.0696666081
H  H56  1  0.70020000  0.25070000  0.64470000  1.0 0.0645956982
H  H57  1  0.71870000  0.26710000  0.72140000  1.0 0.0771568779
H  H58  1  0.75400000  0.19860000  0.06690000  1.0 0.1178172163
H  H59  1  0.82690000  0.18090000  0.10600000  1.0 0.1178172163
H  H60  1  0.92960000  0.26540000  0.11990000  1.0 0.1105875426
H  H61  1  0.96070000  0.36680000  0.09310000  1.0 0.1178172163
H  H62  1  0.88780000  0.38640000  0.05520000  1.0 0.1105875426
H  H63  1  0.76940000  0.23100000  0.95820000  1.0 0.0994312093
H  H64  1  0.83220000  0.14570000  0.92280000  1.0 0.0994312093
H  H65  1  0.83640000  0.14440000  0.97560000  1.0 0.1105875426
H  H66  1  0.91520000  0.24080000  0.94810000  1.0 0.1405156022
H  H67  1  0.86220000  0.25320000  0.92550000  1.0 0.1405156022
H  H68  1  0.86680000  0.25180000  0.97840000  1.0 0.1310895648
H  H69  1  0.66740000  0.06990000  0.94600000  1.0 0.1178172163
H  H70  1  0.72140000  0.05800000  0.92470000  1.0 0.0994312093
H  H71  1  0.67710000  0.99310000  0.98740000  1.0 0.1405156022
H  H72  1  0.75150000  0.04270000  0.99590000  1.0 0.1310895648
H  H73  1  0.69800000  0.05530000  0.01750000  1.0 0.1405156022
H  H74  1  0.52170000  0.14800000  0.75070000  1.0 0.1178172163
H  H75  1  0.50340000  0.12170000  0.67500000  1.0 0.0994312093
H  H76  1  0.59050000  0.15720000  0.62590000  1.0 0.0916170123
H  H77  1  0.69600000  0.21910000  0.65260000  1.0 0.0916170123
H  H78  1  0.71420000  0.24540000  0.72830000  1.0 0.0994312093
H  H79  1  0.54860000  0.35750000  0.88120000  1.0 0.3962460298
H  H80  1  0.94130000  0.63900000  0.83140000  1.0 0.1310895648
H  H81  1  0.76300000  0.61600000  0.83690000  1.0 0.1310895648
H  H82  1  0.91400000  0.78830000  0.80220000  1.0 0.1405156022
H  H83  1  0.62820000  0.69230000  0.78360000  1.0 0.1105875426
H  H84  1  0.56490000  0.73920000  0.77140000  1.0 0.0916170123
H  H85  1  0.60790000  0.84940000  0.78080000  1.0 0.1105875426
H  H86  1  0.77980000  0.86740000  0.81230000  1.0 0.1405156022
H  H87  1  0.63980000  0.58110000  0.86520000  1.0 0.1310895648
H  H88  1  0.60780000  0.65840000  0.86480000  1.0 0.0994312093
H  H89  1  0.53340000  0.65220000  0.91680000  1.0 0.1105875426
H  H90  1  0.50000000  0.57770000  0.97310000  1.0 0.1310895648
H  H91  1  0.53380000  0.50250000  0.97510000  1.0 0.1178172163
H  H92  1  0.63160000  0.47320000  0.74430000  1.0 0.1405156022
H  H93  1  0.63370000  0.49170000  0.66760000  1.0 0.1105875426
H  H94  1  0.59320000  0.40500000  0.61780000  1.0 0.0696666081
H  H95  1  0.55050000  0.29980000  0.64470000  1.0 0.0645956982
H  H96  1  0.54840000  0.28130000  0.72140000  1.0 0.0771568779
H  H97  1  0.44460000  0.24600000  0.06690000  1.0 0.1178172163
H  H98  1  0.35400000  0.17310000  0.10600000  1.0 0.1178172163
H  H99  1  0.33580000  0.07040000  0.11990000  1.0 0.1105875426
H  H100  1  0.40610000  0.03930000  0.09310000  1.0 0.1178172163
H  H101  1  0.49860000  0.11220000  0.05520000  1.0 0.1105875426
H  H102  1  0.46160000  0.23060000  0.95820000  1.0 0.0994312093
H  H103  1  0.31350000  0.16780000  0.92280000  1.0 0.0994312093
H  H104  1  0.30800000  0.16360000  0.97560000  1.0 0.1105875426
H  H105  1  0.32560000  0.08480000  0.94810000  1.0 0.1405156022
H  H106  1  0.39100000  0.13780000  0.92550000  1.0 0.1405156022
H  H107  1  0.38500000  0.13320000  0.97840000  1.0 0.1310895648
H  H108  1  0.40250000  0.33260000  0.94600000  1.0 0.1178172163
H  H109  1  0.33660000  0.27860000  0.92470000  1.0 0.0994312093
H  H110  1  0.31600000  0.32290000  0.98740000  1.0 0.1405156022
H  H111  1  0.29120000  0.24850000  0.99590000  1.0 0.1310895648
H  H112  1  0.35730000  0.30200000  0.01750000  1.0 0.1405156022
H  H113  1  0.62630000  0.47830000  0.75070000  1.0 0.1178172163
H  H114  1  0.61830000  0.49660000  0.67500000  1.0 0.0994312093
H  H115  1  0.56670000  0.40950000  0.62590000  1.0 0.0916170123
H  H116  1  0.52310000  0.30400000  0.65260000  1.0 0.0916170123
H  H117  1  0.53120000  0.28580000  0.72830000  1.0 0.0994312093
H  H118  1  0.66666667  0.33333333  0.02830000  1.0 0.4145909909
H  H119  1  0.45140000  0.80890000  0.61880000  1.0 0.3962460298
H  H120  1  0.05870000  0.69770000  0.66860000  1.0 0.1310895648
H  H121  1  0.23700000  0.85300000  0.66310000  1.0 0.1310895648
H  H122  1  0.08600000  0.87430000  0.69780000  1.0 0.1405156022
H  H123  1  0.37180000  0.06410000  0.71640000  1.0 0.1105875426
H  H124  1  0.43510000  0.17430000  0.72860000  1.0 0.0916170123
H  H125  1  0.39210000  0.24150000  0.71920000  1.0 0.1105875426
H  H126  1  0.22020000  0.08760000  0.68770000  1.0 0.1405156022
H  H127  1  0.36020000  0.94130000  0.63480000  1.0 0.1310895648
H  H128  1  0.39220000  0.05060000  0.63520000  1.0 0.0994312093
H  H129  1  0.46660000  0.11880000  0.58320000  1.0 0.1105875426
H  H130  1  0.50000000  0.07770000  0.52690000  1.0 0.1310895648
H  H131  1  0.46620000  0.96870000  0.52490000  1.0 0.1178172163
H  H132  1  0.36840000  0.84160000  0.75570000  1.0 0.1405156022
H  H133  1  0.36630000  0.85800000  0.83240000  1.0 0.1105875426
H  H134  1  0.40680000  0.81180000  0.88220000  1.0 0.0696666081
H  H135  1  0.44950000  0.74930000  0.85530000  1.0 0.0645956982
H  H136  1  0.45160000  0.73290000  0.77860000  1.0 0.0771568779
H  H137  1  0.55540000  0.80140000  0.43310000  1.0 0.1178172163
H  H138  1  0.64600000  0.81910000  0.39400000  1.0 0.1178172163
H  H139  1  0.66420000  0.73460000  0.38010000  1.0 0.1105875426
H  H140  1  0.59390000  0.63320000  0.40690000  1.0 0.1178172163
H  H141  1  0.50140000  0.61360000  0.44480000  1.0 0.1105875426
H  H142  1  0.53840000  0.76900000  0.54180000  1.0 0.0994312093
H  H143  1  0.68650000  0.85430000  0.57720000  1.0 0.0994312093
H  H144  1  0.69200000  0.85560000  0.52440000  1.0 0.1105875426
H  H145  1  0.67440000  0.75920000  0.55190000  1.0 0.1405156022
H  H146  1  0.60900000  0.74680000  0.57450000  1.0 0.1405156022
H  H147  1  0.61500000  0.74820000  0.52160000  1.0 0.1310895648
H  H148  1  0.59750000  0.93010000  0.55400000  1.0 0.1178172163
H  H149  1  0.66340000  0.94200000  0.57530000  1.0 0.0994312093
H  H150  1  0.68400000  0.00690000  0.51260000  1.0 0.1405156022
H  H151  1  0.70880000  0.95730000  0.50410000  1.0 0.1310895648
H  H152  1  0.64270000  0.94470000  0.48250000  1.0 0.1405156022
H  H153  1  0.37370000  0.85200000  0.74930000  1.0 0.1178172163
H  H154  1  0.38170000  0.87830000  0.82500000  1.0 0.0994312093
H  H155  1  0.43330000  0.84280000  0.87410000  1.0 0.0916170123
H  H156  1  0.47690000  0.78090000  0.84740000  1.0 0.0916170123
H  H157  1  0.46880000  0.75460000  0.77170000  1.0 0.0994312093
H  H158  1  0.19110000  0.64250000  0.61880000  1.0 0.3962460298
H  H159  1  0.30230000  0.36100000  0.66860000  1.0 0.1310895648
H  H160  1  0.14700000  0.38400000  0.66310000  1.0 0.1310895648
H  H161  1  0.12570000  0.21170000  0.69780000  1.0 0.1405156022
H  H162  1  0.93590000  0.30770000  0.71640000  1.0 0.1105875426
H  H163  1  0.82570000  0.26080000  0.72860000  1.0 0.0916170123
H  H164  1  0.75850000  0.15060000  0.71920000  1.0 0.1105875426
H  H165  1  0.91240000  0.13260000  0.68770000  1.0 0.1405156022
H  H166  1  0.05870000  0.41890000  0.63480000  1.0 0.1310895648
H  H167  1  0.94940000  0.34160000  0.63520000  1.0 0.0994312093
H  H168  1  0.88120000  0.34780000  0.58320000  1.0 0.1105875426
H  H169  1  0.92230000  0.42230000  0.52690000  1.0 0.1310895648
H  H170  1  0.03130000  0.49750000  0.52490000  1.0 0.1178172163
H  H171  1  0.15840000  0.52680000  0.75570000  1.0 0.1405156022
H  H172  1  0.14200000  0.50830000  0.83240000  1.0 0.1105875426
H  H173  1  0.18820000  0.59500000  0.88220000  1.0 0.0696666081
H  H174  1  0.25070000  0.70020000  0.85530000  1.0 0.0645956982
H  H175  1  0.26710000  0.71870000  0.77860000  1.0 0.0771568779
H  H176  1  0.19860000  0.75400000  0.43310000  1.0 0.1178172163
H  H177  1  0.18090000  0.82690000  0.39400000  1.0 0.1178172163
H  H178  1  0.26540000  0.92960000  0.38010000  1.0 0.1105875426
H  H179  1  0.36680000  0.96070000  0.40690000  1.0 0.1178172163
H  H180  1  0.38640000  0.88780000  0.44480000  1.0 0.1105875426
H  H181  1  0.23100000  0.76940000  0.54180000  1.0 0.0994312093
H  H182  1  0.14570000  0.83220000  0.57720000  1.0 0.0994312093
H  H183  1  0.14440000  0.83640000  0.52440000  1.0 0.1105875426
H  H184  1  0.24080000  0.91520000  0.55190000  1.0 0.1405156022
H  H185  1  0.25320000  0.86220000  0.57450000  1.0 0.1405156022
H  H186  1  0.25180000  0.86680000  0.52160000  1.0 0.1310895648
H  H187  1  0.06990000  0.66740000  0.55400000  1.0 0.1178172163
H  H188  1  0.05800000  0.72140000  0.57530000  1.0 0.0994312093
H  H189  1  0.99310000  0.67710000  0.51260000  1.0 0.1405156022
H  H190  1  0.04270000  0.75150000  0.50410000  1.0 0.1310895648
H  H191  1  0.05530000  0.69800000  0.48250000  1.0 0.1405156022
H  H192  1  0.14800000  0.52170000  0.74930000  1.0 0.1178172163
H  H193  1  0.12170000  0.50340000  0.82500000  1.0 0.0994312093
H  H194  1  0.15720000  0.59050000  0.87410000  1.0 0.0916170123
H  H195  1  0.21910000  0.69600000  0.84740000  1.0 0.0916170123
H  H196  1  0.24540000  0.71420000  0.77170000  1.0 0.0994312093
H  H197  1  0.35750000  0.54860000  0.61880000  1.0 0.3962460298
H  H198  1  0.63900000  0.94130000  0.66860000  1.0 0.1310895648
H  H199  1  0.61600000  0.76300000  0.66310000  1.0 0.1310895648
H  H200  1  0.78830000  0.91400000  0.69780000  1.0 0.1405156022
H  H201  1  0.69230000  0.62820000  0.71640000  1.0 0.1105875426
H  H202  1  0.73920000  0.56490000  0.72860000  1.0 0.0916170123
H  H203  1  0.84940000  0.60790000  0.71920000  1.0 0.1105875426
H  H204  1  0.86740000  0.77980000  0.68770000  1.0 0.1405156022
H  H205  1  0.58110000  0.63980000  0.63480000  1.0 0.1310895648
H  H206  1  0.65840000  0.60780000  0.63520000  1.0 0.0994312093
H  H207  1  0.65220000  0.53340000  0.58320000  1.0 0.1105875426
H  H208  1  0.57770000  0.50000000  0.52690000  1.0 0.1310895648
H  H209  1  0.50250000  0.53380000  0.52490000  1.0 0.1178172163
H  H210  1  0.47320000  0.63160000  0.75570000  1.0 0.1405156022
H  H211  1  0.49170000  0.63370000  0.83240000  1.0 0.1105875426
H  H212  1  0.40500000  0.59320000  0.88220000  1.0 0.0696666081
H  H213  1  0.29980000  0.55050000  0.85530000  1.0 0.0645956982
H  H214  1  0.28130000  0.54840000  0.77860000  1.0 0.0771568779
H  H215  1  0.24600000  0.44460000  0.43310000  1.0 0.1178172163
H  H216  1  0.17310000  0.35400000  0.39400000  1.0 0.1178172163
H  H217  1  0.07040000  0.33580000  0.38010000  1.0 0.1105875426
H  H218  1  0.03930000  0.40610000  0.40690000  1.0 0.1178172163
H  H219  1  0.11220000  0.49860000  0.44480000  1.0 0.1105875426
H  H220  1  0.23060000  0.46160000  0.54180000  1.0 0.0994312093
H  H221  1  0.16780000  0.31350000  0.57720000  1.0 0.0994312093
H  H222  1  0.16360000  0.30800000  0.52440000  1.0 0.1105875426
H  H223  1  0.08480000  0.32560000  0.55190000  1.0 0.1405156022
H  H224  1  0.13780000  0.39100000  0.57450000  1.0 0.1405156022
H  H225  1  0.13320000  0.38500000  0.52160000  1.0 0.1310895648
H  H226  1  0.33260000  0.40250000  0.55400000  1.0 0.1178172163
H  H227  1  0.27860000  0.33660000  0.57530000  1.0 0.0994312093
H  H228  1  0.32290000  0.31600000  0.51260000  1.0 0.1405156022
H  H229  1  0.24850000  0.29120000  0.50410000  1.0 0.1310895648
H  H230  1  0.30200000  0.35730000  0.48250000  1.0 0.1405156022
H  H231  1  0.47830000  0.62630000  0.74930000  1.0 0.1178172163
H  H232  1  0.49660000  0.61830000  0.82500000  1.0 0.0994312093
H  H233  1  0.40950000  0.56670000  0.87410000  1.0 0.0916170123
H  H234  1  0.30400000  0.52310000  0.84740000  1.0 0.0916170123
H  H235  1  0.28580000  0.53120000  0.77170000  1.0 0.0994312093
H  H236  1  0.33333333  0.66666667  0.47170000  1.0 0.4145909909
H  H237  1  0.19110000  0.54860000  0.11880000  1.0 0.3962460298
H  H238  1  0.30230000  0.94130000  0.16860000  1.0 0.1310895648
H  H239  1  0.14700000  0.76300000  0.16310000  1.0 0.1310895648
H  H240  1  0.12570000  0.91400000  0.19780000  1.0 0.1405156022
H  H241  1  0.93590000  0.62820000  0.21640000  1.0 0.1105875426
H  H242  1  0.82570000  0.56490000  0.22860000  1.0 0.0916170123
H  H243  1  0.75850000  0.60790000  0.21920000  1.0 0.1105875426
H  H244  1  0.91240000  0.77980000  0.18770000  1.0 0.1405156022
H  H245  1  0.05870000  0.63980000  0.13480000  1.0 0.1310895648
H  H246  1  0.94940000  0.60780000  0.13520000  1.0 0.0994312093
H  H247  1  0.88120000  0.53340000  0.08320000  1.0 0.1105875426
H  H248  1  0.92230000  0.50000000  0.02690000  1.0 0.1310895648
H  H249  1  0.03130000  0.53380000  0.02490000  1.0 0.1178172163
H  H250  1  0.15840000  0.63160000  0.25570000  1.0 0.1405156022
H  H251  1  0.14200000  0.63370000  0.33240000  1.0 0.1105875426
H  H252  1  0.18820000  0.59320000  0.38220000  1.0 0.0696666081
H  H253  1  0.25070000  0.55050000  0.35530000  1.0 0.0645956982
H  H254  1  0.26710000  0.54840000  0.27860000  1.0 0.0771568779
H  H255  1  0.19860000  0.44460000  0.93310000  1.0 0.1178172163
H  H256  1  0.18090000  0.35400000  0.89400000  1.0 0.1178172163
H  H257  1  0.26540000  0.33580000  0.88010000  1.0 0.1105875426
H  H258  1  0.36680000  0.40610000  0.90690000  1.0 0.1178172163
H  H259  1  0.38640000  0.49860000  0.94480000  1.0 0.1105875426
H  H260  1  0.23100000  0.46160000  0.04180000  1.0 0.0994312093
H  H261  1  0.14570000  0.31350000  0.07720000  1.0 0.0994312093
H  H262  1  0.14440000  0.30800000  0.02440000  1.0 0.1105875426
H  H263  1  0.24080000  0.32560000  0.05190000  1.0 0.1405156022
H  H264  1  0.25320000  0.39100000  0.07450000  1.0 0.1405156022
H  H265  1  0.25180000  0.38500000  0.02160000  1.0 0.1310895648
H  H266  1  0.06990000  0.40250000  0.05400000  1.0 0.1178172163
H  H267  1  0.05800000  0.33660000  0.07530000  1.0 0.0994312093
H  H268  1  0.99310000  0.31600000  0.01260000  1.0 0.1405156022
H  H269  1  0.04270000  0.29120000  0.00410000  1.0 0.1310895648
H  H270  1  0.05530000  0.35730000  0.98250000  1.0 0.1405156022
H  H271  1  0.14800000  0.62630000  0.24930000  1.0 0.1178172163
H  H272  1  0.12170000  0.61830000  0.32500000  1.0 0.0994312093
H  H273  1  0.15720000  0.56670000  0.37410000  1.0 0.0916170123
H  H274  1  0.21910000  0.52310000  0.34740000  1.0 0.0916170123
H  H275  1  0.24540000  0.53120000  0.27170000  1.0 0.0994312093
H  H276  1  0.35750000  0.80890000  0.11880000  1.0 0.3962460298
H  H277  1  0.63900000  0.69770000  0.16860000  1.0 0.1310895648
H  H278  1  0.61600000  0.85300000  0.16310000  1.0 0.1310895648
H  H279  1  0.78830000  0.87430000  0.19780000  1.0 0.1405156022
H  H280  1  0.69230000  0.06410000  0.21640000  1.0 0.1105875426
H  H281  1  0.73920000  0.17430000  0.22860000  1.0 0.0916170123
H  H282  1  0.84940000  0.24150000  0.21920000  1.0 0.1105875426
H  H283  1  0.86740000  0.08760000  0.18770000  1.0 0.1405156022
H  H284  1  0.58110000  0.94130000  0.13480000  1.0 0.1310895648
H  H285  1  0.65840000  0.05060000  0.13520000  1.0 0.0994312093
H  H286  1  0.65220000  0.11880000  0.08320000  1.0 0.1105875426
H  H287  1  0.57770000  0.07770000  0.02690000  1.0 0.1310895648
H  H288  1  0.50250000  0.96870000  0.02490000  1.0 0.1178172163
H  H289  1  0.47320000  0.84160000  0.25570000  1.0 0.1310895648
H  H290  1  0.49170000  0.85800000  0.33240000  1.0 0.1105875426
H  H291  1  0.40500000  0.81180000  0.38220000  1.0 0.0696666081
H  H292  1  0.29980000  0.74930000  0.35530000  1.0 0.0645956982
H  H293  1  0.28130000  0.73290000  0.27860000  1.0 0.0771568779
H  H294  1  0.24600000  0.80140000  0.93310000  1.0 0.1178172163
H  H295  1  0.17310000  0.81910000  0.89400000  1.0 0.1178172163
H  H296  1  0.07040000  0.73460000  0.88010000  1.0 0.1105875426
H  H297  1  0.03930000  0.63320000  0.90690000  1.0 0.1178172163
H  H298  1  0.11220000  0.61360000  0.94480000  1.0 0.1105875426
H  H299  1  0.23060000  0.76900000  0.04180000  1.0 0.0994312093
H  H300  1  0.16780000  0.85430000  0.07720000  1.0 0.0994312093
H  H301  1  0.16360000  0.85560000  0.02440000  1.0 0.1105875426
H  H302  1  0.08480000  0.75920000  0.05190000  1.0 0.1405156022
H  H303  1  0.13780000  0.74680000  0.07450000  1.0 0.1405156022
H  H304  1  0.13320000  0.74820000  0.02160000  1.0 0.1310895648
H  H305  1  0.33260000  0.93010000  0.05400000  1.0 0.1178172163
H  H306  1  0.27860000  0.94200000  0.07530000  1.0 0.0994312093
H  H307  1  0.32290000  0.00690000  0.01260000  1.0 0.1405156022
H  H308  1  0.24850000  0.95730000  0.00410000  1.0 0.1310895648
H  H309  1  0.30200000  0.94470000  0.98250000  1.0 0.1405156022
H  H310  1  0.47830000  0.85200000  0.24930000  1.0 0.1178172163
H  H311  1  0.49660000  0.87830000  0.32500000  1.0 0.0994312093
H  H312  1  0.40950000  0.84280000  0.37410000  1.0 0.0916170123
H  H313  1  0.30400000  0.78090000  0.34740000  1.0 0.0916170123
H  H314  1  0.28580000  0.75460000  0.27170000  1.0 0.0994312093
H  H315  1  0.45140000  0.64250000  0.11880000  1.0 0.3962460298
H  H316  1  0.05870000  0.36100000  0.16860000  1.0 0.1310895648
H  H317  1  0.23700000  0.38400000  0.16310000  1.0 0.1310895648
H  H318  1  0.08600000  0.21170000  0.19780000  1.0 0.1405156022
H  H319  1  0.37180000  0.30770000  0.21640000  1.0 0.1105875426
H  H320  1  0.43510000  0.26080000  0.22860000  1.0 0.0916170123
H  H321  1  0.39210000  0.15060000  0.21920000  1.0 0.1105875426
H  H322  1  0.22020000  0.13260000  0.18770000  1.0 0.1405156022
H  H323  1  0.36020000  0.41890000  0.13480000  1.0 0.1310895648
H  H324  1  0.39220000  0.34160000  0.13520000  1.0 0.0994312093
H  H325  1  0.46660000  0.34780000  0.08320000  1.0 0.1105875426
H  H326  1  0.50000000  0.42230000  0.02690000  1.0 0.1310895648
H  H327  1  0.46620000  0.49750000  0.02490000  1.0 0.1178172163
H  H328  1  0.36840000  0.52680000  0.25570000  1.0 0.1405156022
H  H329  1  0.36630000  0.50830000  0.33240000  1.0 0.1105875426
H  H330  1  0.40680000  0.59500000  0.38220000  1.0 0.0696666081
H  H331  1  0.44950000  0.70020000  0.35530000  1.0 0.0645956982
H  H332  1  0.45160000  0.71870000  0.27860000  1.0 0.0771568779
H  H333  1  0.55540000  0.75400000  0.93310000  1.0 0.1178172163
H  H334  1  0.64600000  0.82690000  0.89400000  1.0 0.1178172163
H  H335  1  0.66420000  0.92960000  0.88010000  1.0 0.1105875426
H  H336  1  0.59390000  0.96070000  0.90690000  1.0 0.1178172163
H  H337  1  0.50140000  0.88780000  0.94480000  1.0 0.1105875426
H  H338  1  0.53840000  0.76940000  0.04180000  1.0 0.0994312093
H  H339  1  0.68650000  0.83220000  0.07720000  1.0 0.0994312093
H  H340  1  0.69200000  0.83640000  0.02440000  1.0 0.1105875426
H  H341  1  0.67440000  0.91520000  0.05190000  1.0 0.1405156022
H  H342  1  0.60900000  0.86220000  0.07450000  1.0 0.1405156022
H  H343  1  0.61500000  0.86680000  0.02160000  1.0 0.1310895648
H  H344  1  0.59750000  0.66740000  0.05400000  1.0 0.1178172163
H  H345  1  0.66340000  0.72140000  0.07530000  1.0 0.0994312093
H  H346  1  0.68400000  0.67710000  0.01260000  1.0 0.1405156022
H  H347  1  0.70880000  0.75150000  0.00410000  1.0 0.1310895648
H  H348  1  0.64270000  0.69800000  0.98250000  1.0 0.1405156022
H  H349  1  0.37370000  0.52170000  0.24930000  1.0 0.1178172163
H  H350  1  0.38170000  0.50340000  0.32500000  1.0 0.0994312093
H  H351  1  0.43330000  0.59050000  0.37410000  1.0 0.0916170123
H  H352  1  0.47690000  0.69600000  0.34740000  1.0 0.0916170123
H  H353  1  0.46880000  0.71420000  0.27170000  1.0 0.0994312093
H  H354  1  0.33333333  0.66666667  0.97170000  1.0 0.4145909909
H  H355  1  0.54860000  0.19110000  0.38120000  1.0 0.3962460298
H  H356  1  0.94130000  0.30230000  0.33140000  1.0 0.1310895648
H  H357  1  0.76300000  0.14700000  0.33690000  1.0 0.1310895648
H  H358  1  0.91400000  0.12570000  0.30220000  1.0 0.1405156022
H  H359  1  0.62820000  0.93590000  0.28360000  1.0 0.1105875426
H  H360  1  0.56490000  0.82570000  0.27140000  1.0 0.0916170123
H  H361  1  0.60790000  0.75850000  0.28080000  1.0 0.1105875426
H  H362  1  0.77980000  0.91240000  0.31230000  1.0 0.1405156022
H  H363  1  0.63980000  0.05870000  0.36520000  1.0 0.1310895648
H  H364  1  0.60780000  0.94940000  0.36480000  1.0 0.0994312093
H  H365  1  0.53340000  0.88120000  0.41680000  1.0 0.1105875426
H  H366  1  0.50000000  0.92230000  0.47310000  1.0 0.1310895648
H  H367  1  0.53380000  0.03130000  0.47510000  1.0 0.1178172163
H  H368  1  0.63160000  0.15840000  0.24430000  1.0 0.1405156022
H  H369  1  0.63370000  0.14200000  0.16760000  1.0 0.1105875426
H  H370  1  0.59320000  0.18820000  0.11780000  1.0 0.0696666081
H  H371  1  0.55050000  0.25070000  0.14470000  1.0 0.0645956982
H  H372  1  0.54840000  0.26710000  0.22140000  1.0 0.0771568779
H  H373  1  0.44460000  0.19860000  0.56690000  1.0 0.1178172163
H  H374  1  0.35400000  0.18090000  0.60600000  1.0 0.1178172163
H  H375  1  0.33580000  0.26540000  0.61990000  1.0 0.1105875426
H  H376  1  0.40610000  0.36680000  0.59310000  1.0 0.1178172163
H  H377  1  0.49860000  0.38640000  0.55520000  1.0 0.1105875426
H  H378  1  0.46160000  0.23100000  0.45820000  1.0 0.0994312093
H  H379  1  0.31350000  0.14570000  0.42280000  1.0 0.0994312093
H  H380  1  0.30800000  0.14440000  0.47560000  1.0 0.1105875426
H  H381  1  0.32560000  0.24080000  0.44810000  1.0 0.1405156022
H  H382  1  0.39100000  0.25320000  0.42550000  1.0 0.1405156022
H  H383  1  0.38500000  0.25180000  0.47840000  1.0 0.1310895648
H  H384  1  0.40250000  0.06990000  0.44600000  1.0 0.1178172163
H  H385  1  0.33660000  0.05800000  0.42470000  1.0 0.0994312093
H  H386  1  0.31600000  0.99310000  0.48740000  1.0 0.1405156022
H  H387  1  0.29120000  0.04270000  0.49590000  1.0 0.1310895648
H  H388  1  0.35730000  0.05530000  0.51750000  1.0 0.1405156022
H  H389  1  0.62630000  0.14800000  0.25070000  1.0 0.1178172163
H  H390  1  0.61830000  0.12170000  0.17500000  1.0 0.0994312093
H  H391  1  0.56670000  0.15720000  0.12590000  1.0 0.0916170123
H  H392  1  0.52310000  0.21910000  0.15260000  1.0 0.0916170123
H  H393  1  0.53120000  0.24540000  0.22830000  1.0 0.0994312093
H  H394  1  0.80890000  0.35750000  0.38120000  1.0 0.3962460298
H  H395  1  0.69770000  0.63900000  0.33140000  1.0 0.1310895648
H  H396  1  0.85300000  0.61600000  0.33690000  1.0 0.1310895648
H  H397  1  0.87430000  0.78830000  0.30220000  1.0 0.1405156022
H  H398  1  0.06410000  0.69230000  0.28360000  1.0 0.1105875426
H  H399  1  0.17430000  0.73920000  0.27140000  1.0 0.0916170123
H  H400  1  0.24150000  0.84940000  0.28080000  1.0 0.1105875426
H  H401  1  0.08760000  0.86740000  0.31230000  1.0 0.1405156022
H  H402  1  0.94130000  0.58110000  0.36520000  1.0 0.1310895648
H  H403  1  0.05060000  0.65840000  0.36480000  1.0 0.0994312093
H  H404  1  0.11880000  0.65220000  0.41680000  1.0 0.1105875426
H  H405  1  0.07770000  0.57770000  0.47310000  1.0 0.1310895648
H  H406  1  0.96870000  0.50250000  0.47510000  1.0 0.1178172163
H  H407  1  0.84160000  0.47320000  0.24430000  1.0 0.1310895648
H  H408  1  0.85800000  0.49170000  0.16760000  1.0 0.1105875426
H  H409  1  0.81180000  0.40500000  0.11780000  1.0 0.0696666081
H  H410  1  0.74930000  0.29980000  0.14470000  1.0 0.0645956982
H  H411  1  0.73290000  0.28130000  0.22140000  1.0 0.0771568779
H  H412  1  0.80140000  0.24600000  0.56690000  1.0 0.1178172163
H  H413  1  0.81910000  0.17310000  0.60600000  1.0 0.1178172163
H  H414  1  0.73460000  0.07040000  0.61990000  1.0 0.1105875426
H  H415  1  0.63320000  0.03930000  0.59310000  1.0 0.1178172163
H  H416  1  0.61360000  0.11220000  0.55520000  1.0 0.1105875426
H  H417  1  0.76900000  0.23060000  0.45820000  1.0 0.0994312093
H  H418  1  0.85430000  0.16780000  0.42280000  1.0 0.0994312093
H  H419  1  0.85560000  0.16360000  0.47560000  1.0 0.1105875426
H  H420  1  0.75920000  0.08480000  0.44810000  1.0 0.1405156022
H  H421  1  0.74680000  0.13780000  0.42550000  1.0 0.1405156022
H  H422  1  0.74820000  0.13320000  0.47840000  1.0 0.1310895648
H  H423  1  0.93010000  0.33260000  0.44600000  1.0 0.1178172163
H  H424  1  0.94200000  0.27860000  0.42470000  1.0 0.0994312093
H  H425  1  0.00690000  0.32290000  0.48740000  1.0 0.1405156022
H  H426  1  0.95730000  0.24850000  0.49590000  1.0 0.1310895648
H  H427  1  0.94470000  0.30200000  0.51750000  1.0 0.1405156022
H  H428  1  0.85200000  0.47830000  0.25070000  1.0 0.1178172163
H  H429  1  0.87830000  0.49660000  0.17500000  1.0 0.0994312093
H  H430  1  0.84280000  0.40950000  0.12590000  1.0 0.0916170123
H  H431  1  0.78090000  0.30400000  0.15260000  1.0 0.0916170123
H  H432  1  0.75460000  0.28580000  0.22830000  1.0 0.0994312093
H  H433  1  0.64250000  0.45140000  0.38120000  1.0 0.3962460298
H  H434  1  0.36100000  0.05870000  0.33140000  1.0 0.1310895648
H  H435  1  0.38400000  0.23700000  0.33690000  1.0 0.1310895648
H  H436  1  0.21170000  0.08600000  0.30220000  1.0 0.1405156022
H  H437  1  0.30770000  0.37180000  0.28360000  1.0 0.1105875426
H  H438  1  0.26080000  0.43510000  0.27140000  1.0 0.0916170123
H  H439  1  0.15060000  0.39210000  0.28080000  1.0 0.1105875426
H  H440  1  0.13260000  0.22020000  0.31230000  1.0 0.1405156022
H  H441  1  0.41890000  0.36020000  0.36520000  1.0 0.1310895648
H  H442  1  0.34160000  0.39220000  0.36480000  1.0 0.0994312093
H  H443  1  0.34780000  0.46660000  0.41680000  1.0 0.1105875426
H  H444  1  0.42230000  0.50000000  0.47310000  1.0 0.1310895648
H  H445  1  0.49750000  0.46620000  0.47510000  1.0 0.1178172163
H  H446  1  0.52680000  0.36840000  0.24430000  1.0 0.1405156022
H  H447  1  0.50830000  0.36630000  0.16760000  1.0 0.1105875426
H  H448  1  0.59500000  0.40680000  0.11780000  1.0 0.0696666081
H  H449  1  0.70020000  0.44950000  0.14470000  1.0 0.0645956982
H  H450  1  0.71870000  0.45160000  0.22140000  1.0 0.0771568779
H  H451  1  0.75400000  0.55540000  0.56690000  1.0 0.1178172163
H  H452  1  0.82690000  0.64600000  0.60600000  1.0 0.1178172163
H  H453  1  0.92960000  0.66420000  0.61990000  1.0 0.1105875426
H  H454  1  0.96070000  0.59390000  0.59310000  1.0 0.1178172163
H  H455  1  0.88780000  0.50140000  0.55520000  1.0 0.1105875426
H  H456  1  0.76940000  0.53840000  0.45820000  1.0 0.0994312093
H  H457  1  0.83220000  0.68650000  0.42280000  1.0 0.0994312093
H  H458  1  0.83640000  0.69200000  0.47560000  1.0 0.1105875426
H  H459  1  0.91520000  0.67440000  0.44810000  1.0 0.1405156022
H  H460  1  0.86220000  0.60900000  0.42550000  1.0 0.1405156022
H  H461  1  0.86680000  0.61500000  0.47840000  1.0 0.1310895648
H  H462  1  0.66740000  0.59750000  0.44600000  1.0 0.1178172163
H  H463  1  0.72140000  0.66340000  0.42470000  1.0 0.0994312093
H  H464  1  0.67710000  0.68400000  0.48740000  1.0 0.1405156022
H  H465  1  0.75150000  0.70880000  0.49590000  1.0 0.1310895648
H  H466  1  0.69800000  0.64270000  0.51750000  1.0 0.1405156022
H  H467  1  0.52170000  0.37370000  0.25070000  1.0 0.1178172163
H  H468  1  0.50340000  0.38170000  0.17500000  1.0 0.0994312093
H  H469  1  0.59050000  0.43330000  0.12590000  1.0 0.0916170123
H  H470  1  0.69600000  0.47690000  0.15260000  1.0 0.0916170123
H  H471  1  0.71420000  0.46880000  0.22830000  1.0 0.0994312093
H  H472  1  0.66666667  0.33333333  0.52830000  1.0 0.4145909909
C  C1  1  0.78170000  0.06149000  0.81493000  1.0 0.1405156022
C  C2  1  0.74266000  0.08637000  0.82828000  1.0 -0.1746970054
C  C3  1  0.76982000  0.15159000  0.83688000  1.0 -0.0178081218
C  C4  1  0.83500000  0.19237000  0.83156000  1.0 -0.1538594883
C  C5  1  0.87461000  0.16848000  0.81836000  1.0 0.1405156022
C  C6  1  0.84751000  0.10279000  0.81058000  1.0 -0.1898807075
C  C7  1  0.75310000  0.99429000  0.80708000  1.0 -0.0993556385
C  C8  1  0.72710000  0.93752000  0.80164000  1.0 -0.0993556385
C  C9  1  0.72781000  0.17664000  0.85361000  1.0 0.5798353914
C  C10  1  0.94220000  0.21181000  0.81253000  1.0 -0.0875163238
C  C11  1  0.99795000  0.24870000  0.80668000  1.0 -0.0993556385
C  C12  1  0.06534000  0.29000000  0.79917000  1.0 0.1479317485
C  C13  1  0.09114000  0.35390000  0.78700000  1.0 -0.182623349
C  C14  1  0.15660000  0.39140000  0.77991000  1.0 -0.1563647848
C  C15  1  0.19654000  0.36570000  0.78512000  1.0 -0.1563647848
C  C16  1  0.17120000  0.30190000  0.79655000  1.0 0.1479317485
C  C17  1  0.10526000  0.26389000  0.80395000  1.0 -0.1965949894
C  C18  1  0.94485000  0.41128000  0.91967000  1.0 -0.0135222047
C  C19  1  0.96903000  0.38890000  0.88717000  1.0 -0.0993556385
C  C20  1  0.03390000  0.40840000  0.88665000  1.0 -0.1297300245
C  C21  1  0.07400000  0.45130000  0.91811000  1.0 -0.1183450676
C  C22  1  0.05000000  0.47180000  0.95084000  1.0 -0.0993556385
C  C23  1  0.98532000  0.45190000  0.95201000  1.0 -0.1073658074
C  C24  1  0.87476000  0.39126000  0.92036000  1.0 0.6213059786
C  C25  1  0.78570000  0.41020000  0.73986000  1.0 0.0249643166
C  C26  1  0.82280000  0.38500000  0.72395000  1.0 -0.1183450676
C  C27  1  0.83240000  0.38370000  0.67857000  1.0 -0.0616217481
C  C28  1  0.80510000  0.40770000  0.64912000  1.0 -0.0414336801
C  C29  1  0.76810000  0.43290000  0.66501000  1.0 -0.0616217481
C  C30  1  0.75840000  0.43420000  0.71040000  1.0 -0.0706782725
C  C31  1  0.77322000  0.40723000  0.79064000  1.0 0.3892271433
C  C32  1  0.70546000  0.51849000  0.05795000  1.0 -0.0312308966
C  C33  1  0.76670000  0.56250000  0.07267000  1.0 -0.1563647848
C  C34  1  0.77720000  0.61630000  0.09560000  1.0 -0.0993556385
C  C35  1  0.72730000  0.62730000  0.10360000  1.0 -0.0706782725
C  C36  1  0.66730000  0.58540000  0.08820000  1.0 -0.1183450676
C  C37  1  0.65560000  0.53060000  0.06555000  1.0 -0.1428830957
C  C38  1  0.69359000  0.46028000  0.03283000  1.0 0.5147997026
C  C39  1  0.81317000  0.55104000  0.95731000  1.0 0.2557827135
C  C40  1  0.83600000  0.66190000  0.95045000  1.0 -0.049155933
C  C41  1  0.76680000  0.63810000  0.95063000  1.0 -0.4230433043
C  C42  1  0.92410000  0.63490000  0.95079000  1.0 -0.0414336801
C  C43  1  0.96150000  0.67070000  0.99150000  1.0 -0.4027850937
C  C44  1  0.80090000  0.42050000  0.74641000  1.0 0.0249643166
C  C45  1  0.83750000  0.39480000  0.73070000  1.0 -0.1073658074
C  C46  1  0.85310000  0.39950000  0.68590000  1.0 -0.0616217481
C  C47  1  0.83210000  0.43000000  0.65684000  1.0 -0.0312308966
C  C48  1  0.79550000  0.45580000  0.67260000  1.0 -0.0414336801
C  C49  1  0.77990000  0.45110000  0.71740000  1.0 -0.0414336801
C  C50  1  0.27979000  0.21830000  0.81493000  1.0 0.1405156022
C  C51  1  0.34371000  0.25734000  0.82828000  1.0 -0.1746970054
C  C52  1  0.38177000  0.23018000  0.83688000  1.0 -0.0178081218
C  C53  1  0.35737000  0.16500000  0.83156000  1.0 -0.1538594883
C  C54  1  0.29387000  0.12539000  0.81836000  1.0 0.1405156022
C  C55  1  0.25528000  0.15249000  0.81058000  1.0 -0.1898807075
C  C56  1  0.24119000  0.24690000  0.80708000  1.0 -0.0993556385
C  C57  1  0.21042000  0.27290000  0.80164000  1.0 -0.0993556385
C  C58  1  0.44883000  0.27219000  0.85361000  1.0 0.5798353914
C  C59  1  0.26961000  0.05780000  0.81253000  1.0 -0.0875163238
C  C60  1  0.25075000  0.00205000  0.80668000  1.0 -0.0993556385
C  C61  1  0.22466000  0.93466000  0.79917000  1.0 0.1479317485
C  C62  1  0.26276000  0.90886000  0.78700000  1.0 -0.182623349
C  C63  1  0.23480000  0.84340000  0.77991000  1.0 -0.1563647848
C  C64  1  0.16916000  0.80346000  0.78512000  1.0 -0.1563647848
C  C65  1  0.13070000  0.82880000  0.79655000  1.0 0.1479317485
C  C66  1  0.15863000  0.89474000  0.80395000  1.0 -0.1965949894
C  C67  1  0.46643000  0.05515000  0.91967000  1.0 -0.0135222047
C  C68  1  0.41987000  0.03097000  0.88717000  1.0 -0.0993556385
C  C69  1  0.37450000  0.96610000  0.88665000  1.0 -0.1297300245
C  C70  1  0.37730000  0.92600000  0.91811000  1.0 -0.1183450676
C  C71  1  0.42180000  0.95000000  0.95084000  1.0 -0.0993556385
C  C72  1  0.46658000  0.01468000  0.95201000  1.0 -0.1073658074
C  C73  1  0.51650000  0.12524000  0.92036000  1.0 0.6213059786
C  C74  1  0.62450000  0.21430000  0.73986000  1.0 0.0249643166
C  C75  1  0.56220000  0.17720000  0.72395000  1.0 -0.1183450676
C  C76  1  0.55130000  0.16760000  0.67857000  1.0 -0.0616217481
C  C77  1  0.60260000  0.19490000  0.64912000  1.0 -0.0414336801
C  C78  1  0.66480000  0.23190000  0.66501000  1.0 -0.0616217481
C  C79  1  0.67580000  0.24160000  0.71040000  1.0 -0.0706782725
C  C80  1  0.63401000  0.22678000  0.79064000  1.0 0.3892271433
C  C81  1  0.81303000  0.29454000  0.05795000  1.0 -0.0312308966
C  C82  1  0.79580000  0.23330000  0.07267000  1.0 -0.1563647848
C  C83  1  0.83910000  0.22280000  0.09560000  1.0 -0.0993556385
C  C84  1  0.90000000  0.27270000  0.10360000  1.0 -0.0706782725
C  C85  1  0.91810000  0.33270000  0.08820000  1.0 -0.1183450676
C  C86  1  0.87500000  0.34440000  0.06555000  1.0 -0.1428830957
C  C87  1  0.76669000  0.30641000  0.03283000  1.0 0.5159339074
C  C88  1  0.73787000  0.18683000  0.95731000  1.0 0.2557827135
C  C89  1  0.82590000  0.16400000  0.95045000  1.0 -0.049155933
C  C90  1  0.87130000  0.23320000  0.95063000  1.0 -0.4230433043
C  C91  1  0.71080000  0.07590000  0.95079000  1.0 -0.0414336801
C  C92  1  0.70920000  0.03850000  0.99150000  1.0 -0.4027850937
C  C93  1  0.61960000  0.19910000  0.74641000  1.0 0.0249643166
C  C94  1  0.55730000  0.16250000  0.73070000  1.0 -0.1073658074
C  C95  1  0.54640000  0.14690000  0.68590000  1.0 -0.0616217481
C  C96  1  0.59790000  0.16790000  0.65684000  1.0 -0.0312308966
C  C97  1  0.66030000  0.20450000  0.67260000  1.0 -0.0414336801
C  C98  1  0.67120000  0.22010000  0.71740000  1.0 -0.0414336801
C  C99  1  0.93851000  0.72021000  0.81493000  1.0 0.1405156022
C  C100  1  0.91363000  0.65629000  0.82828000  1.0 -0.1746970054
C  C101  1  0.84841000  0.61823000  0.83688000  1.0 -0.0178081218
C  C102  1  0.80763000  0.64263000  0.83156000  1.0 -0.1538594883
C  C103  1  0.83152000  0.70613000  0.81836000  1.0 0.1405156022
C  C104  1  0.89721000  0.74472000  0.81058000  1.0 -0.1898807075
C  C105  1  0.00571000  0.75881000  0.80708000  1.0 -0.0993556385
C  C106  1  0.06248000  0.78958000  0.80164000  1.0 -0.0993556385
C  C107  1  0.82336000  0.55117000  0.85361000  1.0 0.5798353914
C  C108  1  0.78819000  0.73039000  0.81253000  1.0 -0.0875163238
C  C109  1  0.75130000  0.74925000  0.80668000  1.0 -0.0993556385
C  C110  1  0.71000000  0.77534000  0.79917000  1.0 0.1479317485
C  C111  1  0.64610000  0.73724000  0.78700000  1.0 -0.182623349
C  C112  1  0.60860000  0.76520000  0.77991000  1.0 -0.1563647848
C  C113  1  0.63430000  0.83084000  0.78512000  1.0 -0.1563647848
C  C114  1  0.69810000  0.86930000  0.79655000  1.0 0.1479317485
C  C115  1  0.73611000  0.84137000  0.80395000  1.0 -0.1965949894
C  C116  1  0.58872000  0.53357000  0.91967000  1.0 -0.0135222047
C  C117  1  0.61110000  0.58013000  0.88717000  1.0 -0.0993556385
C  C118  1  0.59160000  0.62550000  0.88665000  1.0 -0.1297300245
C  C119  1  0.54870000  0.62270000  0.91811000  1.0 -0.1183450676
C  C120  1  0.52820000  0.57820000  0.95084000  1.0 -0.0993556385
C  C121  1  0.54810000  0.53342000  0.95201000  1.0 -0.1073658074
C  C122  1  0.60874000  0.48350000  0.92036000  1.0 0.6213059786
C  C123  1  0.58980000  0.37550000  0.73986000  1.0 0.0249643166
C  C124  1  0.61500000  0.43780000  0.72395000  1.0 -0.1183450676
C  C125  1  0.61630000  0.44870000  0.67857000  1.0 -0.0616217481
C  C126  1  0.59230000  0.39740000  0.64912000  1.0 -0.0414336801
C  C127  1  0.56710000  0.33520000  0.66501000  1.0 -0.0616217481
C  C128  1  0.56580000  0.32420000  0.71040000  1.0 -0.0706782725
C  C129  1  0.59277000  0.36599000  0.79064000  1.0 0.3892271433
C  C130  1  0.48151000  0.18697000  0.05795000  1.0 -0.0312308966
C  C131  1  0.43750000  0.20420000  0.07267000  1.0 -0.1563647848
C  C132  1  0.38370000  0.16090000  0.09560000  1.0 -0.0993556385
C  C133  1  0.37270000  0.10000000  0.10360000  1.0 -0.0706782725
C  C134  1  0.41460000  0.08190000  0.08820000  1.0 -0.1183450676
C  C135  1  0.46940000  0.12500000  0.06555000  1.0 -0.1428830957
C  C136  1  0.53972000  0.23331000  0.03283000  1.0 0.5147997026
C  C137  1  0.44896000  0.26213000  0.95731000  1.0 0.2543937627
C  C138  1  0.33810000  0.17410000  0.95045000  1.0 -0.049155933
C  C139  1  0.36190000  0.12870000  0.95063000  1.0 -0.4230433043
C  C140  1  0.36510000  0.28920000  0.95079000  1.0 -0.0414336801
C  C141  1  0.32930000  0.29080000  0.99150000  1.0 -0.4027850937
C  C142  1  0.57950000  0.38040000  0.74641000  1.0 0.0249643166
C  C143  1  0.60520000  0.44270000  0.73070000  1.0 -0.1073658074
C  C144  1  0.60050000  0.45360000  0.68590000  1.0 -0.0616217481
C  C145  1  0.57000000  0.40210000  0.65684000  1.0 -0.0312308966
C  C146  1  0.54420000  0.33970000  0.67260000  1.0 -0.0414336801
C  C147  1  0.54890000  0.32880000  0.71740000  1.0 -0.0414336801
C  C148  1  0.06149000  0.78170000  0.68507000  1.0 0.1405156022
C  C149  1  0.08637000  0.74266000  0.67172000  1.0 -0.1746970054
C  C150  1  0.15159000  0.76982000  0.66312000  1.0 -0.0178081218
C  C151  1  0.19237000  0.83500000  0.66844000  1.0 -0.1538594883
C  C152  1  0.16848000  0.87461000  0.68164000  1.0 0.1405156022
C  C153  1  0.10279000  0.84751000  0.68942000  1.0 -0.1898807075
C  C154  1  0.99429000  0.75310000  0.69292000  1.0 -0.0993556385
C  C155  1  0.93752000  0.72710000  0.69836000  1.0 -0.0993556385
C  C156  1  0.17664000  0.72781000  0.64639000  1.0 0.5798353914
C  C157  1  0.21181000  0.94220000  0.68747000  1.0 -0.0875163238
C  C158  1  0.24870000  0.99795000  0.69332000  1.0 -0.0993556385
C  C159  1  0.29000000  0.06534000  0.70083000  1.0 0.1479317485
C  C160  1  0.35390000  0.09114000  0.71300000  1.0 -0.182623349
C  C161  1  0.39140000  0.15660000  0.72009000  1.0 -0.1538594883
C  C162  1  0.36570000  0.19654000  0.71488000  1.0 -0.1563647848
C  C163  1  0.30190000  0.17120000  0.70345000  1.0 0.1479317485
C  C164  1  0.26389000  0.10526000  0.69605000  1.0 -0.1965949894
C  C165  1  0.41128000  0.94485000  0.58033000  1.0 -0.0135222047
C  C166  1  0.38890000  0.96903000  0.61283000  1.0 -0.0993556385
C  C167  1  0.40840000  0.03390000  0.61335000  1.0 -0.1297300245
C  C168  1  0.45130000  0.07400000  0.58189000  1.0 -0.1183450676
C  C169  1  0.47180000  0.05000000  0.54916000  1.0 -0.0993556385
C  C170  1  0.45190000  0.98532000  0.54799000  1.0 -0.1073658074
C  C171  1  0.39126000  0.87476000  0.57964000  1.0 0.6213059786
C  C172  1  0.41020000  0.78570000  0.76014000  1.0 0.0249643166
C  C173  1  0.38500000  0.82280000  0.77605000  1.0 -0.1183450676
C  C174  1  0.38370000  0.83240000  0.82143000  1.0 -0.0616217481
C  C175  1  0.40770000  0.80510000  0.85088000  1.0 -0.0414336801
C  C176  1  0.43290000  0.76810000  0.83499000  1.0 -0.0616217481
C  C177  1  0.43420000  0.75840000  0.78960000  1.0 -0.0706782725
C  C178  1  0.40723000  0.77322000  0.70936000  1.0 0.3892271433
C  C179  1  0.51849000  0.70546000  0.44205000  1.0 -0.0312308966
C  C180  1  0.56250000  0.76670000  0.42733000  1.0 -0.1563647848
C  C181  1  0.61630000  0.77720000  0.40440000  1.0 -0.0993556385
C  C182  1  0.62730000  0.72730000  0.39640000  1.0 -0.0706782725
C  C183  1  0.58540000  0.66730000  0.41180000  1.0 -0.1183450676
C  C184  1  0.53060000  0.65560000  0.43445000  1.0 -0.1428830957
C  C185  1  0.46028000  0.69359000  0.46717000  1.0 0.5147997026
C  C186  1  0.55104000  0.81317000  0.54269000  1.0 0.2557827135
C  C187  1  0.66190000  0.83600000  0.54955000  1.0 -0.049155933
C  C188  1  0.63810000  0.76680000  0.54937000  1.0 -0.4230433043
C  C189  1  0.63490000  0.92410000  0.54921000  1.0 -0.0414336801
C  C190  1  0.67070000  0.96150000  0.50850000  1.0 -0.4027850937
C  C191  1  0.42050000  0.80090000  0.75359000  1.0 0.0249643166
C  C192  1  0.39480000  0.83750000  0.76930000  1.0 -0.1073658074
C  C193  1  0.39950000  0.85310000  0.81410000  1.0 -0.0616217481
C  C194  1  0.43000000  0.83210000  0.84316000  1.0 -0.0312308966
C  C195  1  0.45580000  0.79550000  0.82740000  1.0 -0.0414336801
C  C196  1  0.45110000  0.77990000  0.78260000  1.0 -0.0414336801
C  C197  1  0.21830000  0.27979000  0.68507000  1.0 0.1405156022
C  C198  1  0.25734000  0.34371000  0.67172000  1.0 -0.1746970054
C  C199  1  0.23018000  0.38177000  0.66312000  1.0 -0.0178081218
C  C200  1  0.16500000  0.35737000  0.66844000  1.0 -0.1538594883
C  C201  1  0.12539000  0.29387000  0.68164000  1.0 0.1405156022
C  C202  1  0.15249000  0.25528000  0.68942000  1.0 -0.1898807075
C  C203  1  0.24690000  0.24119000  0.69292000  1.0 -0.0993556385
C  C204  1  0.27290000  0.21042000  0.69836000  1.0 -0.0993556385
C  C205  1  0.27219000  0.44883000  0.64639000  1.0 0.5798353914
C  C206  1  0.05780000  0.26961000  0.68747000  1.0 -0.0875163238
C  C207  1  0.00205000  0.25075000  0.69332000  1.0 -0.0993556385
C  C208  1  0.93466000  0.22466000  0.70083000  1.0 0.1479317485
C  C209  1  0.90886000  0.26276000  0.71300000  1.0 -0.182623349
C  C210  1  0.84340000  0.23480000  0.72009000  1.0 -0.1538594883
C  C211  1  0.80346000  0.16916000  0.71488000  1.0 -0.1563647848
C  C212  1  0.82880000  0.13070000  0.70345000  1.0 0.1479317485
C  C213  1  0.89474000  0.15863000  0.69605000  1.0 -0.1965949894
C  C214  1  0.05515000  0.46643000  0.58033000  1.0 -0.0135222047
C  C215  1  0.03097000  0.41987000  0.61283000  1.0 -0.0993556385
C  C216  1  0.96610000  0.37450000  0.61335000  1.0 -0.1297300245
C  C217  1  0.92600000  0.37730000  0.58189000  1.0 -0.1183450676
C  C218  1  0.95000000  0.42180000  0.54916000  1.0 -0.0993556385
C  C219  1  0.01468000  0.46658000  0.54799000  1.0 -0.1073658074
C  C220  1  0.12524000  0.51650000  0.57964000  1.0 0.6213059786
C  C221  1  0.21430000  0.62450000  0.76014000  1.0 0.0249643166
C  C222  1  0.17720000  0.56220000  0.77605000  1.0 -0.1183450676
C  C223  1  0.16760000  0.55130000  0.82143000  1.0 -0.0616217481
C  C224  1  0.19490000  0.60260000  0.85088000  1.0 -0.0414336801
C  C225  1  0.23190000  0.66480000  0.83499000  1.0 -0.0616217481
C  C226  1  0.24160000  0.67580000  0.78960000  1.0 -0.0706782725
C  C227  1  0.22678000  0.63401000  0.70936000  1.0 0.3892271433
C  C228  1  0.29454000  0.81303000  0.44205000  1.0 -0.0312308966
C  C229  1  0.23330000  0.79580000  0.42733000  1.0 -0.1563647848
C  C230  1  0.22280000  0.83910000  0.40440000  1.0 -0.0993556385
C  C231  1  0.27270000  0.90000000  0.39640000  1.0 -0.0706782725
C  C232  1  0.33270000  0.91810000  0.41180000  1.0 -0.1183450676
C  C233  1  0.34440000  0.87500000  0.43445000  1.0 -0.1428830957
C  C234  1  0.30641000  0.76669000  0.46717000  1.0 0.5147997026
C  C235  1  0.18683000  0.73787000  0.54269000  1.0 0.2557827135
C  C236  1  0.16400000  0.82590000  0.54955000  1.0 -0.049155933
C  C237  1  0.23320000  0.87130000  0.54937000  1.0 -0.4230433043
C  C238  1  0.07590000  0.71080000  0.54921000  1.0 -0.0414336801
C  C239  1  0.03850000  0.70920000  0.50850000  1.0 -0.4027850937
C  C240  1  0.19910000  0.61960000  0.75359000  1.0 0.0249643166
C  C241  1  0.16250000  0.55730000  0.76930000  1.0 -0.1073658074
C  C242  1  0.14690000  0.54640000  0.81410000  1.0 -0.0616217481
C  C243  1  0.16790000  0.59790000  0.84316000  1.0 -0.0312308966
C  C244  1  0.20450000  0.66030000  0.82740000  1.0 -0.0414336801
C  C245  1  0.22010000  0.67120000  0.78260000  1.0 -0.0414336801
C  C246  1  0.72021000  0.93851000  0.68507000  1.0 0.1405156022
C  C247  1  0.65629000  0.91363000  0.67172000  1.0 -0.1746970054
C  C248  1  0.61823000  0.84841000  0.66312000  1.0 -0.0178081218
C  C249  1  0.64263000  0.80763000  0.66844000  1.0 -0.1538594883
C  C250  1  0.70613000  0.83152000  0.68164000  1.0 0.1405156022
C  C251  1  0.74472000  0.89721000  0.68942000  1.0 -0.1898807075
C  C252  1  0.75881000  0.00571000  0.69292000  1.0 -0.0993556385
C  C253  1  0.78958000  0.06248000  0.69836000  1.0 -0.0993556385
C  C254  1  0.55117000  0.82336000  0.64639000  1.0 0.5798353914
C  C255  1  0.73039000  0.78819000  0.68747000  1.0 -0.0875163238
C  C256  1  0.74925000  0.75130000  0.69332000  1.0 -0.0993556385
C  C257  1  0.77534000  0.71000000  0.70083000  1.0 0.1479317485
C  C258  1  0.73724000  0.64610000  0.71300000  1.0 -0.182623349
C  C259  1  0.76520000  0.60860000  0.72009000  1.0 -0.1538594883
C  C260  1  0.83084000  0.63430000  0.71488000  1.0 -0.1563647848
C  C261  1  0.86930000  0.69810000  0.70345000  1.0 0.1479317485
C  C262  1  0.84137000  0.73611000  0.69605000  1.0 -0.1965949894
C  C263  1  0.53357000  0.58872000  0.58033000  1.0 -0.0135222047
C  C264  1  0.58013000  0.61110000  0.61283000  1.0 -0.0993556385
C  C265  1  0.62550000  0.59160000  0.61335000  1.0 -0.1297300245
C  C266  1  0.62270000  0.54870000  0.58189000  1.0 -0.1183450676
C  C267  1  0.57820000  0.52820000  0.54916000  1.0 -0.0993556385
C  C268  1  0.53342000  0.54810000  0.54799000  1.0 -0.1073658074
C  C269  1  0.48350000  0.60874000  0.57964000  1.0 0.6213059786
C  C270  1  0.37550000  0.58980000  0.76014000  1.0 0.0249643166
C  C271  1  0.43780000  0.61500000  0.77605000  1.0 -0.1183450676
C  C272  1  0.44870000  0.61630000  0.82143000  1.0 -0.0616217481
C  C273  1  0.39740000  0.59230000  0.85088000  1.0 -0.0414336801
C  C274  1  0.33520000  0.56710000  0.83499000  1.0 -0.0616217481
C  C275  1  0.32420000  0.56580000  0.78960000  1.0 -0.0706782725
C  C276  1  0.36599000  0.59277000  0.70936000  1.0 0.3892271433
C  C277  1  0.18697000  0.48151000  0.44205000  1.0 -0.0312308966
C  C278  1  0.20420000  0.43750000  0.42733000  1.0 -0.1563647848
C  C279  1  0.16090000  0.38370000  0.40440000  1.0 -0.0993556385
C  C280  1  0.10000000  0.37270000  0.39640000  1.0 -0.0706782725
C  C281  1  0.08190000  0.41460000  0.41180000  1.0 -0.1183450676
C  C282  1  0.12500000  0.46940000  0.43445000  1.0 -0.1428830957
C  C283  1  0.23331000  0.53972000  0.46717000  1.0 0.5147997026
C  C284  1  0.26213000  0.44896000  0.54269000  1.0 0.2557827135
C  C285  1  0.17410000  0.33810000  0.54955000  1.0 -0.049155933
C  C286  1  0.12870000  0.36190000  0.54937000  1.0 -0.4230433043
C  C287  1  0.28920000  0.36510000  0.54921000  1.0 -0.0414336801
C  C288  1  0.29080000  0.32930000  0.50850000  1.0 -0.4027850937
C  C289  1  0.38040000  0.57950000  0.75359000  1.0 0.0249643166
C  C290  1  0.44270000  0.60520000  0.76930000  1.0 -0.1073658074
C  C291  1  0.45360000  0.60050000  0.81410000  1.0 -0.0616217481
C  C292  1  0.40210000  0.57000000  0.84316000  1.0 -0.0312308966
C  C293  1  0.33970000  0.54420000  0.82740000  1.0 -0.0414336801
C  C294  1  0.32880000  0.54890000  0.78260000  1.0 -0.0414336801
C  C295  1  0.21830000  0.93851000  0.18507000  1.0 0.1405156022
C  C296  1  0.25734000  0.91363000  0.17172000  1.0 -0.1746970054
C  C297  1  0.23018000  0.84841000  0.16312000  1.0 -0.0178081218
C  C298  1  0.16500000  0.80763000  0.16844000  1.0 -0.1538594883
C  C299  1  0.12539000  0.83152000  0.18164000  1.0 0.1405156022
C  C300  1  0.15249000  0.89721000  0.18942000  1.0 -0.1898807075
C  C301  1  0.24690000  0.00571000  0.19292000  1.0 -0.0993556385
C  C302  1  0.27290000  0.06248000  0.19836000  1.0 -0.0993556385
C  C303  1  0.27219000  0.82336000  0.14639000  1.0 0.5798353914
C  C304  1  0.05780000  0.78819000  0.18747000  1.0 -0.0875163238
C  C305  1  0.00205000  0.75130000  0.19332000  1.0 -0.0993556385
C  C306  1  0.93466000  0.71000000  0.20083000  1.0 0.1479317485
C  C307  1  0.90886000  0.64610000  0.21300000  1.0 -0.182623349
C  C308  1  0.84340000  0.60860000  0.22009000  1.0 -0.1538594883
C  C309  1  0.80346000  0.63430000  0.21488000  1.0 -0.1563647848
C  C310  1  0.82880000  0.69810000  0.20345000  1.0 0.1479317485
C  C311  1  0.89474000  0.73611000  0.19605000  1.0 -0.1965949894
C  C312  1  0.05515000  0.58872000  0.08033000  1.0 -0.0135222047
C  C313  1  0.03097000  0.61110000  0.11283000  1.0 -0.0993556385
C  C314  1  0.96610000  0.59160000  0.11335000  1.0 -0.1297300245
C  C315  1  0.92600000  0.54870000  0.08189000  1.0 -0.1183450676
C  C316  1  0.95000000  0.52820000  0.04916000  1.0 -0.0993556385
C  C317  1  0.01468000  0.54810000  0.04799000  1.0 -0.1073658074
C  C318  1  0.12524000  0.60874000  0.07964000  1.0 0.6213059786
C  C319  1  0.21430000  0.58980000  0.26014000  1.0 0.0249643166
C  C320  1  0.17720000  0.61500000  0.27605000  1.0 -0.1183450676
C  C321  1  0.16760000  0.61630000  0.32143000  1.0 -0.0616217481
C  C322  1  0.19490000  0.59230000  0.35088000  1.0 -0.0414336801
C  C323  1  0.23190000  0.56710000  0.33499000  1.0 -0.0616217481
C  C324  1  0.24160000  0.56580000  0.28960000  1.0 -0.0706782725
C  C325  1  0.22678000  0.59277000  0.20936000  1.0 0.3892271433
C  C326  1  0.29454000  0.48151000  0.94205000  1.0 -0.0312308966
C  C327  1  0.23330000  0.43750000  0.92733000  1.0 -0.1563647848
C  C328  1  0.22280000  0.38370000  0.90440000  1.0 -0.0993556385
C  C329  1  0.27270000  0.37270000  0.89640000  1.0 -0.0706782725
C  C330  1  0.33270000  0.41460000  0.91180000  1.0 -0.1183450676
C  C331  1  0.34440000  0.46940000  0.93445000  1.0 -0.1428830957
C  C332  1  0.30641000  0.53972000  0.96717000  1.0 0.5159339074
C  C333  1  0.18683000  0.44896000  0.04269000  1.0 0.2557827135
C  C334  1  0.16400000  0.33810000  0.04955000  1.0 -0.049155933
C  C335  1  0.23320000  0.36190000  0.04937000  1.0 -0.4230433043
C  C336  1  0.07590000  0.36510000  0.04921000  1.0 -0.0414336801
C  C337  1  0.03850000  0.32930000  0.00850000  1.0 -0.4027850937
C  C338  1  0.19910000  0.57950000  0.25359000  1.0 0.0249643166
C  C339  1  0.16250000  0.60520000  0.26930000  1.0 -0.1073658074
C  C340  1  0.14690000  0.60050000  0.31410000  1.0 -0.0616217481
C  C341  1  0.16790000  0.57000000  0.34316000  1.0 -0.0312308966
C  C342  1  0.20450000  0.54420000  0.32740000  1.0 -0.0414336801
C  C343  1  0.22010000  0.54890000  0.28260000  1.0 -0.0414336801
C  C344  1  0.72021000  0.78170000  0.18507000  1.0 0.1405156022
C  C345  1  0.65629000  0.74266000  0.17172000  1.0 -0.1746970054
C  C346  1  0.61823000  0.76982000  0.16312000  1.0 -0.0178081218
C  C347  1  0.64263000  0.83500000  0.16844000  1.0 -0.1538594883
C  C348  1  0.70613000  0.87461000  0.18164000  1.0 0.1405156022
C  C349  1  0.74472000  0.84751000  0.18942000  1.0 -0.1898807075
C  C350  1  0.75881000  0.75310000  0.19292000  1.0 -0.0993556385
C  C351  1  0.78958000  0.72710000  0.19836000  1.0 -0.0993556385
C  C352  1  0.55117000  0.72781000  0.14639000  1.0 0.5798353914
C  C353  1  0.73039000  0.94220000  0.18747000  1.0 -0.0875163238
C  C354  1  0.74925000  0.99795000  0.19332000  1.0 -0.0993556385
C  C355  1  0.77534000  0.06534000  0.20083000  1.0 0.1479317485
C  C356  1  0.73724000  0.09114000  0.21300000  1.0 -0.182623349
C  C357  1  0.76520000  0.15660000  0.22009000  1.0 -0.1538594883
C  C358  1  0.83084000  0.19654000  0.21488000  1.0 -0.1563647848
C  C359  1  0.86930000  0.17120000  0.20345000  1.0 0.1479317485
C  C360  1  0.84137000  0.10526000  0.19605000  1.0 -0.1965949894
C  C361  1  0.53357000  0.94485000  0.08033000  1.0 -0.0135222047
C  C362  1  0.58013000  0.96903000  0.11283000  1.0 -0.0993556385
C  C363  1  0.62550000  0.03390000  0.11335000  1.0 -0.1297300245
C  C364  1  0.62270000  0.07400000  0.08189000  1.0 -0.1183450676
C  C365  1  0.57820000  0.05000000  0.04916000  1.0 -0.0993556385
C  C366  1  0.53342000  0.98532000  0.04799000  1.0 -0.1073658074
C  C367  1  0.48350000  0.87476000  0.07964000  1.0 0.6213059786
C  C368  1  0.37550000  0.78570000  0.26014000  1.0 0.0249643166
C  C369  1  0.43780000  0.82280000  0.27605000  1.0 -0.1183450676
C  C370  1  0.44870000  0.83240000  0.32143000  1.0 -0.0616217481
C  C371  1  0.39740000  0.80510000  0.35088000  1.0 -0.0414336801
C  C372  1  0.33520000  0.76810000  0.33499000  1.0 -0.0616217481
C  C373  1  0.32420000  0.75840000  0.28960000  1.0 -0.0706782725
C  C374  1  0.36599000  0.77322000  0.20936000  1.0 0.3892271433
C  C375  1  0.18697000  0.70546000  0.94205000  1.0 -0.0312308966
C  C376  1  0.20420000  0.76670000  0.92733000  1.0 -0.1563647848
C  C377  1  0.16090000  0.77720000  0.90440000  1.0 -0.0993556385
C  C378  1  0.10000000  0.72730000  0.89640000  1.0 -0.0706782725
C  C379  1  0.08190000  0.66730000  0.91180000  1.0 -0.1183450676
C  C380  1  0.12500000  0.65560000  0.93445000  1.0 -0.1428830957
C  C381  1  0.23331000  0.69359000  0.96717000  1.0 0.5159339074
C  C382  1  0.26213000  0.81317000  0.04269000  1.0 0.2557827135
C  C383  1  0.17410000  0.83600000  0.04955000  1.0 -0.049155933
C  C384  1  0.12870000  0.76680000  0.04937000  1.0 -0.4230433043
C  C385  1  0.28920000  0.92410000  0.04921000  1.0 -0.0414336801
C  C386  1  0.29080000  0.96150000  0.00850000  1.0 -0.4027850937
C  C387  1  0.38040000  0.80090000  0.25359000  1.0 0.0249643166
C  C388  1  0.44270000  0.83750000  0.26930000  1.0 -0.1073658074
C  C389  1  0.45360000  0.85310000  0.31410000  1.0 -0.0616217481
C  C390  1  0.40210000  0.83210000  0.34316000  1.0 -0.0312308966
C  C391  1  0.33970000  0.79550000  0.32740000  1.0 -0.0414336801
C  C392  1  0.32880000  0.77990000  0.28260000  1.0 -0.0414336801
C  C393  1  0.06149000  0.27979000  0.18507000  1.0 0.1405156022
C  C394  1  0.08637000  0.34371000  0.17172000  1.0 -0.1746970054
C  C395  1  0.15159000  0.38177000  0.16312000  1.0 -0.0178081218
C  C396  1  0.19237000  0.35737000  0.16844000  1.0 -0.1538594883
C  C397  1  0.16848000  0.29387000  0.18164000  1.0 0.1405156022
C  C398  1  0.10279000  0.25528000  0.18942000  1.0 -0.1898807075
C  C399  1  0.99429000  0.24119000  0.19292000  1.0 -0.0993556385
C  C400  1  0.93752000  0.21042000  0.19836000  1.0 -0.0993556385
C  C401  1  0.17664000  0.44883000  0.14639000  1.0 0.5798353914
C  C402  1  0.21181000  0.26961000  0.18747000  1.0 -0.0875163238
C  C403  1  0.24870000  0.25075000  0.19332000  1.0 -0.0993556385
C  C404  1  0.29000000  0.22466000  0.20083000  1.0 0.1479317485
C  C405  1  0.35390000  0.26276000  0.21300000  1.0 -0.182623349
C  C406  1  0.39140000  0.23480000  0.22009000  1.0 -0.1538594883
C  C407  1  0.36570000  0.16916000  0.21488000  1.0 -0.1563647848
C  C408  1  0.30190000  0.13070000  0.20345000  1.0 0.1479317485
C  C409  1  0.26389000  0.15863000  0.19605000  1.0 -0.1965949894
C  C410  1  0.41128000  0.46643000  0.08033000  1.0 -0.0135222047
C  C411  1  0.38890000  0.41987000  0.11283000  1.0 -0.0993556385
C  C412  1  0.40840000  0.37450000  0.11335000  1.0 -0.1297300245
C  C413  1  0.45130000  0.37730000  0.08189000  1.0 -0.1183450676
C  C414  1  0.47180000  0.42180000  0.04916000  1.0 -0.0993556385
C  C415  1  0.45190000  0.46658000  0.04799000  1.0 -0.1073658074
C  C416  1  0.39126000  0.51650000  0.07964000  1.0 0.6213059786
C  C417  1  0.41020000  0.62450000  0.26014000  1.0 0.0249643166
C  C418  1  0.38500000  0.56220000  0.27605000  1.0 -0.1183450676
C  C419  1  0.38370000  0.55130000  0.32143000  1.0 -0.0616217481
C  C420  1  0.40770000  0.60260000  0.35088000  1.0 -0.0414336801
C  C421  1  0.43290000  0.66480000  0.33499000  1.0 -0.0616217481
C  C422  1  0.43420000  0.67580000  0.28960000  1.0 -0.0706782725
C  C423  1  0.40723000  0.63401000  0.20936000  1.0 0.3892271433
C  C424  1  0.51849000  0.81303000  0.94205000  1.0 -0.0312308966
C  C425  1  0.56250000  0.79580000  0.92733000  1.0 -0.1563647848
C  C426  1  0.61630000  0.83910000  0.90440000  1.0 -0.0993556385
C  C427  1  0.62730000  0.90000000  0.89640000  1.0 -0.0706782725
C  C428  1  0.58540000  0.91810000  0.91180000  1.0 -0.1183450676
C  C429  1  0.53060000  0.87500000  0.93445000  1.0 -0.1428830957
C  C430  1  0.46028000  0.76669000  0.96717000  1.0 0.5159339074
C  C431  1  0.55104000  0.73787000  0.04269000  1.0 0.2557827135
C  C432  1  0.66190000  0.82590000  0.04955000  1.0 -0.049155933
C  C433  1  0.63810000  0.87130000  0.04937000  1.0 -0.4230433043
C  C434  1  0.63490000  0.71080000  0.04921000  1.0 -0.0414336801
C  C435  1  0.67070000  0.70920000  0.00850000  1.0 -0.4027850937
C  C436  1  0.42050000  0.61960000  0.25359000  1.0 0.0249643166
C  C437  1  0.39480000  0.55730000  0.26930000  1.0 -0.1073658074
C  C438  1  0.39950000  0.54640000  0.31410000  1.0 -0.0616217481
C  C439  1  0.43000000  0.59790000  0.34316000  1.0 -0.0312308966
C  C440  1  0.45580000  0.66030000  0.32740000  1.0 -0.0414336801
C  C441  1  0.45110000  0.67120000  0.28260000  1.0 -0.0414336801
C  C442  1  0.93851000  0.21830000  0.31493000  1.0 0.1405156022
C  C443  1  0.91363000  0.25734000  0.32828000  1.0 -0.1746970054
C  C444  1  0.84841000  0.23018000  0.33688000  1.0 -0.0178081218
C  C445  1  0.80763000  0.16500000  0.33156000  1.0 -0.1538594883
C  C446  1  0.83152000  0.12539000  0.31836000  1.0 0.1405156022
C  C447  1  0.89721000  0.15249000  0.31058000  1.0 -0.1898807075
C  C448  1  0.00571000  0.24690000  0.30708000  1.0 -0.0993556385
C  C449  1  0.06248000  0.27290000  0.30164000  1.0 -0.0993556385
C  C450  1  0.82336000  0.27219000  0.35361000  1.0 0.5798353914
C  C451  1  0.78819000  0.05780000  0.31253000  1.0 -0.0875163238
C  C452  1  0.75130000  0.00205000  0.30668000  1.0 -0.0993556385
C  C453  1  0.71000000  0.93466000  0.29917000  1.0 0.1479317485
C  C454  1  0.64610000  0.90886000  0.28700000  1.0 -0.182623349
C  C455  1  0.60860000  0.84340000  0.27991000  1.0 -0.1538594883
C  C456  1  0.63430000  0.80346000  0.28512000  1.0 -0.1563647848
C  C457  1  0.69810000  0.82880000  0.29655000  1.0 0.1479317485
C  C458  1  0.73611000  0.89474000  0.30395000  1.0 -0.1965949894
C  C459  1  0.58872000  0.05515000  0.41967000  1.0 -0.0135222047
C  C460  1  0.61110000  0.03097000  0.38717000  1.0 -0.0993556385
C  C461  1  0.59160000  0.96610000  0.38665000  1.0 -0.1297300245
C  C462  1  0.54870000  0.92600000  0.41811000  1.0 -0.1183450676
C  C463  1  0.52820000  0.95000000  0.45084000  1.0 -0.0993556385
C  C464  1  0.54810000  0.01468000  0.45201000  1.0 -0.1073658074
C  C465  1  0.60874000  0.12524000  0.42036000  1.0 0.6213059786
C  C466  1  0.58980000  0.21430000  0.23986000  1.0 0.0249643166
C  C467  1  0.61500000  0.17720000  0.22395000  1.0 -0.1183450676
C  C468  1  0.61630000  0.16760000  0.17857000  1.0 -0.0616217481
C  C469  1  0.59230000  0.19490000  0.14912000  1.0 -0.0414336801
C  C470  1  0.56710000  0.23190000  0.16501000  1.0 -0.0616217481
C  C471  1  0.56580000  0.24160000  0.21040000  1.0 -0.0706782725
C  C472  1  0.59277000  0.22678000  0.29064000  1.0 0.3892271433
C  C473  1  0.48151000  0.29454000  0.55795000  1.0 -0.0312308966
C  C474  1  0.43750000  0.23330000  0.57267000  1.0 -0.1563647848
C  C475  1  0.38370000  0.22280000  0.59560000  1.0 -0.0993556385
C  C476  1  0.37270000  0.27270000  0.60360000  1.0 -0.0706782725
C  C477  1  0.41460000  0.33270000  0.58820000  1.0 -0.1183450676
C  C478  1  0.46940000  0.34440000  0.56555000  1.0 -0.1428830957
C  C479  1  0.53972000  0.30641000  0.53283000  1.0 0.5159339074
C  C480  1  0.44896000  0.18683000  0.45731000  1.0 0.2557827135
C  C481  1  0.33810000  0.16400000  0.45045000  1.0 -0.049155933
C  C482  1  0.36190000  0.23320000  0.45063000  1.0 -0.4230433043
C  C483  1  0.36510000  0.07590000  0.45079000  1.0 -0.0414336801
C  C484  1  0.32930000  0.03850000  0.49150000  1.0 -0.4027850937
C  C485  1  0.57950000  0.19910000  0.24641000  1.0 0.0249643166
C  C486  1  0.60520000  0.16250000  0.23070000  1.0 -0.1073658074
C  C487  1  0.60050000  0.14690000  0.18590000  1.0 -0.0616217481
C  C488  1  0.57000000  0.16790000  0.15684000  1.0 -0.0312308966
C  C489  1  0.54420000  0.20450000  0.17260000  1.0 -0.0414336801
C  C490  1  0.54890000  0.22010000  0.21740000  1.0 -0.0414336801
C  C491  1  0.78170000  0.72021000  0.31493000  1.0 0.1405156022
C  C492  1  0.74266000  0.65629000  0.32828000  1.0 -0.1746970054
C  C493  1  0.76982000  0.61823000  0.33688000  1.0 -0.0178081218
C  C494  1  0.83500000  0.64263000  0.33156000  1.0 -0.1538594883
C  C495  1  0.87461000  0.70613000  0.31836000  1.0 0.1405156022
C  C496  1  0.84751000  0.74472000  0.31058000  1.0 -0.1898807075
C  C497  1  0.75310000  0.75881000  0.30708000  1.0 -0.0993556385
C  C498  1  0.72710000  0.78958000  0.30164000  1.0 -0.0993556385
C  C499  1  0.72781000  0.55117000  0.35361000  1.0 0.5798353914
C  C500  1  0.94220000  0.73039000  0.31253000  1.0 -0.0875163238
C  C501  1  0.99795000  0.74925000  0.30668000  1.0 -0.0993556385
C  C502  1  0.06534000  0.77534000  0.29917000  1.0 0.1479317485
C  C503  1  0.09114000  0.73724000  0.28700000  1.0 -0.182623349
C  C504  1  0.15660000  0.76520000  0.27991000  1.0 -0.1563647848
C  C505  1  0.19654000  0.83084000  0.28512000  1.0 -0.1563647848
C  C506  1  0.17120000  0.86930000  0.29655000  1.0 0.1479317485
C  C507  1  0.10526000  0.84137000  0.30395000  1.0 -0.1965949894
C  C508  1  0.94485000  0.53357000  0.41967000  1.0 -0.0135222047
C  C509  1  0.96903000  0.58013000  0.38717000  1.0 -0.0993556385
C  C510  1  0.03390000  0.62550000  0.38665000  1.0 -0.1297300245
C  C511  1  0.07400000  0.62270000  0.41811000  1.0 -0.1183450676
C  C512  1  0.05000000  0.57820000  0.45084000  1.0 -0.0993556385
C  C513  1  0.98532000  0.53342000  0.45201000  1.0 -0.1073658074
C  C514  1  0.87476000  0.48350000  0.42036000  1.0 0.6213059786
C  C515  1  0.78570000  0.37550000  0.23986000  1.0 0.0249643166
C  C516  1  0.82280000  0.43780000  0.22395000  1.0 -0.1183450676
C  C517  1  0.83240000  0.44870000  0.17857000  1.0 -0.0616217481
C  C518  1  0.80510000  0.39740000  0.14912000  1.0 -0.0414336801
C  C519  1  0.76810000  0.33520000  0.16501000  1.0 -0.0616217481
C  C520  1  0.75840000  0.32420000  0.21040000  1.0 -0.0706782725
C  C521  1  0.77322000  0.36599000  0.29064000  1.0 0.3892271433
C  C522  1  0.70546000  0.18697000  0.55795000  1.0 -0.0312308966
C  C523  1  0.76670000  0.20420000  0.57267000  1.0 -0.1563647848
C  C524  1  0.77720000  0.16090000  0.59560000  1.0 -0.0993556385
C  C525  1  0.72730000  0.10000000  0.60360000  1.0 -0.0706782725
C  C526  1  0.66730000  0.08190000  0.58820000  1.0 -0.1183450676
C  C527  1  0.65560000  0.12500000  0.56555000  1.0 -0.1428830957
C  C528  1  0.69359000  0.23331000  0.53283000  1.0 0.5159339074
C  C529  1  0.81317000  0.26213000  0.45731000  1.0 0.2557827135
C  C530  1  0.83600000  0.17410000  0.45045000  1.0 -0.049155933
C  C531  1  0.76680000  0.12870000  0.45063000  1.0 -0.4230433043
C  C532  1  0.92410000  0.28920000  0.45079000  1.0 -0.0414336801
C  C533  1  0.96150000  0.29080000  0.49150000  1.0 -0.4027850937
C  C534  1  0.80090000  0.38040000  0.24641000  1.0 0.0249643166
C  C535  1  0.83750000  0.44270000  0.23070000  1.0 -0.1073658074
C  C536  1  0.85310000  0.45360000  0.18590000  1.0 -0.0616217481
C  C537  1  0.83210000  0.40210000  0.15684000  1.0 -0.0312308966
C  C538  1  0.79550000  0.33970000  0.17260000  1.0 -0.0414336801
C  C539  1  0.77990000  0.32880000  0.21740000  1.0 -0.0414336801
C  C540  1  0.27979000  0.06149000  0.31493000  1.0 0.1405156022
C  C541  1  0.34371000  0.08637000  0.32828000  1.0 -0.1746970054
C  C542  1  0.38177000  0.15159000  0.33688000  1.0 -0.0178081218
C  C543  1  0.35737000  0.19237000  0.33156000  1.0 -0.1538594883
C  C544  1  0.29387000  0.16848000  0.31836000  1.0 0.1405156022
C  C545  1  0.25528000  0.10279000  0.31058000  1.0 -0.1898807075
C  C546  1  0.24119000  0.99429000  0.30708000  1.0 -0.0993556385
C  C547  1  0.21042000  0.93752000  0.30164000  1.0 -0.0993556385
C  C548  1  0.44883000  0.17664000  0.35361000  1.0 0.5798353914
C  C549  1  0.26961000  0.21181000  0.31253000  1.0 -0.0875163238
C  C550  1  0.25075000  0.24870000  0.30668000  1.0 -0.0993556385
C  C551  1  0.22466000  0.29000000  0.29917000  1.0 0.1479317485
C  C552  1  0.26276000  0.35390000  0.28700000  1.0 -0.182623349
C  C553  1  0.23480000  0.39140000  0.27991000  1.0 -0.1538594883
C  C554  1  0.16916000  0.36570000  0.28512000  1.0 -0.1563647848
C  C555  1  0.13070000  0.30190000  0.29655000  1.0 0.1479317485
C  C556  1  0.15863000  0.26389000  0.30395000  1.0 -0.1965949894
C  C557  1  0.46643000  0.41128000  0.41967000  1.0 -0.0135222047
C  C558  1  0.41987000  0.38890000  0.38717000  1.0 -0.0993556385
C  C559  1  0.37450000  0.40840000  0.38665000  1.0 -0.1297300245
C  C560  1  0.37730000  0.45130000  0.41811000  1.0 -0.1183450676
C  C561  1  0.42180000  0.47180000  0.45084000  1.0 -0.0993556385
C  C562  1  0.46658000  0.45190000  0.45201000  1.0 -0.1073658074
C  C563  1  0.51650000  0.39126000  0.42036000  1.0 0.6213059786
C  C564  1  0.62450000  0.41020000  0.23986000  1.0 0.0249643166
C  C565  1  0.56220000  0.38500000  0.22395000  1.0 -0.1183450676
C  C566  1  0.55130000  0.38370000  0.17857000  1.0 -0.0616217481
C  C567  1  0.60260000  0.40770000  0.14912000  1.0 -0.0414336801
C  C568  1  0.66480000  0.43290000  0.16501000  1.0 -0.0616217481
C  C569  1  0.67580000  0.43420000  0.21040000  1.0 -0.0706782725
C  C570  1  0.63401000  0.40723000  0.29064000  1.0 0.3892271433
C  C571  1  0.81303000  0.51849000  0.55795000  1.0 -0.0312308966
C  C572  1  0.79580000  0.56250000  0.57267000  1.0 -0.1563647848
C  C573  1  0.83910000  0.61630000  0.59560000  1.0 -0.0993556385
C  C574  1  0.90000000  0.62730000  0.60360000  1.0 -0.0706782725
C  C575  1  0.91810000  0.58540000  0.58820000  1.0 -0.1183450676
C  C576  1  0.87500000  0.53060000  0.56555000  1.0 -0.1428830957
C  C577  1  0.76669000  0.46028000  0.53283000  1.0 0.5159339074
C  C578  1  0.73787000  0.55104000  0.45731000  1.0 0.2557827135
C  C579  1  0.82590000  0.66190000  0.45045000  1.0 -0.049155933
C  C580  1  0.87130000  0.63810000  0.45063000  1.0 -0.4230433043
C  C581  1  0.71080000  0.63490000  0.45079000  1.0 -0.0414336801
C  C582  1  0.70920000  0.67070000  0.49150000  1.0 -0.4027850937
C  C583  1  0.61960000  0.42050000  0.24641000  1.0 0.0249643166
C  C584  1  0.55730000  0.39480000  0.23070000  1.0 -0.1073658074
C  C585  1  0.54640000  0.39950000  0.18590000  1.0 -0.0616217481
C  C586  1  0.59790000  0.43000000  0.15684000  1.0 -0.0312308966
C  C587  1  0.66030000  0.45580000  0.17260000  1.0 -0.0414336801
C  C588  1  0.67120000  0.45110000  0.21740000  1.0 -0.0414336801
N  N1  1  0.85535000  0.61239000  0.95370000  1.0 -0.0414336801
N  N2  1  0.75704000  0.14465000  0.95370000  1.0 -0.0414336801
N  N3  1  0.38761000  0.24296000  0.95370000  1.0 -0.0414336801
N  N4  1  0.61239000  0.85535000  0.54630000  1.0 -0.0414336801
N  N5  1  0.14465000  0.75704000  0.54630000  1.0 -0.0414336801
N  N6  1  0.24296000  0.38761000  0.54630000  1.0 -0.0414336801
N  N7  1  0.14465000  0.38761000  0.04630000  1.0 -0.0414336801
N  N8  1  0.24296000  0.85535000  0.04630000  1.0 -0.0414336801
N  N9  1  0.61239000  0.75704000  0.04630000  1.0 -0.0414336801
N  N10  1  0.38761000  0.14465000  0.45370000  1.0 -0.0414336801
N  N11  1  0.85535000  0.24296000  0.45370000  1.0 -0.0414336801
N  N12  1  0.75704000  0.61239000  0.45370000  1.0 -0.0414336801
O  O1  1  0.75910000  0.23643000  0.86554000  1.0 -0.6691830393
O  O2  1  0.66936000  0.14080000  0.85630000  1.0 -0.4922260827
O  O3  1  0.72832000  0.31334000  0.93851000  1.0 -1.1627758976
O  O4  1  0.77151000  0.41590000  0.89231000  1.0 -1.0535496509
O  O5  1  0.84049000  0.35340000  0.89012000  1.0 -0.5987373229
O  O6  1  0.85577000  0.41389000  0.95076000  1.0 -0.5987373229
O  O7  1  0.78893000  0.37299000  0.81384000  1.0 -0.5584720409
O  O8  1  0.74319000  0.43363000  0.80449000  1.0 -0.5288302537
O  O9  1  0.74161000  0.45503000  0.02238000  1.0 -0.5987373229
O  O10  1  0.63551000  0.42058000  0.02282000  1.0 -0.6148455378
O  O11  1  0.82815000  0.50847000  0.95957000  1.0 -0.5398906704
O  O12  1  0.47733000  0.24090000  0.86554000  1.0 -0.6691830393
O  O13  1  0.47144000  0.33064000  0.85630000  1.0 -0.4922260827
O  O14  1  0.58502000  0.27168000  0.93851000  1.0 -1.1627758976
O  O15  1  0.64439000  0.22849000  0.89231000  1.0 -1.0535496509
O  O16  1  0.51291000  0.15951000  0.89012000  1.0 -0.5987373229
O  O17  1  0.55812000  0.14423000  0.95076000  1.0 -0.5987373229
O  O18  1  0.58406000  0.21107000  0.81384000  1.0 -0.5584720409
O  O19  1  0.69044000  0.25681000  0.80449000  1.0 -0.5288302537
O  O20  1  0.71342000  0.25839000  0.02238000  1.0 -0.5987373229
O  O21  1  0.78507000  0.36449000  0.02282000  1.0 -0.6148455378
O  O22  1  0.68032000  0.17185000  0.95957000  1.0 -0.5398906704
O  O23  1  0.76357000  0.52267000  0.86554000  1.0 -0.6691830393
O  O24  1  0.85920000  0.52856000  0.85630000  1.0 -0.4922260827
O  O25  1  0.68666000  0.41498000  0.93851000  1.0 -1.1627758976
O  O26  1  0.58410000  0.35561000  0.89231000  1.0 -1.0535496509
O  O27  1  0.64660000  0.48709000  0.89012000  1.0 -0.5987373229
O  O28  1  0.58611000  0.44188000  0.95076000  1.0 -0.5987373229
O  O29  1  0.62701000  0.41594000  0.81384000  1.0 -0.5584720409
O  O30  1  0.56637000  0.30956000  0.80449000  1.0 -0.5288302537
O  O31  1  0.54497000  0.28658000  0.02238000  1.0 -0.5987373229
O  O32  1  0.57942000  0.21493000  0.02282000  1.0 -0.6148455378
O  O33  1  0.49153000  0.31968000  0.95957000  1.0 -0.5398906704
O  O34  1  0.66666667  0.33333333  0.85858000  1.0 -1.1212792035
O  O35  1  0.66666667  0.33333333  0.99694000  1.0 -1.039656454
O  O36  1  0.23643000  0.75910000  0.63446000  1.0 -0.6691830393
O  O37  1  0.14080000  0.66936000  0.64370000  1.0 -0.4922260827
O  O38  1  0.31334000  0.72832000  0.56149000  1.0 -1.1627758976
O  O39  1  0.41590000  0.77151000  0.60769000  1.0 -1.0535496509
O  O40  1  0.35340000  0.84049000  0.60988000  1.0 -0.5987373229
O  O41  1  0.41389000  0.85577000  0.54924000  1.0 -0.5987373229
O  O42  1  0.37299000  0.78893000  0.68616000  1.0 -0.5584720409
O  O43  1  0.43363000  0.74319000  0.69551000  1.0 -0.5288302537
O  O44  1  0.45503000  0.74161000  0.47762000  1.0 -0.5987373229
O  O45  1  0.42058000  0.63551000  0.47718000  1.0 -0.6148455378
O  O46  1  0.50847000  0.82815000  0.54043000  1.0 -0.5398906704
O  O47  1  0.24090000  0.47733000  0.63446000  1.0 -0.6691830393
O  O48  1  0.33064000  0.47144000  0.64370000  1.0 -0.4922260827
O  O49  1  0.27168000  0.58502000  0.56149000  1.0 -1.1627758976
O  O50  1  0.22849000  0.64439000  0.60769000  1.0 -1.0535496509
O  O51  1  0.15951000  0.51291000  0.60988000  1.0 -0.5987373229
O  O52  1  0.14423000  0.55812000  0.54924000  1.0 -0.5987373229
O  O53  1  0.21107000  0.58406000  0.68616000  1.0 -0.5584720409
O  O54  1  0.25681000  0.69044000  0.69551000  1.0 -0.5288302537
O  O55  1  0.25839000  0.71342000  0.47762000  1.0 -0.5987373229
O  O56  1  0.36449000  0.78507000  0.47718000  1.0 -0.6148455378
O  O57  1  0.17185000  0.68032000  0.54043000  1.0 -0.5398906704
O  O58  1  0.52267000  0.76357000  0.63446000  1.0 -0.6691830393
O  O59  1  0.52856000  0.85920000  0.64370000  1.0 -0.4922260827
O  O60  1  0.41498000  0.68666000  0.56149000  1.0 -1.1627758976
O  O61  1  0.35561000  0.58410000  0.60769000  1.0 -1.0535496509
O  O62  1  0.48709000  0.64660000  0.60988000  1.0 -0.5987373229
O  O63  1  0.44188000  0.58611000  0.54924000  1.0 -0.5987373229
O  O64  1  0.41594000  0.62701000  0.68616000  1.0 -0.5584720409
O  O65  1  0.30956000  0.56637000  0.69551000  1.0 -0.5288302537
O  O66  1  0.28658000  0.54497000  0.47762000  1.0 -0.5987373229
O  O67  1  0.21493000  0.57942000  0.47718000  1.0 -0.6148455378
O  O68  1  0.31968000  0.49153000  0.54043000  1.0 -0.5398906704
O  O69  1  0.33333333  0.66666667  0.64142000  1.0 -1.1212792035
O  O70  1  0.33333333  0.66666667  0.50306000  1.0 -1.039656454
O  O71  1  0.24090000  0.76357000  0.13446000  1.0 -0.6691830393
O  O72  1  0.33064000  0.85920000  0.14370000  1.0 -0.4922260827
O  O73  1  0.27168000  0.68666000  0.06149000  1.0 -1.1627758976
O  O74  1  0.22849000  0.58410000  0.10769000  1.0 -1.0535496509
O  O75  1  0.15951000  0.64660000  0.10988000  1.0 -0.5987373229
O  O76  1  0.14423000  0.58611000  0.04924000  1.0 -0.5987373229
O  O77  1  0.21107000  0.62701000  0.18616000  1.0 -0.5584720409
O  O78  1  0.25681000  0.56637000  0.19551000  1.0 -0.5288302537
O  O79  1  0.25839000  0.54497000  0.97762000  1.0 -0.5987373229
O  O80  1  0.36449000  0.57942000  0.97718000  1.0 -0.6148455378
O  O81  1  0.17185000  0.49153000  0.04043000  1.0 -0.5398906704
O  O82  1  0.52267000  0.75910000  0.13446000  1.0 -0.6691830393
O  O83  1  0.52856000  0.66936000  0.14370000  1.0 -0.4922260827
O  O84  1  0.41498000  0.72832000  0.06149000  1.0 -1.1627758976
O  O85  1  0.35561000  0.77151000  0.10769000  1.0 -1.0535496509
O  O86  1  0.48709000  0.84049000  0.10988000  1.0 -0.5987373229
O  O87  1  0.44188000  0.85577000  0.04924000  1.0 -0.5987373229
O  O88  1  0.41594000  0.78893000  0.18616000  1.0 -0.5584720409
O  O89  1  0.30956000  0.74319000  0.19551000  1.0 -0.5288302537
O  O90  1  0.28658000  0.74161000  0.97762000  1.0 -0.5987373229
O  O91  1  0.21493000  0.63551000  0.97718000  1.0 -0.6148455378
O  O92  1  0.31968000  0.82815000  0.04043000  1.0 -0.5398906704
O  O93  1  0.23643000  0.47733000  0.13446000  1.0 -0.6691830393
O  O94  1  0.14080000  0.47144000  0.14370000  1.0 -0.4922260827
O  O95  1  0.31334000  0.58502000  0.06149000  1.0 -1.1627758976
O  O96  1  0.41590000  0.64439000  0.10769000  1.0 -1.0535496509
O  O97  1  0.35340000  0.51291000  0.10988000  1.0 -0.5987373229
O  O98  1  0.41389000  0.55812000  0.04924000  1.0 -0.5987373229
O  O99  1  0.37299000  0.58406000  0.18616000  1.0 -0.5584720409
O  O100  1  0.43363000  0.69044000  0.19551000  1.0 -0.5288302537
O  O101  1  0.45503000  0.71342000  0.97762000  1.0 -0.5987373229
O  O102  1  0.42058000  0.78507000  0.97718000  1.0 -0.6148455378
O  O103  1  0.50847000  0.68032000  0.04043000  1.0 -0.5398906704
O  O104  1  0.33333333  0.66666667  0.14142000  1.0 -1.1212792035
O  O105  1  0.33333333  0.66666667  0.00306000  1.0 -1.039656454
O  O106  1  0.76357000  0.24090000  0.36554000  1.0 -0.6691830393
O  O107  1  0.85920000  0.33064000  0.35630000  1.0 -0.4922260827
O  O108  1  0.68666000  0.27168000  0.43851000  1.0 -1.1627758976
O  O109  1  0.58410000  0.22849000  0.39231000  1.0 -1.0535496509
O  O110  1  0.64660000  0.15951000  0.39012000  1.0 -0.5987373229
O  O111  1  0.58611000  0.14423000  0.45076000  1.0 -0.5987373229
O  O112  1  0.62701000  0.21107000  0.31384000  1.0 -0.5584720409
O  O113  1  0.56637000  0.25681000  0.30449000  1.0 -0.5288302537
O  O114  1  0.54497000  0.25839000  0.52238000  1.0 -0.5987373229
O  O115  1  0.57942000  0.36449000  0.52282000  1.0 -0.6148455378
O  O116  1  0.49153000  0.17185000  0.45957000  1.0 -0.5398906704
O  O117  1  0.75910000  0.52267000  0.36554000  1.0 -0.6691830393
O  O118  1  0.66936000  0.52856000  0.35630000  1.0 -0.4922260827
O  O119  1  0.72832000  0.41498000  0.43851000  1.0 -1.1627758976
O  O120  1  0.77151000  0.35561000  0.39231000  1.0 -1.0535496509
O  O121  1  0.84049000  0.48709000  0.39012000  1.0 -0.5987373229
O  O122  1  0.85577000  0.44188000  0.45076000  1.0 -0.5987373229
O  O123  1  0.78893000  0.41594000  0.31384000  1.0 -0.5584720409
O  O124  1  0.74319000  0.30956000  0.30449000  1.0 -0.5288302537
O  O125  1  0.74161000  0.28658000  0.52238000  1.0 -0.5987373229
O  O126  1  0.63551000  0.21493000  0.52282000  1.0 -0.6148455378
O  O127  1  0.82815000  0.31968000  0.45957000  1.0 -0.5398906704
O  O128  1  0.47733000  0.23643000  0.36554000  1.0 -0.6691830393
O  O129  1  0.47144000  0.14080000  0.35630000  1.0 -0.4922260827
O  O130  1  0.58502000  0.31334000  0.43851000  1.0 -1.1627758976
O  O131  1  0.64439000  0.41590000  0.39231000  1.0 -1.0535496509
O  O132  1  0.51291000  0.35340000  0.39012000  1.0 -0.5987373229
O  O133  1  0.55812000  0.41389000  0.45076000  1.0 -0.5987373229
O  O134  1  0.58406000  0.37299000  0.31384000  1.0 -0.5584720409
O  O135  1  0.69044000  0.43363000  0.30449000  1.0 -0.5288302537
O  O136  1  0.71342000  0.45503000  0.52238000  1.0 -0.5987373229
O  O137  1  0.78507000  0.42058000  0.52282000  1.0 -0.6148455378
O  O138  1  0.68032000  0.50847000  0.45957000  1.0 -0.5398906704
O  O139  1  0.66666667  0.33333333  0.35858000  1.0 -1.1212792035
O  O140  1  0.66666667  0.33333333  0.49694000  1.0 -1.039656454
